MODEL 1
REMARK VINA RESULT:     -11.1      0.000      0.000
REMARK SMILES O=C(OCCOCCOCCOC(=O)c1ccc([C@@H]2CC(O)=Nc3c2ncn3-c2cccc(Cl)c2)cc1)c1ccc(-c2c3nc(c(-c4cc(S(=O)(=O)[O-])ccc4F)c4ccc([nH]4)c(-c4cc(S(=O)(=O)[O-])ccc4F)c4nc(c(-c5cc(S(=O)(=O)[O-])ccc5F)c5ccc2[nH]5)C=C4)C=C3)cc1
REMARK SMILES IDX 7 1 6 2 5 3 4 4 3 5 2 6 1 7 38 8 39 9 100 10 40 11 99 12
REMARK SMILES IDX 41 13 42 14 43 15 93 16 44 17 98 18 92 19 94 20 45 21 97 22
REMARK SMILES IDX 91 23 90 24 46 26 78 27 58 28 77 29 59 30 62 31 76 32 95 33
REMARK SMILES IDX 60 34 61 35 75 37 96 38 63 39 47 40 48 41 56 42 49 43 55 44
REMARK SMILES IDX 57 45 54 46 50 47 51 48 52 49 53 50 79 51 80 52 88 53 81 54
REMARK SMILES IDX 87 55 89 56 86 57 82 58 83 59 84 60 85 61 64 62 65 63 73 64
REMARK SMILES IDX 66 65 72 66 74 67 71 68 67 69 68 70 69 71 70 72 8 73 9 74
REMARK SMILES IDX 10 75 11 76 12 77 13 78 14 79 15 80 16 81 37 82 17 83 36 84
REMARK SMILES IDX 18 85 19 86 20 87 25 88 21 89 24 90 26 91 23 92 28 93 27 94
REMARK SMILES IDX 22 95 29 97 30 98 35 99 31 100 33 101 32 102 34 103
REMARK H PARENT 94 25 62 36 22 96
REMARK Flexibility Score: inf
ROOT
ATOM      1  C   UNL A   1      45.131  19.730  24.564  1.00  0.00     0.188 C 
ENDROOT
BRANCH   1   2
ATOM      2  O   UNL A   1      44.746  21.030  24.147  1.00  0.00    -0.376 OA
BRANCH   2   3
ATOM      3  C   UNL A   1      44.657  22.032  25.141  1.00  0.00     0.202 C 
BRANCH   3   4
ATOM      4  C   UNL A   1      44.459  23.472  24.646  1.00  0.00     0.261 C 
BRANCH   4   5
ATOM      5  O   UNL A   1      43.959  24.401  25.625  1.00  0.00    -0.460 OA
BRANCH   5   6
ATOM      6  C   UNL A   1      42.991  25.334  25.607  1.00  0.00     0.338 C 
ATOM      7  O   UNL A   1      42.049  25.172  24.829  1.00  0.00    -0.246 OA
BRANCH   6   8
ATOM      8  C   UNL A   1      43.028  26.599  26.387  1.00  0.00     0.060 A 
ATOM      9  C   UNL A   1      43.795  26.841  27.528  1.00  0.00     0.016 A 
ATOM     10  C   UNL A   1      42.183  27.625  25.916  1.00  0.00     0.016 A 
ATOM     11  C   UNL A   1      43.636  28.017  28.247  1.00  0.00     0.010 A 
ATOM     12  C   UNL A   1      42.026  28.805  26.625  1.00  0.00     0.010 A 
ATOM     13  C   UNL A   1      42.710  28.967  27.825  1.00  0.00    -0.014 A 
BRANCH  13  14
ATOM     14  C   UNL A   1      42.519  30.148  28.654  1.00  0.00     0.031 A 
ATOM     15  C   UNL A   1      43.596  31.165  28.575  1.00  0.00     0.074 A 
ATOM     16  C   UNL A   1      41.388  30.355  29.356  1.00  0.00     0.049 A 
ATOM     17  N   UNL A   1      44.336  31.620  29.532  1.00  0.00    -0.248 NA
ATOM     18  C   UNL A   1      43.978  31.652  27.242  1.00  0.00     0.031 C 
ATOM     19  C   UNL A   1      40.168  29.548  29.312  1.00  0.00     0.029 A 
ATOM     20  N   UNL A   1      41.043  31.404  30.157  1.00  0.00    -0.354 N 
ATOM     21  C   UNL A   1      45.106  32.633  28.966  1.00  0.00     0.074 A 
ATOM     22  C   UNL A   1      44.981  32.475  27.542  1.00  0.00     0.031 C 
ATOM     23  C   UNL A   1      39.152  30.255  29.850  1.00  0.00     0.029 A 
ATOM     24  C   UNL A   1      39.673  31.508  30.374  1.00  0.00     0.049 A 
ATOM     25  H   UNL A   1      41.700  32.026  30.545  1.00  0.00     0.167 HD
ATOM     26  C   UNL A   1      45.568  33.669  29.718  1.00  0.00     0.034 A 
ATOM     27  C   UNL A   1      38.993  32.578  30.860  1.00  0.00     0.034 A 
ATOM     28  C   UNL A   1      45.619  33.312  31.123  1.00  0.00     0.049 A 
ATOM     29  C   UNL A   1      39.955  33.409  31.622  1.00  0.00     0.074 A 
ATOM     30  C   UNL A   1      46.203  32.277  31.833  1.00  0.00     0.029 A 
ATOM     31  N   UNL A   1      44.715  33.880  31.997  1.00  0.00    -0.354 N 
ATOM     32  N   UNL A   1      40.518  33.023  32.734  1.00  0.00    -0.248 NA
ATOM     33  C   UNL A   1      40.639  34.493  30.932  1.00  0.00     0.031 C 
ATOM     34  C   UNL A   1      45.275  31.963  32.867  1.00  0.00     0.029 A 
ATOM     35  C   UNL A   1      44.216  32.868  32.778  1.00  0.00     0.049 A 
ATOM     36  H   UNL A   1      44.474  34.832  32.050  1.00  0.00     0.167 HD
ATOM     37  C   UNL A   1      41.821  33.488  32.658  1.00  0.00     0.074 A 
ATOM     38  C   UNL A   1      41.801  34.485  31.589  1.00  0.00     0.031 C 
ATOM     39  C   UNL A   1      42.850  32.820  33.262  1.00  0.00     0.034 A 
BRANCH  26  40
ATOM     40  C   UNL A   1      45.569  35.114  29.245  1.00  0.00     0.023 A 
ATOM     41  C   UNL A   1      44.319  35.665  28.911  1.00  0.00     0.031 A 
ATOM     42  C   UNL A   1      46.693  35.841  28.790  1.00  0.00     0.131 A 
ATOM     43  C   UNL A   1      44.221  36.734  28.006  1.00  0.00     0.055 A 
ATOM     44  C   UNL A   1      46.589  36.958  27.953  1.00  0.00     0.041 A 
ATOM     45  F   UNL A   1      47.954  35.485  29.054  1.00  0.00    -0.206 F 
ATOM     46  C   UNL A   1      45.348  37.380  27.512  1.00  0.00     0.022 A 
BRANCH  43  47
ATOM     47  S   UNL A   1      42.590  37.089  27.307  1.00  0.00     0.124 S 
ATOM     48  O   UNL A   1      41.789  37.220  28.519  1.00  0.00    -0.237 OA
ATOM     49  O   UNL A   1      42.848  38.321  26.567  1.00  0.00    -0.237 OA
ATOM     50  O   UNL A   1      42.310  35.913  26.488  1.00  0.00    -0.744 OA
ENDBRANCH  43  47
ENDBRANCH  26  40
BRANCH  27  51
ATOM     51  C   UNL A   1      37.631  33.025  30.462  1.00  0.00     0.023 A 
ATOM     52  C   UNL A   1      36.606  33.269  31.399  1.00  0.00     0.031 A 
ATOM     53  C   UNL A   1      37.376  33.430  29.130  1.00  0.00     0.131 A 
ATOM     54  C   UNL A   1      35.395  33.874  30.987  1.00  0.00     0.055 A 
ATOM     55  C   UNL A   1      36.170  34.005  28.725  1.00  0.00     0.041 A 
ATOM     56  F   UNL A   1      38.326  33.361  28.184  1.00  0.00    -0.206 F 
ATOM     57  C   UNL A   1      35.174  34.237  29.656  1.00  0.00     0.022 A 
BRANCH  54  58
ATOM     58  S   UNL A   1      34.119  34.308  32.213  1.00  0.00     0.124 S 
ATOM     59  O   UNL A   1      33.865  33.029  32.864  1.00  0.00    -0.237 OA
ATOM     60  O   UNL A   1      34.789  35.326  33.017  1.00  0.00    -0.237 OA
ATOM     61  O   UNL A   1      33.017  34.811  31.392  1.00  0.00    -0.744 OA
ENDBRANCH  54  58
ENDBRANCH  27  51
BRANCH  39  62
ATOM     62  C   UNL A   1      42.530  31.789  34.324  1.00  0.00     0.023 A 
ATOM     63  C   UNL A   1      42.347  30.410  34.080  1.00  0.00     0.031 A 
ATOM     64  C   UNL A   1      42.517  32.218  35.664  1.00  0.00     0.131 A 
ATOM     65  C   UNL A   1      42.140  29.524  35.154  1.00  0.00     0.055 A 
ATOM     66  C   UNL A   1      42.332  31.336  36.727  1.00  0.00     0.041 A 
ATOM     67  F   UNL A   1      42.719  33.512  35.969  1.00  0.00    -0.206 F 
ATOM     68  C   UNL A   1      42.134  29.985  36.475  1.00  0.00     0.022 A 
BRANCH  65  69
ATOM     69  S   UNL A   1      41.857  27.750  34.855  1.00  0.00     0.124 S 
ATOM     70  O   UNL A   1      43.108  27.296  34.260  1.00  0.00    -0.237 OA
ATOM     71  O   UNL A   1      41.567  27.250  36.196  1.00  0.00    -0.237 OA
ATOM     72  O   UNL A   1      40.711  27.741  33.944  1.00  0.00    -0.744 OA
ENDBRANCH  65  69
ENDBRANCH  39  62
ENDBRANCH  13  14
ENDBRANCH   6   8
ENDBRANCH   5   6
ENDBRANCH   4   5
ENDBRANCH   3   4
ENDBRANCH   2   3
ENDBRANCH   1   2
BRANCH   1  73
ATOM     73  C   UNL A   1      43.998  18.950  25.270  1.00  0.00     0.188 C 
BRANCH  73  74
ATOM     74  O   UNL A   1      42.626  19.241  25.019  1.00  0.00    -0.376 OA
BRANCH  74  75
ATOM     75  C   UNL A   1      41.685  19.168  26.073  1.00  0.00     0.202 C 
BRANCH  75  76
ATOM     76  C   UNL A   1      41.142  20.484  26.641  1.00  0.00     0.261 C 
BRANCH  76  77
ATOM     77  O   UNL A   1      39.829  20.858  26.191  1.00  0.00    -0.460 OA
BRANCH  77  78
ATOM     78  C   UNL A   1      39.559  22.180  26.200  1.00  0.00     0.338 C 
ATOM     79  O   UNL A   1      40.351  23.105  26.375  1.00  0.00    -0.246 OA
BRANCH  78  80
ATOM     80  C   UNL A   1      38.139  22.421  25.899  1.00  0.00     0.060 A 
ATOM     81  C   UNL A   1      37.364  21.369  25.403  1.00  0.00     0.016 A 
ATOM     82  C   UNL A   1      37.604  23.707  25.981  1.00  0.00     0.016 A 
ATOM     83  C   UNL A   1      36.063  21.605  24.965  1.00  0.00     0.005 A 
ATOM     84  C   UNL A   1      36.305  23.946  25.512  1.00  0.00     0.005 A 
ATOM     85  C   UNL A   1      35.532  22.905  24.962  1.00  0.00    -0.038 A 
BRANCH  85  86
ATOM     86  C   UNL A   1      34.218  23.140  24.245  1.00  0.00     0.081 C 
ATOM     87  C   UNL A   1      34.337  22.994  22.714  1.00  0.00     0.111 C 
ATOM     88  C   UNL A   1      33.660  24.470  24.584  1.00  0.00     0.093 A 
ATOM     89  C   UNL A   1      33.223  23.719  21.980  1.00  0.00     0.188 C 
ATOM     90  C   UNL A   1      32.807  25.086  23.689  1.00  0.00     0.164 A 
ATOM     91  N   UNL A   1      33.790  25.187  25.736  1.00  0.00    -0.238 NA
ATOM     92  N   UNL A   1      32.507  24.704  22.420  1.00  0.00    -0.198 NA
ATOM     93  N   UNL A   1      32.352  26.219  24.339  1.00  0.00    -0.283 N 
ATOM     94  C   UNL A   1      33.019  26.243  25.550  1.00  0.00     0.206 A 
BRANCH  89  95
ATOM     95  O   UNL A   1      33.048  23.311  20.708  1.00  0.00    -0.496 OA
ATOM     96  H   UNL A   1      33.749  23.389  20.091  1.00  0.00     0.294 HD
ENDBRANCH  89  95
BRANCH  93  97
ATOM     97  C   UNL A   1      31.391  27.154  23.878  1.00  0.00     0.050 A 
ATOM     98  C   UNL A   1      31.802  28.378  23.336  1.00  0.00     0.027 A 
ATOM     99  C   UNL A   1      30.024  26.855  23.975  1.00  0.00     0.047 A 
ATOM    100  C   UNL A   1      30.847  29.281  22.861  1.00  0.00     0.004 A 
ATOM    101  C   UNL A   1      29.081  27.781  23.535  1.00  0.00     0.043 A 
ATOM    102  C   UNL A   1      29.487  28.986  22.965  1.00  0.00     0.020 A 
ATOM    103  Cl  UNL A   1      27.402  27.438  23.705  1.00  0.00    -0.084 Cl
ENDBRANCH  93  97
ENDBRANCH  85  86
ENDBRANCH  78  80
ENDBRANCH  77  78
ENDBRANCH  76  77
ENDBRANCH  75  76
ENDBRANCH  74  75
ENDBRANCH  73  74
ENDBRANCH   1  73
TORSDOF 23
ENDMDL
MODEL 2
REMARK VINA RESULT:     -10.8      1.708      2.241
REMARK SMILES O=C(OCCOCCOCCOC(=O)c1ccc([C@@H]2CC(O)=Nc3c2ncn3-c2cccc(Cl)c2)cc1)c1ccc(-c2c3nc(c(-c4cc(S(=O)(=O)[O-])ccc4F)c4ccc([nH]4)c(-c4cc(S(=O)(=O)[O-])ccc4F)c4nc(c(-c5cc(S(=O)(=O)[O-])ccc5F)c5ccc2[nH]5)C=C4)C=C3)cc1
REMARK SMILES IDX 7 1 6 2 5 3 4 4 3 5 2 6 1 7 38 8 39 9 100 10 40 11 99 12
REMARK SMILES IDX 41 13 42 14 43 15 93 16 44 17 98 18 92 19 94 20 45 21 97 22
REMARK SMILES IDX 91 23 90 24 46 26 78 27 58 28 77 29 59 30 62 31 76 32 95 33
REMARK SMILES IDX 60 34 61 35 75 37 96 38 63 39 47 40 48 41 56 42 49 43 55 44
REMARK SMILES IDX 57 45 54 46 50 47 51 48 52 49 53 50 79 51 80 52 88 53 81 54
REMARK SMILES IDX 87 55 89 56 86 57 82 58 83 59 84 60 85 61 64 62 65 63 73 64
REMARK SMILES IDX 66 65 72 66 74 67 71 68 67 69 68 70 69 71 70 72 8 73 9 74
REMARK SMILES IDX 10 75 11 76 12 77 13 78 14 79 15 80 16 81 37 82 17 83 36 84
REMARK SMILES IDX 18 85 19 86 20 87 25 88 21 89 24 90 26 91 23 92 28 93 27 94
REMARK SMILES IDX 22 95 29 97 30 98 35 99 31 100 33 101 32 102 34 103
REMARK H PARENT 94 25 62 36 22 96
REMARK Flexibility Score: inf
ROOT
ATOM      1  C   UNL A   1      43.544  19.601  25.059  1.00  0.00     0.188 C 
ENDROOT
BRANCH   1   2
ATOM      2  O   UNL A   1      44.520  20.371  25.743  1.00  0.00    -0.376 OA
BRANCH   2   3
ATOM      3  C   UNL A   1      44.626  21.739  25.399  1.00  0.00     0.202 C 
BRANCH   3   4
ATOM      4  C   UNL A   1      43.420  22.361  24.681  1.00  0.00     0.261 C 
BRANCH   4   5
ATOM      5  O   UNL A   1      42.808  23.476  25.352  1.00  0.00    -0.460 OA
BRANCH   5   6
ATOM      6  C   UNL A   1      42.283  23.644  26.579  1.00  0.00     0.338 C 
ATOM      7  O   UNL A   1      41.969  22.636  27.215  1.00  0.00    -0.246 OA
BRANCH   6   8
ATOM      8  C   UNL A   1      41.961  24.965  27.182  1.00  0.00     0.060 A 
ATOM      9  C   UNL A   1      41.039  25.891  26.692  1.00  0.00     0.016 A 
ATOM     10  C   UNL A   1      42.688  25.291  28.346  1.00  0.00     0.016 A 
ATOM     11  C   UNL A   1      40.931  27.149  27.268  1.00  0.00     0.010 A 
ATOM     12  C   UNL A   1      42.577  26.542  28.931  1.00  0.00     0.010 A 
ATOM     13  C   UNL A   1      41.742  27.488  28.347  1.00  0.00    -0.014 A 
BRANCH  13  14
ATOM     14  C   UNL A   1      41.652  28.845  28.867  1.00  0.00     0.031 A 
ATOM     15  C   UNL A   1      42.664  29.797  28.347  1.00  0.00     0.074 A 
ATOM     16  C   UNL A   1      40.648  29.237  29.676  1.00  0.00     0.049 A 
ATOM     17  N   UNL A   1      43.537  30.477  29.015  1.00  0.00    -0.248 NA
ATOM     18  C   UNL A   1      42.800  29.920  26.889  1.00  0.00     0.031 C 
ATOM     19  C   UNL A   1      39.466  28.458  30.048  1.00  0.00     0.029 A 
ATOM     20  N   UNL A   1      40.405  30.460  30.229  1.00  0.00    -0.354 N 
ATOM     21  C   UNL A   1      44.165  31.302  28.086  1.00  0.00     0.074 A 
ATOM     22  C   UNL A   1      43.809  30.783  26.792  1.00  0.00     0.031 C 
ATOM     23  C   UNL A   1      38.531  29.290  30.554  1.00  0.00     0.029 A 
ATOM     24  C   UNL A   1      39.088  30.630  30.642  1.00  0.00     0.049 A 
ATOM     25  H   UNL A   1      41.096  31.156  30.326  1.00  0.00     0.167 HD
ATOM     26  C   UNL A   1      44.711  32.493  28.458  1.00  0.00     0.034 A 
ATOM     27  C   UNL A   1      38.462  31.796  30.948  1.00  0.00     0.034 A 
ATOM     28  C   UNL A   1      45.009  32.510  29.877  1.00  0.00     0.049 A 
ATOM     29  C   UNL A   1      39.509  32.786  31.296  1.00  0.00     0.074 A 
ATOM     30  C   UNL A   1      45.740  31.687  30.717  1.00  0.00     0.029 A 
ATOM     31  N   UNL A   1      44.245  33.292  30.718  1.00  0.00    -0.354 N 
ATOM     32  N   UNL A   1      40.264  32.695  32.356  1.00  0.00    -0.248 NA
ATOM     33  C   UNL A   1      40.029  33.649  30.245  1.00  0.00     0.031 C 
ATOM     34  C   UNL A   1      45.009  31.660  31.940  1.00  0.00     0.029 A 
ATOM     35  C   UNL A   1      43.919  32.521  31.805  1.00  0.00     0.049 A 
ATOM     36  H   UNL A   1      43.983  34.228  30.566  1.00  0.00     0.167 HD
ATOM     37  C   UNL A   1      41.518  33.112  31.941  1.00  0.00     0.074 A 
ATOM     38  C   UNL A   1      41.284  33.799  30.673  1.00  0.00     0.031 C 
ATOM     39  C   UNL A   1      42.656  32.612  32.512  1.00  0.00     0.034 A 
BRANCH  26  40
ATOM     40  C   UNL A   1      44.581  33.767  27.638  1.00  0.00     0.023 A 
ATOM     41  C   UNL A   1      44.504  34.972  28.359  1.00  0.00     0.031 A 
ATOM     42  C   UNL A   1      44.197  33.848  26.279  1.00  0.00     0.131 A 
ATOM     43  C   UNL A   1      43.880  36.103  27.809  1.00  0.00     0.055 A 
ATOM     44  C   UNL A   1      43.651  35.004  25.711  1.00  0.00     0.041 A 
ATOM     45  F   UNL A   1      44.250  32.810  25.438  1.00  0.00    -0.206 F 
ATOM     46  C   UNL A   1      43.440  36.126  26.491  1.00  0.00     0.022 A 
BRANCH  43  47
ATOM     47  S   UNL A   1      43.440  37.447  28.938  1.00  0.00     0.124 S 
ATOM     48  O   UNL A   1      42.136  37.838  28.413  1.00  0.00    -0.237 OA
ATOM     49  O   UNL A   1      43.438  36.760  30.227  1.00  0.00    -0.237 OA
ATOM     50  O   UNL A   1      44.516  38.415  28.746  1.00  0.00    -0.744 OA
ENDBRANCH  43  47
ENDBRANCH  26  40
BRANCH  27  51
ATOM     51  C   UNL A   1      37.038  32.138  30.687  1.00  0.00     0.023 A 
ATOM     52  C   UNL A   1      36.213  32.748  31.654  1.00  0.00     0.031 A 
ATOM     53  C   UNL A   1      36.514  32.055  29.375  1.00  0.00     0.131 A 
ATOM     54  C   UNL A   1      34.930  33.226  31.296  1.00  0.00     0.055 A 
ATOM     55  C   UNL A   1      35.239  32.507  29.033  1.00  0.00     0.041 A 
ATOM     56  F   UNL A   1      37.260  31.608  28.352  1.00  0.00    -0.206 F 
ATOM     57  C   UNL A   1      34.442  33.102  29.993  1.00  0.00     0.022 A 
BRANCH  54  58
ATOM     58  S   UNL A   1      33.912  34.128  32.508  1.00  0.00     0.124 S 
ATOM     59  O   UNL A   1      34.915  34.855  33.277  1.00  0.00    -0.237 OA
ATOM     60  O   UNL A   1      33.042  34.929  31.653  1.00  0.00    -0.237 OA
ATOM     61  O   UNL A   1      33.230  33.060  33.240  1.00  0.00    -0.744 OA
ENDBRANCH  54  58
ENDBRANCH  27  51
BRANCH  39  62
ATOM     62  C   UNL A   1      42.555  31.894  33.840  1.00  0.00     0.023 A 
ATOM     63  C   UNL A   1      42.323  30.508  33.992  1.00  0.00     0.031 A 
ATOM     64  C   UNL A   1      42.815  32.640  35.005  1.00  0.00     0.131 A 
ATOM     65  C   UNL A   1      42.336  29.927  35.274  1.00  0.00     0.055 A 
ATOM     66  C   UNL A   1      42.846  32.057  36.271  1.00  0.00     0.041 A 
ATOM     67  F   UNL A   1      43.078  33.956  34.928  1.00  0.00    -0.206 F 
ATOM     68  C   UNL A   1      42.598  30.698  36.412  1.00  0.00     0.022 A 
BRANCH  65  69
ATOM     69  S   UNL A   1      41.993  28.152  35.492  1.00  0.00     0.124 S 
ATOM     70  O   UNL A   1      43.236  27.507  35.087  1.00  0.00    -0.237 OA
ATOM     71  O   UNL A   1      41.663  28.070  36.913  1.00  0.00    -0.237 OA
ATOM     72  O   UNL A   1      40.862  27.914  34.594  1.00  0.00    -0.744 OA
ENDBRANCH  65  69
ENDBRANCH  39  62
ENDBRANCH  13  14
ENDBRANCH   6   8
ENDBRANCH   5   6
ENDBRANCH   4   5
ENDBRANCH   3   4
ENDBRANCH   2   3
ENDBRANCH   1   2
BRANCH   1  73
ATOM     73  C   UNL A   1      42.376  19.145  25.964  1.00  0.00     0.188 C 
BRANCH  73  74
ATOM     74  O   UNL A   1      41.352  20.049  26.369  1.00  0.00    -0.376 OA
BRANCH  74  75
ATOM     75  C   UNL A   1      40.052  19.934  25.823  1.00  0.00     0.202 C 
BRANCH  75  76
ATOM     76  C   UNL A   1      39.072  21.090  26.056  1.00  0.00     0.261 C 
BRANCH  76  77
ATOM     77  O   UNL A   1      38.242  21.433  24.933  1.00  0.00    -0.460 OA
BRANCH  77  78
ATOM     78  C   UNL A   1      37.066  20.776  24.849  1.00  0.00     0.338 C 
ATOM     79  O   UNL A   1      36.879  19.563  24.932  1.00  0.00    -0.246 OA
BRANCH  78  80
ATOM     80  C   UNL A   1      35.952  21.726  24.699  1.00  0.00     0.060 A 
ATOM     81  C   UNL A   1      34.646  21.233  24.640  1.00  0.00     0.016 A 
ATOM     82  C   UNL A   1      36.200  23.083  24.488  1.00  0.00     0.016 A 
ATOM     83  C   UNL A   1      33.588  22.090  24.344  1.00  0.00     0.005 A 
ATOM     84  C   UNL A   1      35.136  23.936  24.163  1.00  0.00     0.005 A 
ATOM     85  C   UNL A   1      33.823  23.443  24.049  1.00  0.00    -0.038 A 
BRANCH  85  86
ATOM     86  C   UNL A   1      32.677  24.263  23.492  1.00  0.00     0.081 C 
ATOM     87  C   UNL A   1      32.854  24.601  21.998  1.00  0.00     0.111 C 
ATOM     88  C   UNL A   1      32.486  25.507  24.273  1.00  0.00     0.093 A 
ATOM     89  C   UNL A   1      32.037  25.812  21.582  1.00  0.00     0.188 C 
ATOM     90  C   UNL A   1      31.901  26.598  23.661  1.00  0.00     0.164 A 
ATOM     91  N   UNL A   1      32.731  25.737  25.593  1.00  0.00    -0.238 NA
ATOM     92  N   UNL A   1      31.593  26.757  22.347  1.00  0.00    -0.198 NA
ATOM     93  N   UNL A   1      31.733  27.534  24.666  1.00  0.00    -0.283 N 
ATOM     94  C   UNL A   1      32.298  26.968  25.795  1.00  0.00     0.206 A 
BRANCH  89  95
ATOM     95  O   UNL A   1      31.843  25.912  20.252  1.00  0.00    -0.496 OA
ATOM     96  H   UNL A   1      31.085  25.527  19.859  1.00  0.00     0.294 HD
ENDBRANCH  89  95
BRANCH  93  97
ATOM     97  C   UNL A   1      31.102  28.800  24.573  1.00  0.00     0.050 A 
ATOM     98  C   UNL A   1      30.132  29.034  23.591  1.00  0.00     0.027 A 
ATOM     99  C   UNL A   1      31.460  29.825  25.461  1.00  0.00     0.047 A 
ATOM    100  C   UNL A   1      29.498  30.278  23.526  1.00  0.00     0.004 A 
ATOM    101  C   UNL A   1      30.849  31.073  25.360  1.00  0.00     0.043 A 
ATOM    102  C   UNL A   1      29.860  31.299  24.406  1.00  0.00     0.020 A 
ATOM    103  Cl  UNL A   1      31.328  32.347  26.415  1.00  0.00    -0.084 Cl
ENDBRANCH  93  97
ENDBRANCH  85  86
ENDBRANCH  78  80
ENDBRANCH  77  78
ENDBRANCH  76  77
ENDBRANCH  75  76
ENDBRANCH  74  75
ENDBRANCH  73  74
ENDBRANCH   1  73
TORSDOF 23
ENDMDL
MODEL 3
REMARK VINA RESULT:     -10.7      5.286     12.870
REMARK SMILES O=C(OCCOCCOCCOC(=O)c1ccc([C@@H]2CC(O)=Nc3c2ncn3-c2cccc(Cl)c2)cc1)c1ccc(-c2c3nc(c(-c4cc(S(=O)(=O)[O-])ccc4F)c4ccc([nH]4)c(-c4cc(S(=O)(=O)[O-])ccc4F)c4nc(c(-c5cc(S(=O)(=O)[O-])ccc5F)c5ccc2[nH]5)C=C4)C=C3)cc1
REMARK SMILES IDX 7 1 6 2 5 3 4 4 3 5 2 6 1 7 38 8 39 9 100 10 40 11 99 12
REMARK SMILES IDX 41 13 42 14 43 15 93 16 44 17 98 18 92 19 94 20 45 21 97 22
REMARK SMILES IDX 91 23 90 24 46 26 78 27 58 28 77 29 59 30 62 31 76 32 95 33
REMARK SMILES IDX 60 34 61 35 75 37 96 38 63 39 47 40 48 41 56 42 49 43 55 44
REMARK SMILES IDX 57 45 54 46 50 47 51 48 52 49 53 50 79 51 80 52 88 53 81 54
REMARK SMILES IDX 87 55 89 56 86 57 82 58 83 59 84 60 85 61 64 62 65 63 73 64
REMARK SMILES IDX 66 65 72 66 74 67 71 68 67 69 68 70 69 71 70 72 8 73 9 74
REMARK SMILES IDX 10 75 11 76 12 77 13 78 14 79 15 80 16 81 37 82 17 83 36 84
REMARK SMILES IDX 18 85 19 86 20 87 25 88 21 89 24 90 26 91 23 92 28 93 27 94
REMARK SMILES IDX 22 95 29 97 30 98 35 99 31 100 33 101 32 102 34 103
REMARK H PARENT 94 25 62 36 22 96
REMARK Flexibility Score: inf
ROOT
ATOM      1  C   UNL A   1      35.557  34.553  32.510  1.00  0.00     0.188 C 
ENDROOT
BRANCH   1   2
ATOM      2  O   UNL A   1      34.470  34.232  31.656  1.00  0.00    -0.376 OA
BRANCH   2   3
ATOM      3  C   UNL A   1      34.678  34.360  30.263  1.00  0.00     0.202 C 
BRANCH   3   4
ATOM      4  C   UNL A   1      34.259  33.164  29.395  1.00  0.00     0.261 C 
BRANCH   4   5
ATOM      5  O   UNL A   1      35.233  32.727  28.431  1.00  0.00    -0.460 OA
BRANCH   5   6
ATOM      6  C   UNL A   1      35.694  31.518  28.063  1.00  0.00     0.338 C 
ATOM      7  O   UNL A   1      35.024  30.867  27.259  1.00  0.00    -0.246 OA
BRANCH   6   8
ATOM      8  C   UNL A   1      36.902  30.869  28.636  1.00  0.00     0.060 A 
ATOM      9  C   UNL A   1      38.018  31.522  29.160  1.00  0.00     0.016 A 
ATOM     10  C   UNL A   1      36.898  29.459  28.615  1.00  0.00     0.016 A 
ATOM     11  C   UNL A   1      39.143  30.802  29.537  1.00  0.00     0.010 A 
ATOM     12  C   UNL A   1      38.014  28.734  28.999  1.00  0.00     0.010 A 
ATOM     13  C   UNL A   1      39.157  29.417  29.399  1.00  0.00    -0.014 A 
BRANCH  13  14
ATOM     14  C   UNL A   1      40.387  28.712  29.732  1.00  0.00     0.031 A 
ATOM     15  C   UNL A   1      40.649  28.533  31.180  1.00  0.00     0.074 A 
ATOM     16  C   UNL A   1      41.172  28.159  28.787  1.00  0.00     0.049 A 
ATOM     17  N   UNL A   1      41.667  28.942  31.863  1.00  0.00    -0.248 NA
ATOM     18  C   UNL A   1      39.588  27.925  31.996  1.00  0.00     0.031 C 
ATOM     19  C   UNL A   1      40.884  28.056  27.356  1.00  0.00     0.029 A 
ATOM     20  N   UNL A   1      42.333  27.455  28.926  1.00  0.00    -0.354 N 
ATOM     21  C   UNL A   1      41.495  28.425  33.144  1.00  0.00     0.074 A 
ATOM     22  C   UNL A   1      40.130  27.980  33.212  1.00  0.00     0.031 C 
ATOM     23  C   UNL A   1      41.707  27.138  26.806  1.00  0.00     0.029 A 
ATOM     24  C   UNL A   1      42.644  26.676  27.817  1.00  0.00     0.049 A 
ATOM     25  H   UNL A   1      42.896  27.495  29.733  1.00  0.00     0.167 HD
ATOM     26  C   UNL A   1      42.564  28.171  33.950  1.00  0.00     0.034 A 
ATOM     27  C   UNL A   1      43.541  25.658  27.748  1.00  0.00     0.034 A 
ATOM     28  C   UNL A   1      43.718  28.952  33.548  1.00  0.00     0.049 A 
ATOM     29  C   UNL A   1      44.513  25.845  28.852  1.00  0.00     0.074 A 
ATOM     30  C   UNL A   1      43.942  30.303  33.342  1.00  0.00     0.029 A 
ATOM     31  N   UNL A   1      44.789  28.318  32.954  1.00  0.00    -0.354 N 
ATOM     32  N   UNL A   1      45.359  26.836  28.908  1.00  0.00    -0.248 NA
ATOM     33  C   UNL A   1      44.259  25.182  30.123  1.00  0.00     0.031 C 
ATOM     34  C   UNL A   1      44.822  30.369  32.224  1.00  0.00     0.029 A 
ATOM     35  C   UNL A   1      45.145  29.062  31.857  1.00  0.00     0.049 A 
ATOM     36  H   UNL A   1      45.217  27.487  33.260  1.00  0.00     0.167 HD
ATOM     37  C   UNL A   1      45.399  27.200  30.244  1.00  0.00     0.074 A 
ATOM     38  C   UNL A   1      44.800  26.074  30.957  1.00  0.00     0.031 C 
ATOM     39  C   UNL A   1      45.644  28.491  30.621  1.00  0.00     0.034 A 
BRANCH  26  40
ATOM     40  C   UNL A   1      42.685  26.927  34.815  1.00  0.00     0.023 A 
ATOM     41  C   UNL A   1      43.531  25.910  34.337  1.00  0.00     0.031 A 
ATOM     42  C   UNL A   1      41.802  26.543  35.851  1.00  0.00     0.131 A 
ATOM     43  C   UNL A   1      43.340  24.573  34.721  1.00  0.00     0.055 A 
ATOM     44  C   UNL A   1      41.673  25.220  36.290  1.00  0.00     0.041 A 
ATOM     45  F   UNL A   1      40.961  27.392  36.450  1.00  0.00    -0.206 F 
ATOM     46  C   UNL A   1      42.407  24.216  35.687  1.00  0.00     0.022 A 
BRANCH  43  47
ATOM     47  S   UNL A   1      44.171  23.297  33.743  1.00  0.00     0.124 S 
ATOM     48  O   UNL A   1      44.216  22.197  34.701  1.00  0.00    -0.237 OA
ATOM     49  O   UNL A   1      43.251  23.140  32.621  1.00  0.00    -0.237 OA
ATOM     50  O   UNL A   1      45.458  23.905  33.418  1.00  0.00    -0.744 OA
ENDBRANCH  43  47
ENDBRANCH  26  40
BRANCH  27  51
ATOM     51  C   UNL A   1      43.418  24.414  26.940  1.00  0.00     0.023 A 
ATOM     52  C   UNL A   1      42.458  23.419  27.217  1.00  0.00     0.031 A 
ATOM     53  C   UNL A   1      44.128  24.283  25.723  1.00  0.00     0.131 A 
ATOM     54  C   UNL A   1      42.257  22.353  26.309  1.00  0.00     0.055 A 
ATOM     55  C   UNL A   1      43.942  23.217  24.843  1.00  0.00     0.041 A 
ATOM     56  F   UNL A   1      44.973  25.237  25.301  1.00  0.00    -0.206 F 
ATOM     57  C   UNL A   1      42.998  22.248  25.130  1.00  0.00     0.022 A 
BRANCH  54  58
ATOM     58  S   UNL A   1      40.932  21.136  26.598  1.00  0.00     0.124 S 
ATOM     59  O   UNL A   1      41.469  19.937  25.967  1.00  0.00    -0.237 OA
ATOM     60  O   UNL A   1      40.834  21.117  28.054  1.00  0.00    -0.237 OA
ATOM     61  O   UNL A   1      39.777  21.725  25.918  1.00  0.00    -0.744 OA
ENDBRANCH  54  58
ENDBRANCH  27  51
BRANCH  39  62
ATOM     62  C   UNL A   1      46.242  29.448  29.611  1.00  0.00     0.023 A 
ATOM     63  C   UNL A   1      45.495  30.244  28.714  1.00  0.00     0.031 A 
ATOM     64  C   UNL A   1      47.636  29.636  29.639  1.00  0.00     0.131 A 
ATOM     65  C   UNL A   1      46.150  31.167  27.877  1.00  0.00     0.055 A 
ATOM     66  C   UNL A   1      48.279  30.564  28.823  1.00  0.00     0.041 A 
ATOM     67  F   UNL A   1      48.402  28.935  30.493  1.00  0.00    -0.206 F 
ATOM     68  C   UNL A   1      47.538  31.329  27.931  1.00  0.00     0.022 A 
BRANCH  65  69
ATOM     69  S   UNL A   1      45.207  32.169  26.683  1.00  0.00     0.124 S 
ATOM     70  O   UNL A   1      43.823  32.001  27.107  1.00  0.00    -0.237 OA
ATOM     71  O   UNL A   1      45.779  33.500  26.873  1.00  0.00    -0.237 OA
ATOM     72  O   UNL A   1      45.529  31.550  25.396  1.00  0.00    -0.744 OA
ENDBRANCH  65  69
ENDBRANCH  39  62
ENDBRANCH  13  14
ENDBRANCH   6   8
ENDBRANCH   5   6
ENDBRANCH   4   5
ENDBRANCH   3   4
ENDBRANCH   2   3
ENDBRANCH   1   2
BRANCH   1  73
ATOM     73  C   UNL A   1      36.236  33.312  33.133  1.00  0.00     0.188 C 
BRANCH  73  74
ATOM     74  O   UNL A   1      36.667  32.216  32.329  1.00  0.00    -0.376 OA
BRANCH  74  75
ATOM     75  C   UNL A   1      37.156  31.040  32.943  1.00  0.00     0.202 C 
BRANCH  75  76
ATOM     76  C   UNL A   1      38.259  31.188  33.997  1.00  0.00     0.261 C 
BRANCH  76  77
ATOM     77  O   UNL A   1      39.583  31.411  33.481  1.00  0.00    -0.460 OA
BRANCH  77  78
ATOM     78  C   UNL A   1      39.978  32.700  33.415  1.00  0.00     0.338 C 
ATOM     79  O   UNL A   1      39.464  33.669  33.971  1.00  0.00    -0.246 OA
BRANCH  78  80
ATOM     80  C   UNL A   1      41.201  32.825  32.607  1.00  0.00     0.060 A 
ATOM     81  C   UNL A   1      42.253  33.609  33.088  1.00  0.00     0.016 A 
ATOM     82  C   UNL A   1      41.263  32.281  31.323  1.00  0.00     0.016 A 
ATOM     83  C   UNL A   1      43.357  33.871  32.280  1.00  0.00     0.005 A 
ATOM     84  C   UNL A   1      42.362  32.570  30.503  1.00  0.00     0.005 A 
ATOM     85  C   UNL A   1      43.404  33.401  30.957  1.00  0.00    -0.038 A 
BRANCH  85  86
ATOM     86  C   UNL A   1      44.500  33.924  30.050  1.00  0.00     0.081 C 
ATOM     87  C   UNL A   1      45.886  33.927  30.727  1.00  0.00     0.111 C 
ATOM     88  C   UNL A   1      44.176  35.283  29.556  1.00  0.00     0.093 A 
ATOM     89  C   UNL A   1      46.846  34.899  30.064  1.00  0.00     0.188 C 
ATOM     90  C   UNL A   1      45.207  36.122  29.183  1.00  0.00     0.164 A 
ATOM     91  N   UNL A   1      42.956  35.840  29.315  1.00  0.00    -0.238 NA
ATOM     92  N   UNL A   1      46.543  35.934  29.349  1.00  0.00    -0.198 NA
ATOM     93  N   UNL A   1      44.593  37.238  28.643  1.00  0.00    -0.283 N 
ATOM     94  C   UNL A   1      43.235  37.021  28.796  1.00  0.00     0.206 A 
BRANCH  89  95
ATOM     95  O   UNL A   1      48.144  34.664  30.344  1.00  0.00    -0.496 OA
ATOM     96  H   UNL A   1      48.810  34.952  29.751  1.00  0.00     0.294 HD
ENDBRANCH  89  95
BRANCH  93  97
ATOM     97  C   UNL A   1      45.213  38.361  28.040  1.00  0.00     0.050 A 
ATOM     98  C   UNL A   1      45.249  39.590  28.711  1.00  0.00     0.027 A 
ATOM     99  C   UNL A   1      45.781  38.243  26.764  1.00  0.00     0.047 A 
ATOM    100  C   UNL A   1      45.887  40.684  28.118  1.00  0.00     0.004 A 
ATOM    101  C   UNL A   1      46.378  39.351  26.167  1.00  0.00     0.043 A 
ATOM    102  C   UNL A   1      46.445  40.567  26.844  1.00  0.00     0.020 A 
ATOM    103  Cl  UNL A   1      47.027  39.221  24.577  1.00  0.00    -0.084 Cl
ENDBRANCH  93  97
ENDBRANCH  85  86
ENDBRANCH  78  80
ENDBRANCH  77  78
ENDBRANCH  76  77
ENDBRANCH  75  76
ENDBRANCH  74  75
ENDBRANCH  73  74
ENDBRANCH   1  73
TORSDOF 23
ENDMDL
