MODEL 1
REMARK VINA RESULT:     -10.9      0.000      0.000
REMARK SMILES CS(=O)(=O)c1ccc(/C=C(/C(=O)OCCOCCOCCOC(=O)c2ccc(-c3c4nc(c(-c5cc(S(=O)(=O)[O-])ccc5F)c5ccc([nH]5)c(-c5cc(S(=O)(=O)[O-])ccc5F)c5nc(c(-c6cc(S(=O)(=O)[O-])ccc6F)c6ccc3[nH]6)C=C5)C=C4)cc2)c2cccc(Br)c2)cc1
REMARK SMILES IDX 18 1 17 2 16 3 15 4 14 5 13 6 11 7 12 8 10 9 9 10 8 11 5 12
REMARK SMILES IDX 6 13 96 14 7 15 95 16 2 17 1 18 3 19 4 20 88 21 89 22 94 23
REMARK SMILES IDX 90 24 92 25 91 26 93 27 19 28 20 29 21 30 22 31 23 32 24 33
REMARK SMILES IDX 25 34 26 35 87 36 27 37 86 38 28 39 29 40 30 41 80 42 31 43
REMARK SMILES IDX 85 44 79 45 81 46 32 47 84 48 78 49 77 50 33 52 65 53 45 54
REMARK SMILES IDX 64 55 46 56 49 57 63 58 82 59 47 60 48 61 62 63 83 64 50 65
REMARK SMILES IDX 34 66 35 67 43 68 36 69 42 70 44 71 41 72 37 73 38 74 39 75
REMARK SMILES IDX 40 76 66 77 67 78 75 79 68 80 74 81 76 82 73 83 69 84 70 85
REMARK SMILES IDX 71 86 72 87 51 88 52 89 60 90 53 91 59 92 61 93 58 94 54 95
REMARK SMILES IDX 55 96 56 97 57 98
REMARK H PARENT 81 51 49 62
REMARK Flexibility Score: inf
ROOT
ATOM      1  C   UNL A   1      36.040  22.224  23.894  1.00  0.00     0.188 C 
ENDROOT
BRANCH   1   2
ATOM      2  C   UNL A   1      34.795  22.711  24.662  1.00  0.00     0.188 C 
BRANCH   2   3
ATOM      3  O   UNL A   1      34.310  21.775  25.610  1.00  0.00    -0.376 OA
BRANCH   3   4
ATOM      4  C   UNL A   1      33.455  22.326  26.604  1.00  0.00     0.202 C 
BRANCH   4   5
ATOM      5  C   UNL A   1      33.261  23.850  26.544  1.00  0.00     0.261 C 
BRANCH   5   6
ATOM      6  O   UNL A   1      31.912  24.307  26.323  1.00  0.00    -0.460 OA
BRANCH   6   7
ATOM      7  C   UNL A   1      31.475  24.406  25.041  1.00  0.00     0.338 C 
ATOM      8  O   UNL A   1      31.306  23.456  24.292  1.00  0.00    -0.246 OA
BRANCH   7   9
ATOM      9  C   UNL A   1      31.115  25.832  24.700  1.00  0.00     0.067 C 
ATOM     10  C   UNL A   1      30.387  26.095  23.583  1.00  0.00     0.024 C 
BRANCH  10  11
ATOM     11  C   UNL A   1      29.811  27.386  23.120  1.00  0.00    -0.025 A 
ATOM     12  C   UNL A   1      28.648  29.923  22.775  1.00  0.00     0.067 A 
ATOM     13  C   UNL A   1      29.998  29.735  22.488  1.00  0.00     0.021 A 
ATOM     14  C   UNL A   1      27.845  28.833  23.112  1.00  0.00     0.021 A 
ATOM     15  C   UNL A   1      30.560  28.459  22.619  1.00  0.00     0.009 A 
ATOM     16  C   UNL A   1      28.427  27.571  23.275  1.00  0.00     0.009 A 
BRANCH  12  17
ATOM     17  S   UNL A   1      27.979  31.566  22.855  1.00  0.00     0.175 S 
ATOM     18  C   UNL A   1      29.299  32.572  23.463  1.00  0.00     0.163 C 
ATOM     19  O   UNL A   1      26.934  31.578  23.861  1.00  0.00    -0.224 OA
ATOM     20  O   UNL A   1      27.707  31.973  21.489  1.00  0.00    -0.224 OA
ENDBRANCH  12  17
ENDBRANCH  10  11
BRANCH   9  21
ATOM     21  C   UNL A   1      31.597  26.903  25.602  1.00  0.00    -0.010 A 
ATOM     22  C   UNL A   1      30.798  27.301  26.686  1.00  0.00     0.009 A 
ATOM     23  C   UNL A   1      32.894  27.421  25.492  1.00  0.00     0.024 A 
ATOM     24  C   UNL A   1      31.292  28.172  27.656  1.00  0.00     0.002 A 
ATOM     25  C   UNL A   1      33.387  28.279  26.479  1.00  0.00     0.018 A 
ATOM     26  C   UNL A   1      32.592  28.659  27.559  1.00  0.00     0.016 A 
ATOM     27  Br  UNL A   1      35.184  28.857  26.397  1.00  0.00    -0.051 Br
ENDBRANCH   9  21
ENDBRANCH   7   9
ENDBRANCH   6   7
ENDBRANCH   5   6
ENDBRANCH   4   5
ENDBRANCH   3   4
ENDBRANCH   2   3
ENDBRANCH   1   2
BRANCH   1  28
ATOM     28  O   UNL A   1      37.158  21.695  24.589  1.00  0.00    -0.376 OA
BRANCH  28  29
ATOM     29  C   UNL A   1      37.210  20.304  24.855  1.00  0.00     0.202 C 
BRANCH  29  30
ATOM     30  C   UNL A   1      38.561  19.571  24.988  1.00  0.00     0.261 C 
BRANCH  30  31
ATOM     31  O   UNL A   1      39.212  19.609  26.267  1.00  0.00    -0.460 OA
BRANCH  31  32
ATOM     32  C   UNL A   1      40.539  19.889  26.247  1.00  0.00     0.338 C 
ATOM     33  O   UNL A   1      41.418  19.213  25.731  1.00  0.00    -0.246 OA
BRANCH  32  34
ATOM     34  C   UNL A   1      40.768  21.255  26.778  1.00  0.00     0.060 A 
ATOM     35  C   UNL A   1      40.228  22.344  26.078  1.00  0.00     0.016 A 
ATOM     36  C   UNL A   1      41.533  21.474  27.925  1.00  0.00     0.016 A 
ATOM     37  C   UNL A   1      40.463  23.650  26.514  1.00  0.00     0.010 A 
ATOM     38  C   UNL A   1      41.795  22.787  28.343  1.00  0.00     0.010 A 
ATOM     39  C   UNL A   1      41.281  23.883  27.627  1.00  0.00    -0.014 A 
BRANCH  39  40
ATOM     40  C   UNL A   1      41.745  25.270  27.903  1.00  0.00     0.031 A 
ATOM     41  C   UNL A   1      43.106  25.684  27.413  1.00  0.00     0.074 A 
ATOM     42  C   UNL A   1      40.956  26.167  28.524  1.00  0.00     0.049 A 
ATOM     43  N   UNL A   1      43.714  26.836  27.519  1.00  0.00    -0.248 NA
ATOM     44  C   UNL A   1      43.886  24.649  26.718  1.00  0.00     0.031 C 
ATOM     45  C   UNL A   1      39.613  25.897  29.029  1.00  0.00     0.029 A 
ATOM     46  N   UNL A   1      41.165  27.492  28.822  1.00  0.00    -0.354 N 
ATOM     47  C   UNL A   1      44.954  26.667  26.910  1.00  0.00     0.074 A 
ATOM     48  C   UNL A   1      45.019  25.289  26.469  1.00  0.00     0.031 C 
ATOM     49  C   UNL A   1      39.103  27.031  29.541  1.00  0.00     0.029 A 
ATOM     50  C   UNL A   1      40.105  28.092  29.463  1.00  0.00     0.049 A 
ATOM     51  H   UNL A   1      41.997  27.968  28.599  1.00  0.00     0.167 HD
ATOM     52  C   UNL A   1      45.946  27.575  26.734  1.00  0.00     0.034 A 
ATOM     53  C   UNL A   1      39.970  29.344  29.952  1.00  0.00     0.034 A 
ATOM     54  C   UNL A   1      45.883  28.939  27.202  1.00  0.00     0.049 A 
ATOM     55  C   UNL A   1      41.124  30.314  29.817  1.00  0.00     0.074 A 
ATOM     56  C   UNL A   1      46.833  29.937  27.074  1.00  0.00     0.029 A 
ATOM     57  N   UNL A   1      44.820  29.494  27.904  1.00  0.00    -0.354 N 
ATOM     58  N   UNL A   1      42.288  30.143  29.231  1.00  0.00    -0.248 NA
ATOM     59  C   UNL A   1      40.944  31.645  30.412  1.00  0.00     0.031 C 
ATOM     60  C   UNL A   1      46.383  31.065  27.770  1.00  0.00     0.029 A 
ATOM     61  C   UNL A   1      45.110  30.807  28.249  1.00  0.00     0.049 A 
ATOM     62  H   UNL A   1      43.983  29.025  28.123  1.00  0.00     0.167 HD
ATOM     63  C   UNL A   1      42.966  31.354  29.369  1.00  0.00     0.074 A 
ATOM     64  C   UNL A   1      42.069  32.252  30.065  1.00  0.00     0.031 C 
ATOM     65  C   UNL A   1      44.216  31.694  28.960  1.00  0.00     0.034 A 
BRANCH  52  66
ATOM     66  C   UNL A   1      47.211  27.093  26.063  1.00  0.00     0.023 A 
ATOM     67  C   UNL A   1      48.183  26.352  26.757  1.00  0.00     0.031 A 
ATOM     68  C   UNL A   1      47.465  27.414  24.717  1.00  0.00     0.131 A 
ATOM     69  C   UNL A   1      49.394  26.024  26.128  1.00  0.00     0.055 A 
ATOM     70  C   UNL A   1      48.633  27.007  24.071  1.00  0.00     0.041 A 
ATOM     71  F   UNL A   1      46.587  28.142  24.010  1.00  0.00    -0.206 F 
ATOM     72  C   UNL A   1      49.614  26.322  24.781  1.00  0.00     0.022 A 
BRANCH  69  73
ATOM     73  S   UNL A   1      50.739  25.347  27.139  1.00  0.00     0.124 S 
ATOM     74  O   UNL A   1      51.199  26.537  27.852  1.00  0.00    -0.237 OA
ATOM     75  O   UNL A   1      50.054  24.345  27.946  1.00  0.00    -0.237 OA
ATOM     76  O   UNL A   1      51.678  24.820  26.151  1.00  0.00    -0.744 OA
ENDBRANCH  69  73
ENDBRANCH  52  66
BRANCH  53  77
ATOM     77  C   UNL A   1      38.726  29.756  30.674  1.00  0.00     0.023 A 
ATOM     78  C   UNL A   1      37.741  30.537  30.046  1.00  0.00     0.031 A 
ATOM     79  C   UNL A   1      38.545  29.445  32.034  1.00  0.00     0.131 A 
ATOM     80  C   UNL A   1      36.653  31.024  30.789  1.00  0.00     0.055 A 
ATOM     81  C   UNL A   1      37.426  29.874  32.749  1.00  0.00     0.041 A 
ATOM     82  F   UNL A   1      39.460  28.716  32.691  1.00  0.00    -0.206 F 
ATOM     83  C   UNL A   1      36.479  30.682  32.131  1.00  0.00     0.022 A 
BRANCH  80  84
ATOM     84  S   UNL A   1      35.523  32.210  30.007  1.00  0.00     0.124 S 
ATOM     85  O   UNL A   1      36.402  33.352  29.781  1.00  0.00    -0.237 OA
ATOM     86  O   UNL A   1      35.098  31.482  28.815  1.00  0.00    -0.237 OA
ATOM     87  O   UNL A   1      34.485  32.409  31.016  1.00  0.00    -0.744 OA
ENDBRANCH  80  84
ENDBRANCH  53  77
BRANCH  65  88
ATOM     88  C   UNL A   1      44.669  33.114  29.221  1.00  0.00     0.023 A 
ATOM     89  C   UNL A   1      44.604  34.111  28.230  1.00  0.00     0.031 A 
ATOM     90  C   UNL A   1      45.197  33.472  30.476  1.00  0.00     0.131 A 
ATOM     91  C   UNL A   1      45.127  35.389  28.485  1.00  0.00     0.055 A 
ATOM     92  C   UNL A   1      45.646  34.765  30.748  1.00  0.00     0.041 A 
ATOM     93  F   UNL A   1      45.289  32.565  31.463  1.00  0.00    -0.206 F 
ATOM     94  C   UNL A   1      45.628  35.728  29.744  1.00  0.00     0.022 A 
BRANCH  91  95
ATOM     95  S   UNL A   1      45.259  36.567  27.111  1.00  0.00     0.124 S 
ATOM     96  O   UNL A   1      45.672  35.702  26.010  1.00  0.00    -0.237 OA
ATOM     97  O   UNL A   1      43.904  37.101  27.027  1.00  0.00    -0.237 OA
ATOM     98  O   UNL A   1      46.271  37.517  27.568  1.00  0.00    -0.744 OA
ENDBRANCH  91  95
ENDBRANCH  65  88
ENDBRANCH  39  40
ENDBRANCH  32  34
ENDBRANCH  31  32
ENDBRANCH  30  31
ENDBRANCH  29  30
ENDBRANCH  28  29
ENDBRANCH   1  28
TORSDOF 23
ENDMDL
MODEL 2
REMARK VINA RESULT:     -10.7      2.820      9.101
REMARK SMILES CS(=O)(=O)c1ccc(/C=C(/C(=O)OCCOCCOCCOC(=O)c2ccc(-c3c4nc(c(-c5cc(S(=O)(=O)[O-])ccc5F)c5ccc([nH]5)c(-c5cc(S(=O)(=O)[O-])ccc5F)c5nc(c(-c6cc(S(=O)(=O)[O-])ccc6F)c6ccc3[nH]6)C=C5)C=C4)cc2)c2cccc(Br)c2)cc1
REMARK SMILES IDX 18 1 17 2 16 3 15 4 14 5 13 6 11 7 12 8 10 9 9 10 8 11 5 12
REMARK SMILES IDX 6 13 96 14 7 15 95 16 2 17 1 18 3 19 4 20 88 21 89 22 94 23
REMARK SMILES IDX 90 24 92 25 91 26 93 27 19 28 20 29 21 30 22 31 23 32 24 33
REMARK SMILES IDX 25 34 26 35 87 36 27 37 86 38 28 39 29 40 30 41 80 42 31 43
REMARK SMILES IDX 85 44 79 45 81 46 32 47 84 48 78 49 77 50 33 52 65 53 45 54
REMARK SMILES IDX 64 55 46 56 49 57 63 58 82 59 47 60 48 61 62 63 83 64 50 65
REMARK SMILES IDX 34 66 35 67 43 68 36 69 42 70 44 71 41 72 37 73 38 74 39 75
REMARK SMILES IDX 40 76 66 77 67 78 75 79 68 80 74 81 76 82 73 83 69 84 70 85
REMARK SMILES IDX 71 86 72 87 51 88 52 89 60 90 53 91 59 92 61 93 58 94 54 95
REMARK SMILES IDX 55 96 56 97 57 98
REMARK H PARENT 81 51 49 62
REMARK Flexibility Score: inf
ROOT
ATOM      1  C   UNL A   1      33.910  34.577  29.573  1.00  0.00     0.188 C 
ENDROOT
BRANCH   1   2
ATOM      2  C   UNL A   1      33.020  34.432  28.321  1.00  0.00     0.188 C 
BRANCH   2   3
ATOM      3  O   UNL A   1      33.120  33.163  27.696  1.00  0.00    -0.376 OA
BRANCH   3   4
ATOM      4  C   UNL A   1      34.288  32.426  28.032  1.00  0.00     0.202 C 
BRANCH   4   5
ATOM      5  C   UNL A   1      34.205  30.908  27.806  1.00  0.00     0.261 C 
BRANCH   5   6
ATOM      6  O   UNL A   1      33.672  30.487  26.535  1.00  0.00    -0.460 OA
BRANCH   6   7
ATOM      7  C   UNL A   1      32.439  29.917  26.518  1.00  0.00     0.338 C 
ATOM      8  O   UNL A   1      31.425  30.450  26.940  1.00  0.00    -0.246 OA
BRANCH   7   9
ATOM      9  C   UNL A   1      32.467  28.587  25.803  1.00  0.00     0.067 C 
ATOM     10  C   UNL A   1      33.465  27.703  26.063  1.00  0.00     0.024 C 
BRANCH  10  11
ATOM     11  C   UNL A   1      33.627  26.303  25.587  1.00  0.00    -0.025 A 
ATOM     12  C   UNL A   1      33.389  23.650  24.688  1.00  0.00     0.067 A 
ATOM     13  C   UNL A   1      33.869  24.632  23.826  1.00  0.00     0.021 A 
ATOM     14  C   UNL A   1      33.145  23.950  26.028  1.00  0.00     0.021 A 
ATOM     15  C   UNL A   1      34.028  25.943  24.293  1.00  0.00     0.009 A 
ATOM     16  C   UNL A   1      33.272  25.272  26.472  1.00  0.00     0.009 A 
BRANCH  12  17
ATOM     17  S   UNL A   1      32.949  22.050  24.053  1.00  0.00     0.175 S 
ATOM     18  C   UNL A   1      32.872  22.256  22.299  1.00  0.00     0.163 C 
ATOM     19  O   UNL A   1      31.606  21.740  24.505  1.00  0.00    -0.224 OA
ATOM     20  O   UNL A   1      34.060  21.164  24.345  1.00  0.00    -0.224 OA
ENDBRANCH  12  17
ENDBRANCH  10  11
BRANCH   9  21
ATOM     21  C   UNL A   1      31.398  28.309  24.817  1.00  0.00    -0.010 A 
ATOM     22  C   UNL A   1      30.665  27.114  24.916  1.00  0.00     0.009 A 
ATOM     23  C   UNL A   1      30.997  29.273  23.883  1.00  0.00     0.024 A 
ATOM     24  C   UNL A   1      29.539  26.900  24.123  1.00  0.00     0.002 A 
ATOM     25  C   UNL A   1      29.856  29.056  23.106  1.00  0.00     0.018 A 
ATOM     26  C   UNL A   1      29.127  27.874  23.219  1.00  0.00     0.016 A 
ATOM     27  Br  UNL A   1      29.243  30.422  21.953  1.00  0.00    -0.051 Br
ENDBRANCH   9  21
ENDBRANCH   7   9
ENDBRANCH   6   7
ENDBRANCH   5   6
ENDBRANCH   4   5
ENDBRANCH   3   4
ENDBRANCH   2   3
ENDBRANCH   1   2
BRANCH   1  28
ATOM     28  O   UNL A   1      33.330  34.691  30.863  1.00  0.00    -0.376 OA
BRANCH  28  29
ATOM     29  C   UNL A   1      33.948  35.528  31.825  1.00  0.00     0.202 C 
BRANCH  29  30
ATOM     30  C   UNL A   1      35.046  34.985  32.763  1.00  0.00     0.261 C 
BRANCH  30  31
ATOM     31  O   UNL A   1      36.045  34.129  32.186  1.00  0.00    -0.460 OA
BRANCH  31  32
ATOM     32  C   UNL A   1      36.132  32.883  32.714  1.00  0.00     0.338 C 
ATOM     33  O   UNL A   1      35.431  32.419  33.603  1.00  0.00    -0.246 OA
BRANCH  32  34
ATOM     34  C   UNL A   1      37.086  32.071  31.922  1.00  0.00     0.060 A 
ATOM     35  C   UNL A   1      38.002  31.258  32.605  1.00  0.00     0.016 A 
ATOM     36  C   UNL A   1      37.113  32.130  30.527  1.00  0.00     0.016 A 
ATOM     37  C   UNL A   1      38.952  30.517  31.900  1.00  0.00     0.010 A 
ATOM     38  C   UNL A   1      38.088  31.409  29.821  1.00  0.00     0.010 A 
ATOM     39  C   UNL A   1      39.029  30.617  30.505  1.00  0.00    -0.014 A 
BRANCH  39  40
ATOM     40  C   UNL A   1      40.212  30.049  29.803  1.00  0.00     0.031 A 
ATOM     41  C   UNL A   1      41.459  30.886  29.704  1.00  0.00     0.074 A 
ATOM     42  C   UNL A   1      40.207  28.795  29.315  1.00  0.00     0.049 A 
ATOM     43  N   UNL A   1      42.612  30.600  29.159  1.00  0.00    -0.248 NA
ATOM     44  C   UNL A   1      41.384  32.232  30.291  1.00  0.00     0.031 C 
ATOM     45  C   UNL A   1      39.072  27.878  29.365  1.00  0.00     0.029 A 
ATOM     46  N   UNL A   1      41.195  28.069  28.693  1.00  0.00    -0.354 N 
ATOM     47  C   UNL A   1      43.403  31.732  29.330  1.00  0.00     0.074 A 
ATOM     48  C   UNL A   1      42.581  32.718  30.000  1.00  0.00     0.031 C 
ATOM     49  C   UNL A   1      39.439  26.699  28.832  1.00  0.00     0.029 A 
ATOM     50  C   UNL A   1      40.812  26.795  28.341  1.00  0.00     0.049 A 
ATOM     51  H   UNL A   1      42.094  28.429  28.515  1.00  0.00     0.167 HD
ATOM     52  C   UNL A   1      44.693  31.931  28.964  1.00  0.00     0.034 A 
ATOM     53  C   UNL A   1      41.483  25.830  27.677  1.00  0.00     0.034 A 
ATOM     54  C   UNL A   1      45.496  30.952  28.272  1.00  0.00     0.049 A 
ATOM     55  C   UNL A   1      42.895  26.106  27.206  1.00  0.00     0.074 A 
ATOM     56  C   UNL A   1      46.812  31.055  27.857  1.00  0.00     0.029 A 
ATOM     57  N   UNL A   1      45.055  29.695  27.874  1.00  0.00    -0.354 N 
ATOM     58  N   UNL A   1      43.633  27.179  27.383  1.00  0.00    -0.248 NA
ATOM     59  C   UNL A   1      43.560  25.041  26.443  1.00  0.00     0.031 C 
ATOM     60  C   UNL A   1      47.139  29.901  27.136  1.00  0.00     0.029 A 
ATOM     61  C   UNL A   1      46.061  29.033  27.184  1.00  0.00     0.049 A 
ATOM     62  H   UNL A   1      44.159  29.328  28.056  1.00  0.00     0.167 HD
ATOM     63  C   UNL A   1      44.857  26.904  26.772  1.00  0.00     0.074 A 
ATOM     64  C   UNL A   1      44.765  25.556  26.252  1.00  0.00     0.031 C 
ATOM     65  C   UNL A   1      45.957  27.693  26.651  1.00  0.00     0.034 A 
BRANCH  52  66
ATOM     66  C   UNL A   1      45.290  33.290  29.251  1.00  0.00     0.023 A 
ATOM     67  C   UNL A   1      46.014  33.548  30.428  1.00  0.00     0.031 A 
ATOM     68  C   UNL A   1      45.098  34.352  28.349  1.00  0.00     0.131 A 
ATOM     69  C   UNL A   1      46.451  34.852  30.708  1.00  0.00     0.055 A 
ATOM     70  C   UNL A   1      45.613  35.626  28.592  1.00  0.00     0.041 A 
ATOM     71  F   UNL A   1      44.392  34.173  27.222  1.00  0.00    -0.206 F 
ATOM     72  C   UNL A   1      46.280  35.886  29.785  1.00  0.00     0.022 A 
BRANCH  69  73
ATOM     73  S   UNL A   1      47.102  35.210  32.362  1.00  0.00     0.124 S 
ATOM     74  O   UNL A   1      48.543  35.095  32.144  1.00  0.00    -0.237 OA
ATOM     75  O   UNL A   1      46.600  36.554  32.616  1.00  0.00    -0.237 OA
ATOM     76  O   UNL A   1      46.521  34.157  33.193  1.00  0.00    -0.744 OA
ENDBRANCH  69  73
ENDBRANCH  52  66
BRANCH  53  77
ATOM     77  C   UNL A   1      40.828  24.524  27.352  1.00  0.00     0.023 A 
ATOM     78  C   UNL A   1      39.650  24.467  26.588  1.00  0.00     0.031 A 
ATOM     79  C   UNL A   1      41.327  23.317  27.877  1.00  0.00     0.131 A 
ATOM     80  C   UNL A   1      38.983  23.243  26.418  1.00  0.00     0.055 A 
ATOM     81  C   UNL A   1      40.697  22.093  27.646  1.00  0.00     0.041 A 
ATOM     82  F   UNL A   1      42.439  23.311  28.628  1.00  0.00    -0.206 F 
ATOM     83  C   UNL A   1      39.509  22.053  26.925  1.00  0.00     0.022 A 
BRANCH  80  84
ATOM     84  S   UNL A   1      37.353  23.240  25.620  1.00  0.00     0.124 S 
ATOM     85  O   UNL A   1      36.925  21.861  25.826  1.00  0.00    -0.237 OA
ATOM     86  O   UNL A   1      36.639  24.255  26.387  1.00  0.00    -0.237 OA
ATOM     87  O   UNL A   1      37.651  23.602  24.235  1.00  0.00    -0.744 OA
ENDBRANCH  80  84
ENDBRANCH  53  77
BRANCH  65  88
ATOM     88  C   UNL A   1      47.164  27.096  25.961  1.00  0.00     0.023 A 
ATOM     89  C   UNL A   1      48.177  26.429  26.675  1.00  0.00     0.031 A 
ATOM     90  C   UNL A   1      47.318  27.220  24.567  1.00  0.00     0.131 A 
ATOM     91  C   UNL A   1      49.327  25.979  26.007  1.00  0.00     0.055 A 
ATOM     92  C   UNL A   1      48.429  26.703  23.897  1.00  0.00     0.041 A 
ATOM     93  F   UNL A   1      46.389  27.849  23.829  1.00  0.00    -0.206 F 
ATOM     94  C   UNL A   1      49.449  26.094  24.620  1.00  0.00     0.022 A 
BRANCH  91  95
ATOM     95  S   UNL A   1      50.718  25.355  26.990  1.00  0.00     0.124 S 
ATOM     96  O   UNL A   1      51.185  26.566  27.656  1.00  0.00    -0.237 OA
ATOM     97  O   UNL A   1      50.074  24.365  27.848  1.00  0.00    -0.237 OA
ATOM     98  O   UNL A   1      51.628  24.806  25.988  1.00  0.00    -0.744 OA
ENDBRANCH  91  95
ENDBRANCH  65  88
ENDBRANCH  39  40
ENDBRANCH  32  34
ENDBRANCH  31  32
ENDBRANCH  30  31
ENDBRANCH  29  30
ENDBRANCH  28  29
ENDBRANCH   1  28
TORSDOF 23
ENDMDL
MODEL 3
REMARK VINA RESULT:     -10.3      2.478      3.635
REMARK SMILES CS(=O)(=O)c1ccc(/C=C(/C(=O)OCCOCCOCCOC(=O)c2ccc(-c3c4nc(c(-c5cc(S(=O)(=O)[O-])ccc5F)c5ccc([nH]5)c(-c5cc(S(=O)(=O)[O-])ccc5F)c5nc(c(-c6cc(S(=O)(=O)[O-])ccc6F)c6ccc3[nH]6)C=C5)C=C4)cc2)c2cccc(Br)c2)cc1
REMARK SMILES IDX 18 1 17 2 16 3 15 4 14 5 13 6 11 7 12 8 10 9 9 10 8 11 5 12
REMARK SMILES IDX 6 13 96 14 7 15 95 16 2 17 1 18 3 19 4 20 88 21 89 22 94 23
REMARK SMILES IDX 90 24 92 25 91 26 93 27 19 28 20 29 21 30 22 31 23 32 24 33
REMARK SMILES IDX 25 34 26 35 87 36 27 37 86 38 28 39 29 40 30 41 80 42 31 43
REMARK SMILES IDX 85 44 79 45 81 46 32 47 84 48 78 49 77 50 33 52 65 53 45 54
REMARK SMILES IDX 64 55 46 56 49 57 63 58 82 59 47 60 48 61 62 63 83 64 50 65
REMARK SMILES IDX 34 66 35 67 43 68 36 69 42 70 44 71 41 72 37 73 38 74 39 75
REMARK SMILES IDX 40 76 66 77 67 78 75 79 68 80 74 81 76 82 73 83 69 84 70 85
REMARK SMILES IDX 71 86 72 87 51 88 52 89 60 90 53 91 59 92 61 93 58 94 54 95
REMARK SMILES IDX 55 96 56 97 57 98
REMARK H PARENT 81 51 49 62
REMARK Flexibility Score: inf
ROOT
ATOM      1  C   UNL A   1      35.054  23.015  23.471  1.00  0.00     0.188 C 
ENDROOT
BRANCH   1   2
ATOM      2  C   UNL A   1      33.565  23.345  23.705  1.00  0.00     0.188 C 
BRANCH   2   3
ATOM      3  O   UNL A   1      32.852  22.315  24.369  1.00  0.00    -0.376 OA
BRANCH   3   4
ATOM      4  C   UNL A   1      32.059  22.753  25.465  1.00  0.00     0.202 C 
BRANCH   4   5
ATOM      5  C   UNL A   1      32.512  24.061  26.133  1.00  0.00     0.261 C 
BRANCH   5   6
ATOM      6  O   UNL A   1      31.551  24.693  27.001  1.00  0.00    -0.460 OA
BRANCH   6   7
ATOM      7  C   UNL A   1      30.652  25.544  26.445  1.00  0.00     0.338 C 
ATOM      8  O   UNL A   1      29.478  25.276  26.243  1.00  0.00    -0.246 OA
BRANCH   7   9
ATOM      9  C   UNL A   1      31.265  26.905  26.215  1.00  0.00     0.067 C 
ATOM     10  C   UNL A   1      31.724  27.625  27.272  1.00  0.00     0.024 C 
BRANCH  10  11
ATOM     11  C   UNL A   1      32.472  28.910  27.280  1.00  0.00    -0.025 A 
ATOM     12  C   UNL A   1      33.607  31.439  27.753  1.00  0.00     0.067 A 
ATOM     13  C   UNL A   1      34.387  30.293  27.891  1.00  0.00     0.021 A 
ATOM     14  C   UNL A   1      32.305  31.346  27.262  1.00  0.00     0.021 A 
ATOM     15  C   UNL A   1      33.828  29.040  27.611  1.00  0.00     0.009 A 
ATOM     16  C   UNL A   1      31.747  30.084  27.021  1.00  0.00     0.009 A 
BRANCH  12  17
ATOM     17  S   UNL A   1      34.216  33.002  28.337  1.00  0.00     0.175 S 
ATOM     18  C   UNL A   1      35.911  33.051  27.838  1.00  0.00     0.163 C 
ATOM     19  O   UNL A   1      34.198  32.979  29.786  1.00  0.00    -0.224 OA
ATOM     20  O   UNL A   1      33.508  34.029  27.595  1.00  0.00    -0.224 OA
ENDBRANCH  12  17
ENDBRANCH  10  11
BRANCH   9  21
ATOM     21  C   UNL A   1      31.321  27.415  24.827  1.00  0.00    -0.010 A 
ATOM     22  C   UNL A   1      30.191  28.045  24.279  1.00  0.00     0.009 A 
ATOM     23  C   UNL A   1      32.518  27.422  24.099  1.00  0.00     0.024 A 
ATOM     24  C   UNL A   1      30.263  28.695  23.048  1.00  0.00     0.002 A 
ATOM     25  C   UNL A   1      32.585  28.092  22.875  1.00  0.00     0.018 A 
ATOM     26  C   UNL A   1      31.463  28.726  22.344  1.00  0.00     0.016 A 
ATOM     27  Br  UNL A   1      34.240  28.218  21.971  1.00  0.00    -0.051 Br
ENDBRANCH   9  21
ENDBRANCH   7   9
ENDBRANCH   6   7
ENDBRANCH   5   6
ENDBRANCH   4   5
ENDBRANCH   3   4
ENDBRANCH   2   3
ENDBRANCH   1   2
BRANCH   1  28
ATOM     28  O   UNL A   1      35.920  22.766  24.567  1.00  0.00    -0.376 OA
BRANCH  28  29
ATOM     29  C   UNL A   1      36.338  21.438  24.829  1.00  0.00     0.202 C 
BRANCH  29  30
ATOM     30  C   UNL A   1      37.828  21.100  25.040  1.00  0.00     0.261 C 
BRANCH  30  31
ATOM     31  O   UNL A   1      38.378  21.321  26.348  1.00  0.00    -0.460 OA
BRANCH  31  32
ATOM     32  C   UNL A   1      39.732  21.342  26.423  1.00  0.00     0.338 C 
ATOM     33  O   UNL A   1      40.499  20.497  25.982  1.00  0.00    -0.246 OA
BRANCH  32  34
ATOM     34  C   UNL A   1      40.181  22.652  26.954  1.00  0.00     0.060 A 
ATOM     35  C   UNL A   1      39.658  23.821  26.381  1.00  0.00     0.016 A 
ATOM     36  C   UNL A   1      41.131  22.740  27.973  1.00  0.00     0.016 A 
ATOM     37  C   UNL A   1      40.093  25.075  26.815  1.00  0.00     0.010 A 
ATOM     38  C   UNL A   1      41.590  24.001  28.386  1.00  0.00     0.010 A 
ATOM     39  C   UNL A   1      41.090  25.175  27.793  1.00  0.00    -0.014 A 
BRANCH  39  40
ATOM     40  C   UNL A   1      41.734  26.494  28.037  1.00  0.00     0.031 A 
ATOM     41  C   UNL A   1      43.074  26.768  27.408  1.00  0.00     0.074 A 
ATOM     42  C   UNL A   1      41.121  27.457  28.751  1.00  0.00     0.049 A 
ATOM     43  N   UNL A   1      43.816  27.842  27.463  1.00  0.00    -0.248 NA
ATOM     44  C   UNL A   1      43.655  25.671  26.619  1.00  0.00     0.031 C 
ATOM     45  C   UNL A   1      39.817  27.324  29.393  1.00  0.00     0.029 A 
ATOM     46  N   UNL A   1      41.508  28.743  29.042  1.00  0.00    -0.354 N 
ATOM     47  C   UNL A   1      44.958  27.553  26.722  1.00  0.00     0.074 A 
ATOM     48  C   UNL A   1      44.820  26.188  26.259  1.00  0.00     0.031 C 
ATOM     49  C   UNL A   1      39.494  28.494  29.973  1.00  0.00     0.029 A 
ATOM     50  C   UNL A   1      40.596  29.440  29.801  1.00  0.00     0.049 A 
ATOM     51  H   UNL A   1      42.360  29.129  28.737  1.00  0.00     0.167 HD
ATOM     52  C   UNL A   1      46.021  28.350  26.453  1.00  0.00     0.034 A 
ATOM     53  C   UNL A   1      40.655  30.686  30.319  1.00  0.00     0.034 A 
ATOM     54  C   UNL A   1      46.162  29.700  26.942  1.00  0.00     0.049 A 
ATOM     55  C   UNL A   1      41.890  31.526  30.073  1.00  0.00     0.074 A 
ATOM     56  C   UNL A   1      47.199  30.591  26.727  1.00  0.00     0.029 A 
ATOM     57  N   UNL A   1      45.247  30.352  27.762  1.00  0.00    -0.354 N 
ATOM     58  N   UNL A   1      42.959  31.242  29.363  1.00  0.00    -0.248 NA
ATOM     59  C   UNL A   1      41.925  32.853  30.702  1.00  0.00     0.031 C 
ATOM     60  C   UNL A   1      46.955  31.743  27.482  1.00  0.00     0.029 A 
ATOM     61  C   UNL A   1      45.718  31.615  28.092  1.00  0.00     0.049 A 
ATOM     62  H   UNL A   1      44.391  29.972  28.064  1.00  0.00     0.167 HD
ATOM     63  C   UNL A   1      43.779  32.367  29.443  1.00  0.00     0.074 A 
ATOM     64  C   UNL A   1      43.067  33.341  30.244  1.00  0.00     0.031 C 
ATOM     65  C   UNL A   1      45.010  32.577  28.906  1.00  0.00     0.034 A 
BRANCH  52  66
ATOM     66  C   UNL A   1      47.146  27.749  25.642  1.00  0.00     0.023 A 
ATOM     67  C   UNL A   1      47.344  28.080  24.290  1.00  0.00     0.031 A 
ATOM     68  C   UNL A   1      48.009  26.802  26.222  1.00  0.00     0.131 A 
ATOM     69  C   UNL A   1      48.328  27.413  23.544  1.00  0.00     0.055 A 
ATOM     70  C   UNL A   1      49.043  26.208  25.497  1.00  0.00     0.041 A 
ATOM     71  F   UNL A   1      47.852  26.426  27.500  1.00  0.00    -0.206 F 
ATOM     72  C   UNL A   1      49.197  26.500  24.146  1.00  0.00     0.022 A 
BRANCH  69  73
ATOM     73  S   UNL A   1      48.349  27.637  21.745  1.00  0.00     0.124 S 
ATOM     74  O   UNL A   1      47.038  28.236  21.507  1.00  0.00    -0.237 OA
ATOM     75  O   UNL A   1      49.497  28.513  21.548  1.00  0.00    -0.237 OA
ATOM     76  O   UNL A   1      48.505  26.276  21.233  1.00  0.00    -0.744 OA
ENDBRANCH  69  73
ENDBRANCH  52  66
BRANCH  53  77
ATOM     77  C   UNL A   1      39.548  31.214  31.175  1.00  0.00     0.023 A 
ATOM     78  C   UNL A   1      39.662  31.254  32.575  1.00  0.00     0.031 A 
ATOM     79  C   UNL A   1      38.323  31.609  30.607  1.00  0.00     0.131 A 
ATOM     80  C   UNL A   1      38.557  31.624  33.359  1.00  0.00     0.055 A 
ATOM     81  C   UNL A   1      37.250  32.042  31.388  1.00  0.00     0.041 A 
ATOM     82  F   UNL A   1      38.149  31.577  29.277  1.00  0.00    -0.206 F 
ATOM     83  C   UNL A   1      37.358  32.037  32.774  1.00  0.00     0.022 A 
BRANCH  80  84
ATOM     84  S   UNL A   1      38.667  31.449  35.162  1.00  0.00     0.124 S 
ATOM     85  O   UNL A   1      38.198  30.081  35.356  1.00  0.00    -0.237 OA
ATOM     86  O   UNL A   1      40.088  31.679  35.402  1.00  0.00    -0.237 OA
ATOM     87  O   UNL A   1      37.774  32.493  35.662  1.00  0.00    -0.744 OA
ENDBRANCH  80  84
ENDBRANCH  53  77
BRANCH  65  88
ATOM     88  C   UNL A   1      45.644  33.932  29.137  1.00  0.00     0.023 A 
ATOM     89  C   UNL A   1      45.496  34.989  28.220  1.00  0.00     0.031 A 
ATOM     90  C   UNL A   1      46.431  34.162  30.280  1.00  0.00     0.131 A 
ATOM     91  C   UNL A   1      46.183  36.196  28.424  1.00  0.00     0.055 A 
ATOM     92  C   UNL A   1      47.051  35.391  30.516  1.00  0.00     0.041 A 
ATOM     93  F   UNL A   1      46.615  33.192  31.191  1.00  0.00    -0.206 F 
ATOM     94  C   UNL A   1      46.943  36.411  29.577  1.00  0.00     0.022 A 
BRANCH  91  95
ATOM     95  S   UNL A   1      46.173  37.439  27.102  1.00  0.00     0.124 S 
ATOM     96  O   UNL A   1      47.140  38.414  27.596  1.00  0.00    -0.237 OA
ATOM     97  O   UNL A   1      46.591  36.662  25.939  1.00  0.00    -0.237 OA
ATOM     98  O   UNL A   1      44.787  37.899  27.072  1.00  0.00    -0.744 OA
ENDBRANCH  91  95
ENDBRANCH  65  88
ENDBRANCH  39  40
ENDBRANCH  32  34
ENDBRANCH  31  32
ENDBRANCH  30  31
ENDBRANCH  29  30
ENDBRANCH  28  29
ENDBRANCH   1  28
TORSDOF 23
ENDMDL
