MODEL 1
REMARK VINA RESULT:      -8.9      0.000      0.000
REMARK SMILES COc1cc2nc(SCC(=O)OCCOCCOCCOC(=O)c3ccc(-c4c5nc(c(-c6cc(S(=O)(=O)[O-])ccc6F)c6ccc([nH]6)c(-c6cc(S(=O)(=O)[O-])ccc6F)c6nc(c(-c7cc(S(=O)(=O)[O-])ccc7F)c7ccc4[nH]7)C=C6)C=C5)cc3)nc(O)c2cc1OC
REMARK SMILES IDX 16 1 15 2 14 3 13 4 12 5 10 6 11 7 9 8 8 9 7 10 3 11 4 12
REMARK SMILES IDX 92 13 5 14 91 15 6 16 90 17 88 18 87 19 2 20 1 21 93 22
REMARK SMILES IDX 94 23 89 24 17 26 18 27 19 28 20 29 21 30 22 31 23 32 24 33
REMARK SMILES IDX 25 34 86 35 26 36 85 37 27 38 28 39 29 40 79 41 30 42 84 43
REMARK SMILES IDX 78 44 80 45 31 46 83 47 77 48 76 49 32 51 64 52 44 53 63 54
REMARK SMILES IDX 45 55 48 56 62 57 81 58 46 59 47 60 61 62 82 63 49 64 33 65
REMARK SMILES IDX 34 66 42 67 35 68 41 69 43 70 40 71 36 72 37 73 38 74 39 75
REMARK SMILES IDX 65 76 66 77 74 78 67 79 73 80 75 81 72 82 68 83 69 84 70 85
REMARK SMILES IDX 71 86 50 87 51 88 59 89 52 90 58 91 60 92 57 93 53 94 54 95
REMARK SMILES IDX 55 96 56 97
REMARK H PARENT 89 25 80 50 48 61
REMARK Flexibility Score: inf
ROOT
ATOM      1  C   UNL A   1      33.392  36.070  30.917  1.00  0.00     0.188 C 
ENDROOT
BRANCH   1   2
ATOM      2  O   UNL A   1      33.163  34.857  31.624  1.00  0.00    -0.376 OA
BRANCH   2   3
ATOM      3  C   UNL A   1      34.292  34.062  31.979  1.00  0.00     0.202 C 
BRANCH   3   4
ATOM      4  C   UNL A   1      34.111  33.141  33.191  1.00  0.00     0.261 C 
BRANCH   4   5
ATOM      5  O   UNL A   1      35.128  33.433  34.170  1.00  0.00    -0.463 OA
BRANCH   5   6
ATOM      6  C   UNL A   1      36.243  34.080  33.735  1.00  0.00     0.316 C 
ATOM      7  O   UNL A   1      36.302  35.295  33.591  1.00  0.00    -0.251 OA
BRANCH   6   8
ATOM      8  C   UNL A   1      37.455  33.160  33.651  1.00  0.00     0.200 C 
BRANCH   8   9
ATOM      9  S   UNL A   1      37.825  32.282  35.213  1.00  0.00    -0.074 SA
BRANCH   9  10
ATOM     10  C   UNL A   1      38.569  33.576  36.202  1.00  0.00     0.192 A 
ATOM     11  C   UNL A   1      39.171  35.371  40.575  1.00  0.00     0.162 A 
ATOM     12  C   UNL A   1      38.875  34.314  39.697  1.00  0.00     0.079 A 
ATOM     13  C   UNL A   1      39.523  36.616  40.052  1.00  0.00     0.161 A 
ATOM     14  C   UNL A   1      38.918  34.445  38.314  1.00  0.00     0.083 A 
ATOM     15  C   UNL A   1      39.686  36.735  38.668  1.00  0.00     0.066 A 
ATOM     16  N   UNL A   1      38.512  33.423  37.537  1.00  0.00    -0.222 NA
ATOM     17  C   UNL A   1      39.392  35.647  37.794  1.00  0.00     0.066 A 
ATOM     18  C   UNL A   1      39.522  35.628  36.405  1.00  0.00     0.223 A 
ATOM     19  N   UNL A   1      39.089  34.643  35.598  1.00  0.00    -0.187 NA
BRANCH  11  20
ATOM     20  O   UNL A   1      39.115  35.021  41.899  1.00  0.00    -0.493 OA
ATOM     21  C   UNL A   1      39.319  33.646  42.197  1.00  0.00     0.278 C 
ENDBRANCH  11  20
BRANCH  13  22
ATOM     22  O   UNL A   1      39.792  37.661  40.892  1.00  0.00    -0.493 OA
ATOM     23  C   UNL A   1      40.447  38.765  40.263  1.00  0.00     0.278 C 
ENDBRANCH  13  22
BRANCH  18  24
ATOM     24  O   UNL A   1      40.111  36.641  35.708  1.00  0.00    -0.493 OA
ATOM     25  H   UNL A   1      40.603  36.453  34.933  1.00  0.00     0.295 HD
ENDBRANCH  18  24
ENDBRANCH   9  10
ENDBRANCH   8   9
ENDBRANCH   6   8
ENDBRANCH   5   6
ENDBRANCH   4   5
ENDBRANCH   3   4
ENDBRANCH   2   3
ENDBRANCH   1   2
BRANCH   1  26
ATOM     26  C   UNL A   1      32.994  36.139  29.429  1.00  0.00     0.188 C 
BRANCH  26  27
ATOM     27  O   UNL A   1      33.901  35.693  28.438  1.00  0.00    -0.376 OA
BRANCH  27  28
ATOM     28  C   UNL A   1      33.839  34.322  28.084  1.00  0.00     0.202 C 
BRANCH  28  29
ATOM     29  C   UNL A   1      35.030  33.456  28.509  1.00  0.00     0.261 C 
BRANCH  29  30
ATOM     30  O   UNL A   1      35.435  32.528  27.481  1.00  0.00    -0.460 OA
BRANCH  30  31
ATOM     31  C   UNL A   1      34.954  31.271  27.629  1.00  0.00     0.338 C 
ATOM     32  O   UNL A   1      33.817  30.889  27.409  1.00  0.00    -0.246 OA
BRANCH  31  33
ATOM     33  C   UNL A   1      35.997  30.334  28.080  1.00  0.00     0.060 A 
ATOM     34  C   UNL A   1      37.204  30.307  27.386  1.00  0.00     0.016 A 
ATOM     35  C   UNL A   1      35.887  29.691  29.315  1.00  0.00     0.016 A 
ATOM     36  C   UNL A   1      38.303  29.650  27.943  1.00  0.00     0.010 A 
ATOM     37  C   UNL A   1      37.002  29.087  29.896  1.00  0.00     0.010 A 
ATOM     38  C   UNL A   1      38.222  29.066  29.220  1.00  0.00    -0.014 A 
BRANCH  38  39
ATOM     39  C   UNL A   1      39.428  28.477  29.848  1.00  0.00     0.031 A 
ATOM     40  C   UNL A   1      40.140  27.336  29.184  1.00  0.00     0.074 A 
ATOM     41  C   UNL A   1      39.891  28.996  31.003  1.00  0.00     0.049 A 
ATOM     42  N   UNL A   1      41.338  26.876  29.422  1.00  0.00    -0.248 NA
ATOM     43  C   UNL A   1      39.420  26.614  28.120  1.00  0.00     0.031 C 
ATOM     44  C   UNL A   1      39.215  30.029  31.790  1.00  0.00     0.029 A 
ATOM     45  N   UNL A   1      41.047  28.754  31.703  1.00  0.00    -0.354 N 
ATOM     46  C   UNL A   1      41.532  25.847  28.509  1.00  0.00     0.074 A 
ATOM     47  C   UNL A   1      40.299  25.684  27.778  1.00  0.00     0.031 C 
ATOM     48  C   UNL A   1      39.999  30.382  32.822  1.00  0.00     0.029 A 
ATOM     49  C   UNL A   1      41.233  29.603  32.773  1.00  0.00     0.049 A 
ATOM     50  H   UNL A   1      41.683  28.041  31.463  1.00  0.00     0.167 HD
ATOM     51  C   UNL A   1      42.660  25.140  28.270  1.00  0.00     0.034 A 
ATOM     52  C   UNL A   1      42.300  29.769  33.582  1.00  0.00     0.034 A 
ATOM     53  C   UNL A   1      43.872  25.313  29.022  1.00  0.00     0.049 A 
ATOM     54  C   UNL A   1      43.546  28.961  33.301  1.00  0.00     0.074 A 
ATOM     55  C   UNL A   1      45.088  24.683  28.841  1.00  0.00     0.029 A 
ATOM     56  N   UNL A   1      44.018  26.173  30.101  1.00  0.00    -0.354 N 
ATOM     57  N   UNL A   1      43.779  28.117  32.322  1.00  0.00    -0.248 NA
ATOM     58  C   UNL A   1      44.683  29.138  34.217  1.00  0.00     0.031 C 
ATOM     59  C   UNL A   1      45.952  25.119  29.845  1.00  0.00     0.029 A 
ATOM     60  C   UNL A   1      45.297  26.070  30.614  1.00  0.00     0.049 A 
ATOM     61  H   UNL A   1      43.315  26.768  30.450  1.00  0.00     0.167 HD
ATOM     62  C   UNL A   1      45.096  27.696  32.481  1.00  0.00     0.074 A 
ATOM     63  C   UNL A   1      45.617  28.393  33.639  1.00  0.00     0.031 C 
ATOM     64  C   UNL A   1      45.809  26.809  31.743  1.00  0.00     0.034 A 
BRANCH  51  65
ATOM     65  C   UNL A   1      42.669  24.165  27.126  1.00  0.00     0.023 A 
ATOM     66  C   UNL A   1      42.146  22.870  27.286  1.00  0.00     0.031 A 
ATOM     67  C   UNL A   1      43.314  24.481  25.914  1.00  0.00     0.131 A 
ATOM     68  C   UNL A   1      42.308  21.928  26.263  1.00  0.00     0.055 A 
ATOM     69  C   UNL A   1      43.436  23.550  24.884  1.00  0.00     0.041 A 
ATOM     70  F   UNL A   1      43.827  25.706  25.716  1.00  0.00    -0.206 F 
ATOM     71  C   UNL A   1      42.943  22.263  25.061  1.00  0.00     0.022 A 
BRANCH  68  72
ATOM     72  S   UNL A   1      41.739  20.218  26.467  1.00  0.00     0.124 S 
ATOM     73  O   UNL A   1      42.328  19.853  27.753  1.00  0.00    -0.237 OA
ATOM     74  O   UNL A   1      40.287  20.382  26.470  1.00  0.00    -0.237 OA
ATOM     75  O   UNL A   1      42.296  19.524  25.312  1.00  0.00    -0.744 OA
ENDBRANCH  68  72
ENDBRANCH  51  65
BRANCH  52  76
ATOM     76  C   UNL A   1      42.282  30.824  34.643  1.00  0.00     0.023 A 
ATOM     77  C   UNL A   1      42.678  32.146  34.374  1.00  0.00     0.031 A 
ATOM     78  C   UNL A   1      41.914  30.504  35.962  1.00  0.00     0.131 A 
ATOM     79  C   UNL A   1      42.726  33.087  35.413  1.00  0.00     0.055 A 
ATOM     80  C   UNL A   1      41.904  31.460  36.981  1.00  0.00     0.041 A 
ATOM     81  F   UNL A   1      41.550  29.252  36.278  1.00  0.00    -0.206 F 
ATOM     82  C   UNL A   1      42.323  32.757  36.711  1.00  0.00     0.022 A 
BRANCH  79  83
ATOM     83  S   UNL A   1      43.422  34.741  35.142  1.00  0.00     0.124 S 
ATOM     84  O   UNL A   1      42.862  35.493  36.260  1.00  0.00    -0.237 OA
ATOM     85  O   UNL A   1      44.859  34.478  35.216  1.00  0.00    -0.237 OA
ATOM     86  O   UNL A   1      42.929  35.105  33.819  1.00  0.00    -0.744 OA
ENDBRANCH  79  83
ENDBRANCH  52  76
BRANCH  64  87
ATOM     87  C   UNL A   1      47.240  26.524  32.125  1.00  0.00     0.023 A 
ATOM     88  C   UNL A   1      48.285  27.160  31.428  1.00  0.00     0.031 A 
ATOM     89  C   UNL A   1      47.562  25.484  33.012  1.00  0.00     0.131 A 
ATOM     90  C   UNL A   1      49.599  26.704  31.581  1.00  0.00     0.055 A 
ATOM     91  C   UNL A   1      48.880  25.069  33.202  1.00  0.00     0.041 A 
ATOM     92  F   UNL A   1      46.596  24.839  33.686  1.00  0.00    -0.206 F 
ATOM     93  C   UNL A   1      49.903  25.666  32.469  1.00  0.00     0.022 A 
BRANCH  90  94
ATOM     94  S   UNL A   1      50.940  27.358  30.549  1.00  0.00     0.124 S 
ATOM     95  O   UNL A   1      50.384  27.215  29.206  1.00  0.00    -0.237 OA
ATOM     96  O   UNL A   1      51.057  28.732  31.034  1.00  0.00    -0.237 OA
ATOM     97  O   UNL A   1      52.072  26.488  30.848  1.00  0.00    -0.744 OA
ENDBRANCH  90  94
ENDBRANCH  64  87
ENDBRANCH  38  39
ENDBRANCH  31  33
ENDBRANCH  30  31
ENDBRANCH  29  30
ENDBRANCH  28  29
ENDBRANCH  27  28
ENDBRANCH  26  27
ENDBRANCH   1  26
TORSDOF 25
ENDMDL
MODEL 2
REMARK VINA RESULT:      -8.5      1.507      2.199
REMARK SMILES COc1cc2nc(SCC(=O)OCCOCCOCCOC(=O)c3ccc(-c4c5nc(c(-c6cc(S(=O)(=O)[O-])ccc6F)c6ccc([nH]6)c(-c6cc(S(=O)(=O)[O-])ccc6F)c6nc(c(-c7cc(S(=O)(=O)[O-])ccc7F)c7ccc4[nH]7)C=C6)C=C5)cc3)nc(O)c2cc1OC
REMARK SMILES IDX 16 1 15 2 14 3 13 4 12 5 10 6 11 7 9 8 8 9 7 10 3 11 4 12
REMARK SMILES IDX 92 13 5 14 91 15 6 16 90 17 88 18 87 19 2 20 1 21 93 22
REMARK SMILES IDX 94 23 89 24 17 26 18 27 19 28 20 29 21 30 22 31 23 32 24 33
REMARK SMILES IDX 25 34 86 35 26 36 85 37 27 38 28 39 29 40 79 41 30 42 84 43
REMARK SMILES IDX 78 44 80 45 31 46 83 47 77 48 76 49 32 51 64 52 44 53 63 54
REMARK SMILES IDX 45 55 48 56 62 57 81 58 46 59 47 60 61 62 82 63 49 64 33 65
REMARK SMILES IDX 34 66 42 67 35 68 41 69 43 70 40 71 36 72 37 73 38 74 39 75
REMARK SMILES IDX 65 76 66 77 74 78 67 79 73 80 75 81 72 82 68 83 69 84 70 85
REMARK SMILES IDX 71 86 50 87 51 88 59 89 52 90 58 91 60 92 57 93 53 94 54 95
REMARK SMILES IDX 55 96 56 97
REMARK H PARENT 89 25 80 50 48 61
REMARK Flexibility Score: inf
ROOT
ATOM      1  C   UNL A   1      33.736  35.559  31.134  1.00  0.00     0.188 C 
ENDROOT
BRANCH   1   2
ATOM      2  O   UNL A   1      33.952  34.255  31.658  1.00  0.00    -0.376 OA
BRANCH   2   3
ATOM      3  C   UNL A   1      35.249  33.936  32.154  1.00  0.00     0.202 C 
BRANCH   3   4
ATOM      4  C   UNL A   1      35.452  32.491  32.625  1.00  0.00     0.261 C 
BRANCH   4   5
ATOM      5  O   UNL A   1      35.812  32.489  34.021  1.00  0.00    -0.463 OA
BRANCH   5   6
ATOM      6  C   UNL A   1      36.043  33.695  34.606  1.00  0.00     0.316 C 
ATOM      7  O   UNL A   1      35.172  34.542  34.769  1.00  0.00    -0.251 OA
BRANCH   6   8
ATOM      8  C   UNL A   1      37.436  33.790  35.216  1.00  0.00     0.200 C 
BRANCH   8   9
ATOM      9  S   UNL A   1      38.088  32.190  35.820  1.00  0.00    -0.074 SA
BRANCH   9  10
ATOM     10  C   UNL A   1      37.860  32.338  37.591  1.00  0.00     0.192 A 
ATOM     11  C   UNL A   1      34.783  33.157  41.136  1.00  0.00     0.162 A 
ATOM     12  C   UNL A   1      35.085  32.767  39.820  1.00  0.00     0.079 A 
ATOM     13  C   UNL A   1      35.823  33.482  42.008  1.00  0.00     0.161 A 
ATOM     14  C   UNL A   1      36.385  32.686  39.334  1.00  0.00     0.083 A 
ATOM     15  C   UNL A   1      37.140  33.293  41.575  1.00  0.00     0.066 A 
ATOM     16  N   UNL A   1      36.592  32.416  38.031  1.00  0.00    -0.222 NA
ATOM     17  C   UNL A   1      37.426  32.885  40.238  1.00  0.00     0.066 A 
ATOM     18  C   UNL A   1      38.684  32.650  39.684  1.00  0.00     0.223 A 
ATOM     19  N   UNL A   1      38.928  32.421  38.382  1.00  0.00    -0.187 NA
BRANCH  11  20
ATOM     20  O   UNL A   1      33.445  33.127  41.427  1.00  0.00    -0.493 OA
ATOM     21  C   UNL A   1      32.767  34.376  41.409  1.00  0.00     0.278 C 
ENDBRANCH  11  20
BRANCH  13  22
ATOM     22  O   UNL A   1      35.546  33.885  43.286  1.00  0.00    -0.493 OA
ATOM     23  C   UNL A   1      36.508  33.462  44.255  1.00  0.00     0.278 C 
ENDBRANCH  13  22
BRANCH  18  24
ATOM     24  O   UNL A   1      39.825  32.638  40.430  1.00  0.00    -0.493 OA
ATOM     25  H   UNL A   1      39.847  33.068  41.262  1.00  0.00     0.295 HD
ENDBRANCH  18  24
ENDBRANCH   9  10
ENDBRANCH   8   9
ENDBRANCH   6   8
ENDBRANCH   5   6
ENDBRANCH   4   5
ENDBRANCH   3   4
ENDBRANCH   2   3
ENDBRANCH   1   2
BRANCH   1  26
ATOM     26  C   UNL A   1      32.909  35.703  29.840  1.00  0.00     0.188 C 
BRANCH  26  27
ATOM     27  O   UNL A   1      33.519  35.462  28.586  1.00  0.00    -0.376 OA
BRANCH  27  28
ATOM     28  C   UNL A   1      33.696  34.106  28.210  1.00  0.00     0.202 C 
BRANCH  28  29
ATOM     29  C   UNL A   1      35.063  33.489  28.523  1.00  0.00     0.261 C 
BRANCH  29  30
ATOM     30  O   UNL A   1      35.493  32.553  27.513  1.00  0.00    -0.460 OA
BRANCH  30  31
ATOM     31  C   UNL A   1      35.006  31.297  27.658  1.00  0.00     0.338 C 
ATOM     32  O   UNL A   1      33.865  30.922  27.447  1.00  0.00    -0.246 OA
BRANCH  31  33
ATOM     33  C   UNL A   1      36.049  30.352  28.095  1.00  0.00     0.060 A 
ATOM     34  C   UNL A   1      37.247  30.321  27.388  1.00  0.00     0.016 A 
ATOM     35  C   UNL A   1      35.948  29.705  29.328  1.00  0.00     0.016 A 
ATOM     36  C   UNL A   1      38.349  29.656  27.930  1.00  0.00     0.010 A 
ATOM     37  C   UNL A   1      37.065  29.093  29.895  1.00  0.00     0.010 A 
ATOM     38  C   UNL A   1      38.278  29.067  29.206  1.00  0.00    -0.014 A 
BRANCH  38  39
ATOM     39  C   UNL A   1      39.487  28.468  29.818  1.00  0.00     0.031 A 
ATOM     40  C   UNL A   1      40.184  27.323  29.144  1.00  0.00     0.074 A 
ATOM     41  C   UNL A   1      39.968  28.982  30.969  1.00  0.00     0.049 A 
ATOM     42  N   UNL A   1      41.381  26.855  29.368  1.00  0.00    -0.248 NA
ATOM     43  C   UNL A   1      39.446  26.608  28.088  1.00  0.00     0.031 C 
ATOM     44  C   UNL A   1      39.307  30.018  31.766  1.00  0.00     0.029 A 
ATOM     45  N   UNL A   1      41.130  28.730  31.655  1.00  0.00    -0.354 N 
ATOM     46  C   UNL A   1      41.557  25.826  28.450  1.00  0.00     0.074 A 
ATOM     47  C   UNL A   1      40.315  25.673  27.734  1.00  0.00     0.031 C 
ATOM     48  C   UNL A   1      40.106  30.364  32.789  1.00  0.00     0.029 A 
ATOM     49  C   UNL A   1      41.334  29.577  32.724  1.00  0.00     0.049 A 
ATOM     50  H   UNL A   1      41.758  28.014  31.407  1.00  0.00     0.167 HD
ATOM     51  C   UNL A   1      42.678  25.112  28.197  1.00  0.00     0.034 A 
ATOM     52  C   UNL A   1      42.412  29.734  33.521  1.00  0.00     0.034 A 
ATOM     53  C   UNL A   1      43.899  25.276  28.936  1.00  0.00     0.049 A 
ATOM     54  C   UNL A   1      43.649  28.917  33.224  1.00  0.00     0.074 A 
ATOM     55  C   UNL A   1      45.108  24.637  28.739  1.00  0.00     0.029 A 
ATOM     56  N   UNL A   1      44.064  26.132  30.014  1.00  0.00    -0.354 N 
ATOM     57  N   UNL A   1      43.864  28.074  32.240  1.00  0.00    -0.248 NA
ATOM     58  C   UNL A   1      44.797  29.085  34.126  1.00  0.00     0.031 C 
ATOM     59  C   UNL A   1      45.988  25.066  29.733  1.00  0.00     0.029 A 
ATOM     60  C   UNL A   1      45.348  26.019  30.511  1.00  0.00     0.049 A 
ATOM     61  H   UNL A   1      43.369  26.732  30.372  1.00  0.00     0.167 HD
ATOM     62  C   UNL A   1      45.180  27.643  32.384  1.00  0.00     0.074 A 
ATOM     63  C   UNL A   1      45.720  28.335  33.537  1.00  0.00     0.031 C 
ATOM     64  C   UNL A   1      45.878  26.753  31.636  1.00  0.00     0.034 A 
BRANCH  51  65
ATOM     65  C   UNL A   1      42.666  24.139  27.051  1.00  0.00     0.023 A 
ATOM     66  C   UNL A   1      42.140  22.846  27.216  1.00  0.00     0.031 A 
ATOM     67  C   UNL A   1      43.295  24.455  25.831  1.00  0.00     0.131 A 
ATOM     68  C   UNL A   1      42.284  21.905  26.190  1.00  0.00     0.055 A 
ATOM     69  C   UNL A   1      43.399  23.525  24.798  1.00  0.00     0.041 A 
ATOM     70  F   UNL A   1      43.811  25.678  25.628  1.00  0.00    -0.206 F 
ATOM     71  C   UNL A   1      42.903  22.239  24.980  1.00  0.00     0.022 A 
BRANCH  68  72
ATOM     72  S   UNL A   1      41.710  20.198  26.398  1.00  0.00     0.124 S 
ATOM     73  O   UNL A   1      40.267  20.338  26.217  1.00  0.00    -0.237 OA
ATOM     74  O   UNL A   1      42.410  19.509  25.318  1.00  0.00    -0.237 OA
ATOM     75  O   UNL A   1      42.132  19.850  27.751  1.00  0.00    -0.744 OA
ENDBRANCH  68  72
ENDBRANCH  51  65
BRANCH  52  76
ATOM     76  C   UNL A   1      42.414  30.787  34.584  1.00  0.00     0.023 A 
ATOM     77  C   UNL A   1      42.843  32.099  34.320  1.00  0.00     0.031 A 
ATOM     78  C   UNL A   1      42.030  30.474  35.901  1.00  0.00     0.131 A 
ATOM     79  C   UNL A   1      42.909  33.037  35.361  1.00  0.00     0.055 A 
ATOM     80  C   UNL A   1      42.038  31.427  36.922  1.00  0.00     0.041 A 
ATOM     81  F   UNL A   1      41.634  29.231  36.212  1.00  0.00    -0.206 F 
ATOM     82  C   UNL A   1      42.490  32.714  36.656  1.00  0.00     0.022 A 
BRANCH  79  83
ATOM     83  S   UNL A   1      43.647  34.673  35.098  1.00  0.00     0.124 S 
ATOM     84  O   UNL A   1      42.709  35.282  34.160  1.00  0.00    -0.237 OA
ATOM     85  O   UNL A   1      43.637  35.229  36.450  1.00  0.00    -0.237 OA
ATOM     86  O   UNL A   1      44.970  34.368  34.565  1.00  0.00    -0.744 OA
ENDBRANCH  79  83
ENDBRANCH  52  76
BRANCH  64  87
ATOM     87  C   UNL A   1      47.312  26.457  32.001  1.00  0.00     0.023 A 
ATOM     88  C   UNL A   1      48.353  27.021  31.238  1.00  0.00     0.031 A 
ATOM     89  C   UNL A   1      47.632  25.468  32.944  1.00  0.00     0.131 A 
ATOM     90  C   UNL A   1      49.660  26.543  31.389  1.00  0.00     0.055 A 
ATOM     91  C   UNL A   1      48.945  25.033  33.129  1.00  0.00     0.041 A 
ATOM     92  F   UNL A   1      46.669  24.893  33.682  1.00  0.00    -0.206 F 
ATOM     93  C   UNL A   1      49.962  25.556  32.334  1.00  0.00     0.022 A 
BRANCH  90  94
ATOM     94  S   UNL A   1      50.988  27.096  30.284  1.00  0.00     0.124 S 
ATOM     95  O   UNL A   1      52.058  27.406  31.231  1.00  0.00    -0.237 OA
ATOM     96  O   UNL A   1      51.210  25.912  29.457  1.00  0.00    -0.237 OA
ATOM     97  O   UNL A   1      50.418  28.247  29.594  1.00  0.00    -0.744 OA
ENDBRANCH  90  94
ENDBRANCH  64  87
ENDBRANCH  38  39
ENDBRANCH  31  33
ENDBRANCH  30  31
ENDBRANCH  29  30
ENDBRANCH  28  29
ENDBRANCH  27  28
ENDBRANCH  26  27
ENDBRANCH   1  26
TORSDOF 25
ENDMDL
MODEL 3
REMARK VINA RESULT:      -8.4      4.367     11.633
REMARK SMILES COc1cc2nc(SCC(=O)OCCOCCOCCOC(=O)c3ccc(-c4c5nc(c(-c6cc(S(=O)(=O)[O-])ccc6F)c6ccc([nH]6)c(-c6cc(S(=O)(=O)[O-])ccc6F)c6nc(c(-c7cc(S(=O)(=O)[O-])ccc7F)c7ccc4[nH]7)C=C6)C=C5)cc3)nc(O)c2cc1OC
REMARK SMILES IDX 16 1 15 2 14 3 13 4 12 5 10 6 11 7 9 8 8 9 7 10 3 11 4 12
REMARK SMILES IDX 92 13 5 14 91 15 6 16 90 17 88 18 87 19 2 20 1 21 93 22
REMARK SMILES IDX 94 23 89 24 17 26 18 27 19 28 20 29 21 30 22 31 23 32 24 33
REMARK SMILES IDX 25 34 86 35 26 36 85 37 27 38 28 39 29 40 79 41 30 42 84 43
REMARK SMILES IDX 78 44 80 45 31 46 83 47 77 48 76 49 32 51 64 52 44 53 63 54
REMARK SMILES IDX 45 55 48 56 62 57 81 58 46 59 47 60 61 62 82 63 49 64 33 65
REMARK SMILES IDX 34 66 42 67 35 68 41 69 43 70 40 71 36 72 37 73 38 74 39 75
REMARK SMILES IDX 65 76 66 77 74 78 67 79 73 80 75 81 72 82 68 83 69 84 70 85
REMARK SMILES IDX 71 86 50 87 51 88 59 89 52 90 58 91 60 92 57 93 53 94 54 95
REMARK SMILES IDX 55 96 56 97
REMARK H PARENT 89 25 80 50 48 61
REMARK Flexibility Score: inf
ROOT
ATOM      1  C   UNL A   1      33.630  33.245  28.345  1.00  0.00     0.188 C 
ENDROOT
BRANCH   1   2
ATOM      2  O   UNL A   1      34.297  32.189  29.025  1.00  0.00    -0.376 OA
BRANCH   2   3
ATOM      3  C   UNL A   1      34.715  31.059  28.265  1.00  0.00     0.202 C 
BRANCH   3   4
ATOM      4  C   UNL A   1      34.028  30.871  26.907  1.00  0.00     0.261 C 
BRANCH   4   5
ATOM      5  O   UNL A   1      33.202  29.690  26.947  1.00  0.00    -0.463 OA
BRANCH   5   6
ATOM      6  C   UNL A   1      32.692  29.247  25.767  1.00  0.00     0.316 C 
ATOM      7  O   UNL A   1      31.563  29.519  25.377  1.00  0.00    -0.251 OA
BRANCH   6   8
ATOM      8  C   UNL A   1      33.740  28.559  24.900  1.00  0.00     0.200 C 
BRANCH   8   9
ATOM      9  S   UNL A   1      33.184  28.235  23.187  1.00  0.00    -0.074 SA
BRANCH   9  10
ATOM     10  C   UNL A   1      32.776  26.492  23.249  1.00  0.00     0.192 A 
ATOM     11  C   UNL A   1      31.410  22.838  25.984  1.00  0.00     0.162 A 
ATOM     12  C   UNL A   1      31.517  24.212  25.713  1.00  0.00     0.079 A 
ATOM     13  C   UNL A   1      31.876  21.917  25.045  1.00  0.00     0.161 A 
ATOM     14  C   UNL A   1      32.070  24.711  24.539  1.00  0.00     0.083 A 
ATOM     15  C   UNL A   1      32.327  22.395  23.810  1.00  0.00     0.066 A 
ATOM     16  N   UNL A   1      32.244  26.038  24.397  1.00  0.00    -0.222 NA
ATOM     17  C   UNL A   1      32.417  23.795  23.549  1.00  0.00     0.066 A 
ATOM     18  C   UNL A   1      32.835  24.401  22.364  1.00  0.00     0.223 A 
ATOM     19  N   UNL A   1      33.059  25.717  22.203  1.00  0.00    -0.187 NA
BRANCH  11  20
ATOM     20  O   UNL A   1      30.793  22.557  27.175  1.00  0.00    -0.493 OA
ATOM     21  C   UNL A   1      29.399  22.828  27.243  1.00  0.00     0.278 C 
ENDBRANCH  11  20
BRANCH  13  22
ATOM     22  O   UNL A   1      31.800  20.576  25.303  1.00  0.00    -0.493 OA
ATOM     23  C   UNL A   1      33.040  19.880  25.160  1.00  0.00     0.278 C 
ENDBRANCH  13  22
BRANCH  18  24
ATOM     24  O   UNL A   1      33.074  23.697  21.222  1.00  0.00    -0.493 OA
ATOM     25  H   UNL A   1      32.863  24.069  20.389  1.00  0.00     0.295 HD
ENDBRANCH  18  24
ENDBRANCH   9  10
ENDBRANCH   8   9
ENDBRANCH   6   8
ENDBRANCH   5   6
ENDBRANCH   4   5
ENDBRANCH   3   4
ENDBRANCH   2   3
ENDBRANCH   1   2
BRANCH   1  26
ATOM     26  C   UNL A   1      34.429  34.519  28.002  1.00  0.00     0.188 C 
BRANCH  26  27
ATOM     27  O   UNL A   1      34.421  35.616  28.896  1.00  0.00    -0.376 OA
BRANCH  27  28
ATOM     28  C   UNL A   1      33.168  35.983  29.448  1.00  0.00     0.202 C 
BRANCH  28  29
ATOM     29  C   UNL A   1      32.973  35.696  30.941  1.00  0.00     0.261 C 
BRANCH  29  30
ATOM     30  O   UNL A   1      34.206  35.342  31.601  1.00  0.00    -0.460 OA
BRANCH  30  31
ATOM     31  C   UNL A   1      34.196  34.134  32.213  1.00  0.00     0.338 C 
ATOM     32  O   UNL A   1      33.301  33.661  32.893  1.00  0.00    -0.246 OA
BRANCH  31  33
ATOM     33  C   UNL A   1      35.429  33.374  31.945  1.00  0.00     0.060 A 
ATOM     34  C   UNL A   1      36.474  34.022  31.292  1.00  0.00     0.016 A 
ATOM     35  C   UNL A   1      35.648  32.138  32.557  1.00  0.00     0.016 A 
ATOM     36  C   UNL A   1      37.742  33.437  31.272  1.00  0.00     0.010 A 
ATOM     37  C   UNL A   1      36.928  31.584  32.587  1.00  0.00     0.010 A 
ATOM     38  C   UNL A   1      37.989  32.230  31.951  1.00  0.00    -0.014 A 
BRANCH  38  39
ATOM     39  C   UNL A   1      39.363  31.681  32.021  1.00  0.00     0.031 A 
ATOM     40  C   UNL A   1      40.242  32.002  33.193  1.00  0.00     0.074 A 
ATOM     41  C   UNL A   1      39.801  30.870  31.036  1.00  0.00     0.049 A 
ATOM     42  N   UNL A   1      41.345  31.413  33.568  1.00  0.00    -0.248 NA
ATOM     43  C   UNL A   1      39.839  33.128  34.054  1.00  0.00     0.031 C 
ATOM     44  C   UNL A   1      39.072  30.583  29.799  1.00  0.00     0.029 A 
ATOM     45  N   UNL A   1      40.943  30.116  30.928  1.00  0.00    -0.354 N 
ATOM     46  C   UNL A   1      41.739  32.063  34.731  1.00  0.00     0.074 A 
ATOM     47  C   UNL A   1      40.817  33.151  34.948  1.00  0.00     0.031 C 
ATOM     48  C   UNL A   1      39.749  29.663  29.092  1.00  0.00     0.029 A 
ATOM     49  C   UNL A   1      40.959  29.293  29.821  1.00  0.00     0.049 A 
ATOM     50  H   UNL A   1      41.681  30.158  31.579  1.00  0.00     0.167 HD
ATOM     51  C   UNL A   1      42.752  31.742  35.567  1.00  0.00     0.034 A 
ATOM     52  C   UNL A   1      41.821  28.317  29.471  1.00  0.00     0.034 A 
ATOM     53  C   UNL A   1      43.665  30.661  35.320  1.00  0.00     0.049 A 
ATOM     54  C   UNL A   1      42.951  27.983  30.418  1.00  0.00     0.074 A 
ATOM     55  C   UNL A   1      44.702  30.219  36.119  1.00  0.00     0.029 A 
ATOM     56  N   UNL A   1      43.656  29.860  34.188  1.00  0.00    -0.354 N 
ATOM     57  N   UNL A   1      43.210  28.487  31.603  1.00  0.00    -0.248 NA
ATOM     58  C   UNL A   1      43.894  26.937  29.996  1.00  0.00     0.031 C 
ATOM     59  C   UNL A   1      45.355  29.187  35.444  1.00  0.00     0.029 A 
ATOM     60  C   UNL A   1      44.686  28.942  34.253  1.00  0.00     0.049 A 
ATOM     61  H   UNL A   1      43.011  29.934  33.447  1.00  0.00     0.167 HD
ATOM     62  C   UNL A   1      44.318  27.793  32.082  1.00  0.00     0.074 A 
ATOM     63  C   UNL A   1      44.668  26.819  31.068  1.00  0.00     0.031 C 
ATOM     64  C   UNL A   1      44.989  27.950  33.250  1.00  0.00     0.034 A 
BRANCH  51  65
ATOM     65  C   UNL A   1      42.899  32.516  36.849  1.00  0.00     0.023 A 
ATOM     66  C   UNL A   1      42.138  32.176  37.980  1.00  0.00     0.031 A 
ATOM     67  C   UNL A   1      43.703  33.670  36.904  1.00  0.00     0.131 A 
ATOM     68  C   UNL A   1      42.171  33.005  39.109  1.00  0.00     0.055 A 
ATOM     69  C   UNL A   1      43.762  34.469  38.045  1.00  0.00     0.041 A 
ATOM     70  F   UNL A   1      44.449  34.033  35.847  1.00  0.00    -0.206 F 
ATOM     71  C   UNL A   1      42.983  34.143  39.150  1.00  0.00     0.022 A 
BRANCH  68  72
ATOM     72  S   UNL A   1      41.129  32.660  40.552  1.00  0.00     0.124 S 
ATOM     73  O   UNL A   1      39.827  32.417  39.936  1.00  0.00    -0.237 OA
ATOM     74  O   UNL A   1      41.780  31.482  41.120  1.00  0.00    -0.237 OA
ATOM     75  O   UNL A   1      41.219  33.879  41.347  1.00  0.00    -0.744 OA
ENDBRANCH  68  72
ENDBRANCH  51  65
BRANCH  52  76
ATOM     76  C   UNL A   1      41.577  27.505  28.238  1.00  0.00     0.023 A 
ATOM     77  C   UNL A   1      41.175  26.160  28.309  1.00  0.00     0.031 A 
ATOM     78  C   UNL A   1      41.794  28.059  26.963  1.00  0.00     0.131 A 
ATOM     79  C   UNL A   1      41.035  25.407  27.133  1.00  0.00     0.055 A 
ATOM     80  C   UNL A   1      41.595  27.324  25.792  1.00  0.00     0.041 A 
ATOM     81  F   UNL A   1      42.201  29.331  26.839  1.00  0.00    -0.206 F 
ATOM     82  C   UNL A   1      41.223  25.987  25.874  1.00  0.00     0.022 A 
BRANCH  79  83
ATOM     83  S   UNL A   1      40.716  23.623  27.199  1.00  0.00     0.124 S 
ATOM     84  O   UNL A   1      39.263  23.569  27.073  1.00  0.00    -0.237 OA
ATOM     85  O   UNL A   1      41.468  23.140  26.043  1.00  0.00    -0.237 OA
ATOM     86  O   UNL A   1      41.257  23.228  28.496  1.00  0.00    -0.744 OA
ENDBRANCH  79  83
ENDBRANCH  52  76
BRANCH  64  87
ATOM     87  C   UNL A   1      46.171  27.057  33.539  1.00  0.00     0.023 A 
ATOM     88  C   UNL A   1      47.425  27.362  32.976  1.00  0.00     0.031 A 
ATOM     89  C   UNL A   1      46.006  25.817  34.177  1.00  0.00     0.131 A 
ATOM     90  C   UNL A   1      48.449  26.408  33.006  1.00  0.00     0.055 A 
ATOM     91  C   UNL A   1      47.047  24.891  34.252  1.00  0.00     0.041 A 
ATOM     92  F   UNL A   1      44.823  25.479  34.713  1.00  0.00    -0.206 F 
ATOM     93  C   UNL A   1      48.268  25.176  33.647  1.00  0.00     0.022 A 
BRANCH  90  94
ATOM     94  S   UNL A   1      50.006  26.681  32.116  1.00  0.00     0.124 S 
ATOM     95  O   UNL A   1      50.655  27.692  32.947  1.00  0.00    -0.237 OA
ATOM     96  O   UNL A   1      50.617  25.355  32.155  1.00  0.00    -0.237 OA
ATOM     97  O   UNL A   1      49.582  27.140  30.798  1.00  0.00    -0.744 OA
ENDBRANCH  90  94
ENDBRANCH  64  87
ENDBRANCH  38  39
ENDBRANCH  31  33
ENDBRANCH  30  31
ENDBRANCH  29  30
ENDBRANCH  28  29
ENDBRANCH  27  28
ENDBRANCH  26  27
ENDBRANCH   1  26
TORSDOF 25
ENDMDL
