MODEL 1
REMARK VINA RESULT:     -11.1      0.000      0.000
REMARK SMILES COc1c[nH]c(C[N@H+]2CCC[C@@H](c3ccc(C(=O)OCCOCCOCCOC(=O)c4ccc(-c5c6nc(c(-c7cc(S(=O)(=O)[O-])ccc7F)c7ccc([nH]7)c(-c7cc(S(=O)(=O)[O-])ccc7F)c7nc(c(-c8cc(S(=O)(=O)[O-])ccc8F)c8ccc5[nH]8)C=C7)C=C6)cc4)cc3)C2)cc1=O
REMARK SMILES IDX 23 1 22 2 21 3 20 4 19 5 17 6 18 7 16 8 13 9 14 10 95 11
REMARK SMILES IDX 15 12 94 13 12 14 8 15 9 16 96 17 10 19 11 20 7 21 6 22 3 23
REMARK SMILES IDX 4 24 98 25 5 26 97 27 99 28 2 30 1 31 24 32 25 33 26 34
REMARK SMILES IDX 27 35 28 36 29 37 30 38 31 39 32 40 93 41 33 42 92 43 34 44
REMARK SMILES IDX 35 45 36 46 86 47 37 48 91 49 85 50 87 51 38 52 90 53 84 54
REMARK SMILES IDX 83 55 39 57 71 58 51 59 70 60 52 61 55 62 69 63 88 64 53 65
REMARK SMILES IDX 54 66 68 68 89 69 56 70 40 71 41 72 49 73 42 74 48 75 50 76
REMARK SMILES IDX 47 77 43 78 44 79 45 80 46 81 72 82 73 83 81 84 74 85 80 86
REMARK SMILES IDX 82 87 79 88 75 89 76 90 77 91 78 92 57 93 58 94 66 95 59 96
REMARK SMILES IDX 65 97 67 98 64 99 60 100 61 101 62 102 63 103
REMARK H PARENT 8 18 5 29 87 56 55 67
REMARK Flexibility Score: inf
ROOT
ATOM      1  C   UNL A   1      42.757  18.793  26.259  1.00  0.00     0.188 C 
ENDROOT
BRANCH   1   2
ATOM      2  O   UNL A   1      42.170  19.910  26.921  1.00  0.00    -0.376 OA
BRANCH   2   3
ATOM      3  C   UNL A   1      40.801  20.223  26.701  1.00  0.00     0.202 C 
BRANCH   3   4
ATOM      4  C   UNL A   1      40.448  21.454  25.856  1.00  0.00     0.261 C 
BRANCH   4   5
ATOM      5  O   UNL A   1      39.081  21.877  25.976  1.00  0.00    -0.460 OA
BRANCH   5   6
ATOM      6  C   UNL A   1      38.186  21.129  25.279  1.00  0.00     0.338 C 
ATOM      7  O   UNL A   1      38.302  19.970  24.945  1.00  0.00    -0.246 OA
BRANCH   6   8
ATOM      8  C   UNL A   1      36.924  21.884  25.109  1.00  0.00     0.060 A 
ATOM      9  C   UNL A   1      34.583  23.429  25.036  1.00  0.00    -0.039 A 
ATOM     10  C   UNL A   1      35.846  24.046  25.068  1.00  0.00     0.005 A 
ATOM     11  C   UNL A   1      34.518  22.030  24.930  1.00  0.00     0.005 A 
ATOM     12  C   UNL A   1      37.006  23.279  25.138  1.00  0.00     0.016 A 
ATOM     13  C   UNL A   1      35.687  21.257  24.954  1.00  0.00     0.016 A 
BRANCH   9  14
ATOM     14  C   UNL A   1      33.320  24.238  25.336  1.00  0.00     0.074 C 
ATOM     15  N   UNL A   1      32.180  26.359  24.499  1.00  0.00    -0.329 N 
ATOM     16  C   UNL A   1      30.937  25.600  24.279  1.00  0.00     0.262 C 
ATOM     17  C   UNL A   1      33.348  25.479  24.415  1.00  0.00     0.270 C 
ATOM     18  H   UNL A   1      32.144  26.744  25.442  1.00  0.00     0.348 HD
ATOM     19  C   UNL A   1      30.816  24.423  25.252  1.00  0.00     0.062 C 
ATOM     20  C   UNL A   1      32.009  23.468  25.139  1.00  0.00     0.020 C 
BRANCH  15  21
ATOM     21  C   UNL A   1      32.296  27.511  23.568  1.00  0.00     0.317 C 
BRANCH  21  22
ATOM     22  C   UNL A   1      31.123  28.489  23.533  1.00  0.00     0.074 A 
ATOM     23  C   UNL A   1      29.290  30.676  23.464  1.00  0.00     0.182 A 
ATOM     24  C   UNL A   1      30.147  30.473  24.473  1.00  0.00     0.133 A 
ATOM     25  C   UNL A   1      29.226  29.583  22.426  1.00  0.00     0.223 A 
ATOM     26  N   UNL A   1      30.962  29.382  24.577  1.00  0.00    -0.357 N 
ATOM     27  C   UNL A   1      30.275  28.522  22.489  1.00  0.00     0.083 A 
ATOM     28  O   UNL A   1      28.387  29.523  21.534  1.00  0.00    -0.286 OA
ATOM     29  H   UNL A   1      31.448  29.226  25.420  1.00  0.00     0.166 HD
BRANCH  23  30
ATOM     30  O   UNL A   1      28.591  31.860  23.396  1.00  0.00    -0.491 OA
ATOM     31  C   UNL A   1      29.200  32.857  22.583  1.00  0.00     0.278 C 
ENDBRANCH  23  30
ENDBRANCH  21  22
ENDBRANCH  15  21
ENDBRANCH   9  14
ENDBRANCH   6   8
ENDBRANCH   5   6
ENDBRANCH   4   5
ENDBRANCH   3   4
ENDBRANCH   2   3
ENDBRANCH   1   2
BRANCH   1  32
ATOM     32  C   UNL A   1      44.096  18.953  25.508  1.00  0.00     0.188 C 
BRANCH  32  33
ATOM     33  O   UNL A   1      43.974  19.545  24.227  1.00  0.00    -0.376 OA
BRANCH  33  34
ATOM     34  C   UNL A   1      44.630  20.790  24.046  1.00  0.00     0.202 C 
BRANCH  34  35
ATOM     35  C   UNL A   1      44.753  21.702  25.279  1.00  0.00     0.261 C 
BRANCH  35  36
ATOM     36  O   UNL A   1      43.773  22.747  25.399  1.00  0.00    -0.460 OA
BRANCH  36  37
ATOM     37  C   UNL A   1      44.198  24.012  25.174  1.00  0.00     0.338 C 
ATOM     38  O   UNL A   1      44.955  24.374  24.293  1.00  0.00    -0.246 OA
BRANCH  37  39
ATOM     39  C   UNL A   1      43.442  24.920  26.068  1.00  0.00     0.060 A 
ATOM     40  C   UNL A   1      43.909  26.226  26.256  1.00  0.00     0.016 A 
ATOM     41  C   UNL A   1      42.292  24.482  26.731  1.00  0.00     0.016 A 
ATOM     42  C   UNL A   1      43.253  27.083  27.144  1.00  0.00     0.010 A 
ATOM     43  C   UNL A   1      41.642  25.340  27.630  1.00  0.00     0.010 A 
ATOM     44  C   UNL A   1      42.140  26.633  27.869  1.00  0.00    -0.014 A 
BRANCH  44  45
ATOM     45  C   UNL A   1      41.630  27.447  29.007  1.00  0.00     0.031 A 
ATOM     46  C   UNL A   1      42.371  27.391  30.319  1.00  0.00     0.074 A 
ATOM     47  C   UNL A   1      40.567  28.262  28.870  1.00  0.00     0.049 A 
ATOM     48  N   UNL A   1      42.133  28.019  31.441  1.00  0.00    -0.248 NA
ATOM     49  C   UNL A   1      43.542  26.500  30.365  1.00  0.00     0.031 C 
ATOM     50  C   UNL A   1      39.790  28.436  27.643  1.00  0.00     0.029 A 
ATOM     51  N   UNL A   1      39.957  29.100  29.774  1.00  0.00    -0.354 N 
ATOM     52  C   UNL A   1      43.127  27.609  32.325  1.00  0.00     0.074 A 
ATOM     53  C   UNL A   1      43.939  26.640  31.620  1.00  0.00     0.031 C 
ATOM     54  C   UNL A   1      38.807  29.325  27.871  1.00  0.00     0.029 A 
ATOM     55  C   UNL A   1      38.857  29.759  29.268  1.00  0.00     0.049 A 
ATOM     56  H   UNL A   1      40.276  29.219  30.697  1.00  0.00     0.167 HD
ATOM     57  C   UNL A   1      43.352  28.012  33.600  1.00  0.00     0.034 A 
ATOM     58  C   UNL A   1      37.983  30.595  29.869  1.00  0.00     0.034 A 
ATOM     59  C   UNL A   1      42.524  28.965  34.299  1.00  0.00     0.049 A 
ATOM     60  C   UNL A   1      38.198  30.951  31.327  1.00  0.00     0.074 A 
ATOM     61  C   UNL A   1      42.662  29.444  35.590  1.00  0.00     0.029 A 
ATOM     62  N   UNL A   1      41.393  29.574  33.770  1.00  0.00    -0.354 N 
ATOM     63  N   UNL A   1      39.163  30.580  32.139  1.00  0.00    -0.248 NA
ATOM     64  C   UNL A   1      37.213  31.850  31.945  1.00  0.00     0.031 C 
ATOM     65  C   UNL A   1      41.577  30.284  35.865  1.00  0.00     0.029 A 
ATOM     66  C   UNL A   1      40.808  30.399  34.718  1.00  0.00     0.049 A 
ATOM     67  H   UNL A   1      41.055  29.439  32.855  1.00  0.00     0.167 HD
ATOM     68  C   UNL A   1      38.927  31.248  33.341  1.00  0.00     0.074 A 
ATOM     69  C   UNL A   1      37.738  32.049  33.144  1.00  0.00     0.031 C 
ATOM     70  C   UNL A   1      39.630  31.207  34.502  1.00  0.00     0.034 A 
BRANCH  57  71
ATOM     71  C   UNL A   1      44.514  27.381  34.330  1.00  0.00     0.023 A 
ATOM     72  C   UNL A   1      44.434  26.082  34.865  1.00  0.00     0.031 A 
ATOM     73  C   UNL A   1      45.706  28.100  34.524  1.00  0.00     0.131 A 
ATOM     74  C   UNL A   1      45.498  25.572  35.627  1.00  0.00     0.055 A 
ATOM     75  C   UNL A   1      46.792  27.555  35.214  1.00  0.00     0.041 A 
ATOM     76  F   UNL A   1      45.833  29.353  34.059  1.00  0.00    -0.206 F 
ATOM     77  C   UNL A   1      46.685  26.290  35.784  1.00  0.00     0.022 A 
BRANCH  74  78
ATOM     78  S   UNL A   1      45.250  24.020  36.533  1.00  0.00     0.124 S 
ATOM     79  O   UNL A   1      45.458  24.448  37.914  1.00  0.00    -0.237 OA
ATOM     80  O   UNL A   1      43.883  23.660  36.174  1.00  0.00    -0.237 OA
ATOM     81  O   UNL A   1      46.288  23.142  35.997  1.00  0.00    -0.744 OA
ENDBRANCH  74  78
ENDBRANCH  57  71
BRANCH  58  82
ATOM     82  C   UNL A   1      36.793  31.128  29.134  1.00  0.00     0.023 A 
ATOM     83  C   UNL A   1      35.743  30.285  28.725  1.00  0.00     0.031 A 
ATOM     84  C   UNL A   1      36.744  32.475  28.730  1.00  0.00     0.131 A 
ATOM     85  C   UNL A   1      34.748  30.777  27.865  1.00  0.00     0.055 A 
ATOM     86  C   UNL A   1      35.695  32.982  27.960  1.00  0.00     0.041 A 
ATOM     87  F   UNL A   1      37.728  33.324  29.068  1.00  0.00    -0.206 F 
ATOM     88  C   UNL A   1      34.697  32.127  27.508  1.00  0.00     0.022 A 
BRANCH  85  89
ATOM     89  S   UNL A   1      33.567  29.627  27.103  1.00  0.00     0.124 S 
ATOM     90  O   UNL A   1      34.082  29.545  25.742  1.00  0.00    -0.237 OA
ATOM     91  O   UNL A   1      33.716  28.423  27.912  1.00  0.00    -0.237 OA
ATOM     92  O   UNL A   1      32.290  30.319  27.258  1.00  0.00    -0.744 OA
ENDBRANCH  85  89
ENDBRANCH  58  82
BRANCH  70  93
ATOM     93  C   UNL A   1      39.178  32.124  35.618  1.00  0.00     0.023 A 
ATOM     94  C   UNL A   1      38.448  31.655  36.724  1.00  0.00     0.031 A 
ATOM     95  C   UNL A   1      39.468  33.499  35.556  1.00  0.00     0.131 A 
ATOM     96  C   UNL A   1      37.977  32.562  37.688  1.00  0.00     0.055 A 
ATOM     97  C   UNL A   1      39.054  34.386  36.550  1.00  0.00     0.041 A 
ATOM     98  F   UNL A   1      40.164  34.005  34.524  1.00  0.00    -0.206 F 
ATOM     99  C   UNL A   1      38.289  33.922  37.615  1.00  0.00     0.022 A 
BRANCH  96 100
ATOM    100  S   UNL A   1      36.858  31.958  38.982  1.00  0.00     0.124 S 
ATOM    101  O   UNL A   1      36.896  30.515  38.769  1.00  0.00    -0.237 OA
ATOM    102  O   UNL A   1      37.502  32.440  40.199  1.00  0.00    -0.237 OA
ATOM    103  O   UNL A   1      35.584  32.600  38.661  1.00  0.00    -0.744 OA
ENDBRANCH  96 100
ENDBRANCH  70  93
ENDBRANCH  44  45
ENDBRANCH  37  39
ENDBRANCH  36  37
ENDBRANCH  35  36
ENDBRANCH  34  35
ENDBRANCH  33  34
ENDBRANCH  32  33
ENDBRANCH   1  32
TORSDOF 24
ENDMDL
MODEL 2
REMARK VINA RESULT:      -9.8      4.319     11.022
REMARK SMILES COc1c[nH]c(C[N@H+]2CCC[C@@H](c3ccc(C(=O)OCCOCCOCCOC(=O)c4ccc(-c5c6nc(c(-c7cc(S(=O)(=O)[O-])ccc7F)c7ccc([nH]7)c(-c7cc(S(=O)(=O)[O-])ccc7F)c7nc(c(-c8cc(S(=O)(=O)[O-])ccc8F)c8ccc5[nH]8)C=C7)C=C6)cc4)cc3)C2)cc1=O
REMARK SMILES IDX 23 1 22 2 21 3 20 4 19 5 17 6 18 7 16 8 13 9 14 10 95 11
REMARK SMILES IDX 15 12 94 13 12 14 8 15 9 16 96 17 10 19 11 20 7 21 6 22 3 23
REMARK SMILES IDX 4 24 98 25 5 26 97 27 99 28 2 30 1 31 24 32 25 33 26 34
REMARK SMILES IDX 27 35 28 36 29 37 30 38 31 39 32 40 93 41 33 42 92 43 34 44
REMARK SMILES IDX 35 45 36 46 86 47 37 48 91 49 85 50 87 51 38 52 90 53 84 54
REMARK SMILES IDX 83 55 39 57 71 58 51 59 70 60 52 61 55 62 69 63 88 64 53 65
REMARK SMILES IDX 54 66 68 68 89 69 56 70 40 71 41 72 49 73 42 74 48 75 50 76
REMARK SMILES IDX 47 77 43 78 44 79 45 80 46 81 72 82 73 83 81 84 74 85 80 86
REMARK SMILES IDX 82 87 79 88 75 89 76 90 77 91 78 92 57 93 58 94 66 95 59 96
REMARK SMILES IDX 65 97 67 98 64 99 60 100 61 101 62 102 63 103
REMARK H PARENT 8 18 5 29 87 56 55 67
REMARK Flexibility Score: inf
ROOT
ATOM      1  C   UNL A   1      34.634  34.594  28.042  1.00  0.00     0.188 C 
ENDROOT
BRANCH   1   2
ATOM      2  O   UNL A   1      35.539  33.529  27.764  1.00  0.00    -0.376 OA
BRANCH   2   3
ATOM      3  C   UNL A   1      35.148  32.185  28.012  1.00  0.00     0.202 C 
BRANCH   3   4
ATOM      4  C   UNL A   1      35.529  31.538  29.350  1.00  0.00     0.261 C 
BRANCH   4   5
ATOM      5  O   UNL A   1      35.975  30.177  29.238  1.00  0.00    -0.460 OA
BRANCH   5   6
ATOM      6  C   UNL A   1      36.632  29.698  30.326  1.00  0.00     0.338 C 
ATOM      7  O   UNL A   1      36.238  29.679  31.472  1.00  0.00    -0.246 OA
BRANCH   6   8
ATOM      8  C   UNL A   1      37.880  29.022  29.903  1.00  0.00     0.060 A 
ATOM      9  C   UNL A   1      40.105  27.660  28.870  1.00  0.00    -0.039 A 
ATOM     10  C   UNL A   1      39.564  28.765  28.190  1.00  0.00     0.005 A 
ATOM     11  C   UNL A   1      39.581  27.320  30.128  1.00  0.00     0.005 A 
ATOM     12  C   UNL A   1      38.439  29.419  28.685  1.00  0.00     0.016 A 
ATOM     13  C   UNL A   1      38.477  28.006  30.651  1.00  0.00     0.016 A 
BRANCH   9  14
ATOM     14  C   UNL A   1      41.081  26.718  28.163  1.00  0.00     0.074 C 
ATOM     15  N   UNL A   1      41.165  24.281  27.418  1.00  0.00    -0.329 N 
ATOM     16  C   UNL A   1      41.502  24.713  26.052  1.00  0.00     0.262 C 
ATOM     17  C   UNL A   1      40.414  25.324  28.123  1.00  0.00     0.270 C 
ATOM     18  H   UNL A   1      42.040  24.131  27.920  1.00  0.00     0.348 HD
ATOM     19  C   UNL A   1      42.266  26.042  26.053  1.00  0.00     0.062 C 
ATOM     20  C   UNL A   1      41.470  27.153  26.745  1.00  0.00     0.020 C 
BRANCH  15  21
ATOM     21  C   UNL A   1      40.437  22.986  27.425  1.00  0.00     0.317 C 
BRANCH  21  22
ATOM     22  C   UNL A   1      39.235  22.867  26.490  1.00  0.00     0.074 A 
ATOM     23  C   UNL A   1      36.874  22.230  25.017  1.00  0.00     0.182 A 
ATOM     24  C   UNL A   1      37.937  21.419  25.078  1.00  0.00     0.133 A 
ATOM     25  C   UNL A   1      37.050  23.593  25.640  1.00  0.00     0.223 A 
ATOM     26  N   UNL A   1      39.114  21.743  25.692  1.00  0.00    -0.357 N 
ATOM     27  C   UNL A   1      38.277  23.812  26.462  1.00  0.00     0.083 A 
ATOM     28  O   UNL A   1      36.249  24.514  25.530  1.00  0.00    -0.286 OA
ATOM     29  H   UNL A   1      39.898  21.162  25.562  1.00  0.00     0.166 HD
BRANCH  23  30
ATOM     30  O   UNL A   1      35.698  21.768  24.469  1.00  0.00    -0.491 OA
ATOM     31  C   UNL A   1      34.975  20.869  25.301  1.00  0.00     0.278 C 
ENDBRANCH  23  30
ENDBRANCH  21  22
ENDBRANCH  15  21
ENDBRANCH   9  14
ENDBRANCH   6   8
ENDBRANCH   5   6
ENDBRANCH   4   5
ENDBRANCH   3   4
ENDBRANCH   2   3
ENDBRANCH   1   2
BRANCH   1  32
ATOM     32  C   UNL A   1      33.123  34.311  28.178  1.00  0.00     0.188 C 
BRANCH  32  33
ATOM     33  O   UNL A   1      32.533  34.867  29.339  1.00  0.00    -0.376 OA
BRANCH  33  34
ATOM     34  C   UNL A   1      32.945  36.181  29.684  1.00  0.00     0.202 C 
BRANCH  34  35
ATOM     35  C   UNL A   1      33.035  36.515  31.182  1.00  0.00     0.261 C 
BRANCH  35  36
ATOM     36  O   UNL A   1      34.160  35.970  31.891  1.00  0.00    -0.460 OA
BRANCH  36  37
ATOM     37  C   UNL A   1      33.962  34.806  32.551  1.00  0.00     0.338 C 
ATOM     38  O   UNL A   1      32.895  34.246  32.724  1.00  0.00    -0.246 OA
BRANCH  37  39
ATOM     39  C   UNL A   1      35.286  34.225  32.875  1.00  0.00     0.060 A 
ATOM     40  C   UNL A   1      35.341  32.974  33.499  1.00  0.00     0.016 A 
ATOM     41  C   UNL A   1      36.465  34.918  32.582  1.00  0.00     0.016 A 
ATOM     42  C   UNL A   1      36.573  32.432  33.874  1.00  0.00     0.010 A 
ATOM     43  C   UNL A   1      37.699  34.378  32.970  1.00  0.00     0.010 A 
ATOM     44  C   UNL A   1      37.758  33.149  33.651  1.00  0.00    -0.014 A 
BRANCH  44  45
ATOM     45  C   UNL A   1      39.020  32.698  34.302  1.00  0.00     0.031 A 
ATOM     46  C   UNL A   1      39.313  33.174  35.702  1.00  0.00     0.074 A 
ATOM     47  C   UNL A   1      39.863  31.844  33.692  1.00  0.00     0.049 A 
ATOM     48  N   UNL A   1      40.329  32.905  36.481  1.00  0.00    -0.248 NA
ATOM     49  C   UNL A   1      38.318  34.077  36.303  1.00  0.00     0.031 C 
ATOM     50  C   UNL A   1      39.671  31.281  32.356  1.00  0.00     0.029 A 
ATOM     51  N   UNL A   1      41.050  31.297  34.118  1.00  0.00    -0.354 N 
ATOM     52  C   UNL A   1      40.095  33.598  37.665  1.00  0.00     0.074 A 
ATOM     53  C   UNL A   1      38.864  34.336  37.481  1.00  0.00     0.031 C 
ATOM     54  C   UNL A   1      40.705  30.468  32.073  1.00  0.00     0.029 A 
ATOM     55  C   UNL A   1      41.652  30.479  33.188  1.00  0.00     0.049 A 
ATOM     56  H   UNL A   1      41.434  31.474  35.007  1.00  0.00     0.167 HD
ATOM     57  C   UNL A   1      40.828  33.606  38.806  1.00  0.00     0.034 A 
ATOM     58  C   UNL A   1      42.838  29.833  33.225  1.00  0.00     0.034 A 
ATOM     59  C   UNL A   1      42.065  32.881  38.971  1.00  0.00     0.049 A 
ATOM     60  C   UNL A   1      43.689  29.942  34.475  1.00  0.00     0.074 A 
ATOM     61  C   UNL A   1      42.887  32.819  40.083  1.00  0.00     0.029 A 
ATOM     62  N   UNL A   1      42.667  32.102  37.991  1.00  0.00    -0.354 N 
ATOM     63  N   UNL A   1      43.436  30.574  35.600  1.00  0.00    -0.248 NA
ATOM     64  C   UNL A   1      44.979  29.237  34.466  1.00  0.00     0.031 C 
ATOM     65  C   UNL A   1      44.017  32.063  39.752  1.00  0.00     0.029 A 
ATOM     66  C   UNL A   1      43.862  31.581  38.463  1.00  0.00     0.049 A 
ATOM     67  H   UNL A   1      42.298  31.943  37.092  1.00  0.00     0.167 HD
ATOM     68  C   UNL A   1      44.511  30.292  36.445  1.00  0.00     0.074 A 
ATOM     69  C   UNL A   1      45.404  29.427  35.705  1.00  0.00     0.031 C 
ATOM     70  C   UNL A   1      44.737  30.705  37.718  1.00  0.00     0.034 A 
BRANCH  57  71
ATOM     71  C   UNL A   1      40.330  34.469  39.942  1.00  0.00     0.023 A 
ATOM     72  C   UNL A   1      39.372  34.003  40.860  1.00  0.00     0.031 A 
ATOM     73  C   UNL A   1      40.794  35.787  40.088  1.00  0.00     0.131 A 
ATOM     74  C   UNL A   1      38.859  34.870  41.837  1.00  0.00     0.055 A 
ATOM     75  C   UNL A   1      40.339  36.620  41.113  1.00  0.00     0.041 A 
ATOM     76  F   UNL A   1      41.690  36.296  39.227  1.00  0.00    -0.206 F 
ATOM     77  C   UNL A   1      39.354  36.167  41.986  1.00  0.00     0.022 A 
BRANCH  74  78
ATOM     78  S   UNL A   1      37.431  34.327  42.817  1.00  0.00     0.124 S 
ATOM     79  O   UNL A   1      37.905  33.050  43.345  1.00  0.00    -0.237 OA
ATOM     80  O   UNL A   1      37.285  35.405  43.786  1.00  0.00    -0.237 OA
ATOM     81  O   UNL A   1      36.359  34.224  41.829  1.00  0.00    -0.744 OA
ENDBRANCH  74  78
ENDBRANCH  57  71
BRANCH  58  82
ATOM     82  C   UNL A   1      43.336  29.062  32.043  1.00  0.00     0.023 A 
ATOM     83  C   UNL A   1      43.916  29.707  30.936  1.00  0.00     0.031 A 
ATOM     84  C   UNL A   1      43.134  27.672  31.956  1.00  0.00     0.131 A 
ATOM     85  C   UNL A   1      44.184  28.980  29.765  1.00  0.00     0.055 A 
ATOM     86  C   UNL A   1      43.498  26.937  30.826  1.00  0.00     0.041 A 
ATOM     87  F   UNL A   1      42.563  27.002  32.971  1.00  0.00    -0.206 F 
ATOM     88  C   UNL A   1      44.012  27.594  29.714  1.00  0.00     0.022 A 
BRANCH  85  89
ATOM     89  S   UNL A   1      44.652  29.858  28.246  1.00  0.00     0.124 S 
ATOM     90  O   UNL A   1      45.648  30.795  28.751  1.00  0.00    -0.237 OA
ATOM     91  O   UNL A   1      45.158  28.789  27.395  1.00  0.00    -0.237 OA
ATOM     92  O   UNL A   1      43.390  30.449  27.808  1.00  0.00    -0.744 OA
ENDBRANCH  85  89
ENDBRANCH  58  82
BRANCH  70  93
ATOM     93  C   UNL A   1      45.959  30.153  38.419  1.00  0.00     0.023 A 
ATOM     94  C   UNL A   1      45.914  28.976  39.187  1.00  0.00     0.031 A 
ATOM     95  C   UNL A   1      47.186  30.835  38.331  1.00  0.00     0.131 A 
ATOM     96  C   UNL A   1      47.055  28.554  39.889  1.00  0.00     0.055 A 
ATOM     97  C   UNL A   1      48.334  30.375  38.978  1.00  0.00     0.041 A 
ATOM     98  F   UNL A   1      47.290  31.964  37.611  1.00  0.00    -0.206 F 
ATOM     99  C   UNL A   1      48.268  29.238  39.776  1.00  0.00     0.022 A 
BRANCH  96 100
ATOM    100  S   UNL A   1      46.907  27.159  41.040  1.00  0.00     0.124 S 
ATOM    101  O   UNL A   1      45.640  26.560  40.631  1.00  0.00    -0.237 OA
ATOM    102  O   UNL A   1      48.105  26.381  40.742  1.00  0.00    -0.237 OA
ATOM    103  O   UNL A   1      46.895  27.798  42.354  1.00  0.00    -0.744 OA
ENDBRANCH  96 100
ENDBRANCH  70  93
ENDBRANCH  44  45
ENDBRANCH  37  39
ENDBRANCH  36  37
ENDBRANCH  35  36
ENDBRANCH  34  35
ENDBRANCH  33  34
ENDBRANCH  32  33
ENDBRANCH   1  32
TORSDOF 24
ENDMDL
MODEL 3
REMARK VINA RESULT:      -9.8      4.481     12.187
REMARK SMILES COc1c[nH]c(C[N@H+]2CCC[C@@H](c3ccc(C(=O)OCCOCCOCCOC(=O)c4ccc(-c5c6nc(c(-c7cc(S(=O)(=O)[O-])ccc7F)c7ccc([nH]7)c(-c7cc(S(=O)(=O)[O-])ccc7F)c7nc(c(-c8cc(S(=O)(=O)[O-])ccc8F)c8ccc5[nH]8)C=C7)C=C6)cc4)cc3)C2)cc1=O
REMARK SMILES IDX 23 1 22 2 21 3 20 4 19 5 17 6 18 7 16 8 13 9 14 10 95 11
REMARK SMILES IDX 15 12 94 13 12 14 8 15 9 16 96 17 10 19 11 20 7 21 6 22 3 23
REMARK SMILES IDX 4 24 98 25 5 26 97 27 99 28 2 30 1 31 24 32 25 33 26 34
REMARK SMILES IDX 27 35 28 36 29 37 30 38 31 39 32 40 93 41 33 42 92 43 34 44
REMARK SMILES IDX 35 45 36 46 86 47 37 48 91 49 85 50 87 51 38 52 90 53 84 54
REMARK SMILES IDX 83 55 39 57 71 58 51 59 70 60 52 61 55 62 69 63 88 64 53 65
REMARK SMILES IDX 54 66 68 68 89 69 56 70 40 71 41 72 49 73 42 74 48 75 50 76
REMARK SMILES IDX 47 77 43 78 44 79 45 80 46 81 72 82 73 83 81 84 74 85 80 86
REMARK SMILES IDX 82 87 79 88 75 89 76 90 77 91 78 92 57 93 58 94 66 95 59 96
REMARK SMILES IDX 65 97 67 98 64 99 60 100 61 101 62 102 63 103
REMARK H PARENT 8 18 5 29 87 56 55 67
REMARK Flexibility Score: inf
ROOT
ATOM      1  C   UNL A   1      36.071  32.754  32.579  1.00  0.00     0.188 C 
ENDROOT
BRANCH   1   2
ATOM      2  O   UNL A   1      37.036  32.593  33.615  1.00  0.00    -0.376 OA
BRANCH   2   3
ATOM      3  C   UNL A   1      37.380  33.698  34.440  1.00  0.00     0.202 C 
BRANCH   3   4
ATOM      4  C   UNL A   1      38.520  34.625  33.999  1.00  0.00     0.261 C 
BRANCH   4   5
ATOM      5  O   UNL A   1      39.822  34.017  34.044  1.00  0.00    -0.460 OA
BRANCH   5   6
ATOM      6  C   UNL A   1      40.847  34.831  33.681  1.00  0.00     0.338 C 
ATOM      7  O   UNL A   1      41.263  35.799  34.279  1.00  0.00    -0.246 OA
BRANCH   6   8
ATOM      8  C   UNL A   1      41.534  34.274  32.493  1.00  0.00     0.060 A 
ATOM      9  C   UNL A   1      43.024  33.422  30.274  1.00  0.00    -0.039 A 
ATOM     10  C   UNL A   1      43.584  33.397  31.564  1.00  0.00     0.005 A 
ATOM     11  C   UNL A   1      41.672  33.776  30.132  1.00  0.00     0.005 A 
ATOM     12  C   UNL A   1      42.856  33.852  32.659  1.00  0.00     0.016 A 
ATOM     13  C   UNL A   1      40.923  34.190  31.241  1.00  0.00     0.016 A 
BRANCH   9  14
ATOM     14  C   UNL A   1      43.919  33.289  29.041  1.00  0.00     0.074 C 
ATOM     15  N   UNL A   1      44.487  31.526  27.288  1.00  0.00    -0.329 N 
ATOM     16  C   UNL A   1      44.151  32.484  26.221  1.00  0.00     0.262 C 
ATOM     17  C   UNL A   1      43.757  31.843  28.519  1.00  0.00     0.270 C 
ATOM     18  H   UNL A   1      45.484  31.617  27.482  1.00  0.00     0.348 HD
ATOM     19  C   UNL A   1      44.406  33.930  26.661  1.00  0.00     0.062 C 
ATOM     20  C   UNL A   1      43.610  34.288  27.919  1.00  0.00     0.020 C 
BRANCH  15  21
ATOM     21  C   UNL A   1      44.256  30.122  26.863  1.00  0.00     0.317 C 
BRANCH  21  22
ATOM     22  C   UNL A   1      45.464  29.187  26.890  1.00  0.00     0.074 A 
ATOM     23  C   UNL A   1      47.376  27.068  26.929  1.00  0.00     0.182 A 
ATOM     24  C   UNL A   1      46.473  27.253  27.900  1.00  0.00     0.133 A 
ATOM     25  C   UNL A   1      47.443  28.147  25.877  1.00  0.00     0.223 A 
ATOM     26  N   UNL A   1      45.615  28.316  27.954  1.00  0.00    -0.357 N 
ATOM     27  C   UNL A   1      46.355  29.170  25.881  1.00  0.00     0.083 A 
ATOM     28  O   UNL A   1      48.314  28.225  25.018  1.00  0.00    -0.286 OA
ATOM     29  H   UNL A   1      45.090  28.466  28.773  1.00  0.00     0.166 HD
BRANCH  23  30
ATOM     30  O   UNL A   1      48.120  25.909  26.907  1.00  0.00    -0.491 OA
ATOM     31  C   UNL A   1      47.372  24.725  27.159  1.00  0.00     0.278 C 
ENDBRANCH  23  30
ENDBRANCH  21  22
ENDBRANCH  15  21
ENDBRANCH   9  14
ENDBRANCH   6   8
ENDBRANCH   5   6
ENDBRANCH   4   5
ENDBRANCH   3   4
ENDBRANCH   2   3
ENDBRANCH   1   2
BRANCH   1  32
ATOM     32  C   UNL A   1      36.514  33.203  31.170  1.00  0.00     0.188 C 
BRANCH  32  33
ATOM     33  O   UNL A   1      35.553  33.986  30.484  1.00  0.00    -0.376 OA
BRANCH  33  34
ATOM     34  C   UNL A   1      34.373  33.312  30.075  1.00  0.00     0.202 C 
BRANCH  34  35
ATOM     35  C   UNL A   1      33.982  33.427  28.592  1.00  0.00     0.261 C 
BRANCH  35  36
ATOM     36  O   UNL A   1      34.804  32.706  27.658  1.00  0.00    -0.460 OA
BRANCH  36  37
ATOM     37  C   UNL A   1      34.747  31.355  27.709  1.00  0.00     0.338 C 
ATOM     38  O   UNL A   1      33.940  30.644  27.139  1.00  0.00    -0.246 OA
BRANCH  37  39
ATOM     39  C   UNL A   1      35.946  30.868  28.429  1.00  0.00     0.060 A 
ATOM     40  C   UNL A   1      37.187  31.451  28.146  1.00  0.00     0.016 A 
ATOM     41  C   UNL A   1      35.853  29.832  29.363  1.00  0.00     0.016 A 
ATOM     42  C   UNL A   1      38.344  30.967  28.763  1.00  0.00     0.010 A 
ATOM     43  C   UNL A   1      37.016  29.340  29.971  1.00  0.00     0.010 A 
ATOM     44  C   UNL A   1      38.273  29.881  29.647  1.00  0.00    -0.014 A 
BRANCH  44  45
ATOM     45  C   UNL A   1      39.528  29.199  30.072  1.00  0.00     0.031 A 
ATOM     46  C   UNL A   1      40.232  29.699  31.307  1.00  0.00     0.074 A 
ATOM     47  C   UNL A   1      40.005  28.126  29.413  1.00  0.00     0.049 A 
ATOM     48  N   UNL A   1      41.322  29.261  31.883  1.00  0.00    -0.248 NA
ATOM     49  C   UNL A   1      39.619  30.854  31.983  1.00  0.00     0.031 C 
ATOM     50  C   UNL A   1      39.394  27.523  28.230  1.00  0.00     0.029 A 
ATOM     51  N   UNL A   1      41.116  27.351  29.648  1.00  0.00    -0.354 N 
ATOM     52  C   UNL A   1      41.522  30.078  32.992  1.00  0.00     0.074 A 
ATOM     53  C   UNL A   1      40.466  31.068  32.977  1.00  0.00     0.031 C 
ATOM     54  C   UNL A   1      40.137  26.471  27.843  1.00  0.00     0.029 A 
ATOM     55  C   UNL A   1      41.298  26.345  28.725  1.00  0.00     0.049 A 
ATOM     56  H   UNL A   1      41.725  27.501  30.407  1.00  0.00     0.167 HD
ATOM     57  C   UNL A   1      42.485  30.002  33.944  1.00  0.00     0.034 A 
ATOM     58  C   UNL A   1      42.296  25.444  28.595  1.00  0.00     0.034 A 
ATOM     59  C   UNL A   1      43.544  29.022  33.937  1.00  0.00     0.049 A 
ATOM     60  C   UNL A   1      43.419  25.446  29.614  1.00  0.00     0.074 A 
ATOM     61  C   UNL A   1      44.571  28.855  34.851  1.00  0.00     0.029 A 
ATOM     62  N   UNL A   1      43.723  28.051  32.961  1.00  0.00    -0.354 N 
ATOM     63  N   UNL A   1      43.574  26.205  30.677  1.00  0.00    -0.248 NA
ATOM     64  C   UNL A   1      44.492  24.461  29.425  1.00  0.00     0.031 C 
ATOM     65  C   UNL A   1      45.407  27.832  34.390  1.00  0.00     0.029 A 
ATOM     66  C   UNL A   1      44.858  27.302  33.234  1.00  0.00     0.049 A 
ATOM     67  H   UNL A   1      43.130  27.913  32.186  1.00  0.00     0.167 HD
ATOM     68  C   UNL A   1      44.731  25.745  31.307  1.00  0.00     0.074 A 
ATOM     69  C   UNL A   1      45.225  24.640  30.513  1.00  0.00     0.031 C 
ATOM     70  C   UNL A   1      45.330  26.191  32.441  1.00  0.00     0.034 A 
BRANCH  57  71
ATOM     71  C   UNL A   1      42.459  31.042  35.039  1.00  0.00     0.023 A 
ATOM     72  C   UNL A   1      41.342  31.206  35.878  1.00  0.00     0.031 A 
ATOM     73  C   UNL A   1      43.553  31.906  35.223  1.00  0.00     0.131 A 
ATOM     74  C   UNL A   1      41.317  32.252  36.814  1.00  0.00     0.055 A 
ATOM     75  C   UNL A   1      43.554  32.893  36.211  1.00  0.00     0.041 A 
ATOM     76  F   UNL A   1      44.637  31.814  34.437  1.00  0.00    -0.206 F 
ATOM     77  C   UNL A   1      42.425  33.081  37.003  1.00  0.00     0.022 A 
BRANCH  74  78
ATOM     78  S   UNL A   1      39.761  32.607  37.676  1.00  0.00     0.124 S 
ATOM     79  O   UNL A   1      39.559  34.018  37.351  1.00  0.00    -0.237 OA
ATOM     80  O   UNL A   1      38.835  31.669  37.054  1.00  0.00    -0.237 OA
ATOM     81  O   UNL A   1      40.077  32.338  39.077  1.00  0.00    -0.744 OA
ENDBRANCH  74  78
ENDBRANCH  57  71
BRANCH  58  82
ATOM     82  C   UNL A   1      42.331  24.489  27.443  1.00  0.00     0.023 A 
ATOM     83  C   UNL A   1      41.582  23.298  27.452  1.00  0.00     0.031 A 
ATOM     84  C   UNL A   1      43.205  24.701  26.361  1.00  0.00     0.131 A 
ATOM     85  C   UNL A   1      41.793  22.333  26.454  1.00  0.00     0.055 A 
ATOM     86  C   UNL A   1      43.334  23.783  25.317  1.00  0.00     0.041 A 
ATOM     87  F   UNL A   1      43.965  25.808  26.307  1.00  0.00    -0.206 F 
ATOM     88  C   UNL A   1      42.636  22.581  25.368  1.00  0.00     0.022 A 
BRANCH  85  89
ATOM     89  S   UNL A   1      41.052  20.685  26.625  1.00  0.00     0.124 S 
ATOM     90  O   UNL A   1      40.771  20.642  28.055  1.00  0.00    -0.237 OA
ATOM     91  O   UNL A   1      39.888  20.758  25.751  1.00  0.00    -0.237 OA
ATOM     92  O   UNL A   1      42.116  19.798  26.161  1.00  0.00    -0.744 OA
ENDBRANCH  85  89
ENDBRANCH  58  82
BRANCH  70  93
ATOM     93  C   UNL A   1      46.536  25.423  32.935  1.00  0.00     0.023 A 
ATOM     94  C   UNL A   1      47.821  25.618  32.397  1.00  0.00     0.031 A 
ATOM     95  C   UNL A   1      46.387  24.460  33.950  1.00  0.00     0.131 A 
ATOM     96  C   UNL A   1      48.891  24.817  32.830  1.00  0.00     0.055 A 
ATOM     97  C   UNL A   1      47.467  23.712  34.422  1.00  0.00     0.041 A 
ATOM     98  F   UNL A   1      45.185  24.230  34.502  1.00  0.00    -0.206 F 
ATOM     99  C   UNL A   1      48.724  23.877  33.849  1.00  0.00     0.022 A 
BRANCH  96 100
ATOM    100  S   UNL A   1      50.482  24.944  31.967  1.00  0.00     0.124 S 
ATOM    101  O   UNL A   1      51.073  23.635  32.224  1.00  0.00    -0.237 OA
ATOM    102  O   UNL A   1      50.070  25.199  30.591  1.00  0.00    -0.237 OA
ATOM    103  O   UNL A   1      51.144  26.065  32.633  1.00  0.00    -0.744 OA
ENDBRANCH  96 100
ENDBRANCH  70  93
ENDBRANCH  44  45
ENDBRANCH  37  39
ENDBRANCH  36  37
ENDBRANCH  35  36
ENDBRANCH  34  35
ENDBRANCH  33  34
ENDBRANCH  32  33
ENDBRANCH   1  32
TORSDOF 24
ENDMDL
