MODEL 1
REMARK VINA RESULT:      -9.9      0.000      0.000
REMARK SMILES COc1cc(NC(=O)C2CCN(S(=O)(=O)c3cccs3)CC2)c(Cl)cc1C(=O)OCCOCCOCCOC(=O)c1ccc(-c2c3nc(c(-c4cc(S(=O)(=O)[O-])ccc4F)c4ccc([nH]4)c(-c4cc(S(=O)(=O)[O-])ccc4F)c4nc(c(-c5cc(S(=O)(=O)[O-])ccc5F)c5ccc2[nH]5)C=C4)C=C3)cc1
REMARK SMILES IDX 33 1 32 2 31 3 30 4 29 5 27 6 28 7 26 8 3 9 4 10 5 11 25 12
REMARK SMILES IDX 23 13 24 14 2 15 1 16 6 17 7 18 8 20 9 21 10 22 22 23 11 24
REMARK SMILES IDX 21 25 12 26 13 27 14 28 15 29 16 30 17 31 20 32 18 33 19 34
REMARK SMILES IDX 34 35 35 36 36 37 37 38 38 39 39 40 40 41 41 42 42 43 103 44
REMARK SMILES IDX 43 45 102 46 44 47 45 48 46 49 96 50 47 51 101 52 95 53
REMARK SMILES IDX 97 54 48 55 100 56 94 57 93 58 49 60 81 61 61 62 80 63 62 64
REMARK SMILES IDX 65 65 79 66 98 67 63 68 64 69 78 71 99 72 66 73 50 74 51 75
REMARK SMILES IDX 59 76 52 77 58 78 60 79 57 80 53 81 54 82 55 83 56 84 82 85
REMARK SMILES IDX 83 86 91 87 84 88 90 89 92 90 89 91 85 92 86 93 87 94 88 95
REMARK SMILES IDX 67 96 68 97 76 98 69 99 75 100 77 101 74 102 70 103 71 104
REMARK SMILES IDX 72 105 73 106
REMARK H PARENT 6 19 97 59 65 70
REMARK Flexibility Score: inf
ROOT
ATOM      1  C   UNL A   1      41.163  20.138  27.032  1.00  0.00     0.188 C 
ENDROOT
BRANCH   1   2
ATOM      2  O   UNL A   1      39.819  20.517  26.849  1.00  0.00    -0.376 OA
BRANCH   2   3
ATOM      3  C   UNL A   1      39.447  21.413  25.819  1.00  0.00     0.202 C 
BRANCH   3   4
ATOM      4  C   UNL A   1      38.075  22.094  25.647  1.00  0.00     0.261 C 
BRANCH   4   5
ATOM      5  O   UNL A   1      37.164  21.567  24.684  1.00  0.00    -0.460 OA
BRANCH   5   6
ATOM      6  C   UNL A   1      36.512  22.485  23.928  1.00  0.00     0.342 C 
ATOM      7  O   UNL A   1      36.774  22.811  22.784  1.00  0.00    -0.246 OA
BRANCH   6   8
ATOM      8  C   UNL A   1      35.300  22.933  24.635  1.00  0.00     0.103 A 
ATOM      9  C   UNL A   1      34.185  22.109  24.781  1.00  0.00     0.135 A 
ATOM     10  C   UNL A   1      33.100  22.531  25.550  1.00  0.00     0.075 A 
ATOM     11  C   UNL A   1      33.002  23.860  25.969  1.00  0.00     0.063 A 
ATOM     12  C   UNL A   1      35.277  24.229  25.168  1.00  0.00     0.042 A 
ATOM     13  C   UNL A   1      34.123  24.696  25.804  1.00  0.00     0.065 A 
ATOM     14  Cl  UNL A   1      34.067  26.361  26.267  1.00  0.00    -0.082 Cl
BRANCH   9  15
ATOM     15  O   UNL A   1      34.115  20.892  24.153  1.00  0.00    -0.496 OA
ATOM     16  C   UNL A   1      33.976  19.844  25.128  1.00  0.00     0.278 C 
ENDBRANCH   9  15
BRANCH  11  17
ATOM     17  N   UNL A   1      31.801  24.406  26.475  1.00  0.00    -0.324 N 
ATOM     18  C   UNL A   1      30.642  24.804  25.861  1.00  0.00     0.227 C 
ATOM     19  H   UNL A   1      31.795  24.521  27.453  1.00  0.00     0.169 HD
ATOM     20  O   UNL A   1      29.700  25.152  26.577  1.00  0.00    -0.274 OA
BRANCH  18  21
ATOM     21  C   UNL A   1      30.515  24.864  24.330  1.00  0.00     0.081 C 
ATOM     22  C   UNL A   1      31.768  25.408  23.634  1.00  0.00     0.030 C 
ATOM     23  C   UNL A   1      29.310  25.715  23.870  1.00  0.00     0.030 C 
ATOM     24  C   UNL A   1      31.966  26.874  23.940  1.00  0.00     0.103 C 
ATOM     25  C   UNL A   1      29.550  27.230  23.944  1.00  0.00     0.103 C 
ATOM     26  N   UNL A   1      30.847  27.593  23.303  1.00  0.00    -0.197 NA
BRANCH  26  27
ATOM     27  S   UNL A   1      31.185  29.267  23.166  1.00  0.00     0.252 S 
ATOM     28  O   UNL A   1      31.540  29.751  24.478  1.00  0.00    -0.206 OA
ATOM     29  O   UNL A   1      32.058  29.445  22.021  1.00  0.00    -0.206 OA
BRANCH  27  30
ATOM     30  C   UNL A   1      29.653  30.080  22.769  1.00  0.00     0.135 A 
ATOM     31  C   UNL A   1      28.796  29.932  21.695  1.00  0.00     0.033 A 
ATOM     32  S   UNL A   1      29.076  31.259  23.868  1.00  0.00    -0.131 S 
ATOM     33  C   UNL A   1      27.673  30.802  21.769  1.00  0.00     0.013 A 
ATOM     34  C   UNL A   1      27.691  31.564  22.915  1.00  0.00     0.066 A 
ENDBRANCH  27  30
ENDBRANCH  26  27
ENDBRANCH  18  21
ENDBRANCH  11  17
ENDBRANCH   6   8
ENDBRANCH   5   6
ENDBRANCH   4   5
ENDBRANCH   3   4
ENDBRANCH   2   3
ENDBRANCH   1   2
BRANCH   1  35
ATOM     35  C   UNL A   1      42.210  21.257  26.872  1.00  0.00     0.188 C 
BRANCH  35  36
ATOM     36  O   UNL A   1      42.401  22.165  27.937  1.00  0.00    -0.376 OA
BRANCH  36  37
ATOM     37  C   UNL A   1      42.458  23.561  27.679  1.00  0.00     0.202 C 
BRANCH  37  38
ATOM     38  C   UNL A   1      41.345  24.404  27.011  1.00  0.00     0.261 C 
BRANCH  38  39
ATOM     39  O   UNL A   1      41.648  25.084  25.790  1.00  0.00    -0.460 OA
BRANCH  39  40
ATOM     40  C   UNL A   1      42.925  25.520  25.654  1.00  0.00     0.338 C 
ATOM     41  O   UNL A   1      43.814  24.996  25.007  1.00  0.00    -0.246 OA
BRANCH  40  42
ATOM     42  C   UNL A   1      43.036  26.851  26.283  1.00  0.00     0.060 A 
ATOM     43  C   UNL A   1      43.974  27.047  27.306  1.00  0.00     0.016 A 
ATOM     44  C   UNL A   1      42.214  27.901  25.870  1.00  0.00     0.016 A 
ATOM     45  C   UNL A   1      44.107  28.299  27.909  1.00  0.00     0.010 A 
ATOM     46  C   UNL A   1      42.327  29.146  26.496  1.00  0.00     0.010 A 
ATOM     47  C   UNL A   1      43.267  29.352  27.525  1.00  0.00    -0.014 A 
BRANCH  47  48
ATOM     48  C   UNL A   1      43.277  30.637  28.269  1.00  0.00     0.031 A 
ATOM     49  C   UNL A   1      44.334  31.656  27.940  1.00  0.00     0.074 A 
ATOM     50  C   UNL A   1      42.373  30.886  29.235  1.00  0.00     0.049 A 
ATOM     51  N   UNL A   1      44.617  32.782  28.541  1.00  0.00    -0.248 NA
ATOM     52  C   UNL A   1      45.185  31.361  26.777  1.00  0.00     0.031 C 
ATOM     53  C   UNL A   1      41.264  30.007  29.601  1.00  0.00     0.029 A 
ATOM     54  N   UNL A   1      42.257  31.949  30.098  1.00  0.00    -0.354 N 
ATOM     55  C   UNL A   1      45.691  33.324  27.843  1.00  0.00     0.074 A 
ATOM     56  C   UNL A   1      46.017  32.392  26.784  1.00  0.00     0.031 C 
ATOM     57  C   UNL A   1      40.590  30.559  30.625  1.00  0.00     0.029 A 
ATOM     58  C   UNL A   1      41.251  31.801  31.026  1.00  0.00     0.049 A 
ATOM     59  H   UNL A   1      42.839  32.742  30.058  1.00  0.00     0.167 HD
ATOM     60  C   UNL A   1      46.345  34.489  28.071  1.00  0.00     0.034 A 
ATOM     61  C   UNL A   1      40.931  32.556  32.098  1.00  0.00     0.034 A 
ATOM     62  C   UNL A   1      46.012  35.403  29.138  1.00  0.00     0.049 A 
ATOM     63  C   UNL A   1      41.752  33.791  32.398  1.00  0.00     0.074 A 
ATOM     64  C   UNL A   1      46.594  36.623  29.436  1.00  0.00     0.029 A 
ATOM     65  N   UNL A   1      45.026  35.191  30.092  1.00  0.00    -0.354 N 
ATOM     66  N   UNL A   1      42.759  34.300  31.724  1.00  0.00    -0.248 NA
ATOM     67  C   UNL A   1      41.394  34.552  33.603  1.00  0.00     0.031 C 
ATOM     68  C   UNL A   1      46.026  37.103  30.619  1.00  0.00     0.029 A 
ATOM     69  C   UNL A   1      45.020  36.233  31.008  1.00  0.00     0.049 A 
ATOM     70  H   UNL A   1      44.420  34.416  30.115  1.00  0.00     0.167 HD
ATOM     71  C   UNL A   1      43.126  35.460  32.407  1.00  0.00     0.074 A 
ATOM     72  C   UNL A   1      42.222  35.583  33.531  1.00  0.00     0.031 C 
ATOM     73  C   UNL A   1      44.118  36.345  32.131  1.00  0.00     0.034 A 
BRANCH  60  74
ATOM     74  C   UNL A   1      47.530  34.814  27.195  1.00  0.00     0.023 A 
ATOM     75  C   UNL A   1      48.810  34.291  27.442  1.00  0.00     0.031 A 
ATOM     76  C   UNL A   1      47.366  35.657  26.080  1.00  0.00     0.131 A 
ATOM     77  C   UNL A   1      49.884  34.653  26.615  1.00  0.00     0.055 A 
ATOM     78  C   UNL A   1      48.421  35.954  25.217  1.00  0.00     0.041 A 
ATOM     79  F   UNL A   1      46.170  36.207  25.810  1.00  0.00    -0.206 F 
ATOM     80  C   UNL A   1      49.693  35.458  25.488  1.00  0.00     0.022 A 
BRANCH  77  81
ATOM     81  S   UNL A   1      51.561  34.156  27.095  1.00  0.00     0.124 S 
ATOM     82  O   UNL A   1      52.275  34.261  25.825  1.00  0.00    -0.237 OA
ATOM     83  O   UNL A   1      51.906  35.147  28.107  1.00  0.00    -0.237 OA
ATOM     84  O   UNL A   1      51.385  32.792  27.592  1.00  0.00    -0.744 OA
ENDBRANCH  77  81
ENDBRANCH  60  74
BRANCH  61  85
ATOM     85  C   UNL A   1      39.825  32.154  33.020  1.00  0.00     0.023 A 
ATOM     86  C   UNL A   1      38.574  32.791  32.969  1.00  0.00     0.031 A 
ATOM     87  C   UNL A   1      40.032  31.197  34.031  1.00  0.00     0.131 A 
ATOM     88  C   UNL A   1      37.606  32.516  33.947  1.00  0.00     0.055 A 
ATOM     89  C   UNL A   1      39.038  30.874  34.958  1.00  0.00     0.041 A 
ATOM     90  F   UNL A   1      41.211  30.565  34.138  1.00  0.00    -0.206 F 
ATOM     91  C   UNL A   1      37.822  31.548  34.930  1.00  0.00     0.022 A 
BRANCH  88  92
ATOM     92  S   UNL A   1      36.106  33.536  33.992  1.00  0.00     0.124 S 
ATOM     93  O   UNL A   1      36.590  34.796  33.442  1.00  0.00    -0.237 OA
ATOM     94  O   UNL A   1      35.195  32.773  33.146  1.00  0.00    -0.237 OA
ATOM     95  O   UNL A   1      35.759  33.567  35.412  1.00  0.00    -0.744 OA
ENDBRANCH  88  92
ENDBRANCH  61  85
BRANCH  73  96
ATOM     96  C   UNL A   1      44.244  37.552  33.032  1.00  0.00     0.023 A 
ATOM     97  C   UNL A   1      43.618  38.774  32.731  1.00  0.00     0.031 A 
ATOM     98  C   UNL A   1      45.011  37.479  34.210  1.00  0.00     0.131 A 
ATOM     99  C   UNL A   1      43.817  39.888  33.561  1.00  0.00     0.055 A 
ATOM    100  C   UNL A   1      45.147  38.569  35.070  1.00  0.00     0.041 A 
ATOM    101  F   UNL A   1      45.638  36.340  34.549  1.00  0.00    -0.206 F 
ATOM    102  C   UNL A   1      44.560  39.787  34.741  1.00  0.00     0.022 A 
BRANCH  99 103
ATOM    103  S   UNL A   1      43.178  41.499  33.028  1.00  0.00     0.124 S 
ATOM    104  O   UNL A   1      44.258  42.398  33.420  1.00  0.00    -0.237 OA
ATOM    105  O   UNL A   1      42.997  41.305  31.593  1.00  0.00    -0.237 OA
ATOM    106  O   UNL A   1      41.940  41.647  33.793  1.00  0.00    -0.744 OA
ENDBRANCH  99 103
ENDBRANCH  73  96
ENDBRANCH  47  48
ENDBRANCH  40  42
ENDBRANCH  39  40
ENDBRANCH  38  39
ENDBRANCH  37  38
ENDBRANCH  36  37
ENDBRANCH  35  36
ENDBRANCH   1  35
TORSDOF 25
ENDMDL
MODEL 2
REMARK VINA RESULT:      -9.6      4.776      6.015
REMARK SMILES COc1cc(NC(=O)C2CCN(S(=O)(=O)c3cccs3)CC2)c(Cl)cc1C(=O)OCCOCCOCCOC(=O)c1ccc(-c2c3nc(c(-c4cc(S(=O)(=O)[O-])ccc4F)c4ccc([nH]4)c(-c4cc(S(=O)(=O)[O-])ccc4F)c4nc(c(-c5cc(S(=O)(=O)[O-])ccc5F)c5ccc2[nH]5)C=C4)C=C3)cc1
REMARK SMILES IDX 33 1 32 2 31 3 30 4 29 5 27 6 28 7 26 8 3 9 4 10 5 11 25 12
REMARK SMILES IDX 23 13 24 14 2 15 1 16 6 17 7 18 8 20 9 21 10 22 22 23 11 24
REMARK SMILES IDX 21 25 12 26 13 27 14 28 15 29 16 30 17 31 20 32 18 33 19 34
REMARK SMILES IDX 34 35 35 36 36 37 37 38 38 39 39 40 40 41 41 42 42 43 103 44
REMARK SMILES IDX 43 45 102 46 44 47 45 48 46 49 96 50 47 51 101 52 95 53
REMARK SMILES IDX 97 54 48 55 100 56 94 57 93 58 49 60 81 61 61 62 80 63 62 64
REMARK SMILES IDX 65 65 79 66 98 67 63 68 64 69 78 71 99 72 66 73 50 74 51 75
REMARK SMILES IDX 59 76 52 77 58 78 60 79 57 80 53 81 54 82 55 83 56 84 82 85
REMARK SMILES IDX 83 86 91 87 84 88 90 89 92 90 89 91 85 92 86 93 87 94 88 95
REMARK SMILES IDX 67 96 68 97 76 98 69 99 75 100 77 101 74 102 70 103 71 104
REMARK SMILES IDX 72 105 73 106
REMARK H PARENT 6 19 97 59 65 70
REMARK Flexibility Score: inf
ROOT
ATOM      1  C   UNL A   1      43.795  18.583  25.382  1.00  0.00     0.188 C 
ENDROOT
BRANCH   1   2
ATOM      2  O   UNL A   1      42.528  19.178  25.240  1.00  0.00    -0.376 OA
BRANCH   2   3
ATOM      3  C   UNL A   1      42.101  20.206  26.115  1.00  0.00     0.202 C 
BRANCH   3   4
ATOM      4  C   UNL A   1      40.691  20.377  26.710  1.00  0.00     0.261 C 
BRANCH   4   5
ATOM      5  O   UNL A   1      39.692  21.033  25.931  1.00  0.00    -0.460 OA
BRANCH   5   6
ATOM      6  C   UNL A   1      38.763  20.225  25.363  1.00  0.00     0.342 C 
ATOM      7  O   UNL A   1      38.925  19.080  24.981  1.00  0.00    -0.246 OA
BRANCH   6   8
ATOM      8  C   UNL A   1      37.442  20.874  25.423  1.00  0.00     0.103 A 
ATOM      9  C   UNL A   1      37.277  22.160  25.934  1.00  0.00     0.135 A 
ATOM     10  C   UNL A   1      36.027  22.780  25.873  1.00  0.00     0.075 A 
ATOM     11  C   UNL A   1      34.887  22.046  25.539  1.00  0.00     0.063 A 
ATOM     12  C   UNL A   1      36.328  20.166  24.953  1.00  0.00     0.042 A 
ATOM     13  C   UNL A   1      35.056  20.741  25.040  1.00  0.00     0.065 A 
ATOM     14  Cl  UNL A   1      33.691  19.758  24.636  1.00  0.00    -0.082 Cl
BRANCH   9  15
ATOM     15  O   UNL A   1      38.315  22.826  26.532  1.00  0.00    -0.496 OA
ATOM     16  C   UNL A   1      38.280  24.217  26.168  1.00  0.00     0.278 C 
ENDBRANCH   9  15
BRANCH  11  17
ATOM     17  N   UNL A   1      33.581  22.539  25.757  1.00  0.00    -0.324 N 
ATOM     18  C   UNL A   1      32.847  23.507  25.122  1.00  0.00     0.227 C 
ATOM     19  H   UNL A   1      33.110  22.107  26.505  1.00  0.00     0.169 HD
ATOM     20  O   UNL A   1      31.672  23.659  25.468  1.00  0.00    -0.274 OA
BRANCH  18  21
ATOM     21  C   UNL A   1      33.461  24.415  24.044  1.00  0.00     0.081 C 
ATOM     22  C   UNL A   1      34.378  25.504  24.612  1.00  0.00     0.030 C 
ATOM     23  C   UNL A   1      32.388  25.106  23.172  1.00  0.00     0.030 C 
ATOM     24  C   UNL A   1      33.588  26.525  25.398  1.00  0.00     0.103 C 
ATOM     25  C   UNL A   1      31.713  26.308  23.848  1.00  0.00     0.103 C 
ATOM     26  N   UNL A   1      32.731  27.231  24.428  1.00  0.00    -0.197 NA
BRANCH  26  27
ATOM     27  S   UNL A   1      32.140  28.701  25.080  1.00  0.00     0.252 S 
ATOM     28  O   UNL A   1      31.369  28.379  26.256  1.00  0.00    -0.206 OA
ATOM     29  O   UNL A   1      33.247  29.639  25.121  1.00  0.00    -0.206 OA
BRANCH  27  30
ATOM     30  C   UNL A   1      30.962  29.355  23.917  1.00  0.00     0.135 A 
ATOM     31  C   UNL A   1      29.789  30.058  24.109  1.00  0.00     0.033 A 
ATOM     32  S   UNL A   1      31.278  29.112  22.253  1.00  0.00    -0.131 S 
ATOM     33  C   UNL A   1      29.141  30.382  22.885  1.00  0.00     0.013 A 
ATOM     34  C   UNL A   1      29.858  29.944  21.795  1.00  0.00     0.066 A 
ENDBRANCH  27  30
ENDBRANCH  26  27
ENDBRANCH  18  21
ENDBRANCH  11  17
ENDBRANCH   6   8
ENDBRANCH   5   6
ENDBRANCH   4   5
ENDBRANCH   3   4
ENDBRANCH   2   3
ENDBRANCH   1   2
BRANCH   1  35
ATOM     35  C   UNL A   1      44.954  19.268  24.631  1.00  0.00     0.188 C 
BRANCH  35  36
ATOM     36  O   UNL A   1      45.362  20.556  25.044  1.00  0.00    -0.376 OA
BRANCH  36  37
ATOM     37  C   UNL A   1      45.005  21.695  24.274  1.00  0.00     0.202 C 
BRANCH  37  38
ATOM     38  C   UNL A   1      45.792  23.026  24.209  1.00  0.00     0.261 C 
BRANCH  38  39
ATOM     39  O   UNL A   1      45.108  24.236  24.543  1.00  0.00    -0.460 OA
BRANCH  39  40
ATOM     40  C   UNL A   1      45.894  25.288  24.888  1.00  0.00     0.338 C 
ATOM     41  O   UNL A   1      46.956  25.605  24.384  1.00  0.00    -0.246 OA
BRANCH  40  42
ATOM     42  C   UNL A   1      45.169  26.110  25.877  1.00  0.00     0.060 A 
ATOM     43  C   UNL A   1      45.227  27.507  25.776  1.00  0.00     0.016 A 
ATOM     44  C   UNL A   1      44.440  25.506  26.902  1.00  0.00     0.016 A 
ATOM     45  C   UNL A   1      44.540  28.307  26.691  1.00  0.00     0.010 A 
ATOM     46  C   UNL A   1      43.779  26.310  27.836  1.00  0.00     0.010 A 
ATOM     47  C   UNL A   1      43.831  27.714  27.744  1.00  0.00    -0.014 A 
BRANCH  47  48
ATOM     48  C   UNL A   1      43.238  28.547  28.820  1.00  0.00     0.031 A 
ATOM     49  C   UNL A   1      44.045  28.804  30.064  1.00  0.00     0.074 A 
ATOM     50  C   UNL A   1      41.996  29.052  28.703  1.00  0.00     0.049 A 
ATOM     51  N   UNL A   1      43.689  29.386  31.179  1.00  0.00    -0.248 NA
ATOM     52  C   UNL A   1      45.440  28.338  30.044  1.00  0.00     0.031 C 
ATOM     53  C   UNL A   1      41.141  28.927  27.523  1.00  0.00     0.029 A 
ATOM     54  N   UNL A   1      41.230  29.758  29.598  1.00  0.00    -0.354 N 
ATOM     55  C   UNL A   1      44.808  29.342  32.004  1.00  0.00     0.074 A 
ATOM     56  C   UNL A   1      45.849  28.659  31.263  1.00  0.00     0.031 C 
ATOM     57  C   UNL A   1      39.962  29.522  27.774  1.00  0.00     0.029 A 
ATOM     58  C   UNL A   1      39.955  30.020  29.149  1.00  0.00     0.049 A 
ATOM     59  H   UNL A   1      41.560  30.050  30.479  1.00  0.00     0.167 HD
ATOM     60  C   UNL A   1      44.949  29.822  33.263  1.00  0.00     0.034 A 
ATOM     61  C   UNL A   1      38.894  30.558  29.789  1.00  0.00     0.034 A 
ATOM     62  C   UNL A   1      43.898  30.494  33.991  1.00  0.00     0.049 A 
ATOM     63  C   UNL A   1      39.046  30.980  31.235  1.00  0.00     0.074 A 
ATOM     64  C   UNL A   1      43.948  31.043  35.260  1.00  0.00     0.029 A 
ATOM     65  N   UNL A   1      42.604  30.688  33.526  1.00  0.00    -0.354 N 
ATOM     66  N   UNL A   1      40.113  30.943  32.001  1.00  0.00    -0.248 NA
ATOM     67  C   UNL A   1      37.850  31.514  31.901  1.00  0.00     0.031 C 
ATOM     68  C   UNL A   1      42.666  31.485  35.598  1.00  0.00     0.029 A 
ATOM     69  C   UNL A   1      41.836  31.302  34.503  1.00  0.00     0.049 A 
ATOM     70  H   UNL A   1      42.280  30.428  32.634  1.00  0.00     0.167 HD
ATOM     71  C   UNL A   1      39.721  31.485  33.225  1.00  0.00     0.074 A 
ATOM     72  C   UNL A   1      38.328  31.856  33.087  1.00  0.00     0.031 C 
ATOM     73  C   UNL A   1      40.444  31.663  34.360  1.00  0.00     0.034 A 
BRANCH  60  74
ATOM     74  C   UNL A   1      46.264  29.584  33.964  1.00  0.00     0.023 A 
ATOM     75  C   UNL A   1      46.524  28.409  34.688  1.00  0.00     0.031 A 
ATOM     76  C   UNL A   1      47.282  30.553  33.891  1.00  0.00     0.131 A 
ATOM     77  C   UNL A   1      47.752  28.253  35.350  1.00  0.00     0.055 A 
ATOM     78  C   UNL A   1      48.528  30.360  34.488  1.00  0.00     0.041 A 
ATOM     79  F   UNL A   1      47.081  31.707  33.234  1.00  0.00    -0.206 F 
ATOM     80  C   UNL A   1      48.766  29.208  35.232  1.00  0.00     0.022 A 
BRANCH  77  81
ATOM     81  S   UNL A   1      47.967  26.840  36.466  1.00  0.00     0.124 S 
ATOM     82  O   UNL A   1      49.408  26.874  36.709  1.00  0.00    -0.237 OA
ATOM     83  O   UNL A   1      47.119  27.200  37.596  1.00  0.00    -0.237 OA
ATOM     84  O   UNL A   1      47.503  25.703  35.675  1.00  0.00    -0.744 OA
ENDBRANCH  77  81
ENDBRANCH  60  74
BRANCH  61  85
ATOM     85  C   UNL A   1      37.568  30.680  29.112  1.00  0.00     0.023 A 
ATOM     86  C   UNL A   1      36.927  31.925  28.997  1.00  0.00     0.031 A 
ATOM     87  C   UNL A   1      36.874  29.543  28.658  1.00  0.00     0.131 A 
ATOM     88  C   UNL A   1      35.614  31.996  28.507  1.00  0.00     0.055 A 
ATOM     89  C   UNL A   1      35.595  29.628  28.104  1.00  0.00     0.041 A 
ATOM     90  F   UNL A   1      37.430  28.324  28.754  1.00  0.00    -0.206 F 
ATOM     91  C   UNL A   1      34.950  30.858  28.042  1.00  0.00     0.022 A 
BRANCH  88  92
ATOM     92  S   UNL A   1      34.737  33.581  28.607  1.00  0.00     0.124 S 
ATOM     93  O   UNL A   1      35.841  34.521  28.757  1.00  0.00    -0.237 OA
ATOM     94  O   UNL A   1      34.031  33.617  27.330  1.00  0.00    -0.237 OA
ATOM     95  O   UNL A   1      33.885  33.424  29.784  1.00  0.00    -0.744 OA
ENDBRANCH  88  92
ENDBRANCH  61  85
BRANCH  73  96
ATOM     96  C   UNL A   1      39.755  32.333  35.527  1.00  0.00     0.023 A 
ATOM     97  C   UNL A   1      40.030  33.663  35.889  1.00  0.00     0.031 A 
ATOM     98  C   UNL A   1      38.812  31.624  36.294  1.00  0.00     0.131 A 
ATOM     99  C   UNL A   1      39.417  34.223  37.020  1.00  0.00     0.055 A 
ATOM    100  C   UNL A   1      38.151  32.209  37.374  1.00  0.00     0.041 A 
ATOM    101  F   UNL A   1      38.512  30.348  36.001  1.00  0.00    -0.206 F 
ATOM    102  C   UNL A   1      38.462  33.511  37.752  1.00  0.00     0.022 A 
BRANCH  99 103
ATOM    103  S   UNL A   1      39.956  35.860  37.585  1.00  0.00     0.124 S 
ATOM    104  O   UNL A   1      41.380  35.646  37.816  1.00  0.00    -0.237 OA
ATOM    105  O   UNL A   1      39.615  36.711  36.449  1.00  0.00    -0.237 OA
ATOM    106  O   UNL A   1      39.159  36.087  38.789  1.00  0.00    -0.744 OA
ENDBRANCH  99 103
ENDBRANCH  73  96
ENDBRANCH  47  48
ENDBRANCH  40  42
ENDBRANCH  39  40
ENDBRANCH  38  39
ENDBRANCH  37  38
ENDBRANCH  36  37
ENDBRANCH  35  36
ENDBRANCH   1  35
TORSDOF 25
ENDMDL
MODEL 3
REMARK VINA RESULT:      -9.4      4.676      6.050
REMARK SMILES COc1cc(NC(=O)C2CCN(S(=O)(=O)c3cccs3)CC2)c(Cl)cc1C(=O)OCCOCCOCCOC(=O)c1ccc(-c2c3nc(c(-c4cc(S(=O)(=O)[O-])ccc4F)c4ccc([nH]4)c(-c4cc(S(=O)(=O)[O-])ccc4F)c4nc(c(-c5cc(S(=O)(=O)[O-])ccc5F)c5ccc2[nH]5)C=C4)C=C3)cc1
REMARK SMILES IDX 33 1 32 2 31 3 30 4 29 5 27 6 28 7 26 8 3 9 4 10 5 11 25 12
REMARK SMILES IDX 23 13 24 14 2 15 1 16 6 17 7 18 8 20 9 21 10 22 22 23 11 24
REMARK SMILES IDX 21 25 12 26 13 27 14 28 15 29 16 30 17 31 20 32 18 33 19 34
REMARK SMILES IDX 34 35 35 36 36 37 37 38 38 39 39 40 40 41 41 42 42 43 103 44
REMARK SMILES IDX 43 45 102 46 44 47 45 48 46 49 96 50 47 51 101 52 95 53
REMARK SMILES IDX 97 54 48 55 100 56 94 57 93 58 49 60 81 61 61 62 80 63 62 64
REMARK SMILES IDX 65 65 79 66 98 67 63 68 64 69 78 71 99 72 66 73 50 74 51 75
REMARK SMILES IDX 59 76 52 77 58 78 60 79 57 80 53 81 54 82 55 83 56 84 82 85
REMARK SMILES IDX 83 86 91 87 84 88 90 89 92 90 89 91 85 92 86 93 87 94 88 95
REMARK SMILES IDX 67 96 68 97 76 98 69 99 75 100 77 101 74 102 70 103 71 104
REMARK SMILES IDX 72 105 73 106
REMARK H PARENT 6 19 97 59 65 70
REMARK Flexibility Score: inf
ROOT
ATOM      1  C   UNL A   1      44.156  19.082  25.312  1.00  0.00     0.188 C 
ENDROOT
BRANCH   1   2
ATOM      2  O   UNL A   1      42.832  19.542  25.178  1.00  0.00    -0.376 OA
BRANCH   2   3
ATOM      3  C   UNL A   1      42.277  20.448  26.113  1.00  0.00     0.202 C 
BRANCH   3   4
ATOM      4  C   UNL A   1      40.825  20.458  26.628  1.00  0.00     0.261 C 
BRANCH   4   5
ATOM      5  O   UNL A   1      39.838  21.170  25.884  1.00  0.00    -0.460 OA
BRANCH   5   6
ATOM      6  C   UNL A   1      38.851  20.414  25.342  1.00  0.00     0.342 C 
ATOM      7  O   UNL A   1      38.945  19.270  24.936  1.00  0.00    -0.246 OA
BRANCH   6   8
ATOM      8  C   UNL A   1      37.565  21.121  25.464  1.00  0.00     0.103 A 
ATOM      9  C   UNL A   1      37.499  22.491  25.716  1.00  0.00     0.135 A 
ATOM     10  C   UNL A   1      36.264  23.142  25.717  1.00  0.00     0.075 A 
ATOM     11  C   UNL A   1      35.075  22.408  25.718  1.00  0.00     0.063 A 
ATOM     12  C   UNL A   1      36.381  20.385  25.325  1.00  0.00     0.042 A 
ATOM     13  C   UNL A   1      35.146  21.022  25.482  1.00  0.00     0.065 A 
ATOM     14  Cl  UNL A   1      33.722  20.041  25.501  1.00  0.00    -0.082 Cl
BRANCH   9  15
ATOM     15  O   UNL A   1      38.627  23.217  25.999  1.00  0.00    -0.496 OA
ATOM     16  C   UNL A   1      38.337  24.202  27.005  1.00  0.00     0.278 C 
ENDBRANCH   9  15
BRANCH  11  17
ATOM     17  N   UNL A   1      33.826  22.994  26.024  1.00  0.00    -0.324 N 
ATOM     18  C   UNL A   1      32.764  23.357  25.237  1.00  0.00     0.227 C 
ATOM     19  H   UNL A   1      33.694  23.175  26.982  1.00  0.00     0.169 HD
ATOM     20  O   UNL A   1      31.742  23.760  25.798  1.00  0.00    -0.274 OA
BRANCH  18  21
ATOM     21  C   UNL A   1      32.841  23.314  23.702  1.00  0.00     0.081 C 
ATOM     22  C   UNL A   1      33.982  24.159  23.123  1.00  0.00     0.030 C 
ATOM     23  C   UNL A   1      31.526  23.771  23.032  1.00  0.00     0.030 C 
ATOM     24  C   UNL A   1      33.727  25.634  23.334  1.00  0.00     0.103 C 
ATOM     25  C   UNL A   1      31.330  25.295  23.015  1.00  0.00     0.103 C 
ATOM     26  N   UNL A   1      32.555  25.980  22.510  1.00  0.00    -0.197 NA
BRANCH  26  27
ATOM     27  S   UNL A   1      32.437  27.675  22.283  1.00  0.00     0.252 S 
ATOM     28  O   UNL A   1      33.612  28.103  21.564  1.00  0.00    -0.206 OA
ATOM     29  O   UNL A   1      31.097  27.960  21.802  1.00  0.00    -0.206 OA
BRANCH  27  30
ATOM     30  C   UNL A   1      32.572  28.430  23.888  1.00  0.00     0.135 A 
ATOM     31  C   UNL A   1      33.674  28.862  24.601  1.00  0.00     0.033 A 
ATOM     32  S   UNL A   1      31.123  28.704  24.756  1.00  0.00    -0.131 S 
ATOM     33  C   UNL A   1      33.326  29.403  25.869  1.00  0.00     0.013 A 
ATOM     34  C   UNL A   1      31.964  29.398  26.071  1.00  0.00     0.066 A 
ENDBRANCH  27  30
ENDBRANCH  26  27
ENDBRANCH  18  21
ENDBRANCH  11  17
ENDBRANCH   6   8
ENDBRANCH   5   6
ENDBRANCH   4   5
ENDBRANCH   3   4
ENDBRANCH   2   3
ENDBRANCH   1   2
BRANCH   1  35
ATOM     35  C   UNL A   1      45.255  20.006  24.751  1.00  0.00     0.188 C 
BRANCH  35  36
ATOM     36  O   UNL A   1      45.428  21.282  25.330  1.00  0.00    -0.376 OA
BRANCH  36  37
ATOM     37  C   UNL A   1      45.254  22.450  24.539  1.00  0.00     0.202 C 
BRANCH  37  38
ATOM     38  C   UNL A   1      46.143  23.716  24.588  1.00  0.00     0.261 C 
BRANCH  38  39
ATOM     39  O   UNL A   1      45.510  24.983  24.786  1.00  0.00    -0.460 OA
BRANCH  39  40
ATOM     40  C   UNL A   1      46.308  25.981  25.244  1.00  0.00     0.338 C 
ATOM     41  O   UNL A   1      47.417  26.278  24.836  1.00  0.00    -0.246 OA
BRANCH  40  42
ATOM     42  C   UNL A   1      45.544  26.782  26.221  1.00  0.00     0.060 A 
ATOM     43  C   UNL A   1      45.667  28.178  26.203  1.00  0.00     0.016 A 
ATOM     44  C   UNL A   1      44.714  26.158  27.153  1.00  0.00     0.016 A 
ATOM     45  C   UNL A   1      44.946  28.959  27.108  1.00  0.00     0.010 A 
ATOM     46  C   UNL A   1      44.017  26.940  28.079  1.00  0.00     0.010 A 
ATOM     47  C   UNL A   1      44.133  28.344  28.070  1.00  0.00    -0.014 A 
BRANCH  47  48
ATOM     48  C   UNL A   1      43.495  29.145  29.145  1.00  0.00     0.031 A 
ATOM     49  C   UNL A   1      44.300  29.484  30.370  1.00  0.00     0.074 A 
ATOM     50  C   UNL A   1      42.215  29.548  29.042  1.00  0.00     0.049 A 
ATOM     51  N   UNL A   1      43.917  30.054  31.483  1.00  0.00    -0.248 NA
ATOM     52  C   UNL A   1      45.727  29.129  30.333  1.00  0.00     0.031 C 
ATOM     53  C   UNL A   1      41.353  29.338  27.880  1.00  0.00     0.029 A 
ATOM     54  N   UNL A   1      41.410  30.206  29.941  1.00  0.00    -0.354 N 
ATOM     55  C   UNL A   1      45.050  30.111  32.288  1.00  0.00     0.074 A 
ATOM     56  C   UNL A   1      46.129  29.500  31.539  1.00  0.00     0.031 C 
ATOM     57  C   UNL A   1      40.135  29.842  28.143  1.00  0.00     0.029 A 
ATOM     58  C   UNL A   1      40.112  30.360  29.511  1.00  0.00     0.049 A 
ATOM     59  H   UNL A   1      41.731  30.537  30.811  1.00  0.00     0.167 HD
ATOM     60  C   UNL A   1      45.173  30.620  33.538  1.00  0.00     0.034 A 
ATOM     61  C   UNL A   1      39.022  30.822  30.161  1.00  0.00     0.034 A 
ATOM     62  C   UNL A   1      44.085  31.218  34.274  1.00  0.00     0.049 A 
ATOM     63  C   UNL A   1      39.165  31.278  31.598  1.00  0.00     0.074 A 
ATOM     64  C   UNL A   1      44.112  31.790  35.534  1.00  0.00     0.029 A 
ATOM     65  N   UNL A   1      42.772  31.303  33.829  1.00  0.00    -0.354 N 
ATOM     66  N   UNL A   1      40.243  31.338  32.345  1.00  0.00    -0.248 NA
ATOM     67  C   UNL A   1      37.941  31.727  32.277  1.00  0.00     0.031 C 
ATOM     68  C   UNL A   1      42.805  32.135  35.888  1.00  0.00     0.029 A 
ATOM     69  C   UNL A   1      41.974  31.870  34.812  1.00  0.00     0.049 A 
ATOM     70  H   UNL A   1      42.455  31.004  32.947  1.00  0.00     0.167 HD
ATOM     71  C   UNL A   1      39.830  31.866  33.568  1.00  0.00     0.074 A 
ATOM     72  C   UNL A   1      38.410  32.125  33.450  1.00  0.00     0.031 C 
ATOM     73  C   UNL A   1      40.556  32.118  34.687  1.00  0.00     0.034 A 
BRANCH  60  74
ATOM     74  C   UNL A   1      46.514  30.497  34.219  1.00  0.00     0.023 A 
ATOM     75  C   UNL A   1      47.495  31.498  34.129  1.00  0.00     0.031 A 
ATOM     76  C   UNL A   1      46.808  29.353  34.985  1.00  0.00     0.131 A 
ATOM     77  C   UNL A   1      48.738  31.317  34.754  1.00  0.00     0.055 A 
ATOM     78  C   UNL A   1      48.017  29.211  35.665  1.00  0.00     0.041 A 
ATOM     79  F   UNL A   1      45.919  28.351  35.085  1.00  0.00    -0.206 F 
ATOM     80  C   UNL A   1      48.996  30.193  35.544  1.00  0.00     0.022 A 
BRANCH  77  81
ATOM     81  S   UNL A   1      50.061  32.513  34.425  1.00  0.00     0.124 S 
ATOM     82  O   UNL A   1      49.562  33.701  35.113  1.00  0.00    -0.237 OA
ATOM     83  O   UNL A   1      51.224  31.869  35.023  1.00  0.00    -0.237 OA
ATOM     84  O   UNL A   1      50.083  32.609  32.966  1.00  0.00    -0.744 OA
ENDBRANCH  77  81
ENDBRANCH  60  74
BRANCH  61  85
ATOM     85  C   UNL A   1      37.680  30.830  29.505  1.00  0.00     0.023 A 
ATOM     86  C   UNL A   1      37.022  32.037  29.219  1.00  0.00     0.031 A 
ATOM     87  C   UNL A   1      36.990  29.631  29.247  1.00  0.00     0.131 A 
ATOM     88  C   UNL A   1      35.697  32.022  28.756  1.00  0.00     0.055 A 
ATOM     89  C   UNL A   1      35.697  29.621  28.717  1.00  0.00     0.041 A 
ATOM     90  F   UNL A   1      37.562  28.446  29.513  1.00  0.00    -0.206 F 
ATOM     91  C   UNL A   1      35.036  30.822  28.486  1.00  0.00     0.022 A 
BRANCH  88  92
ATOM     92  S   UNL A   1      34.803  33.597  28.636  1.00  0.00     0.124 S 
ATOM     93  O   UNL A   1      33.972  33.556  29.833  1.00  0.00    -0.237 OA
ATOM     94  O   UNL A   1      35.895  34.565  28.644  1.00  0.00    -0.237 OA
ATOM     95  O   UNL A   1      34.082  33.483  27.370  1.00  0.00    -0.744 OA
ENDBRANCH  88  92
ENDBRANCH  61  85
BRANCH  73  96
ATOM     96  C   UNL A   1      39.835  32.750  35.856  1.00  0.00     0.023 A 
ATOM     97  C   UNL A   1      39.097  31.986  36.777  1.00  0.00     0.031 A 
ATOM     98  C   UNL A   1      39.883  34.143  36.048  1.00  0.00     0.131 A 
ATOM     99  C   UNL A   1      38.389  32.621  37.808  1.00  0.00     0.055 A 
ATOM    100  C   UNL A   1      39.236  34.763  37.117  1.00  0.00     0.041 A 
ATOM    101  F   UNL A   1      40.567  34.928  35.199  1.00  0.00    -0.206 F 
ATOM    102  C   UNL A   1      38.472  34.004  37.997  1.00  0.00     0.022 A 
BRANCH  99 103
ATOM    103  S   UNL A   1      37.275  31.631  38.841  1.00  0.00     0.124 S 
ATOM    104  O   UNL A   1      36.060  32.438  38.836  1.00  0.00    -0.237 OA
ATOM    105  O   UNL A   1      37.207  30.371  38.109  1.00  0.00    -0.237 OA
ATOM    106  O   UNL A   1      37.968  31.563  40.126  1.00  0.00    -0.744 OA
ENDBRANCH  99 103
ENDBRANCH  73  96
ENDBRANCH  47  48
ENDBRANCH  40  42
ENDBRANCH  39  40
ENDBRANCH  38  39
ENDBRANCH  37  38
ENDBRANCH  36  37
ENDBRANCH  35  36
ENDBRANCH   1  35
TORSDOF 25
ENDMDL
