MODEL 1
REMARK VINA RESULT:     -11.3      0.000      0.000
REMARK SMILES O=C(OCCOCCOCCOC(=O)[C@@]1(CCc2ccccc2)CCC[N@@H+](Cc2cccnc2)C1)c1ccc(-c2c3nc(c(-c4cc(S(=O)(=O)[O-])ccc4F)c4ccc([nH]4)c(-c4cc(S(=O)(=O)[O-])ccc4F)c4nc(c(-c5cc(S(=O)(=O)[O-])ccc5F)c5ccc2[nH]5)C=C4)C=C3)cc1
REMARK SMILES IDX 7 1 6 2 5 3 4 4 3 5 2 6 1 7 36 8 37 9 98 10 38 11 97 12
REMARK SMILES IDX 39 13 40 14 41 15 91 16 42 17 96 18 90 19 92 20 43 21 95 22
REMARK SMILES IDX 89 23 88 24 44 26 76 27 56 28 75 29 57 30 60 31 74 32 93 33
REMARK SMILES IDX 58 34 59 35 73 37 94 38 61 39 45 40 46 41 54 42 47 43 53 44
REMARK SMILES IDX 55 45 52 46 48 47 49 48 50 49 51 50 77 51 78 52 86 53 79 54
REMARK SMILES IDX 85 55 87 56 84 57 80 58 81 59 82 60 83 61 62 62 63 63 71 64
REMARK SMILES IDX 64 65 70 66 72 67 69 68 65 69 66 70 67 71 68 72 8 73 9 74
REMARK SMILES IDX 10 75 11 76 12 77 13 78 14 79 15 80 24 81 35 82 25 83 27 84
REMARK SMILES IDX 26 85 16 87 17 88 18 89 19 90 23 91 20 92 22 93 21 94 28 95
REMARK SMILES IDX 29 96 30 97 34 98 31 99 33 100 32 101
REMARK H PARENT 92 25 60 36 27 86
REMARK Flexibility Score: inf
ROOT
ATOM      1  C   UNL A   1      34.689  22.680  24.074  1.00  0.00     0.188 C 
ENDROOT
BRANCH   1   2
ATOM      2  O   UNL A   1      36.084  22.863  23.847  1.00  0.00    -0.376 OA
BRANCH   2   3
ATOM      3  C   UNL A   1      36.877  21.803  24.392  1.00  0.00     0.202 C 
BRANCH   3   4
ATOM      4  C   UNL A   1      37.583  22.135  25.718  1.00  0.00     0.261 C 
BRANCH   4   5
ATOM      5  O   UNL A   1      38.918  21.606  25.760  1.00  0.00    -0.460 OA
BRANCH   5   6
ATOM      6  C   UNL A   1      39.944  22.112  26.495  1.00  0.00     0.338 C 
ATOM      7  O   UNL A   1      40.850  21.358  26.820  1.00  0.00    -0.246 OA
BRANCH   6   8
ATOM      8  C   UNL A   1      39.944  23.530  27.009  1.00  0.00     0.060 A 
ATOM      9  C   UNL A   1      39.358  24.633  26.385  1.00  0.00     0.016 A 
ATOM     10  C   UNL A   1      40.596  23.756  28.233  1.00  0.00     0.016 A 
ATOM     11  C   UNL A   1      39.523  25.928  26.880  1.00  0.00     0.010 A 
ATOM     12  C   UNL A   1      40.698  25.044  28.778  1.00  0.00     0.010 A 
ATOM     13  C   UNL A   1      40.216  26.151  28.067  1.00  0.00    -0.014 A 
BRANCH  13  14
ATOM     14  C   UNL A   1      40.613  27.536  28.426  1.00  0.00     0.031 A 
ATOM     15  C   UNL A   1      42.055  27.918  28.241  1.00  0.00     0.074 A 
ATOM     16  C   UNL A   1      39.705  28.461  28.797  1.00  0.00     0.049 A 
ATOM     17  N   UNL A   1      42.646  29.063  28.453  1.00  0.00    -0.248 NA
ATOM     18  C   UNL A   1      42.948  26.867  27.724  1.00  0.00     0.031 C 
ATOM     19  C   UNL A   1      38.266  28.232  28.887  1.00  0.00     0.029 A 
ATOM     20  N   UNL A   1      39.843  29.778  29.153  1.00  0.00    -0.354 N 
ATOM     21  C   UNL A   1      43.970  28.874  28.071  1.00  0.00     0.074 A 
ATOM     22  C   UNL A   1      44.116  27.482  27.711  1.00  0.00     0.031 C 
ATOM     23  C   UNL A   1      37.654  29.347  29.316  1.00  0.00     0.029 A 
ATOM     24  C   UNL A   1      38.660  30.382  29.522  1.00  0.00     0.049 A 
ATOM     25  H   UNL A   1      40.708  30.249  29.145  1.00  0.00     0.167 HD
ATOM     26  C   UNL A   1      44.964  29.788  27.978  1.00  0.00     0.034 A 
ATOM     27  C   UNL A   1      38.418  31.630  29.966  1.00  0.00     0.034 A 
ATOM     28  C   UNL A   1      44.803  31.165  28.362  1.00  0.00     0.049 A 
ATOM     29  C   UNL A   1      39.574  32.598  30.001  1.00  0.00     0.074 A 
ATOM     30  C   UNL A   1      45.746  32.174  28.390  1.00  0.00     0.029 A 
ATOM     31  N   UNL A   1      43.605  31.724  28.794  1.00  0.00    -0.354 N 
ATOM     32  N   UNL A   1      40.825  32.397  29.650  1.00  0.00    -0.248 NA
ATOM     33  C   UNL A   1      39.285  33.962  30.456  1.00  0.00     0.031 C 
ATOM     34  C   UNL A   1      45.132  33.328  28.889  1.00  0.00     0.029 A 
ATOM     35  C   UNL A   1      43.790  33.058  29.110  1.00  0.00     0.049 A 
ATOM     36  H   UNL A   1      42.751  31.240  28.865  1.00  0.00     0.167 HD
ATOM     37  C   UNL A   1      41.461  33.625  29.797  1.00  0.00     0.074 A 
ATOM     38  C   UNL A   1      40.452  34.558  30.259  1.00  0.00     0.031 C 
ATOM     39  C   UNL A   1      42.757  33.959  29.566  1.00  0.00     0.034 A 
BRANCH  26  40
ATOM     40  C   UNL A   1      46.295  29.280  27.482  1.00  0.00     0.023 A 
ATOM     41  C   UNL A   1      46.499  28.981  26.121  1.00  0.00     0.031 A 
ATOM     42  C   UNL A   1      47.322  28.968  28.387  1.00  0.00     0.131 A 
ATOM     43  C   UNL A   1      47.654  28.294  25.721  1.00  0.00     0.055 A 
ATOM     44  C   UNL A   1      48.510  28.363  27.968  1.00  0.00     0.041 A 
ATOM     45  F   UNL A   1      47.172  29.202  29.700  1.00  0.00    -0.206 F 
ATOM     46  C   UNL A   1      48.672  28.003  26.632  1.00  0.00     0.022 A 
BRANCH  43  47
ATOM     47  S   UNL A   1      47.722  27.623  24.037  1.00  0.00     0.124 S 
ATOM     48  O   UNL A   1      49.151  27.721  23.739  1.00  0.00    -0.237 OA
ATOM     49  O   UNL A   1      47.198  26.273  24.210  1.00  0.00    -0.237 OA
ATOM     50  O   UNL A   1      46.870  28.530  23.271  1.00  0.00    -0.744 OA
ENDBRANCH  43  47
ENDBRANCH  26  40
BRANCH  27  51
ATOM     51  C   UNL A   1      37.051  32.039  30.413  1.00  0.00     0.023 A 
ATOM     52  C   UNL A   1      36.207  32.807  29.595  1.00  0.00     0.031 A 
ATOM     53  C   UNL A   1      36.596  31.721  31.706  1.00  0.00     0.131 A 
ATOM     54  C   UNL A   1      34.981  33.280  30.096  1.00  0.00     0.055 A 
ATOM     55  C   UNL A   1      35.354  32.152  32.183  1.00  0.00     0.041 A 
ATOM     56  F   UNL A   1      37.355  30.984  32.533  1.00  0.00    -0.206 F 
ATOM     57  C   UNL A   1      34.547  32.951  31.381  1.00  0.00     0.022 A 
BRANCH  54  58
ATOM     58  S   UNL A   1      34.006  34.423  29.077  1.00  0.00     0.124 S 
ATOM     59  O   UNL A   1      33.950  35.608  29.926  1.00  0.00    -0.237 OA
ATOM     60  O   UNL A   1      34.829  34.531  27.877  1.00  0.00    -0.237 OA
ATOM     61  O   UNL A   1      32.736  33.720  28.901  1.00  0.00    -0.744 OA
ENDBRANCH  54  58
ENDBRANCH  27  51
BRANCH  39  62
ATOM     62  C   UNL A   1      43.127  35.404  29.765  1.00  0.00     0.023 A 
ATOM     63  C   UNL A   1      42.985  36.348  28.735  1.00  0.00     0.031 A 
ATOM     64  C   UNL A   1      43.633  35.837  31.003  1.00  0.00     0.131 A 
ATOM     65  C   UNL A   1      43.402  37.669  28.941  1.00  0.00     0.055 A 
ATOM     66  C   UNL A   1      43.988  37.168  31.222  1.00  0.00     0.041 A 
ATOM     67  F   UNL A   1      43.787  34.974  32.019  1.00  0.00    -0.206 F 
ATOM     68  C   UNL A   1      43.886  38.090  30.184  1.00  0.00     0.022 A 
BRANCH  65  69
ATOM     69  S   UNL A   1      43.384  38.812  27.535  1.00  0.00     0.124 S 
ATOM     70  O   UNL A   1      44.692  38.571  26.933  1.00  0.00    -0.237 OA
ATOM     71  O   UNL A   1      42.234  38.344  26.767  1.00  0.00    -0.237 OA
ATOM     72  O   UNL A   1      43.220  40.123  28.161  1.00  0.00    -0.744 OA
ENDBRANCH  65  69
ENDBRANCH  39  62
ENDBRANCH  13  14
ENDBRANCH   6   8
ENDBRANCH   5   6
ENDBRANCH   4   5
ENDBRANCH   3   4
ENDBRANCH   2   3
ENDBRANCH   1   2
BRANCH   1  73
ATOM     73  C   UNL A   1      34.033  23.690  25.026  1.00  0.00     0.188 C 
BRANCH  73  74
ATOM     74  O   UNL A   1      33.290  23.190  26.129  1.00  0.00    -0.376 OA
BRANCH  74  75
ATOM     75  C   UNL A   1      32.294  22.214  25.832  1.00  0.00     0.202 C 
BRANCH  75  76
ATOM     76  C   UNL A   1      30.833  22.669  25.634  1.00  0.00     0.261 C 
BRANCH  76  77
ATOM     77  O   UNL A   1      30.598  24.093  25.611  1.00  0.00    -0.463 OA
BRANCH  77  78
ATOM     78  C   UNL A   1      30.671  24.688  24.385  1.00  0.00     0.317 C 
ATOM     79  O   UNL A   1      30.706  24.054  23.333  1.00  0.00    -0.251 OA
BRANCH  78  80
ATOM     80  C   UNL A   1      30.673  26.240  24.407  1.00  0.00     0.117 C 
ATOM     81  C   UNL A   1      31.910  26.673  23.565  1.00  0.00     0.030 C 
ATOM     82  C   UNL A   1      29.416  26.658  23.621  1.00  0.00     0.281 C 
ATOM     83  C   UNL A   1      31.842  28.120  23.071  1.00  0.00     0.063 C 
ATOM     84  N   UNL A   1      29.406  28.091  23.351  1.00  0.00    -0.330 N 
ATOM     85  C   UNL A   1      30.482  28.479  22.449  1.00  0.00     0.262 C 
ATOM     86  H   UNL A   1      29.624  28.534  24.243  1.00  0.00     0.348 HD
BRANCH  80  87
ATOM     87  C   UNL A   1      30.735  26.839  25.858  1.00  0.00     0.029 C 
BRANCH  87  88
ATOM     88  C   UNL A   1      32.056  26.925  26.668  1.00  0.00     0.037 C 
BRANCH  88  89
ATOM     89  C   UNL A   1      32.728  28.271  26.875  1.00  0.00    -0.048 A 
ATOM     90  C   UNL A   1      34.109  28.433  26.996  1.00  0.00     0.004 A 
ATOM     91  C   UNL A   1      31.938  29.428  26.952  1.00  0.00     0.004 A 
ATOM     92  C   UNL A   1      34.697  29.684  27.195  1.00  0.00     0.000 A 
ATOM     93  C   UNL A   1      32.519  30.690  27.129  1.00  0.00     0.000 A 
ATOM     94  C   UNL A   1      33.899  30.817  27.256  1.00  0.00     0.000 A 
ENDBRANCH  88  89
ENDBRANCH  87  88
ENDBRANCH  80  87
BRANCH  84  95
ATOM     95  C   UNL A   1      28.103  28.709  23.117  1.00  0.00     0.300 C 
BRANCH  95  96
ATOM     96  C   UNL A   1      28.089  30.111  22.578  1.00  0.00     0.025 A 
ATOM     97  C   UNL A   1      28.068  30.370  21.201  1.00  0.00     0.013 A 
ATOM     98  C   UNL A   1      28.058  31.207  23.428  1.00  0.00     0.120 A 
ATOM     99  C   UNL A   1      28.075  31.678  20.737  1.00  0.00     0.021 A 
ATOM    100  N   UNL A   1      28.033  32.493  23.008  1.00  0.00    -0.264 NA
ATOM    101  C   UNL A   1      28.057  32.696  21.672  1.00  0.00     0.111 A 
ENDBRANCH  95  96
ENDBRANCH  84  95
ENDBRANCH  78  80
ENDBRANCH  77  78
ENDBRANCH  76  77
ENDBRANCH  75  76
ENDBRANCH  74  75
ENDBRANCH  73  74
ENDBRANCH   1  73
TORSDOF 25
ENDMDL
MODEL 2
REMARK VINA RESULT:     -10.1      4.913     10.193
REMARK SMILES O=C(OCCOCCOCCOC(=O)[C@@]1(CCc2ccccc2)CCC[N@@H+](Cc2cccnc2)C1)c1ccc(-c2c3nc(c(-c4cc(S(=O)(=O)[O-])ccc4F)c4ccc([nH]4)c(-c4cc(S(=O)(=O)[O-])ccc4F)c4nc(c(-c5cc(S(=O)(=O)[O-])ccc5F)c5ccc2[nH]5)C=C4)C=C3)cc1
REMARK SMILES IDX 7 1 6 2 5 3 4 4 3 5 2 6 1 7 36 8 37 9 98 10 38 11 97 12
REMARK SMILES IDX 39 13 40 14 41 15 91 16 42 17 96 18 90 19 92 20 43 21 95 22
REMARK SMILES IDX 89 23 88 24 44 26 76 27 56 28 75 29 57 30 60 31 74 32 93 33
REMARK SMILES IDX 58 34 59 35 73 37 94 38 61 39 45 40 46 41 54 42 47 43 53 44
REMARK SMILES IDX 55 45 52 46 48 47 49 48 50 49 51 50 77 51 78 52 86 53 79 54
REMARK SMILES IDX 85 55 87 56 84 57 80 58 81 59 82 60 83 61 62 62 63 63 71 64
REMARK SMILES IDX 64 65 70 66 72 67 69 68 65 69 66 70 67 71 68 72 8 73 9 74
REMARK SMILES IDX 10 75 11 76 12 77 13 78 14 79 15 80 24 81 35 82 25 83 27 84
REMARK SMILES IDX 26 85 16 87 17 88 18 89 19 90 23 91 20 92 22 93 21 94 28 95
REMARK SMILES IDX 29 96 30 97 34 98 31 99 33 100 32 101
REMARK H PARENT 92 25 60 36 27 86
REMARK Flexibility Score: inf
ROOT
ATOM      1  C   UNL A   1      33.768  28.946  26.721  1.00  0.00     0.188 C 
ENDROOT
BRANCH   1   2
ATOM      2  O   UNL A   1      34.519  30.044  27.236  1.00  0.00    -0.376 OA
BRANCH   2   3
ATOM      3  C   UNL A   1      33.690  31.137  27.647  1.00  0.00     0.202 C 
BRANCH   3   4
ATOM      4  C   UNL A   1      34.441  32.443  27.955  1.00  0.00     0.261 C 
BRANCH   4   5
ATOM      5  O   UNL A   1      34.238  32.869  29.312  1.00  0.00    -0.460 OA
BRANCH   5   6
ATOM      6  C   UNL A   1      34.834  32.323  30.406  1.00  0.00     0.338 C 
ATOM      7  O   UNL A   1      34.382  32.600  31.508  1.00  0.00    -0.246 OA
BRANCH   6   8
ATOM      8  C   UNL A   1      36.085  31.487  30.310  1.00  0.00     0.060 A 
ATOM      9  C   UNL A   1      36.183  30.119  30.568  1.00  0.00     0.016 A 
ATOM     10  C   UNL A   1      37.260  32.153  29.923  1.00  0.00     0.016 A 
ATOM     11  C   UNL A   1      37.415  29.460  30.574  1.00  0.00     0.010 A 
ATOM     12  C   UNL A   1      38.489  31.482  29.849  1.00  0.00     0.010 A 
ATOM     13  C   UNL A   1      38.583  30.140  30.240  1.00  0.00    -0.014 A 
BRANCH  13  14
ATOM     14  C   UNL A   1      39.896  29.503  30.517  1.00  0.00     0.031 A 
ATOM     15  C   UNL A   1      40.683  30.012  31.692  1.00  0.00     0.074 A 
ATOM     16  C   UNL A   1      40.326  28.433  29.819  1.00  0.00     0.049 A 
ATOM     17  N   UNL A   1      41.835  29.610  32.158  1.00  0.00    -0.248 NA
ATOM     18  C   UNL A   1      40.075  31.112  32.459  1.00  0.00     0.031 C 
ATOM     19  C   UNL A   1      39.585  27.781  28.744  1.00  0.00     0.029 A 
ATOM     20  N   UNL A   1      41.477  27.691  29.911  1.00  0.00    -0.354 N 
ATOM     21  C   UNL A   1      42.073  30.391  33.284  1.00  0.00     0.074 A 
ATOM     22  C   UNL A   1      40.998  31.352  33.372  1.00  0.00     0.031 C 
ATOM     23  C   UNL A   1      40.310  26.770  28.240  1.00  0.00     0.029 A 
ATOM     24  C   UNL A   1      41.571  26.691  28.968  1.00  0.00     0.049 A 
ATOM     25  H   UNL A   1      42.171  27.860  30.588  1.00  0.00     0.167 HD
ATOM     26  C   UNL A   1      43.069  30.284  34.194  1.00  0.00     0.034 A 
ATOM     27  C   UNL A   1      42.558  25.806  28.728  1.00  0.00     0.034 A 
ATOM     28  C   UNL A   1      44.141  29.334  34.077  1.00  0.00     0.049 A 
ATOM     29  C   UNL A   1      43.739  25.803  29.666  1.00  0.00     0.074 A 
ATOM     30  C   UNL A   1      45.250  29.172  34.885  1.00  0.00     0.029 A 
ATOM     31  N   UNL A   1      44.236  28.378  33.070  1.00  0.00    -0.354 N 
ATOM     32  N   UNL A   1      43.954  26.559  30.719  1.00  0.00    -0.248 NA
ATOM     33  C   UNL A   1      44.788  24.811  29.410  1.00  0.00     0.031 C 
ATOM     34  C   UNL A   1      46.042  28.155  34.337  1.00  0.00     0.029 A 
ATOM     35  C   UNL A   1      45.395  27.637  33.226  1.00  0.00     0.049 A 
ATOM     36  H   UNL A   1      43.576  28.249  32.352  1.00  0.00     0.167 HD
ATOM     37  C   UNL A   1      45.142  26.101  31.278  1.00  0.00     0.074 A 
ATOM     38  C   UNL A   1      45.587  24.998  30.449  1.00  0.00     0.031 C 
ATOM     39  C   UNL A   1      45.805  26.541  32.379  1.00  0.00     0.034 A 
BRANCH  26  40
ATOM     40  C   UNL A   1      43.029  31.258  35.346  1.00  0.00     0.023 A 
ATOM     41  C   UNL A   1      43.675  32.507  35.266  1.00  0.00     0.031 A 
ATOM     42  C   UNL A   1      42.457  30.889  36.574  1.00  0.00     0.131 A 
ATOM     43  C   UNL A   1      43.826  33.291  36.418  1.00  0.00     0.055 A 
ATOM     44  C   UNL A   1      42.534  31.716  37.697  1.00  0.00     0.041 A 
ATOM     45  F   UNL A   1      41.855  29.697  36.718  1.00  0.00    -0.206 F 
ATOM     46  C   UNL A   1      43.240  32.915  37.629  1.00  0.00     0.022 A 
BRANCH  43  47
ATOM     47  S   UNL A   1      44.953  34.712  36.357  1.00  0.00     0.124 S 
ATOM     48  O   UNL A   1      46.226  34.095  36.727  1.00  0.00    -0.237 OA
ATOM     49  O   UNL A   1      44.837  35.151  34.971  1.00  0.00    -0.237 OA
ATOM     50  O   UNL A   1      44.402  35.630  37.351  1.00  0.00    -0.744 OA
ENDBRANCH  43  47
ENDBRANCH  26  40
BRANCH  27  51
ATOM     51  C   UNL A   1      42.486  24.865  27.568  1.00  0.00     0.023 A 
ATOM     52  C   UNL A   1      41.765  23.663  27.639  1.00  0.00     0.031 A 
ATOM     53  C   UNL A   1      43.205  25.128  26.387  1.00  0.00     0.131 A 
ATOM     54  C   UNL A   1      41.824  22.744  26.576  1.00  0.00     0.055 A 
ATOM     55  C   UNL A   1      43.220  24.234  25.313  1.00  0.00     0.041 A 
ATOM     56  F   UNL A   1      43.908  26.265  26.258  1.00  0.00    -0.206 F 
ATOM     57  C   UNL A   1      42.540  23.025  25.411  1.00  0.00     0.022 A 
BRANCH  54  58
ATOM     58  S   UNL A   1      41.032  21.123  26.780  1.00  0.00     0.124 S 
ATOM     59  O   UNL A   1      39.740  21.339  26.137  1.00  0.00    -0.237 OA
ATOM     60  O   UNL A   1      41.961  20.245  26.077  1.00  0.00    -0.237 OA
ATOM     61  O   UNL A   1      40.986  20.948  28.231  1.00  0.00    -0.744 OA
ENDBRANCH  54  58
ENDBRANCH  27  51
BRANCH  39  62
ATOM     62  C   UNL A   1      47.049  25.788  32.763  1.00  0.00     0.023 A 
ATOM     63  C   UNL A   1      47.015  24.740  33.697  1.00  0.00     0.031 A 
ATOM     64  C   UNL A   1      48.286  26.131  32.189  1.00  0.00     0.131 A 
ATOM     65  C   UNL A   1      48.207  24.107  34.075  1.00  0.00     0.055 A 
ATOM     66  C   UNL A   1      49.459  25.457  32.523  1.00  0.00     0.041 A 
ATOM     67  F   UNL A   1      48.371  27.126  31.291  1.00  0.00    -0.206 F 
ATOM     68  C   UNL A   1      49.426  24.447  33.481  1.00  0.00     0.022 A 
BRANCH  65  69
ATOM     69  S   UNL A   1      48.154  22.894  35.420  1.00  0.00     0.124 S 
ATOM     70  O   UNL A   1      48.130  21.631  34.686  1.00  0.00    -0.237 OA
ATOM     71  O   UNL A   1      49.384  23.183  36.149  1.00  0.00    -0.237 OA
ATOM     72  O   UNL A   1      46.920  23.223  36.130  1.00  0.00    -0.744 OA
ENDBRANCH  65  69
ENDBRANCH  39  62
ENDBRANCH  13  14
ENDBRANCH   6   8
ENDBRANCH   5   6
ENDBRANCH   4   5
ENDBRANCH   3   4
ENDBRANCH   2   3
ENDBRANCH   1   2
BRANCH   1  73
ATOM     73  C   UNL A   1      32.868  29.263  25.519  1.00  0.00     0.188 C 
BRANCH  73  74
ATOM     74  O   UNL A   1      31.547  29.719  25.770  1.00  0.00    -0.376 OA
BRANCH  74  75
ATOM     75  C   UNL A   1      30.765  30.057  24.626  1.00  0.00     0.202 C 
BRANCH  75  76
ATOM     76  C   UNL A   1      30.870  29.184  23.359  1.00  0.00     0.261 C 
BRANCH  76  77
ATOM     77  O   UNL A   1      30.361  27.837  23.459  1.00  0.00    -0.463 OA
BRANCH  77  78
ATOM     78  C   UNL A   1      31.009  26.898  22.710  1.00  0.00     0.317 C 
ATOM     79  O   UNL A   1      31.060  26.938  21.483  1.00  0.00    -0.251 OA
BRANCH  78  80
ATOM     80  C   UNL A   1      31.717  25.782  23.524  1.00  0.00     0.117 C 
ATOM     81  C   UNL A   1      30.981  25.730  24.897  1.00  0.00     0.030 C 
ATOM     82  C   UNL A   1      31.393  24.472  22.782  1.00  0.00     0.281 C 
ATOM     83  C   UNL A   1      31.198  24.422  25.660  1.00  0.00     0.063 C 
ATOM     84  N   UNL A   1      31.793  23.304  23.560  1.00  0.00    -0.330 N 
ATOM     85  C   UNL A   1      31.009  23.174  24.781  1.00  0.00     0.262 C 
ATOM     86  H   UNL A   1      32.745  23.499  23.867  1.00  0.00     0.348 HD
BRANCH  80  87
ATOM     87  C   UNL A   1      33.256  26.035  23.713  1.00  0.00     0.029 C 
BRANCH  87  88
ATOM     88  C   UNL A   1      34.045  25.494  24.936  1.00  0.00     0.037 C 
BRANCH  88  89
ATOM     89  C   UNL A   1      35.064  24.384  24.745  1.00  0.00    -0.048 A 
ATOM     90  C   UNL A   1      35.778  23.805  25.795  1.00  0.00     0.004 A 
ATOM     91  C   UNL A   1      35.316  23.898  23.453  1.00  0.00     0.004 A 
ATOM     92  C   UNL A   1      36.715  22.791  25.587  1.00  0.00     0.000 A 
ATOM     93  C   UNL A   1      36.238  22.866  23.236  1.00  0.00     0.000 A 
ATOM     94  C   UNL A   1      36.942  22.315  24.304  1.00  0.00     0.000 A 
ENDBRANCH  88  89
ENDBRANCH  87  88
ENDBRANCH  80  87
BRANCH  84  95
ATOM     95  C   UNL A   1      32.053  22.074  22.816  1.00  0.00     0.300 C 
BRANCH  95  96
ATOM     96  C   UNL A   1      32.577  20.898  23.588  1.00  0.00     0.025 A 
ATOM     97  C   UNL A   1      33.456  21.058  24.668  1.00  0.00     0.013 A 
ATOM     98  C   UNL A   1      32.178  19.603  23.285  1.00  0.00     0.120 A 
ATOM     99  C   UNL A   1      33.936  19.948  25.348  1.00  0.00     0.021 A 
ATOM    100  N   UNL A   1      32.602  18.503  23.948  1.00  0.00    -0.264 NA
ATOM    101  C   UNL A   1      33.482  18.702  24.954  1.00  0.00     0.111 A 
ENDBRANCH  95  96
ENDBRANCH  84  95
ENDBRANCH  78  80
ENDBRANCH  77  78
ENDBRANCH  76  77
ENDBRANCH  75  76
ENDBRANCH  74  75
ENDBRANCH  73  74
ENDBRANCH   1  73
TORSDOF 25
ENDMDL
MODEL 3
REMARK VINA RESULT:     -10.1      6.047     10.895
REMARK SMILES O=C(OCCOCCOCCOC(=O)[C@@]1(CCc2ccccc2)CCC[N@@H+](Cc2cccnc2)C1)c1ccc(-c2c3nc(c(-c4cc(S(=O)(=O)[O-])ccc4F)c4ccc([nH]4)c(-c4cc(S(=O)(=O)[O-])ccc4F)c4nc(c(-c5cc(S(=O)(=O)[O-])ccc5F)c5ccc2[nH]5)C=C4)C=C3)cc1
REMARK SMILES IDX 7 1 6 2 5 3 4 4 3 5 2 6 1 7 36 8 37 9 98 10 38 11 97 12
REMARK SMILES IDX 39 13 40 14 41 15 91 16 42 17 96 18 90 19 92 20 43 21 95 22
REMARK SMILES IDX 89 23 88 24 44 26 76 27 56 28 75 29 57 30 60 31 74 32 93 33
REMARK SMILES IDX 58 34 59 35 73 37 94 38 61 39 45 40 46 41 54 42 47 43 53 44
REMARK SMILES IDX 55 45 52 46 48 47 49 48 50 49 51 50 77 51 78 52 86 53 79 54
REMARK SMILES IDX 85 55 87 56 84 57 80 58 81 59 82 60 83 61 62 62 63 63 71 64
REMARK SMILES IDX 64 65 70 66 72 67 69 68 65 69 66 70 67 71 68 72 8 73 9 74
REMARK SMILES IDX 10 75 11 76 12 77 13 78 14 79 15 80 24 81 35 82 25 83 27 84
REMARK SMILES IDX 26 85 16 87 17 88 18 89 19 90 23 91 20 92 22 93 21 94 28 95
REMARK SMILES IDX 29 96 30 97 34 98 31 99 33 100 32 101
REMARK H PARENT 92 25 60 36 27 86
REMARK Flexibility Score: inf
ROOT
ATOM      1  C   UNL A   1      34.982  33.450  28.107  1.00  0.00     0.188 C 
ENDROOT
BRANCH   1   2
ATOM      2  O   UNL A   1      33.808  34.256  28.034  1.00  0.00    -0.376 OA
BRANCH   2   3
ATOM      3  C   UNL A   1      34.065  35.634  28.329  1.00  0.00     0.202 C 
BRANCH   3   4
ATOM      4  C   UNL A   1      33.176  36.241  29.427  1.00  0.00     0.261 C 
BRANCH   4   5
ATOM      5  O   UNL A   1      32.613  35.230  30.278  1.00  0.00    -0.460 OA
BRANCH   5   6
ATOM      6  C   UNL A   1      32.800  35.137  31.622  1.00  0.00     0.338 C 
ATOM      7  O   UNL A   1      31.898  35.510  32.359  1.00  0.00    -0.246 OA
BRANCH   6   8
ATOM      8  C   UNL A   1      34.111  34.699  32.225  1.00  0.00     0.060 A 
ATOM      9  C   UNL A   1      35.357  35.289  32.005  1.00  0.00     0.016 A 
ATOM     10  C   UNL A   1      34.068  33.593  33.091  1.00  0.00     0.016 A 
ATOM     11  C   UNL A   1      36.532  34.729  32.512  1.00  0.00     0.010 A 
ATOM     12  C   UNL A   1      35.235  33.071  33.668  1.00  0.00     0.010 A 
ATOM     13  C   UNL A   1      36.486  33.601  33.326  1.00  0.00    -0.014 A 
BRANCH  13  14
ATOM     14  C   UNL A   1      37.744  32.869  33.623  1.00  0.00     0.031 A 
ATOM     15  C   UNL A   1      38.488  33.245  34.874  1.00  0.00     0.074 A 
ATOM     16  C   UNL A   1      38.155  31.829  32.871  1.00  0.00     0.049 A 
ATOM     17  N   UNL A   1      39.588  32.743  35.370  1.00  0.00    -0.248 NA
ATOM     18  C   UNL A   1      37.898  34.320  35.689  1.00  0.00     0.031 C 
ATOM     19  C   UNL A   1      37.443  31.302  31.711  1.00  0.00     0.029 A 
ATOM     20  N   UNL A   1      39.256  31.017  32.968  1.00  0.00    -0.354 N 
ATOM     21  C   UNL A   1      39.802  33.425  36.562  1.00  0.00     0.074 A 
ATOM     22  C   UNL A   1      38.778  34.439  36.665  1.00  0.00     0.031 C 
ATOM     23  C   UNL A   1      38.140  30.289  31.172  1.00  0.00     0.029 A 
ATOM     24  C   UNL A   1      39.349  30.084  31.958  1.00  0.00     0.049 A 
ATOM     25  H   UNL A   1      39.919  31.094  33.692  1.00  0.00     0.167 HD
ATOM     26  C   UNL A   1      40.737  33.194  37.514  1.00  0.00     0.034 A 
ATOM     27  C   UNL A   1      40.299  29.162  31.705  1.00  0.00     0.034 A 
ATOM     28  C   UNL A   1      41.761  32.193  37.383  1.00  0.00     0.049 A 
ATOM     29  C   UNL A   1      41.422  29.021  32.702  1.00  0.00     0.074 A 
ATOM     30  C   UNL A   1      42.811  31.908  38.235  1.00  0.00     0.029 A 
ATOM     31  N   UNL A   1      41.862  31.309  36.314  1.00  0.00    -0.354 N 
ATOM     32  N   UNL A   1      41.617  29.685  33.820  1.00  0.00    -0.248 NA
ATOM     33  C   UNL A   1      42.428  27.991  32.428  1.00  0.00     0.031 C 
ATOM     34  C   UNL A   1      43.576  30.889  37.655  1.00  0.00     0.029 A 
ATOM     35  C   UNL A   1      42.967  30.492  36.474  1.00  0.00     0.049 A 
ATOM     36  H   UNL A   1      41.238  31.271  35.553  1.00  0.00     0.167 HD
ATOM     37  C   UNL A   1      42.744  29.118  34.405  1.00  0.00     0.074 A 
ATOM     38  C   UNL A   1      43.175  28.055  33.520  1.00  0.00     0.031 C 
ATOM     39  C   UNL A   1      43.365  29.438  35.570  1.00  0.00     0.034 A 
BRANCH  26  40
ATOM     40  C   UNL A   1      40.684  34.082  38.733  1.00  0.00     0.023 A 
ATOM     41  C   UNL A   1      41.424  35.279  38.794  1.00  0.00     0.031 A 
ATOM     42  C   UNL A   1      39.997  33.672  39.887  1.00  0.00     0.131 A 
ATOM     43  C   UNL A   1      41.547  35.964  40.011  1.00  0.00     0.055 A 
ATOM     44  C   UNL A   1      40.051  34.407  41.072  1.00  0.00     0.041 A 
ATOM     45  F   UNL A   1      39.300  32.524  39.896  1.00  0.00    -0.206 F 
ATOM     46  C   UNL A   1      40.847  35.549  41.146  1.00  0.00     0.022 A 
BRANCH  43  47
ATOM     47  S   UNL A   1      42.777  37.292  40.137  1.00  0.00     0.124 S 
ATOM     48  O   UNL A   1      43.813  36.823  39.218  1.00  0.00    -0.237 OA
ATOM     49  O   UNL A   1      42.025  38.464  39.706  1.00  0.00    -0.237 OA
ATOM     50  O   UNL A   1      43.155  37.277  41.549  1.00  0.00    -0.744 OA
ENDBRANCH  43  47
ENDBRANCH  26  40
BRANCH  27  51
ATOM     51  C   UNL A   1      40.244  28.314  30.475  1.00  0.00     0.023 A 
ATOM     52  C   UNL A   1      41.032  28.598  29.349  1.00  0.00     0.031 A 
ATOM     53  C   UNL A   1      39.340  27.239  30.387  1.00  0.00     0.131 A 
ATOM     54  C   UNL A   1      40.861  27.857  28.166  1.00  0.00     0.055 A 
ATOM     55  C   UNL A   1      39.209  26.473  29.225  1.00  0.00     0.041 A 
ATOM     56  F   UNL A   1      38.564  26.914  31.433  1.00  0.00    -0.206 F 
ATOM     57  C   UNL A   1      39.961  26.792  28.099  1.00  0.00     0.022 A 
BRANCH  54  58
ATOM     58  S   UNL A   1      41.763  28.373  26.676  1.00  0.00     0.124 S 
ATOM     59  O   UNL A   1      42.836  29.183  27.243  1.00  0.00    -0.237 OA
ATOM     60  O   UNL A   1      42.159  27.089  26.106  1.00  0.00    -0.237 OA
ATOM     61  O   UNL A   1      40.759  29.112  25.911  1.00  0.00    -0.744 OA
ENDBRANCH  54  58
ENDBRANCH  27  51
BRANCH  39  62
ATOM     62  C   UNL A   1      44.542  28.588  35.962  1.00  0.00     0.023 A 
ATOM     63  C   UNL A   1      44.385  27.428  36.739  1.00  0.00     0.031 A 
ATOM     64  C   UNL A   1      45.839  28.948  35.555  1.00  0.00     0.131 A 
ATOM     65  C   UNL A   1      45.514  26.700  37.137  1.00  0.00     0.055 A 
ATOM     66  C   UNL A   1      46.952  28.184  35.902  1.00  0.00     0.041 A 
ATOM     67  F   UNL A   1      46.041  30.047  34.810  1.00  0.00    -0.206 F 
ATOM     68  C   UNL A   1      46.795  27.061  36.709  1.00  0.00     0.022 A 
BRANCH  65  69
ATOM     69  S   UNL A   1      45.293  25.325  38.296  1.00  0.00     0.124 S 
ATOM     70  O   UNL A   1      44.262  24.532  37.631  1.00  0.00    -0.237 OA
ATOM     71  O   UNL A   1      46.626  24.732  38.334  1.00  0.00    -0.237 OA
ATOM     72  O   UNL A   1      44.871  25.981  39.531  1.00  0.00    -0.744 OA
ENDBRANCH  65  69
ENDBRANCH  39  62
ENDBRANCH  13  14
ENDBRANCH   6   8
ENDBRANCH   5   6
ENDBRANCH   4   5
ENDBRANCH   3   4
ENDBRANCH   2   3
ENDBRANCH   1   2
BRANCH   1  73
ATOM     73  C   UNL A   1      34.746  31.956  28.366  1.00  0.00     0.188 C 
BRANCH  73  74
ATOM     74  O   UNL A   1      34.591  31.096  27.246  1.00  0.00    -0.376 OA
BRANCH  74  75
ATOM     75  C   UNL A   1      33.832  29.907  27.459  1.00  0.00     0.202 C 
BRANCH  75  76
ATOM     76  C   UNL A   1      32.329  29.903  27.110  1.00  0.00     0.261 C 
BRANCH  76  77
ATOM     77  O   UNL A   1      31.906  28.969  26.094  1.00  0.00    -0.463 OA
BRANCH  77  78
ATOM     78  C   UNL A   1      31.615  27.708  26.529  1.00  0.00     0.317 C 
ATOM     79  O   UNL A   1      30.992  27.484  27.565  1.00  0.00    -0.251 OA
BRANCH  78  80
ATOM     80  C   UNL A   1      32.097  26.564  25.599  1.00  0.00     0.117 C 
ATOM     81  C   UNL A   1      33.641  26.741  25.478  1.00  0.00     0.030 C 
ATOM     82  C   UNL A   1      31.847  25.266  26.390  1.00  0.00     0.281 C 
ATOM     83  C   UNL A   1      34.368  25.481  25.003  1.00  0.00     0.063 C 
ATOM     84  N   UNL A   1      32.469  24.117  25.741  1.00  0.00    -0.330 N 
ATOM     85  C   UNL A   1      33.923  24.213  25.749  1.00  0.00     0.262 C 
ATOM     86  H   UNL A   1      32.197  24.182  24.761  1.00  0.00     0.348 HD
BRANCH  80  87
ATOM     87  C   UNL A   1      31.410  26.583  24.187  1.00  0.00     0.029 C 
BRANCH  87  88
ATOM     88  C   UNL A   1      29.887  26.822  24.005  1.00  0.00     0.037 C 
BRANCH  88  89
ATOM     89  C   UNL A   1      29.399  28.055  23.265  1.00  0.00    -0.048 A 
ATOM     90  C   UNL A   1      28.054  28.411  23.161  1.00  0.00     0.004 A 
ATOM     91  C   UNL A   1      30.335  28.898  22.644  1.00  0.00     0.004 A 
ATOM     92  C   UNL A   1      27.636  29.547  22.465  1.00  0.00     0.000 A 
ATOM     93  C   UNL A   1      29.928  30.052  21.963  1.00  0.00     0.000 A 
ATOM     94  C   UNL A   1      28.577  30.374  21.869  1.00  0.00     0.000 A 
ENDBRANCH  88  89
ENDBRANCH  87  88
ENDBRANCH  80  87
BRANCH  84  95
ATOM     95  C   UNL A   1      31.899  22.805  26.038  1.00  0.00     0.300 C 
BRANCH  95  96
ATOM     96  C   UNL A   1      32.088  21.722  25.013  1.00  0.00     0.025 A 
ATOM     97  C   UNL A   1      31.941  21.973  23.642  1.00  0.00     0.013 A 
ATOM     98  C   UNL A   1      32.456  20.437  25.385  1.00  0.00     0.120 A 
ATOM     99  C   UNL A   1      32.103  20.945  22.724  1.00  0.00     0.021 A 
ATOM    100  N   UNL A   1      32.654  19.421  24.513  1.00  0.00    -0.264 NA
ATOM    101  C   UNL A   1      32.458  19.698  23.205  1.00  0.00     0.111 A 
ENDBRANCH  95  96
ENDBRANCH  84  95
ENDBRANCH  78  80
ENDBRANCH  77  78
ENDBRANCH  76  77
ENDBRANCH  75  76
ENDBRANCH  74  75
ENDBRANCH  73  74
ENDBRANCH   1  73
TORSDOF 25
ENDMDL
