MODEL 1
REMARK VINA RESULT:     -12.9      0.000      0.000
REMARK SMILES Cc1ccc(C(=O)c2cccc(C)c2C(=O)OCCOCCOCCOC(=O)c2ccc(-c3c4nc(c(-c5cc(S(=O)(=O)[O-])ccc5F)c5ccc([nH]5)c(-c5cc(S(=O)(=O)[O-])ccc5F)c5nc(c(-c6cc(S(=O)(=O)[O-])ccc6F)c6ccc3[nH]6)C=C5)C=C4)cc2)c(C)c1
REMARK SMILES IDX 22 1 21 2 20 3 19 4 18 5 17 6 15 7 16 8 14 9 8 10 9 11 10 12
REMARK SMILES IDX 12 13 11 14 13 15 6 16 7 17 5 18 1 19 2 20 3 21 94 22 4 23
REMARK SMILES IDX 92 24 93 25 23 26 24 27 25 28 26 29 27 30 28 31 29 32 30 33
REMARK SMILES IDX 91 34 31 35 90 36 32 37 33 38 34 39 84 40 35 41 89 42 83 43
REMARK SMILES IDX 85 44 36 45 88 46 82 47 81 48 37 50 69 51 49 52 68 53 50 54
REMARK SMILES IDX 53 55 67 56 86 57 51 58 52 59 66 61 87 62 54 63 38 64 39 65
REMARK SMILES IDX 47 66 40 67 46 68 48 69 45 70 41 71 42 72 43 73 44 74 70 75
REMARK SMILES IDX 71 76 79 77 72 78 78 79 80 80 77 81 73 82 74 83 75 84 76 85
REMARK SMILES IDX 55 86 56 87 64 88 57 89 63 90 65 91 62 92 58 93 59 94 60 95
REMARK SMILES IDX 61 96
REMARK H PARENT 85 49 53 60
REMARK Flexibility Score: inf
ROOT
ATOM      1  C   UNL A   1      33.594  34.141  27.992  1.00  0.00     0.188 C 
ENDROOT
BRANCH   1   2
ATOM      2  C   UNL A   1      34.850  33.304  28.216  1.00  0.00     0.188 C 
BRANCH   2   3
ATOM      3  O   UNL A   1      35.178  32.032  27.610  1.00  0.00    -0.376 OA
BRANCH   3   4
ATOM      4  C   UNL A   1      34.734  30.719  28.002  1.00  0.00     0.202 C 
BRANCH   4   5
ATOM      5  C   UNL A   1      34.651  29.295  27.043  1.00  0.00     0.261 C 
BRANCH   5   6
ATOM      6  O   UNL A   1      33.480  28.040  26.999  1.00  0.00    -0.460 OA
BRANCH   6   7
ATOM      7  C   UNL A   1      32.090  27.820  26.658  1.00  0.00     0.339 C 
ATOM      8  O   UNL A   1      31.183  27.553  27.445  1.00  0.00    -0.246 OA
BRANCH   7   9
ATOM      9  C   UNL A   1      31.457  27.611  25.346  1.00  0.00     0.074 A 
ATOM     10  C   UNL A   1      31.069  26.313  25.049  1.00  0.00     0.037 A 
ATOM     11  C   UNL A   1      30.038  26.131  24.108  1.00  0.00     0.013 A 
ATOM     12  C   UNL A   1      29.456  27.198  23.413  1.00  0.00     0.001 A 
ATOM     13  C   UNL A   1      30.830  28.742  24.640  1.00  0.00    -0.036 A 
ATOM     14  C   UNL A   1      29.873  28.491  23.650  1.00  0.00     0.004 A 
ATOM     15  C   UNL A   1      31.045  30.245  24.872  1.00  0.00     0.045 C 
BRANCH  10  16
ATOM     16  C   UNL A   1      31.756  25.166  25.712  1.00  0.00     0.194 C 
ATOM     17  O   UNL A   1      31.496  24.877  26.876  1.00  0.00    -0.289 OA
BRANCH  16  18
ATOM     18  C   UNL A   1      32.925  24.525  25.097  1.00  0.00     0.025 A 
ATOM     19  C   UNL A   1      36.645  23.015  23.635  1.00  0.00     0.044 C 
ATOM     20  C   UNL A   1      35.344  23.517  24.169  1.00  0.00    -0.051 A 
ATOM     21  C   UNL A   1      35.327  24.394  25.250  1.00  0.00     0.004 A 
ATOM     22  C   UNL A   1      34.142  23.109  23.583  1.00  0.00     0.007 A 
ATOM     23  C   UNL A   1      34.121  24.871  25.725  1.00  0.00     0.013 A 
ATOM     24  C   UNL A   1      32.910  23.566  24.068  1.00  0.00    -0.040 A 
ATOM     25  C   UNL A   1      31.691  22.951  23.457  1.00  0.00     0.045 C 
ENDBRANCH  16  18
ENDBRANCH  10  16
ENDBRANCH   7   9
ENDBRANCH   6   7
ENDBRANCH   5   6
ENDBRANCH   4   5
ENDBRANCH   3   4
ENDBRANCH   2   3
ENDBRANCH   1   2
BRANCH   1  26
ATOM     26  O   UNL A   1      32.950  34.518  29.195  1.00  0.00    -0.376 OA
BRANCH  26  27
ATOM     27  C   UNL A   1      32.958  35.919  29.442  1.00  0.00     0.202 C 
BRANCH  27  28
ATOM     28  C   UNL A   1      32.997  36.364  30.929  1.00  0.00     0.261 C 
BRANCH  28  29
ATOM     29  O   UNL A   1      34.019  35.709  31.731  1.00  0.00    -0.460 OA
BRANCH  29  30
ATOM     30  C   UNL A   1      33.644  34.640  32.524  1.00  0.00     0.338 C 
ATOM     31  O   UNL A   1      32.487  34.447  32.878  1.00  0.00    -0.246 OA
BRANCH  30  32
ATOM     32  C   UNL A   1      34.778  33.685  32.744  1.00  0.00     0.060 A 
ATOM     33  C   UNL A   1      35.706  33.568  33.794  1.00  0.00     0.016 A 
ATOM     34  C   UNL A   1      35.020  32.884  31.695  1.00  0.00     0.016 A 
ATOM     35  C   UNL A   1      36.951  32.779  33.665  1.00  0.00     0.010 A 
ATOM     36  C   UNL A   1      36.308  32.398  31.554  1.00  0.00     0.010 A 
ATOM     37  C   UNL A   1      37.353  32.183  32.469  1.00  0.00    -0.014 A 
BRANCH  37  38
ATOM     38  C   UNL A   1      38.752  31.341  32.070  1.00  0.00     0.031 A 
ATOM     39  C   UNL A   1      39.086  29.806  31.328  1.00  0.00     0.074 A 
ATOM     40  C   UNL A   1      39.870  32.051  32.312  1.00  0.00     0.049 A 
ATOM     41  N   UNL A   1      40.258  29.202  31.343  1.00  0.00    -0.248 NA
ATOM     42  C   UNL A   1      38.189  28.844  30.546  1.00  0.00     0.031 C 
ATOM     43  C   UNL A   1      41.243  31.822  31.886  1.00  0.00     0.029 A 
ATOM     44  N   UNL A   1      39.982  33.141  33.172  1.00  0.00    -0.354 N 
ATOM     45  C   UNL A   1      40.206  28.074  30.500  1.00  0.00     0.074 A 
ATOM     46  C   UNL A   1      38.867  27.735  30.354  1.00  0.00     0.031 C 
ATOM     47  C   UNL A   1      42.058  32.469  32.740  1.00  0.00     0.029 A 
ATOM     48  C   UNL A   1      41.221  33.002  33.800  1.00  0.00     0.049 A 
ATOM     49  H   UNL A   1      39.323  33.859  33.309  1.00  0.00     0.167 HD
ATOM     50  C   UNL A   1      41.265  27.583  29.804  1.00  0.00     0.034 A 
ATOM     51  C   UNL A   1      41.214  32.674  35.120  1.00  0.00     0.034 A 
ATOM     52  C   UNL A   1      42.445  28.002  30.512  1.00  0.00     0.049 A 
ATOM     53  C   UNL A   1      41.846  31.302  35.325  1.00  0.00     0.074 A 
ATOM     54  C   UNL A   1      43.316  29.066  30.422  1.00  0.00     0.029 A 
ATOM     55  N   UNL A   1      42.516  27.543  31.813  1.00  0.00    -0.354 N 
ATOM     56  N   UNL A   1      42.203  30.489  34.357  1.00  0.00    -0.248 NA
ATOM     57  C   UNL A   1      42.195  30.765  36.632  1.00  0.00     0.031 C 
ATOM     58  C   UNL A   1      43.723  29.367  31.768  1.00  0.00     0.029 A 
ATOM     59  C   UNL A   1      43.145  28.448  32.638  1.00  0.00     0.049 A 
ATOM     60  H   UNL A   1      42.160  26.675  32.113  1.00  0.00     0.167 HD
ATOM     61  C   UNL A   1      42.730  29.330  34.864  1.00  0.00     0.074 A 
ATOM     62  C   UNL A   1      42.767  29.595  36.295  1.00  0.00     0.031 C 
ATOM     63  C   UNL A   1      43.051  28.239  34.088  1.00  0.00     0.034 A 
BRANCH  50  64
ATOM     64  C   UNL A   1      41.208  26.817  28.472  1.00  0.00     0.023 A 
ATOM     65  C   UNL A   1      41.766  25.522  28.436  1.00  0.00     0.031 A 
ATOM     66  C   UNL A   1      40.769  27.283  27.197  1.00  0.00     0.131 A 
ATOM     67  C   UNL A   1      41.894  24.794  27.226  1.00  0.00     0.055 A 
ATOM     68  C   UNL A   1      40.885  26.554  26.001  1.00  0.00     0.041 A 
ATOM     69  F   UNL A   1      40.220  28.480  26.988  1.00  0.00    -0.206 F 
ATOM     70  C   UNL A   1      41.464  25.306  26.006  1.00  0.00     0.022 A 
BRANCH  67  71
ATOM     71  S   UNL A   1      42.658  23.152  27.257  1.00  0.00     0.124 S 
ATOM     72  O   UNL A   1      44.077  23.476  27.332  1.00  0.00    -0.237 OA
ATOM     73  O   UNL A   1      42.060  22.561  28.449  1.00  0.00    -0.237 OA
ATOM     74  O   UNL A   1      42.229  22.553  25.993  1.00  0.00    -0.744 OA
ENDBRANCH  67  71
ENDBRANCH  50  64
BRANCH  51  75
ATOM     75  C   UNL A   1      40.081  33.371  35.861  1.00  0.00     0.023 A 
ATOM     76  C   UNL A   1      39.083  32.533  36.452  1.00  0.00     0.031 A 
ATOM     77  C   UNL A   1      40.124  34.691  36.326  1.00  0.00     0.131 A 
ATOM     78  C   UNL A   1      38.324  32.949  37.562  1.00  0.00     0.055 A 
ATOM     79  C   UNL A   1      39.284  35.137  37.374  1.00  0.00     0.041 A 
ATOM     80  F   UNL A   1      41.066  35.541  35.893  1.00  0.00    -0.206 F 
ATOM     81  C   UNL A   1      38.421  34.254  38.031  1.00  0.00     0.022 A 
BRANCH  78  82
ATOM     82  S   UNL A   1      37.411  31.724  38.560  1.00  0.00     0.124 S 
ATOM     83  O   UNL A   1      38.208  31.669  39.781  1.00  0.00    -0.237 OA
ATOM     84  O   UNL A   1      36.080  32.314  38.696  1.00  0.00    -0.237 OA
ATOM     85  O   UNL A   1      37.441  30.518  37.731  1.00  0.00    -0.744 OA
ENDBRANCH  78  82
ENDBRANCH  51  75
BRANCH  63  86
ATOM     86  C   UNL A   1      43.234  26.826  34.656  1.00  0.00     0.023 A 
ATOM     87  C   UNL A   1      44.496  26.298  34.946  1.00  0.00     0.031 A 
ATOM     88  C   UNL A   1      42.152  25.979  35.015  1.00  0.00     0.131 A 
ATOM     89  C   UNL A   1      44.663  24.983  35.402  1.00  0.00     0.055 A 
ATOM     90  C   UNL A   1      42.314  24.735  35.640  1.00  0.00     0.041 A 
ATOM     91  F   UNL A   1      40.873  26.312  34.788  1.00  0.00    -0.206 F 
ATOM     92  C   UNL A   1      43.582  24.208  35.799  1.00  0.00     0.022 A 
BRANCH  89  93
ATOM     93  S   UNL A   1      46.313  24.260  35.248  1.00  0.00     0.124 S 
ATOM     94  O   UNL A   1      46.999  24.836  36.403  1.00  0.00    -0.237 OA
ATOM     95  O   UNL A   1      46.038  22.829  35.324  1.00  0.00    -0.237 OA
ATOM     96  O   UNL A   1      46.778  24.744  33.950  1.00  0.00    -0.744 OA
ENDBRANCH  89  93
ENDBRANCH  63  86
ENDBRANCH  37  38
ENDBRANCH  30  32
ENDBRANCH  29  30
ENDBRANCH  28  29
ENDBRANCH  27  28
ENDBRANCH  26  27
ENDBRANCH   1  26
TORSDOF 22
ENDMDL
MODEL 2
REMARK VINA RESULT:     -11.6      2.937      5.253
REMARK SMILES Cc1ccc(C(=O)c2cccc(C)c2C(=O)OCCOCCOCCOC(=O)c2ccc(-c3c4nc(c(-c5cc(S(=O)(=O)[O-])ccc5F)c5ccc([nH]5)c(-c5cc(S(=O)(=O)[O-])ccc5F)c5nc(c(-c6cc(S(=O)(=O)[O-])ccc6F)c6ccc3[nH]6)C=C5)C=C4)cc2)c(C)c1
REMARK SMILES IDX 22 1 21 2 20 3 19 4 18 5 17 6 15 7 16 8 14 9 8 10 9 11 10 12
REMARK SMILES IDX 12 13 11 14 13 15 6 16 7 17 5 18 1 19 2 20 3 21 94 22 4 23
REMARK SMILES IDX 92 24 93 25 23 26 24 27 25 28 26 29 27 30 28 31 29 32 30 33
REMARK SMILES IDX 91 34 31 35 90 36 32 37 33 38 34 39 84 40 35 41 89 42 83 43
REMARK SMILES IDX 85 44 36 45 88 46 82 47 81 48 37 50 69 51 49 52 68 53 50 54
REMARK SMILES IDX 53 55 67 56 86 57 51 58 52 59 66 61 87 62 54 63 38 64 39 65
REMARK SMILES IDX 47 66 40 67 46 68 48 69 45 70 41 71 42 72 43 73 44 74 70 75
REMARK SMILES IDX 71 76 79 77 72 78 78 79 80 80 77 81 73 82 74 83 75 84 76 85
REMARK SMILES IDX 55 86 56 87 64 88 57 89 63 90 65 91 62 92 58 93 59 94 60 95
REMARK SMILES IDX 61 96
REMARK H PARENT 85 49 53 60
REMARK Flexibility Score: inf
ROOT
ATOM      1  C   UNL A   1      32.054  28.653  23.069  1.00  0.00     0.188 C 
ENDROOT
BRANCH   1   2
ATOM      2  C   UNL A   1      31.244  27.463  22.557  1.00  0.00     0.188 C 
BRANCH   2   3
ATOM      3  O   UNL A   1      30.139  26.804  23.217  1.00  0.00    -0.376 OA
BRANCH   3   4
ATOM      4  C   UNL A   1      30.119  26.186  24.518  1.00  0.00     0.202 C 
BRANCH   4   5
ATOM      5  C   UNL A   1      30.481  24.556  24.926  1.00  0.00     0.261 C 
BRANCH   5   6
ATOM      6  O   UNL A   1      31.020  23.249  23.951  1.00  0.00    -0.460 OA
BRANCH   6   7
ATOM      7  C   UNL A   1      32.241  22.569  23.570  1.00  0.00     0.339 C 
ATOM      8  O   UNL A   1      33.125  23.017  22.841  1.00  0.00    -0.246 OA
BRANCH   7   9
ATOM      9  C   UNL A   1      32.625  21.156  23.718  1.00  0.00     0.074 A 
ATOM     10  C   UNL A   1      32.909  20.727  25.005  1.00  0.00     0.037 A 
ATOM     11  C   UNL A   1      32.768  19.356  25.292  1.00  0.00     0.013 A 
ATOM     12  C   UNL A   1      32.432  18.414  24.313  1.00  0.00     0.001 A 
ATOM     13  C   UNL A   1      32.242  20.175  22.687  1.00  0.00    -0.036 A 
ATOM     14  C   UNL A   1      32.205  18.814  23.012  1.00  0.00     0.004 A 
ATOM     15  C   UNL A   1      31.805  20.439  21.239  1.00  0.00     0.045 C 
BRANCH  10  16
ATOM     16  C   UNL A   1      33.368  21.713  26.029  1.00  0.00     0.194 C 
ATOM     17  O   UNL A   1      32.565  22.209  26.813  1.00  0.00    -0.289 OA
BRANCH  16  18
ATOM     18  C   UNL A   1      34.710  22.303  25.965  1.00  0.00     0.025 A 
ATOM     19  C   UNL A   1      38.816  23.475  25.820  1.00  0.00     0.044 C 
ATOM     20  C   UNL A   1      37.381  23.066  25.836  1.00  0.00    -0.051 A 
ATOM     21  C   UNL A   1      37.039  21.719  25.753  1.00  0.00     0.004 A 
ATOM     22  C   UNL A   1      36.377  24.035  25.938  1.00  0.00     0.007 A 
ATOM     23  C   UNL A   1      35.710  21.346  25.790  1.00  0.00     0.013 A 
ATOM     24  C   UNL A   1      35.024  23.674  25.954  1.00  0.00    -0.040 A 
ATOM     25  C   UNL A   1      34.040  24.800  25.920  1.00  0.00     0.045 C 
ENDBRANCH  16  18
ENDBRANCH  10  16
ENDBRANCH   7   9
ENDBRANCH   6   7
ENDBRANCH   5   6
ENDBRANCH   4   5
ENDBRANCH   3   4
ENDBRANCH   2   3
ENDBRANCH   1   2
BRANCH   1  26
ATOM     26  O   UNL A   1      33.438  28.381  23.183  1.00  0.00    -0.376 OA
BRANCH  26  27
ATOM     27  C   UNL A   1      33.869  28.118  24.513  1.00  0.00     0.202 C 
BRANCH  27  28
ATOM     28  C   UNL A   1      33.258  29.006  25.631  1.00  0.00     0.261 C 
BRANCH  28  29
ATOM     29  O   UNL A   1      34.091  29.148  26.816  1.00  0.00    -0.460 OA
BRANCH  29  30
ATOM     30  C   UNL A   1      34.319  30.421  27.306  1.00  0.00     0.338 C 
ATOM     31  O   UNL A   1      33.485  31.317  27.250  1.00  0.00    -0.246 OA
BRANCH  30  32
ATOM     32  C   UNL A   1      35.620  30.507  28.044  1.00  0.00     0.060 A 
ATOM     33  C   UNL A   1      36.360  31.613  28.501  1.00  0.00     0.016 A 
ATOM     34  C   UNL A   1      36.242  29.327  28.183  1.00  0.00     0.016 A 
ATOM     35  C   UNL A   1      37.777  31.503  28.910  1.00  0.00     0.010 A 
ATOM     36  C   UNL A   1      37.619  29.348  28.318  1.00  0.00     0.010 A 
ATOM     37  C   UNL A   1      38.519  30.327  28.775  1.00  0.00    -0.014 A 
BRANCH  37  38
ATOM     38  C   UNL A   1      40.141  30.004  29.071  1.00  0.00     0.031 A 
ATOM     39  C   UNL A   1      41.318  28.924  28.387  1.00  0.00     0.074 A 
ATOM     40  C   UNL A   1      40.670  30.820  30.003  1.00  0.00     0.049 A 
ATOM     41  N   UNL A   1      42.478  28.628  28.940  1.00  0.00    -0.248 NA
ATOM     42  C   UNL A   1      41.311  28.109  27.093  1.00  0.00     0.031 C 
ATOM     43  C   UNL A   1      42.058  31.059  30.367  1.00  0.00     0.029 A 
ATOM     44  N   UNL A   1      39.961  31.551  30.953  1.00  0.00    -0.354 N 
ATOM     45  C   UNL A   1      43.241  27.870  28.030  1.00  0.00     0.074 A 
ATOM     46  C   UNL A   1      42.353  27.310  27.119  1.00  0.00     0.031 C 
ATOM     47  C   UNL A   1      42.083  31.545  31.623  1.00  0.00     0.029 A 
ATOM     48  C   UNL A   1      40.720  31.487  32.122  1.00  0.00     0.049 A 
ATOM     49  H   UNL A   1      39.102  32.015  30.826  1.00  0.00     0.167 HD
ATOM     50  C   UNL A   1      44.598  27.891  27.956  1.00  0.00     0.034 A 
ATOM     51  C   UNL A   1      40.223  30.740  33.145  1.00  0.00     0.034 A 
ATOM     52  C   UNL A   1      45.068  28.297  29.254  1.00  0.00     0.049 A 
ATOM     53  C   UNL A   1      41.142  29.557  33.427  1.00  0.00     0.074 A 
ATOM     54  C   UNL A   1      45.421  29.495  29.837  1.00  0.00     0.029 A 
ATOM     55  N   UNL A   1      44.690  27.453  30.281  1.00  0.00    -0.354 N 
ATOM     56  N   UNL A   1      42.176  29.219  32.692  1.00  0.00    -0.248 NA
ATOM     57  C   UNL A   1      41.014  28.702  34.598  1.00  0.00     0.031 C 
ATOM     58  C   UNL A   1      45.014  29.406  31.213  1.00  0.00     0.029 A 
ATOM     59  C   UNL A   1      44.482  28.143  31.455  1.00  0.00     0.049 A 
ATOM     60  H   UNL A   1      44.583  26.479  30.184  1.00  0.00     0.167 HD
ATOM     61  C   UNL A   1      42.792  28.106  33.200  1.00  0.00     0.074 A 
ATOM     62  C   UNL A   1      42.061  27.873  34.438  1.00  0.00     0.031 C 
ATOM     63  C   UNL A   1      43.811  27.441  32.555  1.00  0.00     0.034 A 
BRANCH  50  64
ATOM     64  C   UNL A   1      45.451  27.627  26.704  1.00  0.00     0.023 A 
ATOM     65  C   UNL A   1      45.556  26.295  26.252  1.00  0.00     0.031 A 
ATOM     66  C   UNL A   1      46.274  28.540  25.981  1.00  0.00     0.131 A 
ATOM     67  C   UNL A   1      46.432  25.928  25.199  1.00  0.00     0.055 A 
ATOM     68  C   UNL A   1      47.131  28.176  24.929  1.00  0.00     0.041 A 
ATOM     69  F   UNL A   1      46.345  29.846  26.239  1.00  0.00    -0.206 F 
ATOM     70  C   UNL A   1      47.227  26.860  24.539  1.00  0.00     0.022 A 
BRANCH  67  71
ATOM     71  S   UNL A   1      46.540  24.190  24.701  1.00  0.00     0.124 S 
ATOM     72  O   UNL A   1      46.987  23.547  25.931  1.00  0.00    -0.237 OA
ATOM     73  O   UNL A   1      45.172  23.909  24.278  1.00  0.00    -0.237 OA
ATOM     74  O   UNL A   1      47.526  24.205  23.621  1.00  0.00    -0.744 OA
ENDBRANCH  67  71
ENDBRANCH  50  64
BRANCH  51  75
ATOM     75  C   UNL A   1      38.710  30.876  33.249  1.00  0.00     0.023 A 
ATOM     76  C   UNL A   1      38.207  32.086  33.823  1.00  0.00     0.031 A 
ATOM     77  C   UNL A   1      37.789  30.119  32.514  1.00  0.00     0.131 A 
ATOM     78  C   UNL A   1      36.927  32.581  33.513  1.00  0.00     0.055 A 
ATOM     79  C   UNL A   1      36.466  30.572  32.291  1.00  0.00     0.041 A 
ATOM     80  F   UNL A   1      38.171  29.006  31.873  1.00  0.00    -0.206 F 
ATOM     81  C   UNL A   1      36.049  31.827  32.743  1.00  0.00     0.022 A 
BRANCH  78  82
ATOM     82  S   UNL A   1      36.499  34.317  33.885  1.00  0.00     0.124 S 
ATOM     83  O   UNL A   1      37.814  34.924  34.063  1.00  0.00    -0.237 OA
ATOM     84  O   UNL A   1      35.755  34.749  32.704  1.00  0.00    -0.237 OA
ATOM     85  O   UNL A   1      35.682  34.214  35.095  1.00  0.00    -0.744 OA
ENDBRANCH  78  82
ENDBRANCH  51  75
BRANCH  63  86
ATOM     86  C   UNL A   1      44.215  25.997  32.882  1.00  0.00     0.023 A 
ATOM     87  C   UNL A   1      44.704  25.628  34.139  1.00  0.00     0.031 A 
ATOM     88  C   UNL A   1      44.044  24.913  31.981  1.00  0.00     0.131 A 
ATOM     89  C   UNL A   1      45.134  24.322  34.412  1.00  0.00     0.055 A 
ATOM     90  C   UNL A   1      44.304  23.578  32.317  1.00  0.00     0.041 A 
ATOM     91  F   UNL A   1      43.608  25.084  30.724  1.00  0.00    -0.206 F 
ATOM     92  C   UNL A   1      44.895  23.278  33.530  1.00  0.00     0.022 A 
BRANCH  89  93
ATOM     93  S   UNL A   1      46.200  24.089  35.854  1.00  0.00     0.124 S 
ATOM     94  O   UNL A   1      45.253  23.588  36.847  1.00  0.00    -0.237 OA
ATOM     95  O   UNL A   1      47.179  23.123  35.369  1.00  0.00    -0.237 OA
ATOM     96  O   UNL A   1      46.716  25.431  36.117  1.00  0.00    -0.744 OA
ENDBRANCH  89  93
ENDBRANCH  63  86
ENDBRANCH  37  38
ENDBRANCH  30  32
ENDBRANCH  29  30
ENDBRANCH  28  29
ENDBRANCH  27  28
ENDBRANCH  26  27
ENDBRANCH   1  26
TORSDOF 22
ENDMDL
MODEL 3
REMARK VINA RESULT:     -11.6      3.767      9.776
REMARK SMILES Cc1ccc(C(=O)c2cccc(C)c2C(=O)OCCOCCOCCOC(=O)c2ccc(-c3c4nc(c(-c5cc(S(=O)(=O)[O-])ccc5F)c5ccc([nH]5)c(-c5cc(S(=O)(=O)[O-])ccc5F)c5nc(c(-c6cc(S(=O)(=O)[O-])ccc6F)c6ccc3[nH]6)C=C5)C=C4)cc2)c(C)c1
REMARK SMILES IDX 22 1 21 2 20 3 19 4 18 5 17 6 15 7 16 8 14 9 8 10 9 11 10 12
REMARK SMILES IDX 12 13 11 14 13 15 6 16 7 17 5 18 1 19 2 20 3 21 94 22 4 23
REMARK SMILES IDX 92 24 93 25 23 26 24 27 25 28 26 29 27 30 28 31 29 32 30 33
REMARK SMILES IDX 91 34 31 35 90 36 32 37 33 38 34 39 84 40 35 41 89 42 83 43
REMARK SMILES IDX 85 44 36 45 88 46 82 47 81 48 37 50 69 51 49 52 68 53 50 54
REMARK SMILES IDX 53 55 67 56 86 57 51 58 52 59 66 61 87 62 54 63 38 64 39 65
REMARK SMILES IDX 47 66 40 67 46 68 48 69 45 70 41 71 42 72 43 73 44 74 70 75
REMARK SMILES IDX 71 76 79 77 72 78 78 79 80 80 77 81 73 82 74 83 75 84 76 85
REMARK SMILES IDX 55 86 56 87 64 88 57 89 63 90 65 91 62 92 58 93 59 94 60 95
REMARK SMILES IDX 61 96
REMARK H PARENT 85 49 53 60
REMARK Flexibility Score: inf
ROOT
ATOM      1  C   UNL A   1      35.311  24.174  25.425  1.00  0.00     0.188 C 
ENDROOT
BRANCH   1   2
ATOM      2  C   UNL A   1      34.271  25.272  25.220  1.00  0.00     0.188 C 
BRANCH   2   3
ATOM      3  O   UNL A   1      34.024  26.417  26.068  1.00  0.00    -0.376 OA
BRANCH   3   4
ATOM      4  C   UNL A   1      34.289  27.805  25.789  1.00  0.00     0.202 C 
BRANCH   4   5
ATOM      5  C   UNL A   1      33.214  29.140  25.917  1.00  0.00     0.261 C 
BRANCH   5   6
ATOM      6  O   UNL A   1      31.876  29.599  24.943  1.00  0.00    -0.460 OA
BRANCH   6   7
ATOM      7  C   UNL A   1      31.325  29.373  23.623  1.00  0.00     0.339 C 
ATOM      8  O   UNL A   1      31.897  29.577  22.553  1.00  0.00    -0.246 OA
BRANCH   7   9
ATOM      9  C   UNL A   1      29.939  29.102  23.207  1.00  0.00     0.074 A 
ATOM     10  C   UNL A   1      29.572  27.769  23.118  1.00  0.00     0.037 A 
ATOM     11  C   UNL A   1      28.207  27.449  23.245  1.00  0.00     0.013 A 
ATOM     12  C   UNL A   1      27.214  28.428  23.375  1.00  0.00     0.001 A 
ATOM     13  C   UNL A   1      28.904  30.138  23.373  1.00  0.00    -0.036 A 
ATOM     14  C   UNL A   1      27.555  29.764  23.402  1.00  0.00     0.004 A 
ATOM     15  C   UNL A   1      29.093  31.648  23.578  1.00  0.00     0.045 C 
BRANCH  10  16
ATOM     16  C   UNL A   1      30.616  26.729  22.877  1.00  0.00     0.194 C 
ATOM     17  O   UNL A   1      31.237  26.709  21.818  1.00  0.00    -0.289 OA
BRANCH  16  18
ATOM     18  C   UNL A   1      30.749  25.568  23.766  1.00  0.00     0.025 A 
ATOM     19  C   UNL A   1      31.157  21.872  25.870  1.00  0.00     0.044 C 
ATOM     20  C   UNL A   1      31.049  23.168  25.137  1.00  0.00    -0.051 A 
ATOM     21  C   UNL A   1      31.208  23.202  23.754  1.00  0.00     0.004 A 
ATOM     22  C   UNL A   1      30.784  24.349  25.837  1.00  0.00     0.007 A 
ATOM     23  C   UNL A   1      31.086  24.401  23.080  1.00  0.00     0.013 A 
ATOM     24  C   UNL A   1      30.680  25.577  25.171  1.00  0.00    -0.040 A 
ATOM     25  C   UNL A   1      30.538  26.788  26.037  1.00  0.00     0.045 C 
ENDBRANCH  16  18
ENDBRANCH  10  16
ENDBRANCH   7   9
ENDBRANCH   6   7
ENDBRANCH   5   6
ENDBRANCH   4   5
ENDBRANCH   3   4
ENDBRANCH   2   3
ENDBRANCH   1   2
BRANCH   1  26
ATOM     26  O   UNL A   1      34.959  22.947  24.813  1.00  0.00    -0.376 OA
BRANCH  26  27
ATOM     27  C   UNL A   1      36.073  22.158  24.416  1.00  0.00     0.202 C 
BRANCH  27  28
ATOM     28  C   UNL A   1      37.064  21.736  25.536  1.00  0.00     0.261 C 
BRANCH  28  29
ATOM     29  O   UNL A   1      38.413  22.256  25.378  1.00  0.00    -0.460 OA
BRANCH  29  30
ATOM     30  C   UNL A   1      39.282  22.155  26.450  1.00  0.00     0.338 C 
ATOM     31  O   UNL A   1      39.651  21.081  26.910  1.00  0.00    -0.246 OA
BRANCH  30  32
ATOM     32  C   UNL A   1      39.829  23.492  26.850  1.00  0.00     0.060 A 
ATOM     33  C   UNL A   1      41.080  23.867  27.371  1.00  0.00     0.016 A 
ATOM     34  C   UNL A   1      38.921  24.478  26.818  1.00  0.00     0.016 A 
ATOM     35  C   UNL A   1      41.308  25.180  28.015  1.00  0.00     0.010 A 
ATOM     36  C   UNL A   1      39.129  25.558  27.659  1.00  0.00     0.010 A 
ATOM     37  C   UNL A   1      40.284  26.099  28.250  1.00  0.00    -0.014 A 
BRANCH  37  38
ATOM     38  C   UNL A   1      40.291  27.582  29.041  1.00  0.00     0.031 A 
ATOM     39  C   UNL A   1      39.431  29.079  28.843  1.00  0.00     0.074 A 
ATOM     40  C   UNL A   1      41.091  27.587  30.125  1.00  0.00     0.049 A 
ATOM     41  N   UNL A   1      39.772  30.222  29.403  1.00  0.00    -0.248 NA
ATOM     42  C   UNL A   1      38.179  29.426  28.035  1.00  0.00     0.031 C 
ATOM     43  C   UNL A   1      41.193  28.543  31.216  1.00  0.00     0.029 A 
ATOM     44  N   UNL A   1      42.136  26.701  30.378  1.00  0.00    -0.354 N 
ATOM     45  C   UNL A   1      38.757  31.171  29.167  1.00  0.00     0.074 A 
ATOM     46  C   UNL A   1      38.035  30.731  28.064  1.00  0.00     0.031 C 
ATOM     47  C   UNL A   1      42.411  28.412  31.774  1.00  0.00     0.029 A 
ATOM     48  C   UNL A   1      43.150  27.469  30.954  1.00  0.00     0.049 A 
ATOM     49  H   UNL A   1      42.155  25.736  30.190  1.00  0.00     0.167 HD
ATOM     50  C   UNL A   1      38.440  32.186  30.013  1.00  0.00     0.034 A 
ATOM     51  C   UNL A   1      44.264  27.689  30.203  1.00  0.00     0.034 A 
ATOM     52  C   UNL A   1      39.621  32.451  30.790  1.00  0.00     0.049 A 
ATOM     53  C   UNL A   1      44.403  29.175  29.892  1.00  0.00     0.074 A 
ATOM     54  C   UNL A   1      40.102  32.038  32.013  1.00  0.00     0.029 A 
ATOM     55  N   UNL A   1      40.719  32.824  30.039  1.00  0.00    -0.354 N 
ATOM     56  N   UNL A   1      43.502  30.088  30.172  1.00  0.00    -0.248 NA
ATOM     57  C   UNL A   1      45.598  29.764  29.306  1.00  0.00     0.031 C 
ATOM     58  C   UNL A   1      41.530  31.955  31.876  1.00  0.00     0.029 A 
ATOM     59  C   UNL A   1      41.894  32.377  30.600  1.00  0.00     0.049 A 
ATOM     60  H   UNL A   1      40.667  33.346  29.205  1.00  0.00     0.167 HD
ATOM     61  C   UNL A   1      43.916  31.326  29.758  1.00  0.00     0.074 A 
ATOM     62  C   UNL A   1      45.271  31.068  29.290  1.00  0.00     0.031 C 
ATOM     63  C   UNL A   1      43.114  32.444  29.788  1.00  0.00     0.034 A 
BRANCH  50  64
ATOM     64  C   UNL A   1      37.060  32.849  30.170  1.00  0.00     0.023 A 
ATOM     65  C   UNL A   1      36.545  32.988  31.475  1.00  0.00     0.031 A 
ATOM     66  C   UNL A   1      36.144  33.245  29.150  1.00  0.00     0.131 A 
ATOM     67  C   UNL A   1      35.226  33.449  31.714  1.00  0.00     0.055 A 
ATOM     68  C   UNL A   1      34.842  33.715  29.391  1.00  0.00     0.041 A 
ATOM     69  F   UNL A   1      36.410  33.190  27.845  1.00  0.00    -0.206 F 
ATOM     70  C   UNL A   1      34.367  33.806  30.679  1.00  0.00     0.022 A 
BRANCH  67  71
ATOM     71  S   UNL A   1      34.623  33.564  33.419  1.00  0.00     0.124 S 
ATOM     72  O   UNL A   1      34.762  34.988  33.697  1.00  0.00    -0.237 OA
ATOM     73  O   UNL A   1      33.262  33.053  33.295  1.00  0.00    -0.237 OA
ATOM     74  O   UNL A   1      35.539  32.699  34.163  1.00  0.00    -0.744 OA
ENDBRANCH  67  71
ENDBRANCH  50  64
BRANCH  51  75
ATOM     75  C   UNL A   1      44.636  26.459  29.386  1.00  0.00     0.023 A 
ATOM     76  C   UNL A   1      44.702  26.622  27.966  1.00  0.00     0.031 A 
ATOM     77  C   UNL A   1      45.267  25.320  29.900  1.00  0.00     0.131 A 
ATOM     78  C   UNL A   1      45.510  25.799  27.159  1.00  0.00     0.055 A 
ATOM     79  C   UNL A   1      45.993  24.434  29.069  1.00  0.00     0.041 A 
ATOM     80  F   UNL A   1      45.328  25.107  31.223  1.00  0.00    -0.206 F 
ATOM     81  C   UNL A   1      46.162  24.700  27.707  1.00  0.00     0.022 A 
BRANCH  78  82
ATOM     82  S   UNL A   1      45.927  26.308  25.456  1.00  0.00     0.124 S 
ATOM     83  O   UNL A   1      46.110  25.023  24.790  1.00  0.00    -0.237 OA
ATOM     84  O   UNL A   1      44.762  27.082  25.034  1.00  0.00    -0.237 OA
ATOM     85  O   UNL A   1      47.139  27.109  25.628  1.00  0.00    -0.744 OA
ENDBRANCH  78  82
ENDBRANCH  51  75
BRANCH  63  86
ATOM     86  C   UNL A   1      43.397  33.706  28.962  1.00  0.00     0.023 A 
ATOM     87  C   UNL A   1      43.886  33.644  27.653  1.00  0.00     0.031 A 
ATOM     88  C   UNL A   1      43.107  35.021  29.414  1.00  0.00     0.131 A 
ATOM     89  C   UNL A   1      44.207  34.800  26.926  1.00  0.00     0.055 A 
ATOM     90  C   UNL A   1      43.257  36.165  28.619  1.00  0.00     0.041 A 
ATOM     91  F   UNL A   1      42.653  35.271  30.651  1.00  0.00    -0.206 F 
ATOM     92  C   UNL A   1      43.852  36.064  27.376  1.00  0.00     0.022 A 
BRANCH  89  93
ATOM     93  S   UNL A   1      45.288  34.598  25.491  1.00  0.00     0.124 S 
ATOM     94  O   UNL A   1      46.087  35.820  25.546  1.00  0.00    -0.237 OA
ATOM     95  O   UNL A   1      45.998  33.362  25.803  1.00  0.00    -0.237 OA
ATOM     96  O   UNL A   1      44.355  34.521  24.369  1.00  0.00    -0.744 OA
ENDBRANCH  89  93
ENDBRANCH  63  86
ENDBRANCH  37  38
ENDBRANCH  30  32
ENDBRANCH  29  30
ENDBRANCH  28  29
ENDBRANCH  27  28
ENDBRANCH  26  27
ENDBRANCH   1  26
TORSDOF 22
ENDMDL
