MODEL 1
REMARK VINA RESULT:     -10.5      0.000      0.000
REMARK SMILES CCOc1cc2c(cc1/C=C1/C(=O)N(c3cccc(C(=O)OCCOCCOCCOC(=O)c4ccc(-c5c6nc(c(-c7cc(S(=O)(=O)[O-])ccc7F)c7ccc([nH]7)c(-c7cc(S(=O)(=O)[O-])ccc7F)c7nc(c(-c8cc(S(=O)(=O)[O-])ccc8F)c8ccc5[nH]8)C=C7)C=C6)cc4)c3)C(=S)N=C1O)OCO2
REMARK SMILES IDX 26 1 25 2 24 3 23 4 22 5 20 6 21 7 19 8 15 9 16 10 97 11
REMARK SMILES IDX 17 12 18 13 14 14 10 15 11 16 12 17 101 18 13 19 100 20
REMARK SMILES IDX 98 21 99 22 9 23 4 24 5 25 6 26 8 27 7 28 105 29 103 30
REMARK SMILES IDX 104 31 3 32 2 33 1 34 102 35 27 37 28 38 29 39 30 40 31 41
REMARK SMILES IDX 32 42 33 43 34 44 35 45 96 46 36 47 95 48 37 49 38 50 39 51
REMARK SMILES IDX 89 52 40 53 94 54 88 55 90 56 41 57 93 58 87 59 86 60 42 62
REMARK SMILES IDX 74 63 54 64 73 65 55 66 58 67 72 68 91 69 56 70 57 71 71 73
REMARK SMILES IDX 92 74 59 75 43 76 44 77 52 78 45 79 51 80 53 81 50 82 46 83
REMARK SMILES IDX 47 84 48 85 49 86 75 87 76 88 84 89 77 90 83 91 85 92 82 93
REMARK SMILES IDX 78 94 79 95 80 96 81 97 60 98 61 99 69 100 62 101 68 102
REMARK SMILES IDX 70 103 67 104 63 105 64 106 65 107 66 108
REMARK H PARENT 102 36 90 61 58 72
REMARK Flexibility Score: inf
ROOT
ATOM      1  C   UNL A   1      32.012  29.151  26.791  1.00  0.00     0.188 C 
ENDROOT
BRANCH   1   2
ATOM      2  O   UNL A   1      31.658  29.899  25.632  1.00  0.00    -0.376 OA
BRANCH   2   3
ATOM      3  C   UNL A   1      31.401  29.231  24.407  1.00  0.00     0.202 C 
BRANCH   3   4
ATOM      4  C   UNL A   1      30.048  29.432  23.707  1.00  0.00     0.261 C 
BRANCH   4   5
ATOM      5  O   UNL A   1      29.666  28.377  22.811  1.00  0.00    -0.460 OA
BRANCH   5   6
ATOM      6  C   UNL A   1      29.612  27.134  23.353  1.00  0.00     0.338 C 
ATOM      7  O   UNL A   1      28.690  26.657  23.995  1.00  0.00    -0.246 OA
BRANCH   6   8
ATOM      8  C   UNL A   1      30.780  26.342  22.904  1.00  0.00     0.062 A 
ATOM      9  C   UNL A   1      32.421  24.566  23.224  1.00  0.00     0.052 A 
ATOM     10  C   UNL A   1      33.034  24.960  22.022  1.00  0.00     0.027 A 
ATOM     11  C   UNL A   1      31.277  25.265  23.650  1.00  0.00     0.042 A 
ATOM     12  C   UNL A   1      32.550  26.048  21.289  1.00  0.00     0.003 A 
ATOM     13  C   UNL A   1      31.421  26.735  21.725  1.00  0.00     0.016 A 
BRANCH   9  14
ATOM     14  N   UNL A   1      32.939  23.471  24.022  1.00  0.00    -0.251 N 
ATOM     15  C   UNL A   1      32.869  19.790  23.965  1.00  0.00     0.031 C 
ATOM     16  C   UNL A   1      33.053  21.041  24.459  1.00  0.00     0.103 C 
ATOM     17  C   UNL A   1      32.513  22.180  23.642  1.00  0.00     0.270 C 
ATOM     18  C   UNL A   1      33.718  21.474  25.678  1.00  0.00     0.226 C 
ATOM     19  O   UNL A   1      31.762  21.946  22.693  1.00  0.00    -0.268 OA
ATOM     20  N   UNL A   1      34.075  22.660  25.979  1.00  0.00    -0.184 NA
ATOM     21  C   UNL A   1      33.765  23.710  25.150  1.00  0.00     0.210 C 
ATOM     22  S   UNL A   1      34.303  25.229  25.697  1.00  0.00    -0.038 S 
BRANCH  15  23
ATOM     23  C   UNL A   1      33.246  18.426  24.438  1.00  0.00     0.021 A 
ATOM     24  C   UNL A   1      34.620  18.040  24.531  1.00  0.00     0.130 A 
ATOM     25  C   UNL A   1      34.985  16.746  24.937  1.00  0.00     0.097 A 
ATOM     26  C   UNL A   1      33.986  15.843  25.200  1.00  0.00     0.169 A 
ATOM     27  C   UNL A   1      32.280  17.499  24.863  1.00  0.00     0.062 A 
ATOM     28  C   UNL A   1      32.668  16.212  25.176  1.00  0.00     0.166 A 
ATOM     29  O   UNL A   1      34.157  14.540  25.550  1.00  0.00    -0.453 OA
ATOM     30  O   UNL A   1      31.838  15.187  25.504  1.00  0.00    -0.454 OA
ATOM     31  C   UNL A   1      32.784  14.104  25.618  1.00  0.00     0.468 C 
BRANCH  24  32
ATOM     32  O   UNL A   1      35.595  18.999  24.378  1.00  0.00    -0.493 OA
BRANCH  32  33
ATOM     33  C   UNL A   1      36.881  18.685  24.928  1.00  0.00     0.226 C 
ATOM     34  C   UNL A   1      37.856  19.857  24.895  1.00  0.00     0.049 C 
ENDBRANCH  32  33
ENDBRANCH  24  32
ENDBRANCH  15  23
BRANCH  18  35
ATOM     35  O   UNL A   1      33.929  20.569  26.631  1.00  0.00    -0.493 OA
ATOM     36  H   UNL A   1      34.730  20.580  27.118  1.00  0.00     0.295 HD
ENDBRANCH  18  35
ENDBRANCH   9  14
ENDBRANCH   6   8
ENDBRANCH   5   6
ENDBRANCH   4   5
ENDBRANCH   3   4
ENDBRANCH   2   3
ENDBRANCH   1   2
BRANCH   1  37
ATOM     37  C   UNL A   1      33.481  29.091  27.264  1.00  0.00     0.188 C 
BRANCH  37  38
ATOM     38  O   UNL A   1      34.204  30.291  27.055  1.00  0.00    -0.376 OA
BRANCH  38  39
ATOM     39  C   UNL A   1      33.694  31.451  27.698  1.00  0.00     0.202 C 
BRANCH  39  40
ATOM     40  C   UNL A   1      34.576  32.110  28.771  1.00  0.00     0.261 C 
BRANCH  40  41
ATOM     41  O   UNL A   1      35.502  31.250  29.457  1.00  0.00    -0.460 OA
BRANCH  41  42
ATOM     42  C   UNL A   1      35.813  31.576  30.734  1.00  0.00     0.338 C 
ATOM     43  O   UNL A   1      35.052  32.023  31.571  1.00  0.00    -0.246 OA
BRANCH  42  44
ATOM     44  C   UNL A   1      37.203  31.131  30.995  1.00  0.00     0.060 A 
ATOM     45  C   UNL A   1      38.260  31.813  30.379  1.00  0.00     0.016 A 
ATOM     46  C   UNL A   1      37.464  30.044  31.835  1.00  0.00     0.016 A 
ATOM     47  C   UNL A   1      39.577  31.382  30.569  1.00  0.00     0.010 A 
ATOM     48  C   UNL A   1      38.782  29.606  32.013  1.00  0.00     0.010 A 
ATOM     49  C   UNL A   1      39.845  30.249  31.353  1.00  0.00    -0.014 A 
BRANCH  49  50
ATOM     50  C   UNL A   1      41.198  29.632  31.317  1.00  0.00     0.031 A 
ATOM     51  C   UNL A   1      42.203  30.046  32.362  1.00  0.00     0.074 A 
ATOM     52  C   UNL A   1      41.527  28.693  30.409  1.00  0.00     0.049 A 
ATOM     53  N   UNL A   1      43.436  29.646  32.541  1.00  0.00    -0.248 NA
ATOM     54  C   UNL A   1      41.749  31.052  33.336  1.00  0.00     0.031 C 
ATOM     55  C   UNL A   1      40.638  28.177  29.370  1.00  0.00     0.029 A 
ATOM     56  N   UNL A   1      42.701  28.004  30.219  1.00  0.00    -0.354 N 
ATOM     57  C   UNL A   1      43.904  30.346  33.650  1.00  0.00     0.074 A 
ATOM     58  C   UNL A   1      42.837  31.230  34.067  1.00  0.00     0.031 C 
ATOM     59  C   UNL A   1      41.301  27.253  28.650  1.00  0.00     0.029 A 
ATOM     60  C   UNL A   1      42.668  27.132  29.156  1.00  0.00     0.049 A 
ATOM     61  H   UNL A   1      43.493  28.124  30.792  1.00  0.00     0.167 HD
ATOM     62  C   UNL A   1      45.106  30.251  34.273  1.00  0.00     0.034 A 
ATOM     63  C   UNL A   1      43.634  26.342  28.641  1.00  0.00     0.034 A 
ATOM     64  C   UNL A   1      46.172  29.383  33.837  1.00  0.00     0.049 A 
ATOM     65  C   UNL A   1      44.997  26.320  29.294  1.00  0.00     0.074 A 
ATOM     66  C   UNL A   1      47.425  29.208  34.397  1.00  0.00     0.029 A 
ATOM     67  N   UNL A   1      46.118  28.553  32.723  1.00  0.00    -0.354 N 
ATOM     68  N   UNL A   1      45.421  26.975  30.350  1.00  0.00    -0.248 NA
ATOM     69  C   UNL A   1      46.009  25.441  28.690  1.00  0.00     0.031 C 
ATOM     70  C   UNL A   1      48.153  28.333  33.583  1.00  0.00     0.029 A 
ATOM     71  C   UNL A   1      47.326  27.891  32.562  1.00  0.00     0.049 A 
ATOM     72  H   UNL A   1      45.335  28.450  32.134  1.00  0.00     0.167 HD
ATOM     73  C   UNL A   1      46.734  26.554  30.559  1.00  0.00     0.074 A 
ATOM     74  C   UNL A   1      47.028  25.586  29.524  1.00  0.00     0.031 C 
ATOM     75  C   UNL A   1      47.614  26.928  31.524  1.00  0.00     0.034 A 
BRANCH  62  76
ATOM     76  C   UNL A   1      45.338  31.153  35.463  1.00  0.00     0.023 A 
ATOM     77  C   UNL A   1      45.085  30.724  36.778  1.00  0.00     0.031 A 
ATOM     78  C   UNL A   1      45.784  32.474  35.277  1.00  0.00     0.131 A 
ATOM     79  C   UNL A   1      45.205  31.627  37.845  1.00  0.00     0.055 A 
ATOM     80  C   UNL A   1      45.981  33.343  36.351  1.00  0.00     0.041 A 
ATOM     81  F   UNL A   1      46.020  32.948  34.043  1.00  0.00    -0.206 F 
ATOM     82  C   UNL A   1      45.677  32.926  37.643  1.00  0.00     0.022 A 
BRANCH  79  83
ATOM     83  S   UNL A   1      44.589  31.129  39.477  1.00  0.00     0.124 S 
ATOM     84  O   UNL A   1      44.876  29.697  39.476  1.00  0.00    -0.237 OA
ATOM     85  O   UNL A   1      45.394  31.942  40.380  1.00  0.00    -0.237 OA
ATOM     86  O   UNL A   1      43.169  31.471  39.426  1.00  0.00    -0.744 OA
ENDBRANCH  79  83
ENDBRANCH  62  76
BRANCH  63  87
ATOM     87  C   UNL A   1      43.371  25.518  27.422  1.00  0.00     0.023 A 
ATOM     88  C   UNL A   1      42.809  24.235  27.517  1.00  0.00     0.031 A 
ATOM     89  C   UNL A   1      43.741  25.982  26.148  1.00  0.00     0.131 A 
ATOM     90  C   UNL A   1      42.679  23.441  26.365  1.00  0.00     0.055 A 
ATOM     91  C   UNL A   1      43.559  25.211  24.999  1.00  0.00     0.041 A 
ATOM     92  F   UNL A   1      44.289  27.199  26.000  1.00  0.00    -0.206 F 
ATOM     93  C   UNL A   1      43.036  23.926  25.106  1.00  0.00     0.022 A 
BRANCH  90  94
ATOM     94  S   UNL A   1      42.115  21.725  26.550  1.00  0.00     0.124 S 
ATOM     95  O   UNL A   1      43.003  21.021  25.633  1.00  0.00    -0.237 OA
ATOM     96  O   UNL A   1      42.337  21.485  27.971  1.00  0.00    -0.237 OA
ATOM     97  O   UNL A   1      40.713  21.783  26.140  1.00  0.00    -0.744 OA
ENDBRANCH  90  94
ENDBRANCH  63  87
BRANCH  75  98
ATOM     98  C   UNL A   1      48.959  26.238  31.544  1.00  0.00     0.023 A 
ATOM     99  C   UNL A   1      49.206  25.101  32.333  1.00  0.00     0.031 A 
ATOM    100  C   UNL A   1      50.016  26.737  30.759  1.00  0.00     0.131 A 
ATOM    101  C   UNL A   1      50.490  24.535  32.363  1.00  0.00     0.055 A 
ATOM    102  C   UNL A   1      51.274  26.132  30.745  1.00  0.00     0.041 A 
ATOM    103  F   UNL A   1      49.840  27.822  29.987  1.00  0.00    -0.206 F 
ATOM    104  C   UNL A   1      51.520  25.033  31.561  1.00  0.00     0.022 A 
BRANCH 101 105
ATOM    105  S   UNL A   1      50.828  23.194  33.538  1.00  0.00     0.124 S 
ATOM    106  O   UNL A   1      49.606  23.174  34.335  1.00  0.00    -0.237 OA
ATOM    107  O   UNL A   1      51.031  22.050  32.655  1.00  0.00    -0.237 OA
ATOM    108  O   UNL A   1      52.023  23.649  34.246  1.00  0.00    -0.744 OA
ENDBRANCH 101 105
ENDBRANCH  75  98
ENDBRANCH  49  50
ENDBRANCH  42  44
ENDBRANCH  41  42
ENDBRANCH  40  41
ENDBRANCH  39  40
ENDBRANCH  38  39
ENDBRANCH  37  38
ENDBRANCH   1  37
TORSDOF 25
ENDMDL
MODEL 2
REMARK VINA RESULT:      -9.6      5.580      6.961
REMARK SMILES CCOc1cc2c(cc1/C=C1/C(=O)N(c3cccc(C(=O)OCCOCCOCCOC(=O)c4ccc(-c5c6nc(c(-c7cc(S(=O)(=O)[O-])ccc7F)c7ccc([nH]7)c(-c7cc(S(=O)(=O)[O-])ccc7F)c7nc(c(-c8cc(S(=O)(=O)[O-])ccc8F)c8ccc5[nH]8)C=C7)C=C6)cc4)c3)C(=S)N=C1O)OCO2
REMARK SMILES IDX 26 1 25 2 24 3 23 4 22 5 20 6 21 7 19 8 15 9 16 10 97 11
REMARK SMILES IDX 17 12 18 13 14 14 10 15 11 16 12 17 101 18 13 19 100 20
REMARK SMILES IDX 98 21 99 22 9 23 4 24 5 25 6 26 8 27 7 28 105 29 103 30
REMARK SMILES IDX 104 31 3 32 2 33 1 34 102 35 27 37 28 38 29 39 30 40 31 41
REMARK SMILES IDX 32 42 33 43 34 44 35 45 96 46 36 47 95 48 37 49 38 50 39 51
REMARK SMILES IDX 89 52 40 53 94 54 88 55 90 56 41 57 93 58 87 59 86 60 42 62
REMARK SMILES IDX 74 63 54 64 73 65 55 66 58 67 72 68 91 69 56 70 57 71 71 73
REMARK SMILES IDX 92 74 59 75 43 76 44 77 52 78 45 79 51 80 53 81 50 82 46 83
REMARK SMILES IDX 47 84 48 85 49 86 75 87 76 88 84 89 77 90 83 91 85 92 82 93
REMARK SMILES IDX 78 94 79 95 80 96 81 97 60 98 61 99 69 100 62 101 68 102
REMARK SMILES IDX 70 103 67 104 63 105 64 106 65 107 66 108
REMARK H PARENT 102 36 90 61 58 72
REMARK Flexibility Score: inf
ROOT
ATOM      1  C   UNL A   1      33.544  30.127  27.171  1.00  0.00     0.188 C 
ENDROOT
BRANCH   1   2
ATOM      2  O   UNL A   1      32.150  29.855  27.271  1.00  0.00    -0.376 OA
BRANCH   2   3
ATOM      3  C   UNL A   1      31.691  28.515  27.352  1.00  0.00     0.202 C 
BRANCH   3   4
ATOM      4  C   UNL A   1      31.950  27.556  26.180  1.00  0.00     0.261 C 
BRANCH   4   5
ATOM      5  O   UNL A   1      30.771  26.991  25.588  1.00  0.00    -0.460 OA
BRANCH   5   6
ATOM      6  C   UNL A   1      30.600  25.658  25.772  1.00  0.00     0.338 C 
ATOM      7  O   UNL A   1      29.815  25.120  26.538  1.00  0.00    -0.246 OA
BRANCH   6   8
ATOM      8  C   UNL A   1      31.390  24.909  24.768  1.00  0.00     0.062 A 
ATOM      9  C   UNL A   1      33.134  23.314  24.161  1.00  0.00     0.052 A 
ATOM     10  C   UNL A   1      32.886  23.608  22.809  1.00  0.00     0.027 A 
ATOM     11  C   UNL A   1      32.361  23.970  25.138  1.00  0.00     0.042 A 
ATOM     12  C   UNL A   1      31.931  24.560  22.441  1.00  0.00     0.003 A 
ATOM     13  C   UNL A   1      31.179  25.206  23.417  1.00  0.00     0.016 A 
BRANCH   9  14
ATOM     14  N   UNL A   1      34.154  22.365  24.562  1.00  0.00    -0.251 N 
ATOM     15  C   UNL A   1      37.695  22.434  25.565  1.00  0.00     0.031 C 
ATOM     16  C   UNL A   1      36.511  21.915  25.153  1.00  0.00     0.103 C 
ATOM     17  C   UNL A   1      35.452  22.892  24.729  1.00  0.00     0.270 C 
ATOM     18  C   UNL A   1      36.080  20.527  25.064  1.00  0.00     0.226 C 
ATOM     19  O   UNL A   1      35.747  24.078  24.569  1.00  0.00    -0.268 OA
ATOM     20  N   UNL A   1      34.890  20.101  24.903  1.00  0.00    -0.184 NA
ATOM     21  C   UNL A   1      33.857  20.985  24.705  1.00  0.00     0.210 C 
ATOM     22  S   UNL A   1      32.332  20.258  24.498  1.00  0.00    -0.038 S 
BRANCH  15  23
ATOM     23  C   UNL A   1      38.968  21.835  26.063  1.00  0.00     0.021 A 
ATOM     24  C   UNL A   1      39.814  22.562  26.960  1.00  0.00     0.130 A 
ATOM     25  C   UNL A   1      41.033  22.025  27.404  1.00  0.00     0.097 A 
ATOM     26  C   UNL A   1      41.418  20.801  26.917  1.00  0.00     0.169 A 
ATOM     27  C   UNL A   1      39.354  20.528  25.721  1.00  0.00     0.062 A 
ATOM     28  C   UNL A   1      40.596  20.066  26.108  1.00  0.00     0.166 A 
ATOM     29  O   UNL A   1      42.585  20.161  27.196  1.00  0.00    -0.453 OA
ATOM     30  O   UNL A   1      41.141  18.868  25.767  1.00  0.00    -0.454 OA
ATOM     31  C   UNL A   1      42.450  18.993  26.361  1.00  0.00     0.468 C 
BRANCH  24  32
ATOM     32  O   UNL A   1      39.345  23.727  27.522  1.00  0.00    -0.493 OA
BRANCH  32  33
ATOM     33  C   UNL A   1      39.761  24.944  26.890  1.00  0.00     0.226 C 
ATOM     34  C   UNL A   1      40.898  25.648  27.622  1.00  0.00     0.049 C 
ENDBRANCH  32  33
ENDBRANCH  24  32
ENDBRANCH  15  23
BRANCH  18  35
ATOM     35  O   UNL A   1      37.014  19.580  25.081  1.00  0.00    -0.493 OA
ATOM     36  H   UNL A   1      37.350  19.268  25.899  1.00  0.00     0.295 HD
ENDBRANCH  18  35
ENDBRANCH   9  14
ENDBRANCH   6   8
ENDBRANCH   5   6
ENDBRANCH   4   5
ENDBRANCH   3   4
ENDBRANCH   2   3
ENDBRANCH   1   2
BRANCH   1  37
ATOM     37  C   UNL A   1      34.107  31.497  27.609  1.00  0.00     0.188 C 
BRANCH  37  38
ATOM     38  O   UNL A   1      34.497  31.553  28.969  1.00  0.00    -0.376 OA
BRANCH  38  39
ATOM     39  C   UNL A   1      35.132  32.752  29.390  1.00  0.00     0.202 C 
BRANCH  39  40
ATOM     40  C   UNL A   1      36.444  32.617  30.179  1.00  0.00     0.261 C 
BRANCH  40  41
ATOM     41  O   UNL A   1      36.376  31.894  31.419  1.00  0.00    -0.460 OA
BRANCH  41  42
ATOM     42  C   UNL A   1      36.793  30.606  31.405  1.00  0.00     0.338 C 
ATOM     43  O   UNL A   1      36.104  29.621  31.594  1.00  0.00    -0.246 OA
BRANCH  42  44
ATOM     44  C   UNL A   1      38.202  30.586  30.945  1.00  0.00     0.060 A 
ATOM     45  C   UNL A   1      39.227  30.629  31.898  1.00  0.00     0.016 A 
ATOM     46  C   UNL A   1      38.513  30.534  29.583  1.00  0.00     0.016 A 
ATOM     47  C   UNL A   1      40.564  30.662  31.489  1.00  0.00     0.010 A 
ATOM     48  C   UNL A   1      39.852  30.581  29.174  1.00  0.00     0.010 A 
ATOM     49  C   UNL A   1      40.886  30.682  30.123  1.00  0.00    -0.014 A 
BRANCH  49  50
ATOM     50  C   UNL A   1      42.275  31.005  29.698  1.00  0.00     0.031 A 
ATOM     51  C   UNL A   1      42.707  32.450  29.697  1.00  0.00     0.074 A 
ATOM     52  C   UNL A   1      43.155  30.044  29.359  1.00  0.00     0.049 A 
ATOM     53  N   UNL A   1      43.861  32.976  29.377  1.00  0.00    -0.248 NA
ATOM     54  C   UNL A   1      41.692  33.430  30.115  1.00  0.00     0.031 C 
ATOM     55  C   UNL A   1      42.877  28.609  29.352  1.00  0.00     0.029 A 
ATOM     56  N   UNL A   1      44.466  30.133  28.955  1.00  0.00    -0.354 N 
ATOM     57  C   UNL A   1      43.715  34.348  29.560  1.00  0.00     0.074 A 
ATOM     58  C   UNL A   1      42.345  34.572  29.970  1.00  0.00     0.031 C 
ATOM     59  C   UNL A   1      43.985  27.952  28.963  1.00  0.00     0.029 A 
ATOM     60  C   UNL A   1      45.041  28.919  28.662  1.00  0.00     0.049 A 
ATOM     61  H   UNL A   1      44.949  30.989  28.882  1.00  0.00     0.167 HD
ATOM     62  C   UNL A   1      44.639  35.331  29.414  1.00  0.00     0.034 A 
ATOM     63  C   UNL A   1      46.271  28.623  28.191  1.00  0.00     0.034 A 
ATOM     64  C   UNL A   1      45.997  35.102  28.984  1.00  0.00     0.049 A 
ATOM     65  C   UNL A   1      47.258  29.742  27.947  1.00  0.00     0.074 A 
ATOM     66  C   UNL A   1      47.012  36.025  28.808  1.00  0.00     0.029 A 
ATOM     67  N   UNL A   1      46.526  33.862  28.647  1.00  0.00    -0.354 N 
ATOM     68  N   UNL A   1      47.111  31.033  28.137  1.00  0.00    -0.248 NA
ATOM     69  C   UNL A   1      48.582  29.360  27.433  1.00  0.00     0.031 C 
ATOM     70  C   UNL A   1      48.130  35.357  28.295  1.00  0.00     0.029 A 
ATOM     71  C   UNL A   1      47.842  34.002  28.233  1.00  0.00     0.049 A 
ATOM     72  H   UNL A   1      46.038  33.009  28.695  1.00  0.00     0.167 HD
ATOM     73  C   UNL A   1      48.337  31.610  27.806  1.00  0.00     0.074 A 
ATOM     74  C   UNL A   1      49.212  30.526  27.412  1.00  0.00     0.031 C 
ATOM     75  C   UNL A   1      48.709  32.915  27.836  1.00  0.00     0.034 A 
BRANCH  62  76
ATOM     76  C   UNL A   1      44.184  36.749  29.676  1.00  0.00     0.023 A 
ATOM     77  C   UNL A   1      43.671  37.563  28.650  1.00  0.00     0.031 A 
ATOM     78  C   UNL A   1      44.301  37.307  30.961  1.00  0.00     0.131 A 
ATOM     79  C   UNL A   1      43.368  38.908  28.909  1.00  0.00     0.055 A 
ATOM     80  C   UNL A   1      43.918  38.622  31.231  1.00  0.00     0.041 A 
ATOM     81  F   UNL A   1      44.805  36.586  31.975  1.00  0.00    -0.206 F 
ATOM     82  C   UNL A   1      43.463  39.435  30.199  1.00  0.00     0.022 A 
BRANCH  79  83
ATOM     83  S   UNL A   1      42.994  39.998  27.508  1.00  0.00     0.124 S 
ATOM     84  O   UNL A   1      43.746  39.362  26.429  1.00  0.00    -0.237 OA
ATOM     85  O   UNL A   1      41.542  39.908  27.417  1.00  0.00    -0.237 OA
ATOM     86  O   UNL A   1      43.514  41.296  27.936  1.00  0.00    -0.744 OA
ENDBRANCH  79  83
ENDBRANCH  62  76
BRANCH  63  87
ATOM     87  C   UNL A   1      46.648  27.210  27.887  1.00  0.00     0.023 A 
ATOM     88  C   UNL A   1      46.214  26.576  26.711  1.00  0.00     0.031 A 
ATOM     89  C   UNL A   1      47.396  26.452  28.805  1.00  0.00     0.131 A 
ATOM     90  C   UNL A   1      46.489  25.213  26.507  1.00  0.00     0.055 A 
ATOM     91  C   UNL A   1      47.714  25.112  28.572  1.00  0.00     0.041 A 
ATOM     92  F   UNL A   1      47.831  27.005  29.949  1.00  0.00    -0.206 F 
ATOM     93  C   UNL A   1      47.249  24.482  27.422  1.00  0.00     0.022 A 
BRANCH  90  94
ATOM     94  S   UNL A   1      45.763  24.385  25.064  1.00  0.00     0.124 S 
ATOM     95  O   UNL A   1      46.866  24.428  24.112  1.00  0.00    -0.237 OA
ATOM     96  O   UNL A   1      45.433  23.071  25.605  1.00  0.00    -0.237 OA
ATOM     97  O   UNL A   1      44.616  25.226  24.731  1.00  0.00    -0.744 OA
ENDBRANCH  90  94
ENDBRANCH  63  87
BRANCH  75  98
ATOM     98  C   UNL A   1      50.145  33.238  27.490  1.00  0.00     0.023 A 
ATOM     99  C   UNL A   1      50.527  33.669  26.208  1.00  0.00     0.031 A 
ATOM    100  C   UNL A   1      51.150  33.104  28.467  1.00  0.00     0.131 A 
ATOM    101  C   UNL A   1      51.882  33.896  25.921  1.00  0.00     0.055 A 
ATOM    102  C   UNL A   1      52.488  33.391  28.193  1.00  0.00     0.041 A 
ATOM    103  F   UNL A   1      50.845  32.694  29.709  1.00  0.00    -0.206 F 
ATOM    104  C   UNL A   1      52.862  33.777  26.910  1.00  0.00     0.022 A 
BRANCH 101 105
ATOM    105  S   UNL A   1      52.366  34.259  24.210  1.00  0.00     0.124 S 
ATOM    106  O   UNL A   1      51.661  35.511  23.955  1.00  0.00    -0.237 OA
ATOM    107  O   UNL A   1      53.819  34.356  24.311  1.00  0.00    -0.237 OA
ATOM    108  O   UNL A   1      51.872  33.105  23.461  1.00  0.00    -0.744 OA
ENDBRANCH 101 105
ENDBRANCH  75  98
ENDBRANCH  49  50
ENDBRANCH  42  44
ENDBRANCH  41  42
ENDBRANCH  40  41
ENDBRANCH  39  40
ENDBRANCH  38  39
ENDBRANCH  37  38
ENDBRANCH   1  37
TORSDOF 25
ENDMDL
MODEL 3
REMARK VINA RESULT:      -9.5      6.011      8.904
REMARK SMILES CCOc1cc2c(cc1/C=C1/C(=O)N(c3cccc(C(=O)OCCOCCOCCOC(=O)c4ccc(-c5c6nc(c(-c7cc(S(=O)(=O)[O-])ccc7F)c7ccc([nH]7)c(-c7cc(S(=O)(=O)[O-])ccc7F)c7nc(c(-c8cc(S(=O)(=O)[O-])ccc8F)c8ccc5[nH]8)C=C7)C=C6)cc4)c3)C(=S)N=C1O)OCO2
REMARK SMILES IDX 26 1 25 2 24 3 23 4 22 5 20 6 21 7 19 8 15 9 16 10 97 11
REMARK SMILES IDX 17 12 18 13 14 14 10 15 11 16 12 17 101 18 13 19 100 20
REMARK SMILES IDX 98 21 99 22 9 23 4 24 5 25 6 26 8 27 7 28 105 29 103 30
REMARK SMILES IDX 104 31 3 32 2 33 1 34 102 35 27 37 28 38 29 39 30 40 31 41
REMARK SMILES IDX 32 42 33 43 34 44 35 45 96 46 36 47 95 48 37 49 38 50 39 51
REMARK SMILES IDX 89 52 40 53 94 54 88 55 90 56 41 57 93 58 87 59 86 60 42 62
REMARK SMILES IDX 74 63 54 64 73 65 55 66 58 67 72 68 91 69 56 70 57 71 71 73
REMARK SMILES IDX 92 74 59 75 43 76 44 77 52 78 45 79 51 80 53 81 50 82 46 83
REMARK SMILES IDX 47 84 48 85 49 86 75 87 76 88 84 89 77 90 83 91 85 92 82 93
REMARK SMILES IDX 78 94 79 95 80 96 81 97 60 98 61 99 69 100 62 101 68 102
REMARK SMILES IDX 70 103 67 104 63 105 64 106 65 107 66 108
REMARK H PARENT 102 36 90 61 58 72
REMARK Flexibility Score: inf
ROOT
ATOM      1  C   UNL A   1      33.567  30.147  27.251  1.00  0.00     0.188 C 
ENDROOT
BRANCH   1   2
ATOM      2  O   UNL A   1      32.176  29.849  27.306  1.00  0.00    -0.376 OA
BRANCH   2   3
ATOM      3  C   UNL A   1      31.740  28.501  27.374  1.00  0.00     0.202 C 
BRANCH   3   4
ATOM      4  C   UNL A   1      31.991  27.564  26.183  1.00  0.00     0.261 C 
BRANCH   4   5
ATOM      5  O   UNL A   1      30.810  26.991  25.603  1.00  0.00    -0.460 OA
BRANCH   5   6
ATOM      6  C   UNL A   1      30.647  25.658  25.793  1.00  0.00     0.338 C 
ATOM      7  O   UNL A   1      29.873  25.119  26.567  1.00  0.00    -0.246 OA
BRANCH   6   8
ATOM      8  C   UNL A   1      31.431  24.910  24.783  1.00  0.00     0.062 A 
ATOM      9  C   UNL A   1      33.167  23.311  24.165  1.00  0.00     0.052 A 
ATOM     10  C   UNL A   1      32.916  23.610  22.814  1.00  0.00     0.027 A 
ATOM     11  C   UNL A   1      32.400  23.966  25.147  1.00  0.00     0.042 A 
ATOM     12  C   UNL A   1      31.964  24.567  22.453  1.00  0.00     0.003 A 
ATOM     13  C   UNL A   1      31.217  25.213  23.434  1.00  0.00     0.016 A 
BRANCH   9  14
ATOM     14  N   UNL A   1      34.185  22.356  24.559  1.00  0.00    -0.251 N 
ATOM     15  C   UNL A   1      37.724  22.410  25.570  1.00  0.00     0.031 C 
ATOM     16  C   UNL A   1      36.540  21.897  25.151  1.00  0.00     0.103 C 
ATOM     17  C   UNL A   1      35.484  22.880  24.733  1.00  0.00     0.270 C 
ATOM     18  C   UNL A   1      36.107  20.511  25.047  1.00  0.00     0.226 C 
ATOM     19  O   UNL A   1      35.780  24.067  24.586  1.00  0.00    -0.268 OA
ATOM     20  N   UNL A   1      34.918  20.088  24.879  1.00  0.00    -0.184 NA
ATOM     21  C   UNL A   1      33.886  20.975  24.688  1.00  0.00     0.210 C 
ATOM     22  S   UNL A   1      32.361  20.253  24.469  1.00  0.00    -0.038 S 
BRANCH  15  23
ATOM     23  C   UNL A   1      38.995  21.805  26.065  1.00  0.00     0.021 A 
ATOM     24  C   UNL A   1      39.835  22.518  26.979  1.00  0.00     0.130 A 
ATOM     25  C   UNL A   1      41.052  21.976  27.420  1.00  0.00     0.097 A 
ATOM     26  C   UNL A   1      41.442  20.760  26.917  1.00  0.00     0.169 A 
ATOM     27  C   UNL A   1      39.384  20.505  25.705  1.00  0.00     0.062 A 
ATOM     28  C   UNL A   1      40.624  20.038  26.091  1.00  0.00     0.166 A 
ATOM     29  O   UNL A   1      42.607  20.117  27.191  1.00  0.00    -0.453 OA
ATOM     30  O   UNL A   1      41.173  18.846  25.733  1.00  0.00    -0.454 OA
ATOM     31  C   UNL A   1      42.478  18.962  26.336  1.00  0.00     0.468 C 
BRANCH  24  32
ATOM     32  O   UNL A   1      39.362  23.674  27.557  1.00  0.00    -0.493 OA
BRANCH  32  33
ATOM     33  C   UNL A   1      39.811  24.902  26.972  1.00  0.00     0.226 C 
ATOM     34  C   UNL A   1      40.895  25.600  27.787  1.00  0.00     0.049 C 
ENDBRANCH  32  33
ENDBRANCH  24  32
ENDBRANCH  15  23
BRANCH  18  35
ATOM     35  O   UNL A   1      37.041  19.562  25.057  1.00  0.00    -0.493 OA
ATOM     36  H   UNL A   1      36.821  18.687  24.803  1.00  0.00     0.295 HD
ENDBRANCH  18  35
ENDBRANCH   9  14
ENDBRANCH   6   8
ENDBRANCH   5   6
ENDBRANCH   4   5
ENDBRANCH   3   4
ENDBRANCH   2   3
ENDBRANCH   1   2
BRANCH   1  37
ATOM     37  C   UNL A   1      34.099  31.494  27.788  1.00  0.00     0.188 C 
BRANCH  37  38
ATOM     38  O   UNL A   1      34.442  31.474  29.162  1.00  0.00    -0.376 OA
BRANCH  38  39
ATOM     39  C   UNL A   1      34.899  32.701  29.712  1.00  0.00     0.202 C 
BRANCH  39  40
ATOM     40  C   UNL A   1      36.169  32.658  30.577  1.00  0.00     0.261 C 
BRANCH  40  41
ATOM     41  O   UNL A   1      36.097  31.881  31.784  1.00  0.00    -0.460 OA
BRANCH  41  42
ATOM     42  C   UNL A   1      36.753  30.696  31.793  1.00  0.00     0.338 C 
ATOM     43  O   UNL A   1      36.265  29.602  32.008  1.00  0.00    -0.246 OA
BRANCH  42  44
ATOM     44  C   UNL A   1      38.138  30.935  31.323  1.00  0.00     0.060 A 
ATOM     45  C   UNL A   1      39.079  31.452  32.223  1.00  0.00     0.016 A 
ATOM     46  C   UNL A   1      38.507  30.661  30.003  1.00  0.00     0.016 A 
ATOM     47  C   UNL A   1      40.379  31.734  31.791  1.00  0.00     0.010 A 
ATOM     48  C   UNL A   1      39.805  30.956  29.569  1.00  0.00     0.010 A 
ATOM     49  C   UNL A   1      40.740  31.528  30.451  1.00  0.00    -0.014 A 
BRANCH  49  50
ATOM     50  C   UNL A   1      42.018  32.093  29.937  1.00  0.00     0.031 A 
ATOM     51  C   UNL A   1      43.171  31.151  29.693  1.00  0.00     0.074 A 
ATOM     52  C   UNL A   1      42.152  33.402  29.650  1.00  0.00     0.049 A 
ATOM     53  N   UNL A   1      44.373  31.403  29.244  1.00  0.00    -0.248 NA
ATOM     54  C   UNL A   1      42.926  29.733  30.000  1.00  0.00     0.031 C 
ATOM     55  C   UNL A   1      41.106  34.410  29.806  1.00  0.00     0.029 A 
ATOM     56  N   UNL A   1      43.227  34.106  29.165  1.00  0.00    -0.354 N 
ATOM     57  C   UNL A   1      45.028  30.175  29.208  1.00  0.00     0.074 A 
ATOM     58  C   UNL A   1      44.102  29.192  29.730  1.00  0.00     0.031 C 
ATOM     59  C   UNL A   1      41.593  35.605  29.423  1.00  0.00     0.029 A 
ATOM     60  C   UNL A   1      42.992  35.453  29.025  1.00  0.00     0.049 A 
ATOM     61  H   UNL A   1      44.088  33.684  28.938  1.00  0.00     0.167 HD
ATOM     62  C   UNL A   1      46.280  29.888  28.769  1.00  0.00     0.034 A 
ATOM     63  C   UNL A   1      43.815  36.451  28.637  1.00  0.00     0.034 A 
ATOM     64  C   UNL A   1      47.204  30.877  28.271  1.00  0.00     0.049 A 
ATOM     65  C   UNL A   1      45.237  36.124  28.239  1.00  0.00     0.074 A 
ATOM     66  C   UNL A   1      48.491  30.694  27.799  1.00  0.00     0.029 A 
ATOM     67  N   UNL A   1      46.946  32.241  28.195  1.00  0.00    -0.354 N 
ATOM     68  N   UNL A   1      45.838  34.957  28.197  1.00  0.00    -0.248 NA
ATOM     69  C   UNL A   1      46.086  37.250  27.825  1.00  0.00     0.031 C 
ATOM     70  C   UNL A   1      49.037  31.949  27.508  1.00  0.00     0.029 A 
ATOM     71  C   UNL A   1      48.061  32.911  27.714  1.00  0.00     0.049 A 
ATOM     72  H   UNL A   1      46.095  32.668  28.444  1.00  0.00     0.167 HD
ATOM     73  C   UNL A   1      47.122  35.206  27.713  1.00  0.00     0.074 A 
ATOM     74  C   UNL A   1      47.204  36.631  27.472  1.00  0.00     0.031 C 
ATOM     75  C   UNL A   1      48.137  34.335  27.480  1.00  0.00     0.034 A 
BRANCH  62  76
ATOM     76  C   UNL A   1      46.730  28.448  28.862  1.00  0.00     0.023 A 
ATOM     77  C   UNL A   1      47.376  27.947  30.007  1.00  0.00     0.031 A 
ATOM     78  C   UNL A   1      46.545  27.574  27.777  1.00  0.00     0.131 A 
ATOM     79  C   UNL A   1      47.880  26.638  30.010  1.00  0.00     0.055 A 
ATOM     80  C   UNL A   1      46.975  26.247  27.818  1.00  0.00     0.041 A 
ATOM     81  F   UNL A   1      45.956  28.002  26.649  1.00  0.00    -0.206 F 
ATOM     82  C   UNL A   1      47.660  25.776  28.933  1.00  0.00     0.022 A 
BRANCH  79  83
ATOM     83  S   UNL A   1      48.959  26.126  31.376  1.00  0.00     0.124 S 
ATOM     84  O   UNL A   1      49.581  27.393  31.751  1.00  0.00    -0.237 OA
ATOM     85  O   UNL A   1      48.011  25.570  32.334  1.00  0.00    -0.237 OA
ATOM     86  O   UNL A   1      49.861  25.158  30.756  1.00  0.00    -0.744 OA
ENDBRANCH  79  83
ENDBRANCH  62  76
BRANCH  63  87
ATOM     87  C   UNL A   1      43.339  37.867  28.625  1.00  0.00     0.023 A 
ATOM     88  C   UNL A   1      43.584  38.728  29.707  1.00  0.00     0.031 A 
ATOM     89  C   UNL A   1      42.572  38.358  27.554  1.00  0.00     0.131 A 
ATOM     90  C   UNL A   1      43.027  40.018  29.716  1.00  0.00     0.055 A 
ATOM     91  C   UNL A   1      42.066  39.660  27.543  1.00  0.00     0.041 A 
ATOM     92  F   UNL A   1      42.301  37.576  26.497  1.00  0.00    -0.206 F 
ATOM     93  C   UNL A   1      42.283  40.494  28.635  1.00  0.00     0.022 A 
BRANCH  90  94
ATOM     94  S   UNL A   1      43.217  41.037  31.206  1.00  0.00     0.124 S 
ATOM     95  O   UNL A   1      44.655  41.276  31.221  1.00  0.00    -0.237 OA
ATOM     96  O   UNL A   1      42.378  42.189  30.893  1.00  0.00    -0.237 OA
ATOM     97  O   UNL A   1      42.715  40.175  32.274  1.00  0.00    -0.744 OA
ENDBRANCH  90  94
ENDBRANCH  63  87
BRANCH  75  98
ATOM     98  C   UNL A   1      49.406  34.892  26.875  1.00  0.00     0.023 A 
ATOM     99  C   UNL A   1      50.528  35.218  27.657  1.00  0.00     0.031 A 
ATOM    100  C   UNL A   1      49.488  35.104  25.486  1.00  0.00     0.131 A 
ATOM    101  C   UNL A   1      51.659  35.790  27.054  1.00  0.00     0.055 A 
ATOM    102  C   UNL A   1      50.639  35.614  24.883  1.00  0.00     0.041 A 
ATOM    103  F   UNL A   1      48.447  34.813  24.688  1.00  0.00    -0.206 F 
ATOM    104  C   UNL A   1      51.728  35.973  25.670  1.00  0.00     0.022 A 
BRANCH 101 105
ATOM    105  S   UNL A   1      53.010  36.381  28.111  1.00  0.00     0.124 S 
ATOM    106  O   UNL A   1      53.095  37.789  27.734  1.00  0.00    -0.237 OA
ATOM    107  O   UNL A   1      52.499  36.110  29.451  1.00  0.00    -0.237 OA
ATOM    108  O   UNL A   1      54.150  35.561  27.705  1.00  0.00    -0.744 OA
ENDBRANCH 101 105
ENDBRANCH  75  98
ENDBRANCH  49  50
ENDBRANCH  42  44
ENDBRANCH  41  42
ENDBRANCH  40  41
ENDBRANCH  39  40
ENDBRANCH  38  39
ENDBRANCH  37  38
ENDBRANCH   1  37
TORSDOF 25
ENDMDL
