MODEL 1
REMARK VINA RESULT:     -10.4      0.000      0.000
REMARK SMILES [NH3+][C@@H]1C=C[C@H](C(=O)NC[C@H](O)C(=O)OCCOCCOCCOC(=O)c2ccc(-c3c4nc(c(-c5cc(S(=O)(=O)[O-])ccc5F)c5ccc([nH]5)c(-c5cc(S(=O)(=O)[O-])ccc5F)c5nc(c(-c6cc(S(=O)(=O)[O-])ccc6F)c6ccc3[nH]6)C=C5)C=C4)cc2)C1
REMARK SMILES IDX 18 1 17 2 16 3 15 4 14 5 12 6 13 7 10 8 9 9 8 10 6 11 7 12
REMARK SMILES IDX 5 14 2 15 3 16 89 17 4 18 1 19 11 23 19 25 20 26 21 27 22 28
REMARK SMILES IDX 23 29 24 30 25 31 26 32 27 33 88 34 28 35 87 36 29 37 30 38
REMARK SMILES IDX 31 39 81 40 32 41 86 42 80 43 82 44 33 45 85 46 79 47 78 48
REMARK SMILES IDX 34 50 66 51 46 52 65 53 47 54 50 55 64 56 83 57 48 58 49 59
REMARK SMILES IDX 63 61 84 62 51 63 35 64 36 65 44 66 37 67 43 68 45 69 42 70
REMARK SMILES IDX 38 71 39 72 40 73 41 74 67 75 68 76 76 77 69 78 75 79 77 80
REMARK SMILES IDX 74 81 70 82 71 83 72 84 73 85 52 86 53 87 61 88 54 89 60 90
REMARK SMILES IDX 62 91 59 92 55 93 56 94 57 95 58 96
REMARK H PARENT 8 13 1 20 1 21 1 22 11 24 82 49 50 60
REMARK Flexibility Score: inf
ROOT
ATOM      1  C   UNL A   1      38.508  21.365  25.434  1.00  0.00     0.188 C 
ENDROOT
BRANCH   1   2
ATOM      2  O   UNL A   1      37.129  21.503  25.753  1.00  0.00    -0.376 OA
BRANCH   2   3
ATOM      3  C   UNL A   1      36.140  21.230  24.769  1.00  0.00     0.202 C 
BRANCH   3   4
ATOM      4  C   UNL A   1      34.733  21.837  24.889  1.00  0.00     0.261 C 
BRANCH   4   5
ATOM      5  O   UNL A   1      33.686  21.036  24.326  1.00  0.00    -0.461 OA
BRANCH   5   6
ATOM      6  C   UNL A   1      32.435  21.572  24.338  1.00  0.00     0.336 C 
ATOM      7  O   UNL A   1      31.500  21.154  25.010  1.00  0.00    -0.249 OA
BRANCH   6   8
ATOM      8  C   UNL A   1      32.333  22.833  23.461  1.00  0.00     0.243 C 
BRANCH   8   9
ATOM      9  C   UNL A   1      30.938  23.417  23.673  1.00  0.00     0.159 C 
BRANCH   9  10
ATOM     10  N   UNL A   1      30.693  23.828  25.052  1.00  0.00    -0.352 N 
ATOM     11  C   UNL A   1      31.136  24.890  25.774  1.00  0.00     0.227 C 
ATOM     12  O   UNL A   1      30.821  24.892  26.972  1.00  0.00    -0.274 OA
ATOM     13  H   UNL A   1      30.097  23.223  25.551  1.00  0.00     0.163 HD
BRANCH  11  14
ATOM     14  C   UNL A   1      31.895  26.104  25.204  1.00  0.00     0.107 C 
ATOM     15  C   UNL A   1      32.097  27.996  26.753  1.00  0.00     0.205 C 
ATOM     16  C   UNL A   1      31.287  28.349  25.551  1.00  0.00     0.033 C 
ATOM     17  C   UNL A   1      32.793  26.708  26.298  1.00  0.00     0.087 C 
ATOM     18  C   UNL A   1      31.187  27.321  24.699  1.00  0.00    -0.012 C 
BRANCH  15  19
ATOM     19  N   UNL A   1      31.239  27.804  27.911  1.00  0.00    -0.352 N 
ATOM     20  H   UNL A   1      31.142  26.807  28.102  1.00  0.00     0.345 HD
ATOM     21  H   UNL A   1      30.320  28.205  27.723  1.00  0.00     0.345 HD
ATOM     22  H   UNL A   1      31.652  28.266  28.721  1.00  0.00     0.345 HD
ENDBRANCH  15  19
ENDBRANCH  11  14
ENDBRANCH   9  10
ENDBRANCH   8   9
BRANCH   8  23
ATOM     23  O   UNL A   1      32.580  22.682  22.067  1.00  0.00    -0.380 OA
ATOM     24  H   UNL A   1      32.412  21.764  21.807  1.00  0.00     0.211 HD
ENDBRANCH   8  23
ENDBRANCH   6   8
ENDBRANCH   5   6
ENDBRANCH   4   5
ENDBRANCH   3   4
ENDBRANCH   2   3
ENDBRANCH   1   2
BRANCH   1  25
ATOM     25  C   UNL A   1      39.584  21.813  26.443  1.00  0.00     0.188 C 
BRANCH  25  26
ATOM     26  O   UNL A   1      40.222  20.761  27.122  1.00  0.00    -0.376 OA
BRANCH  26  27
ATOM     27  C   UNL A   1      41.303  20.095  26.499  1.00  0.00     0.202 C 
BRANCH  27  28
ATOM     28  C   UNL A   1      42.515  20.810  25.863  1.00  0.00     0.261 C 
BRANCH  28  29
ATOM     29  O   UNL A   1      43.012  22.007  26.473  1.00  0.00    -0.460 OA
BRANCH  29  30
ATOM     30  C   UNL A   1      43.033  23.123  25.705  1.00  0.00     0.338 C 
ATOM     31  O   UNL A   1      43.262  23.181  24.505  1.00  0.00    -0.246 OA
BRANCH  30  32
ATOM     32  C   UNL A   1      42.537  24.251  26.519  1.00  0.00     0.060 A 
ATOM     33  C   UNL A   1      43.030  25.545  26.287  1.00  0.00     0.016 A 
ATOM     34  C   UNL A   1      41.581  24.028  27.510  1.00  0.00     0.016 A 
ATOM     35  C   UNL A   1      42.573  26.620  27.056  1.00  0.00     0.010 A 
ATOM     36  C   UNL A   1      41.147  25.099  28.295  1.00  0.00     0.010 A 
ATOM     37  C   UNL A   1      41.654  26.396  28.089  1.00  0.00    -0.014 A 
BRANCH  37  38
ATOM     38  C   UNL A   1      41.349  27.451  29.089  1.00  0.00     0.031 A 
ATOM     39  C   UNL A   1      42.203  27.515  30.326  1.00  0.00     0.074 A 
ATOM     40  C   UNL A   1      40.315  28.297  28.937  1.00  0.00     0.049 A 
ATOM     41  N   UNL A   1      42.026  28.197  31.426  1.00  0.00    -0.248 NA
ATOM     42  C   UNL A   1      43.415  26.682  30.317  1.00  0.00     0.031 C 
ATOM     43  C   UNL A   1      39.458  28.381  27.757  1.00  0.00     0.029 A 
ATOM     44  N   UNL A   1      39.795  29.233  29.799  1.00  0.00    -0.354 N 
ATOM     45  C   UNL A   1      43.093  27.860  32.252  1.00  0.00     0.074 A 
ATOM     46  C   UNL A   1      43.896  26.894  31.532  1.00  0.00     0.031 C 
ATOM     47  C   UNL A   1      38.500  29.299  27.981  1.00  0.00     0.029 A 
ATOM     48  C   UNL A   1      38.640  29.824  29.340  1.00  0.00     0.049 A 
ATOM     49  H   UNL A   1      40.209  29.459  30.663  1.00  0.00     0.167 HD
ATOM     50  C   UNL A   1      43.374  28.315  33.498  1.00  0.00     0.034 A 
ATOM     51  C   UNL A   1      37.773  30.652  29.962  1.00  0.00     0.034 A 
ATOM     52  C   UNL A   1      42.552  29.264  34.207  1.00  0.00     0.049 A 
ATOM     53  C   UNL A   1      38.042  31.059  31.395  1.00  0.00     0.074 A 
ATOM     54  C   UNL A   1      42.744  29.794  35.470  1.00  0.00     0.029 A 
ATOM     55  N   UNL A   1      41.373  29.813  33.721  1.00  0.00    -0.354 N 
ATOM     56  N   UNL A   1      39.042  30.721  32.178  1.00  0.00    -0.248 NA
ATOM     57  C   UNL A   1      37.066  31.958  32.030  1.00  0.00     0.031 C 
ATOM     58  C   UNL A   1      41.642  30.595  35.781  1.00  0.00     0.029 A 
ATOM     59  C   UNL A   1      40.812  30.649  34.673  1.00  0.00     0.049 A 
ATOM     60  H   UNL A   1      40.991  29.635  32.831  1.00  0.00     0.167 HD
ATOM     61  C   UNL A   1      38.838  31.408  33.374  1.00  0.00     0.074 A 
ATOM     62  C   UNL A   1      37.619  32.170  33.215  1.00  0.00     0.031 C 
ATOM     63  C   UNL A   1      39.600  31.417  34.498  1.00  0.00     0.034 A 
BRANCH  50  64
ATOM     64  C   UNL A   1      44.585  27.740  34.191  1.00  0.00     0.023 A 
ATOM     65  C   UNL A   1      44.503  26.596  35.003  1.00  0.00     0.031 A 
ATOM     66  C   UNL A   1      45.840  28.361  34.056  1.00  0.00     0.131 A 
ATOM     67  C   UNL A   1      45.633  26.154  35.706  1.00  0.00     0.055 A 
ATOM     68  C   UNL A   1      46.981  27.864  34.688  1.00  0.00     0.041 A 
ATOM     69  F   UNL A   1      45.976  29.473  33.316  1.00  0.00    -0.206 F 
ATOM     70  C   UNL A   1      46.878  26.763  35.531  1.00  0.00     0.022 A 
BRANCH  67  71
ATOM     71  S   UNL A   1      45.419  24.869  36.967  1.00  0.00     0.124 S 
ATOM     72  O   UNL A   1      44.338  25.427  37.775  1.00  0.00    -0.237 OA
ATOM     73  O   UNL A   1      45.081  23.696  36.169  1.00  0.00    -0.237 OA
ATOM     74  O   UNL A   1      46.721  24.819  37.630  1.00  0.00    -0.744 OA
ENDBRANCH  67  71
ENDBRANCH  50  64
BRANCH  51  75
ATOM     75  C   UNL A   1      36.537  31.118  29.267  1.00  0.00     0.023 A 
ATOM     76  C   UNL A   1      36.102  32.449  29.376  1.00  0.00     0.031 A 
ATOM     77  C   UNL A   1      35.733  30.224  28.535  1.00  0.00     0.131 A 
ATOM     78  C   UNL A   1      34.877  32.835  28.809  1.00  0.00     0.055 A 
ATOM     79  C   UNL A   1      34.547  30.628  27.920  1.00  0.00     0.041 A 
ATOM     80  F   UNL A   1      36.094  28.937  28.405  1.00  0.00    -0.206 F 
ATOM     81  C   UNL A   1      34.105  31.939  28.068  1.00  0.00     0.022 A 
BRANCH  78  82
ATOM     82  S   UNL A   1      34.252  34.505  29.149  1.00  0.00     0.124 S 
ATOM     83  O   UNL A   1      34.758  34.741  30.496  1.00  0.00    -0.237 OA
ATOM     84  O   UNL A   1      34.875  35.282  28.082  1.00  0.00    -0.237 OA
ATOM     85  O   UNL A   1      32.803  34.354  29.043  1.00  0.00    -0.744 OA
ENDBRANCH  78  82
ENDBRANCH  51  75
BRANCH  63  86
ATOM     86  C   UNL A   1      39.197  32.348  35.618  1.00  0.00     0.023 A 
ATOM     87  C   UNL A   1      39.699  33.656  35.730  1.00  0.00     0.031 A 
ATOM     88  C   UNL A   1      38.249  31.920  36.568  1.00  0.00     0.131 A 
ATOM     89  C   UNL A   1      39.274  34.478  36.787  1.00  0.00     0.055 A 
ATOM     90  C   UNL A   1      37.787  32.761  37.580  1.00  0.00     0.041 A 
ATOM     91  F   UNL A   1      37.739  30.679  36.510  1.00  0.00    -0.206 F 
ATOM     92  C   UNL A   1      38.307  34.046  37.698  1.00  0.00     0.022 A 
BRANCH  89  93
ATOM     93  S   UNL A   1      40.050  36.104  37.000  1.00  0.00     0.124 S 
ATOM     94  O   UNL A   1      41.441  35.746  37.258  1.00  0.00    -0.237 OA
ATOM     95  O   UNL A   1      39.785  36.747  35.717  1.00  0.00    -0.237 OA
ATOM     96  O   UNL A   1      39.335  36.680  38.139  1.00  0.00    -0.744 OA
ENDBRANCH  89  93
ENDBRANCH  63  86
ENDBRANCH  37  38
ENDBRANCH  30  32
ENDBRANCH  29  30
ENDBRANCH  28  29
ENDBRANCH  27  28
ENDBRANCH  26  27
ENDBRANCH  25  26
ENDBRANCH   1  25
TORSDOF 25
ENDMDL
MODEL 2
REMARK VINA RESULT:     -10.1      5.910      8.223
REMARK SMILES [NH3+][C@@H]1C=C[C@H](C(=O)NC[C@H](O)C(=O)OCCOCCOCCOC(=O)c2ccc(-c3c4nc(c(-c5cc(S(=O)(=O)[O-])ccc5F)c5ccc([nH]5)c(-c5cc(S(=O)(=O)[O-])ccc5F)c5nc(c(-c6cc(S(=O)(=O)[O-])ccc6F)c6ccc3[nH]6)C=C5)C=C4)cc2)C1
REMARK SMILES IDX 18 1 17 2 16 3 15 4 14 5 12 6 13 7 10 8 9 9 8 10 6 11 7 12
REMARK SMILES IDX 5 14 2 15 3 16 89 17 4 18 1 19 11 23 19 25 20 26 21 27 22 28
REMARK SMILES IDX 23 29 24 30 25 31 26 32 27 33 88 34 28 35 87 36 29 37 30 38
REMARK SMILES IDX 31 39 81 40 32 41 86 42 80 43 82 44 33 45 85 46 79 47 78 48
REMARK SMILES IDX 34 50 66 51 46 52 65 53 47 54 50 55 64 56 83 57 48 58 49 59
REMARK SMILES IDX 63 61 84 62 51 63 35 64 36 65 44 66 37 67 43 68 45 69 42 70
REMARK SMILES IDX 38 71 39 72 40 73 41 74 67 75 68 76 76 77 69 78 75 79 77 80
REMARK SMILES IDX 74 81 70 82 71 83 72 84 73 85 52 86 53 87 61 88 54 89 60 90
REMARK SMILES IDX 62 91 59 92 55 93 56 94 57 95 58 96
REMARK H PARENT 8 13 1 20 1 21 1 22 11 24 82 49 50 60
REMARK Flexibility Score: inf
ROOT
ATOM      1  C   UNL A   1      39.908  21.272  26.227  1.00  0.00     0.188 C 
ENDROOT
BRANCH   1   2
ATOM      2  O   UNL A   1      38.970  22.340  26.215  1.00  0.00    -0.376 OA
BRANCH   2   3
ATOM      3  C   UNL A   1      37.691  22.157  25.620  1.00  0.00     0.202 C 
BRANCH   3   4
ATOM      4  C   UNL A   1      36.885  23.365  25.121  1.00  0.00     0.261 C 
BRANCH   4   5
ATOM      5  O   UNL A   1      36.435  23.264  23.763  1.00  0.00    -0.461 OA
BRANCH   5   6
ATOM      6  C   UNL A   1      35.157  23.659  23.514  1.00  0.00     0.336 C 
ATOM      7  O   UNL A   1      34.492  23.308  22.546  1.00  0.00    -0.249 OA
BRANCH   6   8
ATOM      8  C   UNL A   1      34.591  24.549  24.635  1.00  0.00     0.243 C 
BRANCH   8   9
ATOM      9  C   UNL A   1      33.276  23.921  25.089  1.00  0.00     0.159 C 
BRANCH   9  10
ATOM     10  N   UNL A   1      33.451  22.919  26.135  1.00  0.00    -0.352 N 
ATOM     11  C   UNL A   1      33.526  21.564  26.089  1.00  0.00     0.227 C 
ATOM     12  O   UNL A   1      33.570  20.992  27.187  1.00  0.00    -0.274 OA
ATOM     13  H   UNL A   1      33.527  23.295  27.042  1.00  0.00     0.163 HD
BRANCH  11  14
ATOM     14  C   UNL A   1      33.654  20.719  24.806  1.00  0.00     0.107 C 
ATOM     15  C   UNL A   1      32.934  18.386  25.048  1.00  0.00     0.205 C 
ATOM     16  C   UNL A   1      34.390  18.486  24.739  1.00  0.00     0.033 C 
ATOM     17  C   UNL A   1      32.435  19.787  24.680  1.00  0.00     0.087 C 
ATOM     18  C   UNL A   1      34.781  19.759  24.595  1.00  0.00    -0.012 C 
BRANCH  15  19
ATOM     19  N   UNL A   1      32.728  18.055  26.450  1.00  0.00    -0.352 N 
ATOM     20  H   UNL A   1      32.007  18.661  26.840  1.00  0.00     0.345 HD
ATOM     21  H   UNL A   1      33.600  18.191  26.962  1.00  0.00     0.345 HD
ATOM     22  H   UNL A   1      32.434  17.082  26.530  1.00  0.00     0.345 HD
ENDBRANCH  15  19
ENDBRANCH  11  14
ENDBRANCH   9  10
ENDBRANCH   8   9
BRANCH   8  23
ATOM     23  O   UNL A   1      34.385  25.925  24.336  1.00  0.00    -0.380 OA
ATOM     24  H   UNL A   1      33.664  26.012  23.693  1.00  0.00     0.211 HD
ENDBRANCH   8  23
ENDBRANCH   6   8
ENDBRANCH   5   6
ENDBRANCH   4   5
ENDBRANCH   3   4
ENDBRANCH   2   3
ENDBRANCH   1   2
BRANCH   1  25
ATOM     25  C   UNL A   1      41.021  21.232  27.294  1.00  0.00     0.188 C 
BRANCH  25  26
ATOM     26  O   UNL A   1      42.189  20.560  26.896  1.00  0.00    -0.376 OA
BRANCH  26  27
ATOM     27  C   UNL A   1      42.096  19.216  26.465  1.00  0.00     0.202 C 
BRANCH  27  28
ATOM     28  C   UNL A   1      43.034  18.571  25.422  1.00  0.00     0.261 C 
BRANCH  28  29
ATOM     29  O   UNL A   1      44.444  18.802  25.520  1.00  0.00    -0.460 OA
BRANCH  29  30
ATOM     30  C   UNL A   1      45.014  19.540  24.537  1.00  0.00     0.338 C 
ATOM     31  O   UNL A   1      45.410  19.134  23.454  1.00  0.00    -0.246 OA
BRANCH  30  32
ATOM     32  C   UNL A   1      44.900  20.966  24.908  1.00  0.00     0.060 A 
ATOM     33  C   UNL A   1      44.443  21.896  23.961  1.00  0.00     0.016 A 
ATOM     34  C   UNL A   1      45.246  21.380  26.194  1.00  0.00     0.016 A 
ATOM     35  C   UNL A   1      44.338  23.248  24.298  1.00  0.00     0.010 A 
ATOM     36  C   UNL A   1      45.166  22.737  26.520  1.00  0.00     0.010 A 
ATOM     37  C   UNL A   1      44.733  23.682  25.570  1.00  0.00    -0.014 A 
BRANCH  37  38
ATOM     38  C   UNL A   1      44.889  25.127  25.877  1.00  0.00     0.031 A 
ATOM     39  C   UNL A   1      46.268  25.721  25.785  1.00  0.00     0.074 A 
ATOM     40  C   UNL A   1      43.852  25.884  26.275  1.00  0.00     0.049 A 
ATOM     41  N   UNL A   1      46.702  26.885  26.188  1.00  0.00    -0.248 NA
ATOM     42  C   UNL A   1      47.296  24.872  25.164  1.00  0.00     0.031 C 
ATOM     43  C   UNL A   1      42.460  25.446  26.339  1.00  0.00     0.029 A 
ATOM     44  N   UNL A   1      43.818  27.182  26.730  1.00  0.00    -0.354 N 
ATOM     45  C   UNL A   1      48.060  26.903  25.889  1.00  0.00     0.074 A 
ATOM     46  C   UNL A   1      48.378  25.622  25.295  1.00  0.00     0.031 C 
ATOM     47  C   UNL A   1      41.711  26.449  26.833  1.00  0.00     0.029 A 
ATOM     48  C   UNL A   1      42.578  27.578  27.175  1.00  0.00     0.049 A 
ATOM     49  H   UNL A   1      44.607  27.771  26.737  1.00  0.00     0.167 HD
ATOM     50  C   UNL A   1      48.958  27.899  26.094  1.00  0.00     0.034 A 
ATOM     51  C   UNL A   1      42.198  28.698  27.827  1.00  0.00     0.034 A 
ATOM     52  C   UNL A   1      48.625  29.161  26.705  1.00  0.00     0.049 A 
ATOM     53  C   UNL A   1      43.237  29.750  28.151  1.00  0.00     0.074 A 
ATOM     54  C   UNL A   1      49.455  30.239  26.959  1.00  0.00     0.029 A 
ATOM     55  N   UNL A   1      47.365  29.511  27.172  1.00  0.00    -0.354 N 
ATOM     56  N   UNL A   1      44.524  29.752  27.884  1.00  0.00    -0.248 NA
ATOM     57  C   UNL A   1      42.775  30.949  28.865  1.00  0.00     0.031 C 
ATOM     58  C   UNL A   1      48.719  31.203  27.653  1.00  0.00     0.029 A 
ATOM     59  C   UNL A   1      47.405  30.774  27.742  1.00  0.00     0.049 A 
ATOM     60  H   UNL A   1      46.562  28.946  27.108  1.00  0.00     0.167 HD
ATOM     61  C   UNL A   1      45.008  30.973  28.352  1.00  0.00     0.074 A 
ATOM     62  C   UNL A   1      43.881  31.676  28.925  1.00  0.00     0.031 C 
ATOM     63  C   UNL A   1      46.269  31.473  28.300  1.00  0.00     0.034 A 
BRANCH  50  64
ATOM     64  C   UNL A   1      50.393  27.629  25.713  1.00  0.00     0.023 A 
ATOM     65  C   UNL A   1      50.851  27.782  24.394  1.00  0.00     0.031 A 
ATOM     66  C   UNL A   1      51.313  27.188  26.681  1.00  0.00     0.131 A 
ATOM     67  C   UNL A   1      52.168  27.426  24.064  1.00  0.00     0.055 A 
ATOM     68  C   UNL A   1      52.646  26.920  26.365  1.00  0.00     0.041 A 
ATOM     69  F   UNL A   1      50.927  26.997  27.953  1.00  0.00    -0.206 F 
ATOM     70  C   UNL A   1      53.076  27.024  25.047  1.00  0.00     0.022 A 
BRANCH  67  71
ATOM     71  S   UNL A   1      52.630  27.350  22.313  1.00  0.00     0.124 S 
ATOM     72  O   UNL A   1      51.375  26.929  21.695  1.00  0.00    -0.237 OA
ATOM     73  O   UNL A   1      53.052  28.719  22.037  1.00  0.00    -0.237 OA
ATOM     74  O   UNL A   1      53.697  26.350  22.283  1.00  0.00    -0.744 OA
ENDBRANCH  67  71
ENDBRANCH  50  64
BRANCH  51  75
ATOM     75  C   UNL A   1      40.783  28.876  28.270  1.00  0.00     0.023 A 
ATOM     76  C   UNL A   1      40.412  28.669  29.608  1.00  0.00     0.031 A 
ATOM     77  C   UNL A   1      39.767  29.191  27.348  1.00  0.00     0.131 A 
ATOM     78  C   UNL A   1      39.058  28.728  29.977  1.00  0.00     0.055 A 
ATOM     79  C   UNL A   1      38.431  29.312  27.733  1.00  0.00     0.041 A 
ATOM     80  F   UNL A   1      40.062  29.390  26.054  1.00  0.00    -0.206 F 
ATOM     81  C   UNL A   1      38.067  29.065  29.053  1.00  0.00     0.022 A 
BRANCH  78  82
ATOM     82  S   UNL A   1      38.598  28.252  31.667  1.00  0.00     0.124 S 
ATOM     83  O   UNL A   1      38.438  26.809  31.533  1.00  0.00    -0.237 OA
ATOM     84  O   UNL A   1      39.756  28.702  32.433  1.00  0.00    -0.237 OA
ATOM     85  O   UNL A   1      37.366  28.998  31.907  1.00  0.00    -0.744 OA
ENDBRANCH  78  82
ENDBRANCH  51  75
BRANCH  63  86
ATOM     86  C   UNL A   1      46.492  32.885  28.789  1.00  0.00     0.023 A 
ATOM     87  C   UNL A   1      46.332  34.006  27.958  1.00  0.00     0.031 A 
ATOM     88  C   UNL A   1      46.829  33.105  30.139  1.00  0.00     0.131 A 
ATOM     89  C   UNL A   1      46.540  35.295  28.477  1.00  0.00     0.055 A 
ATOM     90  C   UNL A   1      46.976  34.389  30.663  1.00  0.00     0.041 A 
ATOM     91  F   UNL A   1      46.998  32.069  30.977  1.00  0.00    -0.206 F 
ATOM     92  C   UNL A   1      46.840  35.493  29.828  1.00  0.00     0.022 A 
BRANCH  89  93
ATOM     93  S   UNL A   1      46.479  36.716  27.351  1.00  0.00     0.124 S 
ATOM     94  O   UNL A   1      45.236  37.367  27.750  1.00  0.00    -0.237 OA
ATOM     95  O   UNL A   1      47.707  37.431  27.682  1.00  0.00    -0.237 OA
ATOM     96  O   UNL A   1      46.460  36.103  26.024  1.00  0.00    -0.744 OA
ENDBRANCH  89  93
ENDBRANCH  63  86
ENDBRANCH  37  38
ENDBRANCH  30  32
ENDBRANCH  29  30
ENDBRANCH  28  29
ENDBRANCH  27  28
ENDBRANCH  26  27
ENDBRANCH  25  26
ENDBRANCH   1  25
TORSDOF 25
ENDMDL
MODEL 3
REMARK VINA RESULT:      -9.9      5.003      6.818
REMARK SMILES [NH3+][C@@H]1C=C[C@H](C(=O)NC[C@H](O)C(=O)OCCOCCOCCOC(=O)c2ccc(-c3c4nc(c(-c5cc(S(=O)(=O)[O-])ccc5F)c5ccc([nH]5)c(-c5cc(S(=O)(=O)[O-])ccc5F)c5nc(c(-c6cc(S(=O)(=O)[O-])ccc6F)c6ccc3[nH]6)C=C5)C=C4)cc2)C1
REMARK SMILES IDX 18 1 17 2 16 3 15 4 14 5 12 6 13 7 10 8 9 9 8 10 6 11 7 12
REMARK SMILES IDX 5 14 2 15 3 16 89 17 4 18 1 19 11 23 19 25 20 26 21 27 22 28
REMARK SMILES IDX 23 29 24 30 25 31 26 32 27 33 88 34 28 35 87 36 29 37 30 38
REMARK SMILES IDX 31 39 81 40 32 41 86 42 80 43 82 44 33 45 85 46 79 47 78 48
REMARK SMILES IDX 34 50 66 51 46 52 65 53 47 54 50 55 64 56 83 57 48 58 49 59
REMARK SMILES IDX 63 61 84 62 51 63 35 64 36 65 44 66 37 67 43 68 45 69 42 70
REMARK SMILES IDX 38 71 39 72 40 73 41 74 67 75 68 76 76 77 69 78 75 79 77 80
REMARK SMILES IDX 74 81 70 82 71 83 72 84 73 85 52 86 53 87 61 88 54 89 60 90
REMARK SMILES IDX 62 91 59 92 55 93 56 94 57 95 58 96
REMARK H PARENT 8 13 1 20 1 21 1 22 11 24 82 49 50 60
REMARK Flexibility Score: inf
ROOT
ATOM      1  C   UNL A   1      37.109  23.073  25.655  1.00  0.00     0.188 C 
ENDROOT
BRANCH   1   2
ATOM      2  O   UNL A   1      35.850  22.419  25.747  1.00  0.00    -0.376 OA
BRANCH   2   3
ATOM      3  C   UNL A   1      34.883  22.868  26.687  1.00  0.00     0.202 C 
BRANCH   3   4
ATOM      4  C   UNL A   1      33.742  21.941  27.134  1.00  0.00     0.261 C 
BRANCH   4   5
ATOM      5  O   UNL A   1      32.462  22.578  27.245  1.00  0.00    -0.461 OA
BRANCH   5   6
ATOM      6  C   UNL A   1      31.671  22.553  26.137  1.00  0.00     0.336 C 
ATOM      7  O   UNL A   1      31.793  21.765  25.207  1.00  0.00    -0.249 OA
BRANCH   6   8
ATOM      8  C   UNL A   1      30.534  23.588  26.208  1.00  0.00     0.243 C 
BRANCH   8   9
ATOM      9  C   UNL A   1      31.184  24.968  26.281  1.00  0.00     0.159 C 
BRANCH   9  10
ATOM     10  N   UNL A   1      30.586  25.932  25.363  1.00  0.00    -0.352 N 
ATOM     11  C   UNL A   1      31.124  26.941  24.630  1.00  0.00     0.227 C 
ATOM     12  O   UNL A   1      30.313  27.654  24.023  1.00  0.00    -0.274 OA
ATOM     13  H   UNL A   1      29.612  25.833  25.257  1.00  0.00     0.163 HD
BRANCH  11  14
ATOM     14  C   UNL A   1      32.631  27.193  24.428  1.00  0.00     0.107 C 
ATOM     15  C   UNL A   1      33.159  28.948  22.795  1.00  0.00     0.205 C 
ATOM     16  C   UNL A   1      33.653  27.612  22.352  1.00  0.00     0.033 C 
ATOM     17  C   UNL A   1      32.884  28.705  24.284  1.00  0.00     0.087 C 
ATOM     18  C   UNL A   1      33.377  26.657  23.248  1.00  0.00    -0.012 C 
BRANCH  15  19
ATOM     19  N   UNL A   1      31.969  29.328  22.049  1.00  0.00    -0.352 N 
ATOM     20  H   UNL A   1      31.706  30.282  22.291  1.00  0.00     0.345 HD
ATOM     21  H   UNL A   1      31.204  28.694  22.283  1.00  0.00     0.345 HD
ATOM     22  H   UNL A   1      32.163  29.272  21.049  1.00  0.00     0.345 HD
ENDBRANCH  15  19
ENDBRANCH  11  14
ENDBRANCH   9  10
ENDBRANCH   8   9
BRANCH   8  23
ATOM     23  O   UNL A   1      29.589  23.450  27.264  1.00  0.00    -0.380 OA
ATOM     24  H   UNL A   1      29.093  22.625  27.148  1.00  0.00     0.211 HD
ENDBRANCH   8  23
ENDBRANCH   6   8
ENDBRANCH   5   6
ENDBRANCH   4   5
ENDBRANCH   3   4
ENDBRANCH   2   3
ENDBRANCH   1   2
BRANCH   1  25
ATOM     25  C   UNL A   1      38.395  22.341  26.093  1.00  0.00     0.188 C 
BRANCH  25  26
ATOM     26  O   UNL A   1      38.807  21.316  25.225  1.00  0.00    -0.376 OA
BRANCH  26  27
ATOM     27  C   UNL A   1      38.752  19.975  25.670  1.00  0.00     0.202 C 
BRANCH  27  28
ATOM     28  C   UNL A   1      39.975  19.036  25.753  1.00  0.00     0.261 C 
BRANCH  28  29
ATOM     29  O   UNL A   1      40.951  19.257  26.777  1.00  0.00    -0.460 OA
BRANCH  29  30
ATOM     30  C   UNL A   1      42.162  19.718  26.380  1.00  0.00     0.338 C 
ATOM     31  O   UNL A   1      43.053  19.069  25.850  1.00  0.00    -0.246 OA
BRANCH  30  32
ATOM     32  C   UNL A   1      42.160  21.189  26.512  1.00  0.00     0.060 A 
ATOM     33  C   UNL A   1      42.442  21.987  25.392  1.00  0.00     0.016 A 
ATOM     34  C   UNL A   1      41.878  21.777  27.744  1.00  0.00     0.016 A 
ATOM     35  C   UNL A   1      42.450  23.381  25.506  1.00  0.00     0.010 A 
ATOM     36  C   UNL A   1      41.914  23.169  27.862  1.00  0.00     0.010 A 
ATOM     37  C   UNL A   1      42.221  23.979  26.752  1.00  0.00    -0.014 A 
BRANCH  37  38
ATOM     38  C   UNL A   1      42.481  25.425  26.971  1.00  0.00     0.031 A 
ATOM     39  C   UNL A   1      43.853  25.950  26.644  1.00  0.00     0.074 A 
ATOM     40  C   UNL A   1      41.550  26.243  27.491  1.00  0.00     0.049 A 
ATOM     41  N   UNL A   1      44.391  27.105  26.928  1.00  0.00    -0.248 NA
ATOM     42  C   UNL A   1      44.736  25.032  25.909  1.00  0.00     0.031 C 
ATOM     43  C   UNL A   1      40.168  25.873  27.785  1.00  0.00     0.029 A 
ATOM     44  N   UNL A   1      41.640  27.556  27.891  1.00  0.00    -0.354 N 
ATOM     45  C   UNL A   1      45.686  27.050  26.424  1.00  0.00     0.074 A 
ATOM     46  C   UNL A   1      45.856  25.735  25.842  1.00  0.00     0.031 C 
ATOM     47  C   UNL A   1      39.546  26.927  28.345  1.00  0.00     0.029 A 
ATOM     48  C   UNL A   1      40.501  28.025  28.504  1.00  0.00     0.049 A 
ATOM     49  H   UNL A   1      42.444  28.107  27.753  1.00  0.00     0.167 HD
ATOM     50  C   UNL A   1      46.645  28.008  26.449  1.00  0.00     0.034 A 
ATOM     51  C   UNL A   1      40.273  29.184  29.159  1.00  0.00     0.034 A 
ATOM     52  C   UNL A   1      46.463  29.306  27.051  1.00  0.00     0.049 A 
ATOM     53  C   UNL A   1      41.391  30.196  29.277  1.00  0.00     0.074 A 
ATOM     54  C   UNL A   1      47.365  30.351  27.129  1.00  0.00     0.029 A 
ATOM     55  N   UNL A   1      45.306  29.730  27.690  1.00  0.00    -0.354 N 
ATOM     56  N   UNL A   1      42.621  30.129  28.816  1.00  0.00    -0.248 NA
ATOM     57  C   UNL A   1      41.095  31.440  30.003  1.00  0.00     0.031 C 
ATOM     58  C   UNL A   1      46.786  31.372  27.887  1.00  0.00     0.029 A 
ATOM     59  C   UNL A   1      45.485  31.009  28.193  1.00  0.00     0.049 A 
ATOM     60  H   UNL A   1      44.479  29.201  27.773  1.00  0.00     0.167 HD
ATOM     61  C   UNL A   1      43.221  31.341  29.154  1.00  0.00     0.074 A 
ATOM     62  C   UNL A   1      42.226  32.116  29.863  1.00  0.00     0.031 C 
ATOM     63  C   UNL A   1      44.479  31.779  28.889  1.00  0.00     0.034 A 
BRANCH  50  64
ATOM     64  C   UNL A   1      47.992  27.659  25.864  1.00  0.00     0.023 A 
ATOM     65  C   UNL A   1      48.264  27.799  24.493  1.00  0.00     0.031 A 
ATOM     66  C   UNL A   1      49.013  27.153  26.688  1.00  0.00     0.131 A 
ATOM     67  C   UNL A   1      49.496  27.370  23.976  1.00  0.00     0.055 A 
ATOM     68  C   UNL A   1      50.268  26.810  26.183  1.00  0.00     0.041 A 
ATOM     69  F   UNL A   1      48.803  26.970  28.002  1.00  0.00    -0.206 F 
ATOM     70  C   UNL A   1      50.510  26.903  24.817  1.00  0.00     0.022 A 
BRANCH  67  71
ATOM     71  S   UNL A   1      49.697  27.287  22.176  1.00  0.00     0.124 S 
ATOM     72  O   UNL A   1      51.077  26.823  22.056  1.00  0.00    -0.237 OA
ATOM     73  O   UNL A   1      48.666  26.333  21.787  1.00  0.00    -0.237 OA
ATOM     74  O   UNL A   1      49.471  28.664  21.742  1.00  0.00    -0.744 OA
ENDBRANCH  67  71
ENDBRANCH  50  64
BRANCH  51  75
ATOM     75  C   UNL A   1      38.952  29.443  29.805  1.00  0.00     0.023 A 
ATOM     76  C   UNL A   1      37.972  30.218  29.164  1.00  0.00     0.031 A 
ATOM     77  C   UNL A   1      38.674  28.976  31.103  1.00  0.00     0.131 A 
ATOM     78  C   UNL A   1      36.785  30.545  29.840  1.00  0.00     0.055 A 
ATOM     79  C   UNL A   1      37.465  29.250  31.745  1.00  0.00     0.041 A 
ATOM     80  F   UNL A   1      39.577  28.238  31.768  1.00  0.00    -0.206 F 
ATOM     81  C   UNL A   1      36.516  30.052  31.118  1.00  0.00     0.022 A 
BRANCH  78  82
ATOM     82  S   UNL A   1      35.638  31.716  29.060  1.00  0.00     0.124 S 
ATOM     83  O   UNL A   1      34.776  32.074  30.180  1.00  0.00    -0.237 OA
ATOM     84  O   UNL A   1      36.545  32.757  28.588  1.00  0.00    -0.237 OA
ATOM     85  O   UNL A   1      35.003  30.923  28.011  1.00  0.00    -0.744 OA
ENDBRANCH  78  82
ENDBRANCH  51  75
BRANCH  63  86
ATOM     86  C   UNL A   1      44.832  33.195  29.280  1.00  0.00     0.023 A 
ATOM     87  C   UNL A   1      44.574  34.295  28.445  1.00  0.00     0.031 A 
ATOM     88  C   UNL A   1      45.401  33.443  30.544  1.00  0.00     0.131 A 
ATOM     89  C   UNL A   1      44.914  35.590  28.872  1.00  0.00     0.055 A 
ATOM     90  C   UNL A   1      45.681  34.736  30.986  1.00  0.00     0.041 A 
ATOM     91  F   UNL A   1      45.671  32.428  31.381  1.00  0.00    -0.206 F 
ATOM     92  C   UNL A   1      45.445  35.818  30.144  1.00  0.00     0.022 A 
BRANCH  89  93
ATOM     93  S   UNL A   1      44.714  36.976  27.718  1.00  0.00     0.124 S 
ATOM     94  O   UNL A   1      43.678  36.477  26.820  1.00  0.00    -0.237 OA
ATOM     95  O   UNL A   1      44.318  38.066  28.604  1.00  0.00    -0.237 OA
ATOM     96  O   UNL A   1      46.040  37.118  27.118  1.00  0.00    -0.744 OA
ENDBRANCH  89  93
ENDBRANCH  63  86
ENDBRANCH  37  38
ENDBRANCH  30  32
ENDBRANCH  29  30
ENDBRANCH  28  29
ENDBRANCH  27  28
ENDBRANCH  26  27
ENDBRANCH  25  26
ENDBRANCH   1  25
TORSDOF 25
ENDMDL
