MODEL 1
REMARK VINA RESULT:     -11.2      0.000      0.000
REMARK SMILES CC[NH+]1CCN(c2ccc(NC(=O)C3CCCC3)c(C(=O)OCCOCCOCCOC(=O)c3ccc(-c4c5nc(c(-c6cc(S(=O)(=O)[O-])ccc6F)c6ccc([nH]6)c(-c6cc(S(=O)(=O)[O-])ccc6F)c6nc(c(-c7cc(S(=O)(=O)[O-])ccc7F)c7ccc4[nH]7)C=C6)C=C5)cc3)c2)CC1
REMARK SMILES IDX 27 1 26 2 25 3 24 4 23 5 22 6 20 7 21 8 19 9 7 10 8 11 97 12
REMARK SMILES IDX 9 13 10 14 6 15 3 16 4 17 99 18 5 20 98 21 2 22 1 23 11 24
REMARK SMILES IDX 12 25 13 27 14 28 15 29 18 30 16 31 17 32 28 33 29 34 30 35
REMARK SMILES IDX 31 36 32 37 33 38 34 39 35 40 96 41 36 42 95 43 37 44 38 45
REMARK SMILES IDX 39 46 89 47 40 48 94 49 88 50 90 51 41 52 93 53 87 54 86 55
REMARK SMILES IDX 42 57 74 58 54 59 73 60 55 61 58 62 72 63 91 64 56 65 57 66
REMARK SMILES IDX 71 68 92 69 59 70 43 71 44 72 52 73 45 74 51 75 53 76 50 77
REMARK SMILES IDX 46 78 47 79 48 80 49 81 75 82 76 83 84 84 77 85 83 86 85 87
REMARK SMILES IDX 82 88 78 89 79 90 80 91 81 92 60 93 61 94 69 95 62 96 68 97
REMARK SMILES IDX 70 98 67 99 63 100 64 101 65 102 66 103
REMARK H PARENT 3 19 11 26 90 56 58 67
REMARK Flexibility Score: inf
ROOT
ATOM      1  C   UNL A   1      35.167  23.757  24.345  1.00  0.00     0.188 C 
ENDROOT
BRANCH   1   2
ATOM      2  C   UNL A   1      35.035  23.723  25.876  1.00  0.00     0.188 C 
BRANCH   2   3
ATOM      3  O   UNL A   1      34.897  22.410  26.381  1.00  0.00    -0.376 OA
BRANCH   3   4
ATOM      4  C   UNL A   1      34.284  22.184  27.637  1.00  0.00     0.202 C 
BRANCH   4   5
ATOM      5  C   UNL A   1      32.968  22.812  28.154  1.00  0.00     0.261 C 
BRANCH   5   6
ATOM      6  O   UNL A   1      32.150  23.553  27.250  1.00  0.00    -0.460 OA
BRANCH   6   7
ATOM      7  C   UNL A   1      30.994  23.002  26.806  1.00  0.00     0.340 C 
ATOM      8  O   UNL A   1      29.899  23.076  27.333  1.00  0.00    -0.246 OA
BRANCH   7   9
ATOM      9  C   UNL A   1      31.263  22.485  25.438  1.00  0.00     0.085 A 
ATOM     10  C   UNL A   1      32.396  20.756  24.103  1.00  0.00     0.038 A 
ATOM     11  C   UNL A   1      32.311  21.641  23.030  1.00  0.00     0.028 A 
ATOM     12  C   UNL A   1      31.870  21.212  25.318  1.00  0.00     0.043 A 
ATOM     13  C   UNL A   1      31.691  22.887  23.141  1.00  0.00     0.029 A 
ATOM     14  C   UNL A   1      31.090  23.310  24.313  1.00  0.00     0.055 A 
BRANCH  10  15
ATOM     15  N   UNL A   1      33.049  19.533  23.996  1.00  0.00    -0.360 N 
ATOM     16  N   UNL A   1      34.332  16.864  23.946  1.00  0.00    -0.332 N 
ATOM     17  C   UNL A   1      33.234  17.223  23.038  1.00  0.00     0.283 C 
ATOM     18  C   UNL A   1      35.024  18.073  24.417  1.00  0.00     0.283 C 
ATOM     19  H   UNL A   1      35.006  16.330  23.395  1.00  0.00     0.348 HD
ATOM     20  C   UNL A   1      32.302  18.362  23.501  1.00  0.00     0.178 C 
ATOM     21  C   UNL A   1      34.145  19.233  24.932  1.00  0.00     0.178 C 
BRANCH  16  22
ATOM     22  C   UNL A   1      34.007  15.880  24.977  1.00  0.00     0.258 C 
ATOM     23  C   UNL A   1      32.552  15.677  25.377  1.00  0.00     0.071 C 
ENDBRANCH  16  22
ENDBRANCH  10  15
BRANCH  14  24
ATOM     24  N   UNL A   1      30.424  24.544  24.406  1.00  0.00    -0.325 N 
ATOM     25  C   UNL A   1      30.789  25.839  24.611  1.00  0.00     0.227 C 
ATOM     26  H   UNL A   1      29.450  24.447  24.295  1.00  0.00     0.169 HD
ATOM     27  O   UNL A   1      29.840  26.610  24.819  1.00  0.00    -0.274 OA
BRANCH  25  28
ATOM     28  C   UNL A   1      32.206  26.423  24.581  1.00  0.00     0.079 C 
ATOM     29  C   UNL A   1      32.392  27.677  23.729  1.00  0.00     0.013 C 
ATOM     30  C   UNL A   1      32.926  26.673  25.913  1.00  0.00     0.013 C 
ATOM     31  C   UNL A   1      33.619  28.365  24.316  1.00  0.00     0.001 C 
ATOM     32  C   UNL A   1      33.583  28.049  25.803  1.00  0.00     0.001 C 
ENDBRANCH  25  28
ENDBRANCH  14  24
ENDBRANCH   7   9
ENDBRANCH   6   7
ENDBRANCH   5   6
ENDBRANCH   4   5
ENDBRANCH   3   4
ENDBRANCH   2   3
ENDBRANCH   1   2
BRANCH   1  33
ATOM     33  O   UNL A   1      35.498  22.474  23.819  1.00  0.00    -0.376 OA
BRANCH  33  34
ATOM     34  C   UNL A   1      36.894  22.206  23.759  1.00  0.00     0.202 C 
BRANCH  34  35
ATOM     35  C   UNL A   1      37.437  21.116  24.701  1.00  0.00     0.261 C 
BRANCH  35  36
ATOM     36  O   UNL A   1      37.937  21.548  25.980  1.00  0.00    -0.460 OA
BRANCH  36  37
ATOM     37  C   UNL A   1      39.241  21.324  26.263  1.00  0.00     0.338 C 
ATOM     38  O   UNL A   1      39.871  20.309  26.030  1.00  0.00    -0.246 OA
BRANCH  37  39
ATOM     39  C   UNL A   1      39.825  22.599  26.749  1.00  0.00     0.060 A 
ATOM     40  C   UNL A   1      39.420  23.802  26.161  1.00  0.00     0.016 A 
ATOM     41  C   UNL A   1      40.764  22.609  27.787  1.00  0.00     0.016 A 
ATOM     42  C   UNL A   1      39.970  25.013  26.597  1.00  0.00     0.010 A 
ATOM     43  C   UNL A   1      41.320  23.824  28.213  1.00  0.00     0.010 A 
ATOM     44  C   UNL A   1      40.940  25.035  27.609  1.00  0.00    -0.014 A 
BRANCH  44  45
ATOM     45  C   UNL A   1      41.673  26.298  27.907  1.00  0.00     0.031 A 
ATOM     46  C   UNL A   1      40.954  27.386  28.658  1.00  0.00     0.074 A 
ATOM     47  C   UNL A   1      42.960  26.475  27.551  1.00  0.00     0.049 A 
ATOM     48  N   UNL A   1      41.369  28.579  28.999  1.00  0.00    -0.248 NA
ATOM     49  C   UNL A   1      39.579  27.082  29.085  1.00  0.00     0.031 C 
ATOM     50  C   UNL A   1      43.787  25.484  26.869  1.00  0.00     0.029 A 
ATOM     51  N   UNL A   1      43.797  27.554  27.713  1.00  0.00    -0.354 N 
ATOM     52  C   UNL A   1      40.306  29.173  29.670  1.00  0.00     0.074 A 
ATOM     53  C   UNL A   1      39.221  28.214  29.671  1.00  0.00     0.031 C 
ATOM     54  C   UNL A   1      45.011  26.002  26.663  1.00  0.00     0.029 A 
ATOM     55  C   UNL A   1      45.046  27.378  27.157  1.00  0.00     0.049 A 
ATOM     56  H   UNL A   1      43.529  28.376  28.183  1.00  0.00     0.167 HD
ATOM     57  C   UNL A   1      40.238  30.405  30.233  1.00  0.00     0.034 A 
ATOM     58  C   UNL A   1      46.083  28.235  27.035  1.00  0.00     0.034 A 
ATOM     59  C   UNL A   1      41.318  31.360  30.219  1.00  0.00     0.049 A 
ATOM     60  C   UNL A   1      45.953  29.633  27.598  1.00  0.00     0.074 A 
ATOM     61  C   UNL A   1      41.352  32.627  30.776  1.00  0.00     0.029 A 
ATOM     62  N   UNL A   1      42.548  31.164  29.605  1.00  0.00    -0.354 N 
ATOM     63  N   UNL A   1      44.945  30.176  28.242  1.00  0.00    -0.248 NA
ATOM     64  C   UNL A   1      47.104  30.532  27.424  1.00  0.00     0.031 C 
ATOM     65  C   UNL A   1      42.572  33.223  30.438  1.00  0.00     0.029 A 
ATOM     66  C   UNL A   1      43.332  32.301  29.737  1.00  0.00     0.049 A 
ATOM     67  H   UNL A   1      42.822  30.340  29.143  1.00  0.00     0.167 HD
ATOM     68  C   UNL A   1      45.354  31.468  28.570  1.00  0.00     0.074 A 
ATOM     69  C   UNL A   1      46.704  31.617  28.071  1.00  0.00     0.031 C 
ATOM     70  C   UNL A   1      44.676  32.443  29.229  1.00  0.00     0.034 A 
BRANCH  57  71
ATOM     71  C   UNL A   1      38.923  30.810  30.849  1.00  0.00     0.023 A 
ATOM     72  C   UNL A   1      37.894  31.394  30.090  1.00  0.00     0.031 A 
ATOM     73  C   UNL A   1      38.708  30.629  32.227  1.00  0.00     0.131 A 
ATOM     74  C   UNL A   1      36.721  31.831  30.724  1.00  0.00     0.055 A 
ATOM     75  C   UNL A   1      37.510  31.000  32.839  1.00  0.00     0.041 A 
ATOM     76  F   UNL A   1      39.665  30.097  33.003  1.00  0.00    -0.206 F 
ATOM     77  C   UNL A   1      36.513  31.617  32.090  1.00  0.00     0.022 A 
BRANCH  74  78
ATOM     78  S   UNL A   1      35.521  32.796  29.765  1.00  0.00     0.124 S 
ATOM     79  O   UNL A   1      36.081  34.142  29.856  1.00  0.00    -0.237 OA
ATOM     80  O   UNL A   1      35.587  32.164  28.452  1.00  0.00    -0.237 OA
ATOM     81  O   UNL A   1      34.266  32.600  30.488  1.00  0.00    -0.744 OA
ENDBRANCH  74  78
ENDBRANCH  57  71
BRANCH  58  82
ATOM     82  C   UNL A   1      47.317  27.839  26.289  1.00  0.00     0.023 A 
ATOM     83  C   UNL A   1      47.429  28.023  24.900  1.00  0.00     0.031 A 
ATOM     84  C   UNL A   1      48.372  27.182  26.950  1.00  0.00     0.131 A 
ATOM     85  C   UNL A   1      48.541  27.509  24.211  1.00  0.00     0.055 A 
ATOM     86  C   UNL A   1      49.502  26.727  26.269  1.00  0.00     0.041 A 
ATOM     87  F   UNL A   1      48.311  26.962  28.273  1.00  0.00    -0.206 F 
ATOM     88  C   UNL A   1      49.585  26.875  24.889  1.00  0.00     0.022 A 
BRANCH  85  89
ATOM     89  S   UNL A   1      48.553  27.580  22.397  1.00  0.00     0.124 S 
ATOM     90  O   UNL A   1      47.326  28.317  22.119  1.00  0.00    -0.237 OA
ATOM     91  O   UNL A   1      49.801  28.286  22.126  1.00  0.00    -0.237 OA
ATOM     92  O   UNL A   1      48.538  26.172  22.000  1.00  0.00    -0.744 OA
ENDBRANCH  85  89
ENDBRANCH  58  82
BRANCH  70  93
ATOM     93  C   UNL A   1      45.404  33.740  29.488  1.00  0.00     0.023 A 
ATOM     94  C   UNL A   1      45.442  34.777  28.538  1.00  0.00     0.031 A 
ATOM     95  C   UNL A   1      46.072  33.940  30.710  1.00  0.00     0.131 A 
ATOM     96  C   UNL A   1      46.173  35.945  28.806  1.00  0.00     0.055 A 
ATOM     97  C   UNL A   1      46.750  35.127  30.993  1.00  0.00     0.041 A 
ATOM     98  F   UNL A   1      46.071  32.986  31.654  1.00  0.00    -0.206 F 
ATOM     99  C   UNL A   1      46.814  36.132  30.033  1.00  0.00     0.022 A 
BRANCH  96 100
ATOM    100  S   UNL A   1      46.345  37.190  27.496  1.00  0.00     0.124 S 
ATOM    101  O   UNL A   1      47.420  38.029  28.014  1.00  0.00    -0.237 OA
ATOM    102  O   UNL A   1      46.675  36.375  26.333  1.00  0.00    -0.237 OA
ATOM    103  O   UNL A   1      45.029  37.825  27.453  1.00  0.00    -0.744 OA
ENDBRANCH  96 100
ENDBRANCH  70  93
ENDBRANCH  44  45
ENDBRANCH  37  39
ENDBRANCH  36  37
ENDBRANCH  35  36
ENDBRANCH  34  35
ENDBRANCH  33  34
ENDBRANCH   1  33
TORSDOF 24
ENDMDL
MODEL 2
REMARK VINA RESULT:     -10.9      1.838      7.415
REMARK SMILES CC[NH+]1CCN(c2ccc(NC(=O)C3CCCC3)c(C(=O)OCCOCCOCCOC(=O)c3ccc(-c4c5nc(c(-c6cc(S(=O)(=O)[O-])ccc6F)c6ccc([nH]6)c(-c6cc(S(=O)(=O)[O-])ccc6F)c6nc(c(-c7cc(S(=O)(=O)[O-])ccc7F)c7ccc4[nH]7)C=C6)C=C5)cc3)c2)CC1
REMARK SMILES IDX 27 1 26 2 25 3 24 4 23 5 22 6 20 7 21 8 19 9 7 10 8 11 97 12
REMARK SMILES IDX 9 13 10 14 6 15 3 16 4 17 99 18 5 20 98 21 2 22 1 23 11 24
REMARK SMILES IDX 12 25 13 27 14 28 15 29 18 30 16 31 17 32 28 33 29 34 30 35
REMARK SMILES IDX 31 36 32 37 33 38 34 39 35 40 96 41 36 42 95 43 37 44 38 45
REMARK SMILES IDX 39 46 89 47 40 48 94 49 88 50 90 51 41 52 93 53 87 54 86 55
REMARK SMILES IDX 42 57 74 58 54 59 73 60 55 61 58 62 72 63 91 64 56 65 57 66
REMARK SMILES IDX 71 68 92 69 59 70 43 71 44 72 52 73 45 74 51 75 53 76 50 77
REMARK SMILES IDX 46 78 47 79 48 80 49 81 75 82 76 83 84 84 77 85 83 86 85 87
REMARK SMILES IDX 82 88 78 89 79 90 80 91 81 92 60 93 61 94 69 95 62 96 68 97
REMARK SMILES IDX 70 98 67 99 63 100 64 101 65 102 66 103
REMARK H PARENT 3 19 11 26 90 56 58 67
REMARK Flexibility Score: inf
ROOT
ATOM      1  C   UNL A   1      37.122  22.212  24.357  1.00  0.00     0.188 C 
ENDROOT
BRANCH   1   2
ATOM      2  C   UNL A   1      36.079  23.306  24.632  1.00  0.00     0.188 C 
BRANCH   2   3
ATOM      3  O   UNL A   1      34.952  22.820  25.332  1.00  0.00    -0.376 OA
BRANCH   3   4
ATOM      4  C   UNL A   1      34.561  23.406  26.560  1.00  0.00     0.202 C 
BRANCH   4   5
ATOM      5  C   UNL A   1      33.185  24.030  26.893  1.00  0.00     0.261 C 
BRANCH   5   6
ATOM      6  O   UNL A   1      32.154  23.199  27.425  1.00  0.00    -0.460 OA
BRANCH   6   7
ATOM      7  C   UNL A   1      30.967  23.128  26.775  1.00  0.00     0.340 C 
ATOM      8  O   UNL A   1      29.905  23.600  27.140  1.00  0.00    -0.246 OA
BRANCH   7   9
ATOM      9  C   UNL A   1      31.247  22.565  25.428  1.00  0.00     0.085 A 
ATOM     10  C   UNL A   1      32.380  20.785  24.162  1.00  0.00     0.038 A 
ATOM     11  C   UNL A   1      32.315  21.637  23.060  1.00  0.00     0.028 A 
ATOM     12  C   UNL A   1      31.843  21.284  25.355  1.00  0.00     0.043 A 
ATOM     13  C   UNL A   1      31.705  22.892  23.125  1.00  0.00     0.029 A 
ATOM     14  C   UNL A   1      31.094  23.356  24.275  1.00  0.00     0.055 A 
BRANCH  10  15
ATOM     15  N   UNL A   1      33.022  19.554  24.101  1.00  0.00    -0.360 N 
ATOM     16  N   UNL A   1      34.307  16.886  24.167  1.00  0.00    -0.332 N 
ATOM     17  C   UNL A   1      33.101  17.156  23.371  1.00  0.00     0.283 C 
ATOM     18  C   UNL A   1      35.044  18.133  24.420  1.00  0.00     0.283 C 
ATOM     19  H   UNL A   1      34.910  16.294  23.594  1.00  0.00     0.348 HD
ATOM     20  C   UNL A   1      32.227  18.343  23.826  1.00  0.00     0.178 C 
ATOM     21  C   UNL A   1      34.229  19.346  24.918  1.00  0.00     0.178 C 
BRANCH  16  22
ATOM     22  C   UNL A   1      34.120  16.015  25.326  1.00  0.00     0.258 C 
ATOM     23  C   UNL A   1      32.931  15.063  25.355  1.00  0.00     0.071 C 
ENDBRANCH  16  22
ENDBRANCH  10  15
BRANCH  14  24
ATOM     24  N   UNL A   1      30.439  24.599  24.322  1.00  0.00    -0.325 N 
ATOM     25  C   UNL A   1      30.800  25.901  24.162  1.00  0.00     0.227 C 
ATOM     26  H   UNL A   1      29.479  24.502  24.520  1.00  0.00     0.169 HD
ATOM     27  O   UNL A   1      29.924  26.717  24.487  1.00  0.00    -0.274 OA
BRANCH  25  28
ATOM     28  C   UNL A   1      32.125  26.440  23.612  1.00  0.00     0.079 C 
ATOM     29  C   UNL A   1      32.010  27.518  22.535  1.00  0.00     0.013 C 
ATOM     30  C   UNL A   1      33.198  26.906  24.604  1.00  0.00     0.013 C 
ATOM     31  C   UNL A   1      33.333  28.272  22.602  1.00  0.00     0.001 C 
ATOM     32  C   UNL A   1      33.748  28.227  24.064  1.00  0.00     0.001 C 
ENDBRANCH  25  28
ENDBRANCH  14  24
ENDBRANCH   7   9
ENDBRANCH   6   7
ENDBRANCH   5   6
ENDBRANCH   4   5
ENDBRANCH   3   4
ENDBRANCH   2   3
ENDBRANCH   1   2
BRANCH   1  33
ATOM     33  O   UNL A   1      37.475  21.513  25.549  1.00  0.00    -0.376 OA
BRANCH  33  34
ATOM     34  C   UNL A   1      38.874  21.439  25.795  1.00  0.00     0.202 C 
BRANCH  34  35
ATOM     35  C   UNL A   1      39.526  20.048  25.709  1.00  0.00     0.261 C 
BRANCH  35  36
ATOM     36  O   UNL A   1      40.620  19.782  26.605  1.00  0.00    -0.460 OA
BRANCH  36  37
ATOM     37  C   UNL A   1      41.878  19.837  26.110  1.00  0.00     0.338 C 
ATOM     38  O   UNL A   1      42.436  18.980  25.450  1.00  0.00    -0.246 OA
BRANCH  37  39
ATOM     39  C   UNL A   1      42.406  21.200  26.362  1.00  0.00     0.060 A 
ATOM     40  C   UNL A   1      42.648  21.605  27.680  1.00  0.00     0.016 A 
ATOM     41  C   UNL A   1      42.670  22.076  25.302  1.00  0.00     0.016 A 
ATOM     42  C   UNL A   1      43.132  22.893  27.937  1.00  0.00     0.010 A 
ATOM     43  C   UNL A   1      43.145  23.369  25.566  1.00  0.00     0.010 A 
ATOM     44  C   UNL A   1      43.364  23.794  26.888  1.00  0.00    -0.014 A 
BRANCH  44  45
ATOM     45  C   UNL A   1      43.665  25.222  27.190  1.00  0.00     0.031 A 
ATOM     46  C   UNL A   1      45.077  25.711  27.012  1.00  0.00     0.074 A 
ATOM     47  C   UNL A   1      42.707  26.083  27.583  1.00  0.00     0.049 A 
ATOM     48  N   UNL A   1      45.585  26.894  27.244  1.00  0.00    -0.248 NA
ATOM     49  C   UNL A   1      46.045  24.730  26.498  1.00  0.00     0.031 C 
ATOM     50  C   UNL A   1      41.293  25.754  27.742  1.00  0.00     0.029 A 
ATOM     51  N   UNL A   1      42.780  27.414  27.922  1.00  0.00    -0.354 N 
ATOM     52  C   UNL A   1      46.933  26.799  26.917  1.00  0.00     0.074 A 
ATOM     53  C   UNL A   1      47.165  25.435  26.487  1.00  0.00     0.031 C 
ATOM     54  C   UNL A   1      40.632  26.849  28.156  1.00  0.00     0.029 A 
ATOM     55  C   UNL A   1      41.579  27.949  28.335  1.00  0.00     0.049 A 
ATOM     56  H   UNL A   1      43.612  27.936  27.874  1.00  0.00     0.167 HD
ATOM     57  C   UNL A   1      47.890  27.758  26.970  1.00  0.00     0.034 A 
ATOM     58  C   UNL A   1      41.284  29.172  28.827  1.00  0.00     0.034 A 
ATOM     59  C   UNL A   1      47.655  29.110  27.409  1.00  0.00     0.049 A 
ATOM     60  C   UNL A   1      42.386  30.200  28.955  1.00  0.00     0.074 A 
ATOM     61  C   UNL A   1      48.556  30.159  27.484  1.00  0.00     0.029 A 
ATOM     62  N   UNL A   1      46.439  29.601  27.866  1.00  0.00    -0.354 N 
ATOM     63  N   UNL A   1      43.655  30.099  28.629  1.00  0.00    -0.248 NA
ATOM     64  C   UNL A   1      42.016  31.510  29.512  1.00  0.00     0.031 C 
ATOM     65  C   UNL A   1      47.904  31.260  28.050  1.00  0.00     0.029 A 
ATOM     66  C   UNL A   1      46.576  30.924  28.257  1.00  0.00     0.049 A 
ATOM     67  H   UNL A   1      45.602  29.084  27.905  1.00  0.00     0.167 HD
ATOM     68  C   UNL A   1      44.223  31.340  28.917  1.00  0.00     0.074 A 
ATOM     69  C   UNL A   1      43.158  32.177  29.425  1.00  0.00     0.031 C 
ATOM     70  C   UNL A   1      45.509  31.750  28.771  1.00  0.00     0.034 A 
BRANCH  57  71
ATOM     71  C   UNL A   1      49.296  27.349  26.607  1.00  0.00     0.023 A 
ATOM     72  C   UNL A   1      49.843  27.612  25.339  1.00  0.00     0.031 A 
ATOM     73  C   UNL A   1      50.090  26.662  27.541  1.00  0.00     0.131 A 
ATOM     74  C   UNL A   1      51.125  27.138  25.021  1.00  0.00     0.055 A 
ATOM     75  C   UNL A   1      51.392  26.256  27.242  1.00  0.00     0.041 A 
ATOM     76  F   UNL A   1      49.609  26.365  28.759  1.00  0.00    -0.206 F 
ATOM     77  C   UNL A   1      51.912  26.482  25.972  1.00  0.00     0.022 A 
BRANCH  74  78
ATOM     78  S   UNL A   1      51.704  27.280  23.307  1.00  0.00     0.124 S 
ATOM     79  O   UNL A   1      52.093  28.686  23.240  1.00  0.00    -0.237 OA
ATOM     80  O   UNL A   1      52.795  26.312  23.262  1.00  0.00    -0.237 OA
ATOM     81  O   UNL A   1      50.526  26.928  22.517  1.00  0.00    -0.744 OA
ENDBRANCH  74  78
ENDBRANCH  57  71
BRANCH  58  82
ATOM     82  C   UNL A   1      39.904  29.490  29.310  1.00  0.00     0.023 A 
ATOM     83  C   UNL A   1      39.601  29.551  30.682  1.00  0.00     0.031 A 
ATOM     84  C   UNL A   1      38.845  29.645  28.397  1.00  0.00     0.131 A 
ATOM     85  C   UNL A   1      38.268  29.707  31.099  1.00  0.00     0.055 A 
ATOM     86  C   UNL A   1      37.531  29.860  28.817  1.00  0.00     0.041 A 
ATOM     87  F   UNL A   1      39.073  29.576  27.075  1.00  0.00    -0.206 F 
ATOM     88  C   UNL A   1      37.233  29.877  30.176  1.00  0.00     0.022 A 
BRANCH  85  89
ATOM     89  S   UNL A   1      37.885  29.573  32.868  1.00  0.00     0.124 S 
ATOM     90  O   UNL A   1      36.815  30.554  33.017  1.00  0.00    -0.237 OA
ATOM     91  O   UNL A   1      37.494  28.173  32.992  1.00  0.00    -0.237 OA
ATOM     92  O   UNL A   1      39.147  29.926  33.518  1.00  0.00    -0.744 OA
ENDBRANCH  85  89
ENDBRANCH  58  82
BRANCH  70  93
ATOM     93  C   UNL A   1      45.822  33.185  29.122  1.00  0.00     0.023 A 
ATOM     94  C   UNL A   1      45.691  34.227  28.186  1.00  0.00     0.031 A 
ATOM     95  C   UNL A   1      46.258  33.514  30.418  1.00  0.00     0.131 A 
ATOM     96  C   UNL A   1      46.041  35.538  28.545  1.00  0.00     0.055 A 
ATOM     97  C   UNL A   1      46.550  34.828  30.786  1.00  0.00     0.041 A 
ATOM     98  F   UNL A   1      46.401  32.561  31.354  1.00  0.00    -0.206 F 
ATOM     99  C   UNL A   1      46.454  35.848  29.843  1.00  0.00     0.022 A 
BRANCH  96 100
ATOM    100  S   UNL A   1      46.025  36.829  27.269  1.00  0.00     0.124 S 
ATOM    101  O   UNL A   1      47.088  37.719  27.723  1.00  0.00    -0.237 OA
ATOM    102  O   UNL A   1      46.303  36.071  26.054  1.00  0.00    -0.237 OA
ATOM    103  O   UNL A   1      44.674  37.382  27.357  1.00  0.00    -0.744 OA
ENDBRANCH  96 100
ENDBRANCH  70  93
ENDBRANCH  44  45
ENDBRANCH  37  39
ENDBRANCH  36  37
ENDBRANCH  35  36
ENDBRANCH  34  35
ENDBRANCH  33  34
ENDBRANCH   1  33
TORSDOF 24
ENDMDL
MODEL 3
REMARK VINA RESULT:     -10.9      1.594      7.204
REMARK SMILES CC[NH+]1CCN(c2ccc(NC(=O)C3CCCC3)c(C(=O)OCCOCCOCCOC(=O)c3ccc(-c4c5nc(c(-c6cc(S(=O)(=O)[O-])ccc6F)c6ccc([nH]6)c(-c6cc(S(=O)(=O)[O-])ccc6F)c6nc(c(-c7cc(S(=O)(=O)[O-])ccc7F)c7ccc4[nH]7)C=C6)C=C5)cc3)c2)CC1
REMARK SMILES IDX 27 1 26 2 25 3 24 4 23 5 22 6 20 7 21 8 19 9 7 10 8 11 97 12
REMARK SMILES IDX 9 13 10 14 6 15 3 16 4 17 99 18 5 20 98 21 2 22 1 23 11 24
REMARK SMILES IDX 12 25 13 27 14 28 15 29 18 30 16 31 17 32 28 33 29 34 30 35
REMARK SMILES IDX 31 36 32 37 33 38 34 39 35 40 96 41 36 42 95 43 37 44 38 45
REMARK SMILES IDX 39 46 89 47 40 48 94 49 88 50 90 51 41 52 93 53 87 54 86 55
REMARK SMILES IDX 42 57 74 58 54 59 73 60 55 61 58 62 72 63 91 64 56 65 57 66
REMARK SMILES IDX 71 68 92 69 59 70 43 71 44 72 52 73 45 74 51 75 53 76 50 77
REMARK SMILES IDX 46 78 47 79 48 80 49 81 75 82 76 83 84 84 77 85 83 86 85 87
REMARK SMILES IDX 82 88 78 89 79 90 80 91 81 92 60 93 61 94 69 95 62 96 68 97
REMARK SMILES IDX 70 98 67 99 63 100 64 101 65 102 66 103
REMARK H PARENT 3 19 11 26 90 56 58 67
REMARK Flexibility Score: inf
ROOT
ATOM      1  C   UNL A   1      35.364  23.849  24.594  1.00  0.00     0.188 C 
ENDROOT
BRANCH   1   2
ATOM      2  C   UNL A   1      34.732  23.711  25.988  1.00  0.00     0.188 C 
BRANCH   2   3
ATOM      3  O   UNL A   1      34.833  22.399  26.504  1.00  0.00    -0.376 OA
BRANCH   3   4
ATOM      4  C   UNL A   1      34.152  22.039  27.692  1.00  0.00     0.202 C 
BRANCH   4   5
ATOM      5  C   UNL A   1      32.785  22.576  28.177  1.00  0.00     0.261 C 
BRANCH   5   6
ATOM      6  O   UNL A   1      32.048  23.462  27.336  1.00  0.00    -0.460 OA
BRANCH   6   7
ATOM      7  C   UNL A   1      30.877  23.040  26.801  1.00  0.00     0.340 C 
ATOM      8  O   UNL A   1      29.760  23.220  27.252  1.00  0.00    -0.246 OA
BRANCH   7   9
ATOM      9  C   UNL A   1      31.189  22.515  25.445  1.00  0.00     0.085 A 
ATOM     10  C   UNL A   1      32.362  20.777  24.157  1.00  0.00     0.038 A 
ATOM     11  C   UNL A   1      32.314  21.657  23.077  1.00  0.00     0.028 A 
ATOM     12  C   UNL A   1      31.798  21.241  25.351  1.00  0.00     0.043 A 
ATOM     13  C   UNL A   1      31.692  22.905  23.162  1.00  0.00     0.029 A 
ATOM     14  C   UNL A   1      31.054  23.334  24.311  1.00  0.00     0.055 A 
BRANCH  10  15
ATOM     15  N   UNL A   1      33.016  19.553  24.077  1.00  0.00    -0.360 N 
ATOM     16  N   UNL A   1      34.326  16.897  24.103  1.00  0.00    -0.332 N 
ATOM     17  C   UNL A   1      33.113  17.165  23.319  1.00  0.00     0.283 C 
ATOM     18  C   UNL A   1      35.054  18.148  24.366  1.00  0.00     0.283 C 
ATOM     19  H   UNL A   1      34.932  16.318  23.520  1.00  0.00     0.348 HD
ATOM     20  C   UNL A   1      32.231  18.338  23.794  1.00  0.00     0.178 C 
ATOM     21  C   UNL A   1      34.230  19.347  24.884  1.00  0.00     0.178 C 
BRANCH  16  22
ATOM     22  C   UNL A   1      34.155  16.011  25.253  1.00  0.00     0.258 C 
ATOM     23  C   UNL A   1      32.921  15.122  25.329  1.00  0.00     0.071 C 
ENDBRANCH  16  22
ENDBRANCH  10  15
BRANCH  14  24
ATOM     24  N   UNL A   1      30.388  24.570  24.376  1.00  0.00    -0.325 N 
ATOM     25  C   UNL A   1      30.721  25.844  24.718  1.00  0.00     0.227 C 
ATOM     26  H   UNL A   1      29.443  24.494  24.107  1.00  0.00     0.169 HD
ATOM     27  O   UNL A   1      29.755  26.615  24.822  1.00  0.00    -0.274 OA
BRANCH  25  28
ATOM     28  C   UNL A   1      32.128  26.408  24.949  1.00  0.00     0.079 C 
ATOM     29  C   UNL A   1      32.910  26.785  23.692  1.00  0.00     0.013 C 
ATOM     30  C   UNL A   1      32.303  27.557  25.950  1.00  0.00     0.013 C 
ATOM     31  C   UNL A   1      33.928  27.816  24.165  1.00  0.00     0.001 C 
ATOM     32  C   UNL A   1      33.241  28.571  25.293  1.00  0.00     0.001 C 
ENDBRANCH  25  28
ENDBRANCH  14  24
ENDBRANCH   7   9
ENDBRANCH   6   7
ENDBRANCH   5   6
ENDBRANCH   4   5
ENDBRANCH   3   4
ENDBRANCH   2   3
ENDBRANCH   1   2
BRANCH   1  33
ATOM     33  O   UNL A   1      35.638  22.575  24.015  1.00  0.00    -0.376 OA
BRANCH  33  34
ATOM     34  C   UNL A   1      37.022  22.299  23.833  1.00  0.00     0.202 C 
BRANCH  34  35
ATOM     35  C   UNL A   1      37.708  21.436  24.907  1.00  0.00     0.261 C 
BRANCH  35  36
ATOM     36  O   UNL A   1      38.111  22.101  26.119  1.00  0.00    -0.460 OA
BRANCH  36  37
ATOM     37  C   UNL A   1      39.392  21.959  26.530  1.00  0.00     0.338 C 
ATOM     38  O   UNL A   1      40.055  20.938  26.500  1.00  0.00    -0.246 OA
BRANCH  37  39
ATOM     39  C   UNL A   1      39.915  23.307  26.864  1.00  0.00     0.060 A 
ATOM     40  C   UNL A   1      40.691  23.470  28.017  1.00  0.00     0.016 A 
ATOM     41  C   UNL A   1      39.646  24.406  26.040  1.00  0.00     0.016 A 
ATOM     42  C   UNL A   1      41.181  24.737  28.356  1.00  0.00     0.010 A 
ATOM     43  C   UNL A   1      40.130  25.675  26.390  1.00  0.00     0.010 A 
ATOM     44  C   UNL A   1      40.887  25.854  27.561  1.00  0.00    -0.014 A 
BRANCH  44  45
ATOM     45  C   UNL A   1      41.225  27.221  28.050  1.00  0.00     0.031 A 
ATOM     46  C   UNL A   1      42.672  27.629  28.097  1.00  0.00     0.074 A 
ATOM     47  C   UNL A   1      40.273  28.101  28.415  1.00  0.00     0.049 A 
ATOM     48  N   UNL A   1      43.211  28.746  28.515  1.00  0.00    -0.248 NA
ATOM     49  C   UNL A   1      43.643  26.641  27.601  1.00  0.00     0.031 C 
ATOM     50  C   UNL A   1      38.835  27.853  28.366  1.00  0.00     0.029 A 
ATOM     51  N   UNL A   1      40.374  29.383  28.902  1.00  0.00    -0.354 N 
ATOM     52  C   UNL A   1      44.582  28.593  28.345  1.00  0.00     0.074 A 
ATOM     53  C   UNL A   1      44.793  27.267  27.802  1.00  0.00     0.031 C 
ATOM     54  C   UNL A   1      38.187  28.944  28.813  1.00  0.00     0.029 A 
ATOM     55  C   UNL A   1      39.162  29.954  29.222  1.00  0.00     0.049 A 
ATOM     56  H   UNL A   1      41.234  29.850  29.011  1.00  0.00     0.167 HD
ATOM     57  C   UNL A   1      45.576  29.475  28.616  1.00  0.00     0.034 A 
ATOM     58  C   UNL A   1      38.874  31.139  29.804  1.00  0.00     0.034 A 
ATOM     59  C   UNL A   1      45.361  30.789  29.168  1.00  0.00     0.049 A 
ATOM     60  C   UNL A   1      40.005  32.072  30.175  1.00  0.00     0.074 A 
ATOM     61  C   UNL A   1      46.301  31.762  29.463  1.00  0.00     0.029 A 
ATOM     62  N   UNL A   1      44.125  31.312  29.524  1.00  0.00    -0.354 N 
ATOM     63  N   UNL A   1      41.297  31.919  29.995  1.00  0.00    -0.248 NA
ATOM     64  C   UNL A   1      39.639  33.341  30.821  1.00  0.00     0.031 C 
ATOM     65  C   UNL A   1      45.643  32.842  30.062  1.00  0.00     0.029 A 
ATOM     66  C   UNL A   1      44.283  32.578  30.070  1.00  0.00     0.049 A 
ATOM     67  H   UNL A   1      43.263  30.852  29.406  1.00  0.00     0.167 HD
ATOM     68  C   UNL A   1      41.891  33.083  30.482  1.00  0.00     0.074 A 
ATOM     69  C   UNL A   1      40.817  33.935  30.945  1.00  0.00     0.031 C 
ATOM     70  C   UNL A   1      43.206  33.418  30.538  1.00  0.00     0.034 A 
BRANCH  57  71
ATOM     71  C   UNL A   1      46.992  29.011  28.384  1.00  0.00     0.023 A 
ATOM     72  C   UNL A   1      47.500  28.793  27.092  1.00  0.00     0.031 A 
ATOM     73  C   UNL A   1      47.837  28.759  29.479  1.00  0.00     0.131 A 
ATOM     74  C   UNL A   1      48.797  28.281  26.930  1.00  0.00     0.055 A 
ATOM     75  C   UNL A   1      49.149  28.318  29.309  1.00  0.00     0.041 A 
ATOM     76  F   UNL A   1      47.394  28.928  30.735  1.00  0.00    -0.206 F 
ATOM     77  C   UNL A   1      49.633  28.064  28.029  1.00  0.00     0.022 A 
BRANCH  74  78
ATOM     78  S   UNL A   1      49.334  27.784  25.270  1.00  0.00     0.124 S 
ATOM     79  O   UNL A   1      50.582  28.530  25.125  1.00  0.00    -0.237 OA
ATOM     80  O   UNL A   1      49.467  26.337  25.402  1.00  0.00    -0.237 OA
ATOM     81  O   UNL A   1      48.243  28.233  24.408  1.00  0.00    -0.744 OA
ENDBRANCH  74  78
ENDBRANCH  57  71
BRANCH  58  82
ATOM     82  C   UNL A   1      37.463  31.498  30.149  1.00  0.00     0.023 A 
ATOM     83  C   UNL A   1      36.620  32.138  29.223  1.00  0.00     0.031 A 
ATOM     84  C   UNL A   1      36.969  31.288  31.449  1.00  0.00     0.131 A 
ATOM     85  C   UNL A   1      35.352  32.591  29.625  1.00  0.00     0.055 A 
ATOM     86  C   UNL A   1      35.685  31.686  31.826  1.00  0.00     0.041 A 
ATOM     87  F   UNL A   1      37.736  30.699  32.380  1.00  0.00    -0.206 F 
ATOM     88  C   UNL A   1      34.874  32.356  30.916  1.00  0.00     0.022 A 
BRANCH  85  89
ATOM     89  S   UNL A   1      34.376  33.594  28.469  1.00  0.00     0.124 S 
ATOM     90  O   UNL A   1      35.369  33.929  27.454  1.00  0.00    -0.237 OA
ATOM     91  O   UNL A   1      33.331  32.661  28.061  1.00  0.00    -0.237 OA
ATOM     92  O   UNL A   1      33.921  34.715  29.289  1.00  0.00    -0.744 OA
ENDBRANCH  85  89
ENDBRANCH  58  82
BRANCH  70  93
ATOM     93  C   UNL A   1      43.549  34.786  31.077  1.00  0.00     0.023 A 
ATOM     94  C   UNL A   1      43.588  35.924  30.251  1.00  0.00     0.031 A 
ATOM     95  C   UNL A   1      43.842  34.952  32.443  1.00  0.00     0.131 A 
ATOM     96  C   UNL A   1      43.960  37.166  30.789  1.00  0.00     0.055 A 
ATOM     97  C   UNL A   1      44.156  36.199  32.983  1.00  0.00     0.041 A 
ATOM     98  F   UNL A   1      43.820  33.901  33.279  1.00  0.00    -0.206 F 
ATOM     99  C   UNL A   1      44.229  37.314  32.152  1.00  0.00     0.022 A 
BRANCH  96 100
ATOM    100  S   UNL A   1      44.168  38.579  29.668  1.00  0.00     0.124 S 
ATOM    101  O   UNL A   1      43.024  38.428  28.774  1.00  0.00    -0.237 OA
ATOM    102  O   UNL A   1      44.117  39.714  30.583  1.00  0.00    -0.237 OA
ATOM    103  O   UNL A   1      45.472  38.339  29.052  1.00  0.00    -0.744 OA
ENDBRANCH  96 100
ENDBRANCH  70  93
ENDBRANCH  44  45
ENDBRANCH  37  39
ENDBRANCH  36  37
ENDBRANCH  35  36
ENDBRANCH  34  35
ENDBRANCH  33  34
ENDBRANCH   1  33
TORSDOF 24
ENDMDL
