MODEL 1
REMARK VINA RESULT:      -9.3      0.000      0.000
REMARK SMILES Cc1cc(NC(=O)[C@H]2[C@@H](C(=O)OCCOCCOCCOC(=O)c3ccc(-c4c5nc(c(-c6cc(S(=O)(=O)[O-])ccc6F)c6ccc([nH]6)c(-c6cc(S(=O)(=O)[O-])ccc6F)c6nc(c(-c7cc(S(=O)(=O)[O-])ccc7F)c7ccc4[nH]7)C=C6)C=C5)cc3)C2(C)C)n(-c2ccc(F)cc2)n1
REMARK SMILES IDX 16 1 15 2 14 3 13 4 12 5 10 6 11 7 9 8 8 9 87 10 88 11 89 12
REMARK SMILES IDX 6 13 5 14 7 16 4 17 1 18 2 19 3 20 98 21 90 22 91 23 92 24
REMARK SMILES IDX 97 25 93 26 96 27 94 28 95 29 17 30 18 31 19 32 20 33 21 34
REMARK SMILES IDX 22 35 23 36 24 37 25 38 86 39 26 40 85 41 27 42 28 43 29 44
REMARK SMILES IDX 79 45 30 46 84 47 78 48 80 49 31 50 83 51 77 52 76 53 32 55
REMARK SMILES IDX 64 56 44 57 63 58 45 59 48 60 62 61 81 62 46 63 47 64 61 66
REMARK SMILES IDX 82 67 49 68 33 69 34 70 42 71 35 72 41 73 43 74 40 75 36 76
REMARK SMILES IDX 37 77 38 78 39 79 65 80 66 81 74 82 67 83 73 84 75 85 72 86
REMARK SMILES IDX 68 87 69 88 70 89 71 90 50 91 51 92 59 93 52 94 58 95 60 96
REMARK SMILES IDX 57 97 53 98 54 99 55 100 56 101
REMARK H PARENT 5 15 80 54 48 65
REMARK Flexibility Score: inf
ROOT
ATOM      1  C   UNL A   1      43.509  18.302  26.504  1.00  0.00     0.188 C 
ENDROOT
BRANCH   1   2
ATOM      2  O   UNL A   1      44.585  17.731  25.767  1.00  0.00    -0.376 OA
BRANCH   2   3
ATOM      3  C   UNL A   1      45.652  18.603  25.373  1.00  0.00     0.202 C 
BRANCH   3   4
ATOM      4  C   UNL A   1      45.452  19.796  24.304  1.00  0.00     0.261 C 
BRANCH   4   5
ATOM      5  O   UNL A   1      45.597  21.208  24.764  1.00  0.00    -0.463 OA
BRANCH   5   6
ATOM      6  C   UNL A   1      45.152  22.423  24.255  1.00  0.00     0.310 C 
ATOM      7  O   UNL A   1      44.085  22.556  23.674  1.00  0.00    -0.252 OA
BRANCH   6   8
ATOM      8  C   UNL A   1      46.043  23.771  24.588  1.00  0.00     0.118 C 
ATOM      9  C   UNL A   1      46.182  24.151  26.027  1.00  0.00     0.100 C 
ATOM     10  C   UNL A   1      45.858  25.360  25.205  1.00  0.00    -0.009 C 
ATOM     11  C   UNL A   1      44.760  26.271  25.860  1.00  0.00     0.013 C 
ATOM     12  C   UNL A   1      46.987  26.339  24.867  1.00  0.00     0.013 C 
BRANCH   9  13
ATOM     13  C   UNL A   1      45.150  23.641  26.894  1.00  0.00     0.230 C 
ATOM     14  N   UNL A   1      45.088  24.007  28.251  1.00  0.00    -0.310 N 
ATOM     15  H   UNL A   1      44.282  23.639  28.682  1.00  0.00     0.171 HD
ATOM     16  O   UNL A   1      44.283  22.861  26.501  1.00  0.00    -0.274 OA
BRANCH  14  17
ATOM     17  C   UNL A   1      45.861  24.755  29.169  1.00  0.00     0.136 A 
ATOM     18  C   UNL A   1      45.236  26.330  32.388  1.00  0.00     0.069 C 
ATOM     19  C   UNL A   1      45.811  25.770  31.126  1.00  0.00     0.062 A 
ATOM     20  C   UNL A   1      45.189  24.812  30.372  1.00  0.00     0.072 A 
ATOM     21  N   UNL A   1      46.923  26.198  30.536  1.00  0.00    -0.171 NA
ATOM     22  N   UNL A   1      47.144  25.518  29.367  1.00  0.00    -0.217 N 
BRANCH  22  23
ATOM     23  C   UNL A   1      48.394  25.968  28.509  1.00  0.00     0.067 A 
ATOM     24  C   UNL A   1      49.367  25.117  27.846  1.00  0.00     0.031 A 
ATOM     25  C   UNL A   1      48.598  27.316  28.183  1.00  0.00     0.031 A 
ATOM     26  C   UNL A   1      50.564  25.526  27.235  1.00  0.00     0.041 A 
ATOM     27  C   UNL A   1      49.799  27.752  27.527  1.00  0.00     0.041 A 
ATOM     28  C   UNL A   1      50.796  26.862  27.126  1.00  0.00     0.123 A 
ATOM     29  F   UNL A   1      51.963  27.284  26.622  1.00  0.00    -0.207 F 
ENDBRANCH  22  23
ENDBRANCH  14  17
ENDBRANCH   9  13
ENDBRANCH   6   8
ENDBRANCH   5   6
ENDBRANCH   4   5
ENDBRANCH   3   4
ENDBRANCH   2   3
ENDBRANCH   1   2
BRANCH   1  30
ATOM     30  C   UNL A   1      42.232  18.882  25.852  1.00  0.00     0.188 C 
BRANCH  30  31
ATOM     31  O   UNL A   1      41.895  20.267  25.999  1.00  0.00    -0.376 OA
BRANCH  31  32
ATOM     32  C   UNL A   1      40.585  20.585  26.496  1.00  0.00     0.202 C 
BRANCH  32  33
ATOM     33  C   UNL A   1      40.426  21.849  27.340  1.00  0.00     0.261 C 
BRANCH  33  34
ATOM     34  O   UNL A   1      40.169  22.947  26.515  1.00  0.00    -0.460 OA
BRANCH  34  35
ATOM     35  C   UNL A   1      39.830  24.069  27.203  1.00  0.00     0.338 C 
ATOM     36  O   UNL A   1      38.790  24.311  27.786  1.00  0.00    -0.246 OA
BRANCH  35  37
ATOM     37  C   UNL A   1      41.002  24.945  27.080  1.00  0.00     0.060 A 
ATOM     38  C   UNL A   1      41.878  24.902  28.149  1.00  0.00     0.016 A 
ATOM     39  C   UNL A   1      40.875  26.061  26.231  1.00  0.00     0.016 A 
ATOM     40  C   UNL A   1      42.205  26.120  28.674  1.00  0.00     0.010 A 
ATOM     41  C   UNL A   1      41.166  27.264  26.763  1.00  0.00     0.010 A 
ATOM     42  C   UNL A   1      41.681  27.256  28.049  1.00  0.00    -0.014 A 
BRANCH  42  43
ATOM     43  C   UNL A   1      41.749  28.529  28.695  1.00  0.00     0.031 A 
ATOM     44  C   UNL A   1      42.861  29.281  28.099  1.00  0.00     0.074 A 
ATOM     45  C   UNL A   1      40.799  28.929  29.558  1.00  0.00     0.049 A 
ATOM     46  N   UNL A   1      44.088  29.250  28.505  1.00  0.00    -0.248 NA
ATOM     47  C   UNL A   1      42.714  29.730  26.696  1.00  0.00     0.031 C 
ATOM     48  C   UNL A   1      39.544  28.274  29.942  1.00  0.00     0.029 A 
ATOM     49  N   UNL A   1      40.742  30.098  30.235  1.00  0.00    -0.354 N 
ATOM     50  C   UNL A   1      44.755  30.010  27.564  1.00  0.00     0.074 A 
ATOM     51  C   UNL A   1      43.997  29.870  26.359  1.00  0.00     0.031 C 
ATOM     52  C   UNL A   1      38.763  29.159  30.611  1.00  0.00     0.029 A 
ATOM     53  C   UNL A   1      39.504  30.395  30.803  1.00  0.00     0.049 A 
ATOM     54  H   UNL A   1      41.518  30.698  30.320  1.00  0.00     0.167 HD
ATOM     55  C   UNL A   1      45.523  31.057  27.969  1.00  0.00     0.034 A 
ATOM     56  C   UNL A   1      39.142  31.618  31.288  1.00  0.00     0.034 A 
ATOM     57  C   UNL A   1      45.831  30.932  29.385  1.00  0.00     0.049 A 
ATOM     58  C   UNL A   1      40.421  32.352  31.540  1.00  0.00     0.074 A 
ATOM     59  C   UNL A   1      46.420  29.946  30.156  1.00  0.00     0.029 A 
ATOM     60  N   UNL A   1      45.112  31.717  30.265  1.00  0.00    -0.354 N 
ATOM     61  N   UNL A   1      41.290  31.967  32.440  1.00  0.00    -0.248 NA
ATOM     62  C   UNL A   1      40.989  33.122  30.437  1.00  0.00     0.031 C 
ATOM     63  C   UNL A   1      45.664  29.914  31.365  1.00  0.00     0.029 A 
ATOM     64  C   UNL A   1      44.723  30.946  31.336  1.00  0.00     0.049 A 
ATOM     65  H   UNL A   1      44.911  32.673  30.145  1.00  0.00     0.167 HD
ATOM     66  C   UNL A   1      42.532  32.060  31.821  1.00  0.00     0.074 A 
ATOM     67  C   UNL A   1      42.288  32.844  30.609  1.00  0.00     0.031 C 
ATOM     68  C   UNL A   1      43.559  31.225  32.169  1.00  0.00     0.034 A 
BRANCH  55  69
ATOM     69  C   UNL A   1      45.587  32.382  27.235  1.00  0.00     0.023 A 
ATOM     70  C   UNL A   1      46.855  32.757  26.771  1.00  0.00     0.031 A 
ATOM     71  C   UNL A   1      44.596  33.397  27.183  1.00  0.00     0.131 A 
ATOM     72  C   UNL A   1      47.127  34.086  26.413  1.00  0.00     0.055 A 
ATOM     73  C   UNL A   1      44.860  34.705  26.777  1.00  0.00     0.041 A 
ATOM     74  F   UNL A   1      43.331  33.234  27.582  1.00  0.00    -0.206 F 
ATOM     75  C   UNL A   1      46.141  35.067  26.420  1.00  0.00     0.022 A 
BRANCH  72  76
ATOM     76  S   UNL A   1      48.845  34.536  26.101  1.00  0.00     0.124 S 
ATOM     77  O   UNL A   1      49.054  35.582  27.096  1.00  0.00    -0.237 OA
ATOM     78  O   UNL A   1      49.529  33.271  26.339  1.00  0.00    -0.237 OA
ATOM     79  O   UNL A   1      48.826  34.986  24.712  1.00  0.00    -0.744 OA
ENDBRANCH  72  76
ENDBRANCH  55  69
BRANCH  56  80
ATOM     80  C   UNL A   1      37.814  32.288  31.109  1.00  0.00     0.023 A 
ATOM     81  C   UNL A   1      37.011  32.755  32.177  1.00  0.00     0.031 A 
ATOM     82  C   UNL A   1      37.418  32.684  29.810  1.00  0.00     0.131 A 
ATOM     83  C   UNL A   1      35.870  33.561  31.916  1.00  0.00     0.055 A 
ATOM     84  C   UNL A   1      36.295  33.477  29.560  1.00  0.00     0.041 A 
ATOM     85  F   UNL A   1      38.158  32.376  28.733  1.00  0.00    -0.206 F 
ATOM     86  C   UNL A   1      35.519  33.925  30.614  1.00  0.00     0.022 A 
BRANCH  83  87
ATOM     87  S   UNL A   1      34.831  34.205  33.276  1.00  0.00     0.124 S 
ATOM     88  O   UNL A   1      35.218  33.355  34.396  1.00  0.00    -0.237 OA
ATOM     89  O   UNL A   1      35.241  35.602  33.346  1.00  0.00    -0.237 OA
ATOM     90  O   UNL A   1      33.465  33.993  32.793  1.00  0.00    -0.744 OA
ENDBRANCH  83  87
ENDBRANCH  56  80
BRANCH  68  91
ATOM     91  C   UNL A   1      43.416  30.400  33.440  1.00  0.00     0.023 A 
ATOM     92  C   UNL A   1      43.719  30.837  34.753  1.00  0.00     0.031 A 
ATOM     93  C   UNL A   1      42.825  29.132  33.301  1.00  0.00     0.131 A 
ATOM     94  C   UNL A   1      43.435  30.003  35.858  1.00  0.00     0.055 A 
ATOM     95  C   UNL A   1      42.525  28.324  34.395  1.00  0.00     0.041 A 
ATOM     96  F   UNL A   1      42.489  28.670  32.085  1.00  0.00    -0.206 F 
ATOM     97  C   UNL A   1      42.834  28.753  35.679  1.00  0.00     0.022 A 
BRANCH  94  98
ATOM     98  S   UNL A   1      43.862  30.513  37.558  1.00  0.00     0.124 S 
ATOM     99  O   UNL A   1      42.603  31.022  38.087  1.00  0.00    -0.237 OA
ATOM    100  O   UNL A   1      44.346  29.268  38.149  1.00  0.00    -0.237 OA
ATOM    101  O   UNL A   1      44.896  31.531  37.359  1.00  0.00    -0.744 OA
ENDBRANCH  94  98
ENDBRANCH  68  91
ENDBRANCH  42  43
ENDBRANCH  35  37
ENDBRANCH  34  35
ENDBRANCH  33  34
ENDBRANCH  32  33
ENDBRANCH  31  32
ENDBRANCH  30  31
ENDBRANCH   1  30
TORSDOF 23
ENDMDL
MODEL 2
REMARK VINA RESULT:      -9.3      3.813      8.878
REMARK SMILES Cc1cc(NC(=O)[C@H]2[C@@H](C(=O)OCCOCCOCCOC(=O)c3ccc(-c4c5nc(c(-c6cc(S(=O)(=O)[O-])ccc6F)c6ccc([nH]6)c(-c6cc(S(=O)(=O)[O-])ccc6F)c6nc(c(-c7cc(S(=O)(=O)[O-])ccc7F)c7ccc4[nH]7)C=C6)C=C5)cc3)C2(C)C)n(-c2ccc(F)cc2)n1
REMARK SMILES IDX 16 1 15 2 14 3 13 4 12 5 10 6 11 7 9 8 8 9 87 10 88 11 89 12
REMARK SMILES IDX 6 13 5 14 7 16 4 17 1 18 2 19 3 20 98 21 90 22 91 23 92 24
REMARK SMILES IDX 97 25 93 26 96 27 94 28 95 29 17 30 18 31 19 32 20 33 21 34
REMARK SMILES IDX 22 35 23 36 24 37 25 38 86 39 26 40 85 41 27 42 28 43 29 44
REMARK SMILES IDX 79 45 30 46 84 47 78 48 80 49 31 50 83 51 77 52 76 53 32 55
REMARK SMILES IDX 64 56 44 57 63 58 45 59 48 60 62 61 81 62 46 63 47 64 61 66
REMARK SMILES IDX 82 67 49 68 33 69 34 70 42 71 35 72 41 73 43 74 40 75 36 76
REMARK SMILES IDX 37 77 38 78 39 79 65 80 66 81 74 82 67 83 73 84 75 85 72 86
REMARK SMILES IDX 68 87 69 88 70 89 71 90 50 91 51 92 59 93 52 94 58 95 60 96
REMARK SMILES IDX 57 97 53 98 54 99 55 100 56 101
REMARK H PARENT 5 15 80 54 48 65
REMARK Flexibility Score: inf
ROOT
ATOM      1  C   UNL A   1      46.230  31.232  26.376  1.00  0.00     0.188 C 
ENDROOT
BRANCH   1   2
ATOM      2  O   UNL A   1      46.405  30.205  25.404  1.00  0.00    -0.376 OA
BRANCH   2   3
ATOM      3  C   UNL A   1      46.684  28.884  25.882  1.00  0.00     0.202 C 
BRANCH   3   4
ATOM      4  C   UNL A   1      45.596  27.999  26.682  1.00  0.00     0.261 C 
BRANCH   4   5
ATOM      5  O   UNL A   1      44.244  27.803  26.083  1.00  0.00    -0.463 OA
BRANCH   5   6
ATOM      6  C   UNL A   1      43.569  26.683  25.608  1.00  0.00     0.310 C 
ATOM      7  O   UNL A   1      42.648  26.745  24.808  1.00  0.00    -0.252 OA
BRANCH   6   8
ATOM      8  C   UNL A   1      44.144  25.197  26.038  1.00  0.00     0.118 C 
ATOM      9  C   UNL A   1      43.269  24.363  26.918  1.00  0.00     0.100 C 
ATOM     10  C   UNL A   1      44.680  24.335  27.419  1.00  0.00    -0.009 C 
ATOM     11  C   UNL A   1      44.781  24.509  28.976  1.00  0.00     0.013 C 
ATOM     12  C   UNL A   1      45.532  23.093  27.137  1.00  0.00     0.013 C 
BRANCH   9  13
ATOM     13  C   UNL A   1      42.303  25.100  27.692  1.00  0.00     0.230 C 
ATOM     14  N   UNL A   1      40.938  24.761  27.674  1.00  0.00    -0.310 N 
ATOM     15  H   UNL A   1      40.427  25.307  28.315  1.00  0.00     0.171 HD
ATOM     16  O   UNL A   1      42.615  26.060  28.397  1.00  0.00    -0.274 OA
BRANCH  14  17
ATOM     17  C   UNL A   1      40.096  23.855  26.990  1.00  0.00     0.136 A 
ATOM     18  C   UNL A   1      36.619  23.869  25.919  1.00  0.00     0.069 C 
ATOM     19  C   UNL A   1      38.061  23.577  26.184  1.00  0.00     0.062 A 
ATOM     20  C   UNL A   1      38.966  24.528  26.573  1.00  0.00     0.072 A 
ATOM     21  N   UNL A   1      38.610  22.365  26.179  1.00  0.00    -0.171 NA
ATOM     22  N   UNL A   1      39.936  22.433  26.518  1.00  0.00    -0.217 N 
BRANCH  22  23
ATOM     23  C   UNL A   1      40.711  21.059  26.629  1.00  0.00     0.067 A 
ATOM     24  C   UNL A   1      41.728  20.691  27.599  1.00  0.00     0.031 A 
ATOM     25  C   UNL A   1      40.355  19.963  25.832  1.00  0.00     0.031 A 
ATOM     26  C   UNL A   1      42.529  19.537  27.582  1.00  0.00     0.041 A 
ATOM     27  C   UNL A   1      41.139  18.759  25.824  1.00  0.00     0.041 A 
ATOM     28  C   UNL A   1      42.254  18.589  26.645  1.00  0.00     0.123 A 
ATOM     29  F   UNL A   1      43.048  17.515  26.549  1.00  0.00    -0.207 F 
ENDBRANCH  22  23
ENDBRANCH  14  17
ENDBRANCH   9  13
ENDBRANCH   6   8
ENDBRANCH   5   6
ENDBRANCH   4   5
ENDBRANCH   3   4
ENDBRANCH   2   3
ENDBRANCH   1   2
BRANCH   1  30
ATOM     30  C   UNL A   1      47.099  31.369  27.648  1.00  0.00     0.188 C 
BRANCH  30  31
ATOM     31  O   UNL A   1      46.734  30.705  28.864  1.00  0.00    -0.376 OA
BRANCH  31  32
ATOM     32  C   UNL A   1      46.200  31.509  29.928  1.00  0.00     0.202 C 
BRANCH  32  33
ATOM     33  C   UNL A   1      45.146  32.557  29.573  1.00  0.00     0.261 C 
BRANCH  33  34
ATOM     34  O   UNL A   1      45.584  33.827  29.960  1.00  0.00    -0.460 OA
BRANCH  34  35
ATOM     35  C   UNL A   1      45.390  34.776  29.007  1.00  0.00     0.338 C 
ATOM     36  O   UNL A   1      46.087  35.032  28.043  1.00  0.00    -0.246 OA
BRANCH  35  37
ATOM     37  C   UNL A   1      44.144  35.446  29.402  1.00  0.00     0.060 A 
ATOM     38  C   UNL A   1      44.082  35.829  30.729  1.00  0.00     0.016 A 
ATOM     39  C   UNL A   1      43.003  35.177  28.622  1.00  0.00     0.016 A 
ATOM     40  C   UNL A   1      42.960  35.421  31.393  1.00  0.00     0.010 A 
ATOM     41  C   UNL A   1      41.909  34.743  29.277  1.00  0.00     0.010 A 
ATOM     42  C   UNL A   1      41.989  34.731  30.659  1.00  0.00    -0.014 A 
BRANCH  42  43
ATOM     43  C   UNL A   1      40.934  34.040  31.333  1.00  0.00     0.031 A 
ATOM     44  C   UNL A   1      41.346  33.832  32.727  1.00  0.00     0.074 A 
ATOM     45  C   UNL A   1      39.747  33.827  30.741  1.00  0.00     0.049 A 
ATOM     46  N   UNL A   1      42.005  32.811  33.169  1.00  0.00    -0.248 NA
ATOM     47  C   UNL A   1      41.448  35.024  33.599  1.00  0.00     0.031 C 
ATOM     48  C   UNL A   1      39.253  34.279  29.436  1.00  0.00     0.029 A 
ATOM     49  N   UNL A   1      38.671  33.191  31.259  1.00  0.00    -0.354 N 
ATOM     50  C   UNL A   1      42.250  33.136  34.489  1.00  0.00     0.074 A 
ATOM     51  C   UNL A   1      42.293  34.566  34.525  1.00  0.00     0.031 C 
ATOM     52  C   UNL A   1      37.912  34.085  29.371  1.00  0.00     0.029 A 
ATOM     53  C   UNL A   1      37.475  33.392  30.572  1.00  0.00     0.049 A 
ATOM     54  H   UNL A   1      38.728  32.627  32.064  1.00  0.00     0.167 HD
ATOM     55  C   UNL A   1      41.883  32.272  35.472  1.00  0.00     0.034 A 
ATOM     56  C   UNL A   1      36.237  33.080  31.054  1.00  0.00     0.034 A 
ATOM     57  C   UNL A   1      41.658  30.948  34.914  1.00  0.00     0.049 A 
ATOM     58  C   UNL A   1      36.464  32.084  32.147  1.00  0.00     0.074 A 
ATOM     59  C   UNL A   1      42.430  30.077  34.165  1.00  0.00     0.029 A 
ATOM     60  N   UNL A   1      40.349  30.554  34.716  1.00  0.00    -0.354 N 
ATOM     61  N   UNL A   1      36.960  30.893  31.924  1.00  0.00    -0.248 NA
ATOM     62  C   UNL A   1      36.697  32.596  33.494  1.00  0.00     0.031 C 
ATOM     63  C   UNL A   1      41.536  29.512  33.208  1.00  0.00     0.029 A 
ATOM     64  C   UNL A   1      40.243  29.967  33.476  1.00  0.00     0.049 A 
ATOM     65  H   UNL A   1      39.613  30.674  35.357  1.00  0.00     0.167 HD
ATOM     66  C   UNL A   1      37.911  30.694  32.918  1.00  0.00     0.074 A 
ATOM     67  C   UNL A   1      37.655  31.751  33.898  1.00  0.00     0.031 C 
ATOM     68  C   UNL A   1      39.011  29.910  32.698  1.00  0.00     0.034 A 
BRANCH  55  69
ATOM     69  C   UNL A   1      41.284  32.712  36.794  1.00  0.00     0.023 A 
ATOM     70  C   UNL A   1      39.962  32.307  37.024  1.00  0.00     0.031 A 
ATOM     71  C   UNL A   1      41.790  33.681  37.699  1.00  0.00     0.131 A 
ATOM     72  C   UNL A   1      39.178  32.933  38.005  1.00  0.00     0.055 A 
ATOM     73  C   UNL A   1      41.020  34.263  38.707  1.00  0.00     0.041 A 
ATOM     74  F   UNL A   1      43.023  34.191  37.642  1.00  0.00    -0.206 F 
ATOM     75  C   UNL A   1      39.693  33.915  38.844  1.00  0.00     0.022 A 
BRANCH  72  76
ATOM     76  S   UNL A   1      37.416  32.549  38.041  1.00  0.00     0.124 S 
ATOM     77  O   UNL A   1      36.916  33.387  36.956  1.00  0.00    -0.237 OA
ATOM     78  O   UNL A   1      37.423  31.111  37.798  1.00  0.00    -0.237 OA
ATOM     79  O   UNL A   1      37.013  32.955  39.385  1.00  0.00    -0.744 OA
ENDBRANCH  72  76
ENDBRANCH  55  69
BRANCH  56  80
ATOM     80  C   UNL A   1      34.997  33.909  30.922  1.00  0.00     0.023 A 
ATOM     81  C   UNL A   1      34.585  34.877  31.868  1.00  0.00     0.031 A 
ATOM     82  C   UNL A   1      34.296  33.899  29.693  1.00  0.00     0.131 A 
ATOM     83  C   UNL A   1      33.514  35.762  31.569  1.00  0.00     0.055 A 
ATOM     84  C   UNL A   1      33.244  34.772  29.404  1.00  0.00     0.041 A 
ATOM     85  F   UNL A   1      34.662  33.085  28.690  1.00  0.00    -0.206 F 
ATOM     86  C   UNL A   1      32.852  35.713  30.340  1.00  0.00     0.022 A 
BRANCH  83  87
ATOM     87  S   UNL A   1      32.980  37.044  32.758  1.00  0.00     0.124 S 
ATOM     88  O   UNL A   1      33.206  38.277  32.013  1.00  0.00    -0.237 OA
ATOM     89  O   UNL A   1      31.591  36.678  33.007  1.00  0.00    -0.237 OA
ATOM     90  O   UNL A   1      33.877  36.849  33.899  1.00  0.00    -0.744 OA
ENDBRANCH  83  87
ENDBRANCH  56  80
BRANCH  68  91
ATOM     91  C   UNL A   1      39.027  29.025  31.459  1.00  0.00     0.023 A 
ATOM     92  C   UNL A   1      39.514  29.394  30.180  1.00  0.00     0.031 A 
ATOM     93  C   UNL A   1      38.624  27.690  31.637  1.00  0.00     0.131 A 
ATOM     94  C   UNL A   1      39.570  28.435  29.143  1.00  0.00     0.055 A 
ATOM     95  C   UNL A   1      38.704  26.743  30.618  1.00  0.00     0.041 A 
ATOM     96  F   UNL A   1      38.178  27.270  32.833  1.00  0.00    -0.206 F 
ATOM     97  C   UNL A   1      39.172  27.113  29.364  1.00  0.00     0.022 A 
BRANCH  94  98
ATOM     98  S   UNL A   1      40.141  28.890  27.470  1.00  0.00     0.124 S 
ATOM     99  O   UNL A   1      41.389  29.602  27.718  1.00  0.00    -0.237 OA
ATOM    100  O   UNL A   1      40.267  27.591  26.816  1.00  0.00    -0.237 OA
ATOM    101  O   UNL A   1      39.055  29.725  26.954  1.00  0.00    -0.744 OA
ENDBRANCH  94  98
ENDBRANCH  68  91
ENDBRANCH  42  43
ENDBRANCH  35  37
ENDBRANCH  34  35
ENDBRANCH  33  34
ENDBRANCH  32  33
ENDBRANCH  31  32
ENDBRANCH  30  31
ENDBRANCH   1  30
TORSDOF 23
ENDMDL
MODEL 3
REMARK VINA RESULT:      -9.2      1.772      2.057
REMARK SMILES Cc1cc(NC(=O)[C@H]2[C@@H](C(=O)OCCOCCOCCOC(=O)c3ccc(-c4c5nc(c(-c6cc(S(=O)(=O)[O-])ccc6F)c6ccc([nH]6)c(-c6cc(S(=O)(=O)[O-])ccc6F)c6nc(c(-c7cc(S(=O)(=O)[O-])ccc7F)c7ccc4[nH]7)C=C6)C=C5)cc3)C2(C)C)n(-c2ccc(F)cc2)n1
REMARK SMILES IDX 16 1 15 2 14 3 13 4 12 5 10 6 11 7 9 8 8 9 87 10 88 11 89 12
REMARK SMILES IDX 6 13 5 14 7 16 4 17 1 18 2 19 3 20 98 21 90 22 91 23 92 24
REMARK SMILES IDX 97 25 93 26 96 27 94 28 95 29 17 30 18 31 19 32 20 33 21 34
REMARK SMILES IDX 22 35 23 36 24 37 25 38 86 39 26 40 85 41 27 42 28 43 29 44
REMARK SMILES IDX 79 45 30 46 84 47 78 48 80 49 31 50 83 51 77 52 76 53 32 55
REMARK SMILES IDX 64 56 44 57 63 58 45 59 48 60 62 61 81 62 46 63 47 64 61 66
REMARK SMILES IDX 82 67 49 68 33 69 34 70 42 71 35 72 41 73 43 74 40 75 36 76
REMARK SMILES IDX 37 77 38 78 39 79 65 80 66 81 74 82 67 83 73 84 75 85 72 86
REMARK SMILES IDX 68 87 69 88 70 89 71 90 50 91 51 92 59 93 52 94 58 95 60 96
REMARK SMILES IDX 57 97 53 98 54 99 55 100 56 101
REMARK H PARENT 5 15 80 54 48 65
REMARK Flexibility Score: inf
ROOT
ATOM      1  C   UNL A   1      43.597  18.499  26.434  1.00  0.00     0.188 C 
ENDROOT
BRANCH   1   2
ATOM      2  O   UNL A   1      44.685  17.887  25.750  1.00  0.00    -0.376 OA
BRANCH   2   3
ATOM      3  C   UNL A   1      45.834  18.698  25.477  1.00  0.00     0.202 C 
BRANCH   3   4
ATOM      4  C   UNL A   1      45.847  19.832  24.327  1.00  0.00     0.261 C 
BRANCH   4   5
ATOM      5  O   UNL A   1      45.997  21.262  24.726  1.00  0.00    -0.463 OA
BRANCH   5   6
ATOM      6  C   UNL A   1      45.277  22.412  24.424  1.00  0.00     0.310 C 
ATOM      7  O   UNL A   1      44.093  22.403  24.124  1.00  0.00    -0.252 OA
BRANCH   6   8
ATOM      8  C   UNL A   1      46.027  23.868  24.631  1.00  0.00     0.118 C 
ATOM      9  C   UNL A   1      46.232  24.329  26.038  1.00  0.00     0.100 C 
ATOM     10  C   UNL A   1      45.706  25.453  25.200  1.00  0.00    -0.009 C 
ATOM     11  C   UNL A   1      44.563  26.263  25.909  1.00  0.00     0.013 C 
ATOM     12  C   UNL A   1      46.683  26.536  24.734  1.00  0.00     0.013 C 
BRANCH   9  13
ATOM     13  C   UNL A   1      45.337  23.746  27.007  1.00  0.00     0.230 C 
ATOM     14  N   UNL A   1      45.334  24.171  28.348  1.00  0.00    -0.310 N 
ATOM     15  H   UNL A   1      44.614  23.733  28.857  1.00  0.00     0.171 HD
ATOM     16  O   UNL A   1      44.543  22.851  26.718  1.00  0.00    -0.274 OA
BRANCH  14  17
ATOM     17  C   UNL A   1      46.078  25.050  29.168  1.00  0.00     0.136 A 
ATOM     18  C   UNL A   1      45.791  26.252  32.589  1.00  0.00     0.069 C 
ATOM     19  C   UNL A   1      46.202  25.922  31.190  1.00  0.00     0.062 A 
ATOM     20  C   UNL A   1      45.686  24.873  30.478  1.00  0.00     0.072 A 
ATOM     21  N   UNL A   1      47.022  26.653  30.440  1.00  0.00    -0.171 NA
ATOM     22  N   UNL A   1      47.147  26.110  29.189  1.00  0.00    -0.217 N 
BRANCH  22  23
ATOM     23  C   UNL A   1      48.036  26.911  28.153  1.00  0.00     0.067 A 
ATOM     24  C   UNL A   1      49.184  26.424  27.408  1.00  0.00     0.031 A 
ATOM     25  C   UNL A   1      47.677  28.202  27.742  1.00  0.00     0.031 A 
ATOM     26  C   UNL A   1      50.065  27.190  26.626  1.00  0.00     0.041 A 
ATOM     27  C   UNL A   1      48.547  28.990  26.914  1.00  0.00     0.041 A 
ATOM     28  C   UNL A   1      49.759  28.501  26.426  1.00  0.00     0.123 A 
ATOM     29  F   UNL A   1      50.618  29.278  25.754  1.00  0.00    -0.207 F 
ENDBRANCH  22  23
ENDBRANCH  14  17
ENDBRANCH   9  13
ENDBRANCH   6   8
ENDBRANCH   5   6
ENDBRANCH   4   5
ENDBRANCH   3   4
ENDBRANCH   2   3
ENDBRANCH   1   2
BRANCH   1  30
ATOM     30  C   UNL A   1      42.259  18.879  25.757  1.00  0.00     0.188 C 
BRANCH  30  31
ATOM     31  O   UNL A   1      41.797  20.236  25.749  1.00  0.00    -0.376 OA
BRANCH  31  32
ATOM     32  C   UNL A   1      40.489  20.497  26.281  1.00  0.00     0.202 C 
BRANCH  32  33
ATOM     33  C   UNL A   1      40.325  21.686  27.227  1.00  0.00     0.261 C 
BRANCH  33  34
ATOM     34  O   UNL A   1      40.353  22.882  26.504  1.00  0.00    -0.460 OA
BRANCH  34  35
ATOM     35  C   UNL A   1      39.933  23.955  27.224  1.00  0.00     0.338 C 
ATOM     36  O   UNL A   1      38.861  24.122  27.776  1.00  0.00    -0.246 OA
BRANCH  35  37
ATOM     37  C   UNL A   1      41.065  24.892  27.183  1.00  0.00     0.060 A 
ATOM     38  C   UNL A   1      41.905  24.840  28.280  1.00  0.00     0.016 A 
ATOM     39  C   UNL A   1      40.910  26.039  26.382  1.00  0.00     0.016 A 
ATOM     40  C   UNL A   1      42.154  26.045  28.871  1.00  0.00     0.010 A 
ATOM     41  C   UNL A   1      41.124  27.228  26.978  1.00  0.00     0.010 A 
ATOM     42  C   UNL A   1      41.595  27.183  28.280  1.00  0.00    -0.014 A 
BRANCH  42  43
ATOM     43  C   UNL A   1      41.579  28.427  28.985  1.00  0.00     0.031 A 
ATOM     44  C   UNL A   1      42.671  29.259  28.464  1.00  0.00     0.074 A 
ATOM     45  C   UNL A   1      40.582  28.739  29.832  1.00  0.00     0.049 A 
ATOM     46  N   UNL A   1      43.884  29.267  28.912  1.00  0.00    -0.248 NA
ATOM     47  C   UNL A   1      42.549  29.765  27.079  1.00  0.00     0.031 C 
ATOM     48  C   UNL A   1      39.349  28.008  30.141  1.00  0.00     0.029 A 
ATOM     49  N   UNL A   1      40.445  29.871  30.559  1.00  0.00    -0.354 N 
ATOM     50  C   UNL A   1      44.543  30.102  28.031  1.00  0.00     0.074 A 
ATOM     51  C   UNL A   1      43.834  29.983  26.794  1.00  0.00     0.031 C 
ATOM     52  C   UNL A   1      38.503  28.822  30.821  1.00  0.00     0.029 A 
ATOM     53  C   UNL A   1      39.175  30.080  31.096  1.00  0.00     0.049 A 
ATOM     54  H   UNL A   1      41.187  30.502  30.699  1.00  0.00     0.167 HD
ATOM     55  C   UNL A   1      45.244  31.164  28.510  1.00  0.00     0.034 A 
ATOM     56  C   UNL A   1      38.737  31.261  31.623  1.00  0.00     0.034 A 
ATOM     57  C   UNL A   1      45.511  30.987  29.929  1.00  0.00     0.049 A 
ATOM     58  C   UNL A   1      39.969  32.042  31.953  1.00  0.00     0.074 A 
ATOM     59  C   UNL A   1      46.123  29.995  30.675  1.00  0.00     0.029 A 
ATOM     60  N   UNL A   1      44.726  31.694  30.818  1.00  0.00    -0.354 N 
ATOM     61  N   UNL A   1      40.826  31.657  32.865  1.00  0.00    -0.248 NA
ATOM     62  C   UNL A   1      40.535  32.890  30.908  1.00  0.00     0.031 C 
ATOM     63  C   UNL A   1      45.330  29.870  31.853  1.00  0.00     0.029 A 
ATOM     64  C   UNL A   1      44.340  30.855  31.838  1.00  0.00     0.049 A 
ATOM     65  H   UNL A   1      44.482  32.644  30.735  1.00  0.00     0.167 HD
ATOM     66  C   UNL A   1      42.081  31.839  32.296  1.00  0.00     0.074 A 
ATOM     67  C   UNL A   1      41.839  32.667  31.113  1.00  0.00     0.031 C 
ATOM     68  C   UNL A   1      43.137  31.039  32.641  1.00  0.00     0.034 A 
BRANCH  55  69
ATOM     69  C   UNL A   1      45.267  32.524  27.840  1.00  0.00     0.023 A 
ATOM     70  C   UNL A   1      46.498  32.910  27.293  1.00  0.00     0.031 A 
ATOM     71  C   UNL A   1      44.289  33.550  27.920  1.00  0.00     0.131 A 
ATOM     72  C   UNL A   1      46.759  34.253  26.981  1.00  0.00     0.055 A 
ATOM     73  C   UNL A   1      44.537  34.874  27.559  1.00  0.00     0.041 A 
ATOM     74  F   UNL A   1      43.059  33.379  28.412  1.00  0.00    -0.206 F 
ATOM     75  C   UNL A   1      45.790  35.242  27.117  1.00  0.00     0.022 A 
BRANCH  72  76
ATOM     76  S   UNL A   1      48.452  34.702  26.553  1.00  0.00     0.124 S 
ATOM     77  O   UNL A   1      48.462  36.126  26.871  1.00  0.00    -0.237 OA
ATOM     78  O   UNL A   1      49.220  33.835  27.440  1.00  0.00    -0.237 OA
ATOM     79  O   UNL A   1      48.535  34.375  25.132  1.00  0.00    -0.744 OA
ENDBRANCH  72  76
ENDBRANCH  55  69
BRANCH  56  80
ATOM     80  C   UNL A   1      37.385  31.874  31.429  1.00  0.00     0.023 A 
ATOM     81  C   UNL A   1      36.797  32.116  30.164  1.00  0.00     0.031 A 
ATOM     82  C   UNL A   1      36.537  32.029  32.551  1.00  0.00     0.131 A 
ATOM     83  C   UNL A   1      35.433  32.505  30.070  1.00  0.00     0.055 A 
ATOM     84  C   UNL A   1      35.197  32.412  32.452  1.00  0.00     0.041 A 
ATOM     85  F   UNL A   1      36.964  31.737  33.790  1.00  0.00    -0.206 F 
ATOM     86  C   UNL A   1      34.637  32.646  31.209  1.00  0.00     0.022 A 
BRANCH  83  87
ATOM     87  S   UNL A   1      34.638  32.794  28.450  1.00  0.00     0.124 S 
ATOM     88  O   UNL A   1      34.031  31.500  28.162  1.00  0.00    -0.237 OA
ATOM     89  O   UNL A   1      33.724  33.891  28.743  1.00  0.00    -0.237 OA
ATOM     90  O   UNL A   1      35.758  33.150  27.576  1.00  0.00    -0.744 OA
ENDBRANCH  83  87
ENDBRANCH  56  80
BRANCH  68  91
ATOM     91  C   UNL A   1      42.993  30.148  33.867  1.00  0.00     0.023 A 
ATOM     92  C   UNL A   1      42.680  28.767  33.859  1.00  0.00     0.031 A 
ATOM     93  C   UNL A   1      43.310  30.732  35.107  1.00  0.00     0.131 A 
ATOM     94  C   UNL A   1      42.686  28.034  35.068  1.00  0.00     0.055 A 
ATOM     95  C   UNL A   1      43.338  30.001  36.292  1.00  0.00     0.041 A 
ATOM     96  F   UNL A   1      43.642  32.032  35.179  1.00  0.00    -0.206 F 
ATOM     97  C   UNL A   1      43.020  28.649  36.279  1.00  0.00     0.022 A 
BRANCH  94  98
ATOM     98  S   UNL A   1      42.236  26.266  35.100  1.00  0.00     0.124 S 
ATOM     99  O   UNL A   1      42.798  25.794  36.360  1.00  0.00    -0.237 OA
ATOM    100  O   UNL A   1      40.778  26.310  35.029  1.00  0.00    -0.237 OA
ATOM    101  O   UNL A   1      42.884  25.727  33.903  1.00  0.00    -0.744 OA
ENDBRANCH  94  98
ENDBRANCH  68  91
ENDBRANCH  42  43
ENDBRANCH  35  37
ENDBRANCH  34  35
ENDBRANCH  33  34
ENDBRANCH  32  33
ENDBRANCH  31  32
ENDBRANCH  30  31
ENDBRANCH   1  30
TORSDOF 23
ENDMDL
