MODEL 1
REMARK VINA RESULT:     -10.4      0.000      0.000
REMARK SMILES C[C@@H](Sc1nc2c(cc1C#N)CCC2)C(=O)OCCOCCOCCOC(=O)c1ccc(-c2c3nc(c(-c4cc(S(=O)(=O)[O-])ccc4F)c4ccc([nH]4)c(-c4cc(S(=O)(=O)[O-])ccc4F)c4nc(c(-c5cc(S(=O)(=O)[O-])ccc5F)c5ccc2[nH]5)C=C4)C=C3)cc1
REMARK SMILES IDX 21 1 20 2 19 3 18 4 17 5 15 6 16 7 2 8 1 9 3 10 4 11 5 12
REMARK SMILES IDX 9 13 6 14 8 15 7 16 14 17 12 18 13 19 10 20 11 21 22 22
REMARK SMILES IDX 23 23 24 24 25 25 26 26 27 27 28 28 29 29 30 30 91 31 31 32
REMARK SMILES IDX 90 33 32 34 33 35 34 36 84 37 35 38 89 39 83 40 85 41 36 42
REMARK SMILES IDX 88 43 82 44 81 45 37 47 69 48 49 49 68 50 50 51 53 52 67 53
REMARK SMILES IDX 86 54 51 55 52 56 66 58 87 59 54 60 38 61 39 62 47 63 40 64
REMARK SMILES IDX 46 65 48 66 45 67 41 68 42 69 43 70 44 71 70 72 71 73 79 74
REMARK SMILES IDX 72 75 78 76 80 77 77 78 73 79 74 80 75 81 76 82 55 83 56 84
REMARK SMILES IDX 64 85 57 86 63 87 65 88 62 89 58 90 59 91 60 92 61 93
REMARK H PARENT 85 46 53 57
REMARK Flexibility Score: inf
ROOT
ATOM      1  C   UNL A   1      33.099  28.762  25.417  1.00  0.00     0.188 C 
ENDROOT
BRANCH   1   2
ATOM      2  O   UNL A   1      32.145  28.823  24.362  1.00  0.00    -0.376 OA
BRANCH   2   3
ATOM      3  C   UNL A   1      32.650  28.842  23.029  1.00  0.00     0.202 C 
BRANCH   3   4
ATOM      4  C   UNL A   1      33.168  27.506  22.470  1.00  0.00     0.261 C 
BRANCH   4   5
ATOM      5  O   UNL A   1      32.146  26.501  22.319  1.00  0.00    -0.462 OA
BRANCH   5   6
ATOM      6  C   UNL A   1      32.515  25.184  22.331  1.00  0.00     0.319 C 
ATOM      7  O   UNL A   1      33.354  24.709  21.575  1.00  0.00    -0.251 OA
BRANCH   6   8
ATOM      8  C   UNL A   1      31.850  24.393  23.486  1.00  0.00     0.160 C 
ATOM      9  C   UNL A   1      30.366  24.705  23.676  1.00  0.00     0.032 C 
BRANCH   8  10
ATOM     10  S   UNL A   1      32.027  22.607  23.126  1.00  0.00    -0.090 SA
BRANCH  10  11
ATOM     11  C   UNL A   1      33.346  21.971  24.156  1.00  0.00     0.115 A 
ATOM     12  N   UNL A   1      34.212  22.990  24.424  1.00  0.00    -0.245 NA
ATOM     13  C   UNL A   1      33.680  20.640  24.483  1.00  0.00     0.085 A 
ATOM     14  C   UNL A   1      35.417  22.675  24.917  1.00  0.00     0.045 A 
ATOM     15  C   UNL A   1      34.962  20.356  25.000  1.00  0.00     0.028 A 
ATOM     16  C   UNL A   1      35.847  21.390  25.172  1.00  0.00    -0.025 A 
ATOM     17  C   UNL A   1      36.500  23.669  25.214  1.00  0.00     0.057 C 
ATOM     18  C   UNL A   1      37.274  21.362  25.601  1.00  0.00     0.038 C 
ATOM     19  C   UNL A   1      37.735  22.760  25.152  1.00  0.00     0.011 C 
BRANCH  13  20
ATOM     20  C   UNL A   1      32.869  19.490  24.291  1.00  0.00     0.102 C 
ATOM     21  N   UNL A   1      32.133  18.587  24.231  1.00  0.00    -0.192 NA
ENDBRANCH  13  20
ENDBRANCH  10  11
ENDBRANCH   8  10
ENDBRANCH   6   8
ENDBRANCH   5   6
ENDBRANCH   4   5
ENDBRANCH   3   4
ENDBRANCH   2   3
ENDBRANCH   1   2
BRANCH   1  22
ATOM     22  C   UNL A   1      33.229  30.025  26.263  1.00  0.00     0.188 C 
BRANCH  22  23
ATOM     23  O   UNL A   1      32.076  30.455  26.956  1.00  0.00    -0.376 OA
BRANCH  23  24
ATOM     24  C   UNL A   1      31.393  31.597  26.439  1.00  0.00     0.202 C 
BRANCH  24  25
ATOM     25  C   UNL A   1      31.889  33.046  26.727  1.00  0.00     0.261 C 
BRANCH  25  26
ATOM     26  O   UNL A   1      32.377  33.398  28.043  1.00  0.00    -0.460 OA
BRANCH  26  27
ATOM     27  C   UNL A   1      33.460  34.212  28.131  1.00  0.00     0.338 C 
ATOM     28  O   UNL A   1      33.420  35.430  28.151  1.00  0.00    -0.246 OA
BRANCH  27  29
ATOM     29  C   UNL A   1      34.661  33.395  28.516  1.00  0.00     0.060 A 
ATOM     30  C   UNL A   1      34.448  32.112  29.048  1.00  0.00     0.016 A 
ATOM     31  C   UNL A   1      35.974  33.826  28.302  1.00  0.00     0.016 A 
ATOM     32  C   UNL A   1      35.524  31.283  29.395  1.00  0.00     0.010 A 
ATOM     33  C   UNL A   1      37.056  33.008  28.687  1.00  0.00     0.010 A 
ATOM     34  C   UNL A   1      36.841  31.742  29.265  1.00  0.00    -0.014 A 
BRANCH  34  35
ATOM     35  C   UNL A   1      37.959  31.006  29.930  1.00  0.00     0.031 A 
ATOM     36  C   UNL A   1      38.225  31.284  31.390  1.00  0.00     0.074 A 
ATOM     37  C   UNL A   1      38.704  30.078  29.295  1.00  0.00     0.049 A 
ATOM     38  N   UNL A   1      39.169  30.826  32.170  1.00  0.00    -0.248 NA
ATOM     39  C   UNL A   1      37.291  32.208  32.058  1.00  0.00     0.031 C 
ATOM     40  C   UNL A   1      38.516  29.642  27.913  1.00  0.00     0.029 A 
ATOM     41  N   UNL A   1      39.772  29.327  29.737  1.00  0.00    -0.354 N 
ATOM     42  C   UNL A   1      38.948  31.405  33.417  1.00  0.00     0.074 A 
ATOM     43  C   UNL A   1      37.802  32.275  33.279  1.00  0.00     0.031 C 
ATOM     44  C   UNL A   1      39.437  28.706  27.621  1.00  0.00     0.029 A 
ATOM     45  C   UNL A   1      40.310  28.499  28.777  1.00  0.00     0.049 A 
ATOM     46  H   UNL A   1      40.119  29.379  30.657  1.00  0.00     0.167 HD
ATOM     47  C   UNL A   1      39.627  31.220  34.574  1.00  0.00     0.034 A 
ATOM     48  C   UNL A   1      41.391  27.688  28.814  1.00  0.00     0.034 A 
ATOM     49  C   UNL A   1      40.767  30.351  34.715  1.00  0.00     0.049 A 
ATOM     50  C   UNL A   1      42.208  27.588  30.083  1.00  0.00     0.074 A 
ATOM     51  C   UNL A   1      41.518  30.102  35.851  1.00  0.00     0.029 A 
ATOM     52  N   UNL A   1      41.328  29.597  33.695  1.00  0.00    -0.354 N 
ATOM     53  N   UNL A   1      42.002  28.165  31.244  1.00  0.00    -0.248 NA
ATOM     54  C   UNL A   1      43.406  26.733  30.045  1.00  0.00     0.031 C 
ATOM     55  C   UNL A   1      42.577  29.262  35.501  1.00  0.00     0.029 A 
ATOM     56  C   UNL A   1      42.437  28.915  34.167  1.00  0.00     0.049 A 
ATOM     57  H   UNL A   1      40.987  29.554  32.772  1.00  0.00     0.167 HD
ATOM     58  C   UNL A   1      43.027  27.721  32.078  1.00  0.00     0.074 A 
ATOM     59  C   UNL A   1      43.846  26.823  31.293  1.00  0.00     0.031 C 
ATOM     60  C   UNL A   1      43.260  28.026  33.380  1.00  0.00     0.034 A 
BRANCH  47  61
ATOM     61  C   UNL A   1      39.178  31.999  35.784  1.00  0.00     0.023 A 
ATOM     62  C   UNL A   1      38.379  31.416  36.781  1.00  0.00     0.031 A 
ATOM     63  C   UNL A   1      39.595  33.331  35.963  1.00  0.00     0.131 A 
ATOM     64  C   UNL A   1      37.992  32.174  37.897  1.00  0.00     0.055 A 
ATOM     65  C   UNL A   1      39.259  34.059  37.105  1.00  0.00     0.041 A 
ATOM     66  F   UNL A   1      40.346  33.942  35.033  1.00  0.00    -0.206 F 
ATOM     67  C   UNL A   1      38.448  33.482  38.078  1.00  0.00     0.022 A 
BRANCH  64  68
ATOM     68  S   UNL A   1      36.820  31.449  39.075  1.00  0.00     0.124 S 
ATOM     69  O   UNL A   1      37.626  31.385  40.291  1.00  0.00    -0.237 OA
ATOM     70  O   UNL A   1      35.733  32.423  39.079  1.00  0.00    -0.237 OA
ATOM     71  O   UNL A   1      36.494  30.154  38.482  1.00  0.00    -0.744 OA
ENDBRANCH  64  68
ENDBRANCH  47  61
BRANCH  48  72
ATOM     72  C   UNL A   1      41.794  26.918  27.598  1.00  0.00     0.023 A 
ATOM     73  C   UNL A   1      41.757  25.515  27.581  1.00  0.00     0.031 A 
ATOM     74  C   UNL A   1      42.240  27.579  26.440  1.00  0.00     0.131 A 
ATOM     75  C   UNL A   1      42.170  24.816  26.433  1.00  0.00     0.055 A 
ATOM     76  C   UNL A   1      42.607  26.882  25.286  1.00  0.00     0.041 A 
ATOM     77  F   UNL A   1      42.308  28.920  26.407  1.00  0.00    -0.206 F 
ATOM     78  C   UNL A   1      42.577  25.492  25.280  1.00  0.00     0.022 A 
BRANCH  75  79
ATOM     79  S   UNL A   1      42.199  23.002  26.476  1.00  0.00     0.124 S 
ATOM     80  O   UNL A   1      43.261  22.744  27.441  1.00  0.00    -0.237 OA
ATOM     81  O   UNL A   1      40.844  22.686  26.914  1.00  0.00    -0.237 OA
ATOM     82  O   UNL A   1      42.506  22.633  25.096  1.00  0.00    -0.744 OA
ENDBRANCH  75  79
ENDBRANCH  48  72
BRANCH  60  83
ATOM     83  C   UNL A   1      44.434  27.372  34.066  1.00  0.00     0.023 A 
ATOM     84  C   UNL A   1      44.293  26.168  34.777  1.00  0.00     0.031 A 
ATOM     85  C   UNL A   1      45.724  27.923  33.945  1.00  0.00     0.131 A 
ATOM     86  C   UNL A   1      45.419  25.566  35.360  1.00  0.00     0.055 A 
ATOM     87  C   UNL A   1      46.846  27.292  34.483  1.00  0.00     0.041 A 
ATOM     88  F   UNL A   1      45.917  29.068  33.272  1.00  0.00    -0.206 F 
ATOM     89  C   UNL A   1      46.696  26.110  35.201  1.00  0.00     0.022 A 
BRANCH  86  90
ATOM     90  S   UNL A   1      45.187  24.077  36.368  1.00  0.00     0.124 S 
ATOM     91  O   UNL A   1      44.562  23.163  35.418  1.00  0.00    -0.237 OA
ATOM     92  O   UNL A   1      46.552  23.749  36.765  1.00  0.00    -0.237 OA
ATOM     93  O   UNL A   1      44.319  24.528  37.455  1.00  0.00    -0.744 OA
ENDBRANCH  86  90
ENDBRANCH  60  83
ENDBRANCH  34  35
ENDBRANCH  27  29
ENDBRANCH  26  27
ENDBRANCH  25  26
ENDBRANCH  24  25
ENDBRANCH  23  24
ENDBRANCH  22  23
ENDBRANCH   1  22
TORSDOF 23
ENDMDL
MODEL 2
REMARK VINA RESULT:     -10.2      1.138      7.542
REMARK SMILES C[C@@H](Sc1nc2c(cc1C#N)CCC2)C(=O)OCCOCCOCCOC(=O)c1ccc(-c2c3nc(c(-c4cc(S(=O)(=O)[O-])ccc4F)c4ccc([nH]4)c(-c4cc(S(=O)(=O)[O-])ccc4F)c4nc(c(-c5cc(S(=O)(=O)[O-])ccc5F)c5ccc2[nH]5)C=C4)C=C3)cc1
REMARK SMILES IDX 21 1 20 2 19 3 18 4 17 5 15 6 16 7 2 8 1 9 3 10 4 11 5 12
REMARK SMILES IDX 9 13 6 14 8 15 7 16 14 17 12 18 13 19 10 20 11 21 22 22
REMARK SMILES IDX 23 23 24 24 25 25 26 26 27 27 28 28 29 29 30 30 91 31 31 32
REMARK SMILES IDX 90 33 32 34 33 35 34 36 84 37 35 38 89 39 83 40 85 41 36 42
REMARK SMILES IDX 88 43 82 44 81 45 37 47 69 48 49 49 68 50 50 51 53 52 67 53
REMARK SMILES IDX 86 54 51 55 52 56 66 58 87 59 54 60 38 61 39 62 47 63 40 64
REMARK SMILES IDX 46 65 48 66 45 67 41 68 42 69 43 70 44 71 70 72 71 73 79 74
REMARK SMILES IDX 72 75 78 76 80 77 77 78 73 79 74 80 75 81 76 82 55 83 56 84
REMARK SMILES IDX 64 85 57 86 63 87 65 88 62 89 58 90 59 91 60 92 61 93
REMARK H PARENT 85 46 53 57
REMARK Flexibility Score: inf
ROOT
ATOM      1  C   UNL A   1      32.758  28.211  24.147  1.00  0.00     0.188 C 
ENDROOT
BRANCH   1   2
ATOM      2  O   UNL A   1      32.674  28.114  22.729  1.00  0.00    -0.376 OA
BRANCH   2   3
ATOM      3  C   UNL A   1      33.114  26.895  22.134  1.00  0.00     0.202 C 
BRANCH   3   4
ATOM      4  C   UNL A   1      32.020  25.941  21.628  1.00  0.00     0.261 C 
BRANCH   4   5
ATOM      5  O   UNL A   1      32.093  24.616  22.192  1.00  0.00    -0.462 OA
BRANCH   5   6
ATOM      6  C   UNL A   1      31.261  24.299  23.230  1.00  0.00     0.319 C 
ATOM      7  O   UNL A   1      30.570  25.122  23.819  1.00  0.00    -0.251 OA
BRANCH   6   8
ATOM      8  C   UNL A   1      31.196  22.773  23.492  1.00  0.00     0.160 C 
ATOM      9  C   UNL A   1      32.266  21.971  22.752  1.00  0.00     0.032 C 
BRANCH   8  10
ATOM     10  S   UNL A   1      31.404  22.498  25.290  1.00  0.00    -0.090 SA
BRANCH  10  11
ATOM     11  C   UNL A   1      33.051  21.847  25.556  1.00  0.00     0.115 A 
ATOM     12  N   UNL A   1      33.906  22.897  25.724  1.00  0.00    -0.245 NA
ATOM     13  C   UNL A   1      33.546  20.537  25.391  1.00  0.00     0.085 A 
ATOM     14  C   UNL A   1      35.220  22.655  25.633  1.00  0.00     0.045 A 
ATOM     15  C   UNL A   1      34.940  20.331  25.300  1.00  0.00     0.028 A 
ATOM     16  C   UNL A   1      35.773  21.418  25.379  1.00  0.00    -0.025 A 
ATOM     17  C   UNL A   1      36.286  23.704  25.739  1.00  0.00     0.057 C 
ATOM     18  C   UNL A   1      37.252  21.498  25.218  1.00  0.00     0.038 C 
ATOM     19  C   UNL A   1      37.434  23.009  24.993  1.00  0.00     0.011 C 
BRANCH  13  20
ATOM     20  C   UNL A   1      32.778  19.352  25.237  1.00  0.00     0.102 C 
ATOM     21  N   UNL A   1      32.156  18.398  24.985  1.00  0.00    -0.192 NA
ENDBRANCH  13  20
ENDBRANCH  10  11
ENDBRANCH   8  10
ENDBRANCH   6   8
ENDBRANCH   5   6
ENDBRANCH   4   5
ENDBRANCH   3   4
ENDBRANCH   2   3
ENDBRANCH   1   2
BRANCH   1  22
ATOM     22  C   UNL A   1      31.423  28.240  24.887  1.00  0.00     0.188 C 
BRANCH  22  23
ATOM     23  O   UNL A   1      31.425  27.808  26.231  1.00  0.00    -0.376 OA
BRANCH  23  24
ATOM     24  C   UNL A   1      31.642  28.801  27.233  1.00  0.00     0.202 C 
BRANCH  24  25
ATOM     25  C   UNL A   1      31.786  30.310  26.872  1.00  0.00     0.261 C 
BRANCH  25  26
ATOM     26  O   UNL A   1      33.082  30.852  26.522  1.00  0.00    -0.460 OA
BRANCH  26  27
ATOM     27  C   UNL A   1      33.578  31.869  27.272  1.00  0.00     0.338 C 
ATOM     28  O   UNL A   1      32.951  32.854  27.619  1.00  0.00    -0.246 OA
BRANCH  27  29
ATOM     29  C   UNL A   1      34.894  31.447  27.864  1.00  0.00     0.060 A 
ATOM     30  C   UNL A   1      35.060  30.098  28.219  1.00  0.00     0.016 A 
ATOM     31  C   UNL A   1      35.977  32.320  28.010  1.00  0.00     0.016 A 
ATOM     32  C   UNL A   1      36.274  29.630  28.744  1.00  0.00     0.010 A 
ATOM     33  C   UNL A   1      37.184  31.858  28.573  1.00  0.00     0.010 A 
ATOM     34  C   UNL A   1      37.333  30.516  28.973  1.00  0.00    -0.014 A 
BRANCH  34  35
ATOM     35  C   UNL A   1      38.489  30.097  29.824  1.00  0.00     0.031 A 
ATOM     36  C   UNL A   1      39.459  29.087  29.258  1.00  0.00     0.074 A 
ATOM     37  C   UNL A   1      38.723  30.615  31.047  1.00  0.00     0.049 A 
ATOM     38  N   UNL A   1      40.497  28.521  29.817  1.00  0.00    -0.248 NA
ATOM     39  C   UNL A   1      39.221  28.663  27.868  1.00  0.00     0.031 C 
ATOM     40  C   UNL A   1      37.925  31.654  31.694  1.00  0.00     0.029 A 
ATOM     41  N   UNL A   1      39.711  30.336  31.965  1.00  0.00    -0.354 N 
ATOM     42  C   UNL A   1      41.033  27.673  28.852  1.00  0.00     0.074 A 
ATOM     43  C   UNL A   1      40.185  27.772  27.685  1.00  0.00     0.031 C 
ATOM     44  C   UNL A   1      38.452  31.923  32.902  1.00  0.00     0.029 A 
ATOM     45  C   UNL A   1      39.603  31.049  33.139  1.00  0.00     0.049 A 
ATOM     46  H   UNL A   1      40.431  29.685  31.798  1.00  0.00     0.167 HD
ATOM     47  C   UNL A   1      42.138  26.892  28.924  1.00  0.00     0.034 A 
ATOM     48  C   UNL A   1      40.326  30.991  34.280  1.00  0.00     0.034 A 
ATOM     49  C   UNL A   1      42.986  26.793  30.084  1.00  0.00     0.049 A 
ATOM     50  C   UNL A   1      41.484  30.023  34.383  1.00  0.00     0.074 A 
ATOM     51  C   UNL A   1      44.128  26.027  30.246  1.00  0.00     0.029 A 
ATOM     52  N   UNL A   1      42.789  27.469  31.278  1.00  0.00    -0.354 N 
ATOM     53  N   UNL A   1      41.960  29.207  33.471  1.00  0.00    -0.248 NA
ATOM     54  C   UNL A   1      42.199  29.964  35.668  1.00  0.00     0.031 C 
ATOM     55  C   UNL A   1      44.574  26.178  31.561  1.00  0.00     0.029 A 
ATOM     56  C   UNL A   1      43.763  27.107  32.193  1.00  0.00     0.049 A 
ATOM     57  H   UNL A   1      42.062  28.113  31.450  1.00  0.00     0.167 HD
ATOM     58  C   UNL A   1      43.043  28.561  34.065  1.00  0.00     0.074 A 
ATOM     59  C   UNL A   1      43.158  29.085  35.409  1.00  0.00     0.031 C 
ATOM     60  C   UNL A   1      43.871  27.623  33.537  1.00  0.00     0.034 A 
BRANCH  47  61
ATOM     61  C   UNL A   1      42.482  26.048  27.722  1.00  0.00     0.023 A 
ATOM     62  C   UNL A   1      42.143  24.687  27.656  1.00  0.00     0.031 A 
ATOM     63  C   UNL A   1      43.118  26.628  26.609  1.00  0.00     0.131 A 
ATOM     64  C   UNL A   1      42.472  23.941  26.515  1.00  0.00     0.055 A 
ATOM     65  C   UNL A   1      43.385  25.896  25.452  1.00  0.00     0.041 A 
ATOM     66  F   UNL A   1      43.478  27.921  26.626  1.00  0.00    -0.206 F 
ATOM     67  C   UNL A   1      43.067  24.542  25.403  1.00  0.00     0.022 A 
BRANCH  64  68
ATOM     68  S   UNL A   1      42.178  22.152  26.532  1.00  0.00     0.124 S 
ATOM     69  O   UNL A   1      40.914  22.053  25.808  1.00  0.00    -0.237 OA
ATOM     70  O   UNL A   1      43.353  21.632  25.841  1.00  0.00    -0.237 OA
ATOM     71  O   UNL A   1      42.101  21.831  27.956  1.00  0.00    -0.744 OA
ENDBRANCH  64  68
ENDBRANCH  47  61
BRANCH  48  72
ATOM     72  C   UNL A   1      39.965  31.856  35.443  1.00  0.00     0.023 A 
ATOM     73  C   UNL A   1      38.983  31.461  36.366  1.00  0.00     0.031 A 
ATOM     74  C   UNL A   1      40.586  33.103  35.636  1.00  0.00     0.131 A 
ATOM     75  C   UNL A   1      38.643  32.309  37.434  1.00  0.00     0.055 A 
ATOM     76  C   UNL A   1      40.276  33.924  36.724  1.00  0.00     0.041 A 
ATOM     77  F   UNL A   1      41.521  33.536  34.775  1.00  0.00    -0.206 F 
ATOM     78  C   UNL A   1      39.296  33.529  37.628  1.00  0.00     0.022 A 
BRANCH  75  79
ATOM     79  S   UNL A   1      37.306  31.811  38.555  1.00  0.00     0.124 S 
ATOM     80  O   UNL A   1      36.277  32.798  38.249  1.00  0.00    -0.237 OA
ATOM     81  O   UNL A   1      37.035  30.445  38.119  1.00  0.00    -0.237 OA
ATOM     82  O   UNL A   1      37.910  31.929  39.880  1.00  0.00    -0.744 OA
ENDBRANCH  75  79
ENDBRANCH  48  72
BRANCH  60  83
ATOM     83  C   UNL A   1      45.001  27.107  34.394  1.00  0.00     0.023 A 
ATOM     84  C   UNL A   1      44.875  25.925  35.144  1.00  0.00     0.031 A 
ATOM     85  C   UNL A   1      46.244  27.767  34.403  1.00  0.00     0.131 A 
ATOM     86  C   UNL A   1      45.965  25.452  35.890  1.00  0.00     0.055 A 
ATOM     87  C   UNL A   1      47.340  27.263  35.106  1.00  0.00     0.041 A 
ATOM     88  F   UNL A   1      46.422  28.897  33.700  1.00  0.00    -0.206 F 
ATOM     89  C   UNL A   1      47.201  26.102  35.860  1.00  0.00     0.022 A 
BRANCH  86  90
ATOM     90  S   UNL A   1      45.735  23.990  36.938  1.00  0.00     0.124 S 
ATOM     91  O   UNL A   1      45.268  24.583  38.187  1.00  0.00    -0.237 OA
ATOM     92  O   UNL A   1      44.747  23.219  36.189  1.00  0.00    -0.237 OA
ATOM     93  O   UNL A   1      47.069  23.394  36.995  1.00  0.00    -0.744 OA
ENDBRANCH  86  90
ENDBRANCH  60  83
ENDBRANCH  34  35
ENDBRANCH  27  29
ENDBRANCH  26  27
ENDBRANCH  25  26
ENDBRANCH  24  25
ENDBRANCH  23  24
ENDBRANCH  22  23
ENDBRANCH   1  22
TORSDOF 23
ENDMDL
MODEL 3
REMARK VINA RESULT:      -9.9      4.964      7.779
REMARK SMILES C[C@@H](Sc1nc2c(cc1C#N)CCC2)C(=O)OCCOCCOCCOC(=O)c1ccc(-c2c3nc(c(-c4cc(S(=O)(=O)[O-])ccc4F)c4ccc([nH]4)c(-c4cc(S(=O)(=O)[O-])ccc4F)c4nc(c(-c5cc(S(=O)(=O)[O-])ccc5F)c5ccc2[nH]5)C=C4)C=C3)cc1
REMARK SMILES IDX 21 1 20 2 19 3 18 4 17 5 15 6 16 7 2 8 1 9 3 10 4 11 5 12
REMARK SMILES IDX 9 13 6 14 8 15 7 16 14 17 12 18 13 19 10 20 11 21 22 22
REMARK SMILES IDX 23 23 24 24 25 25 26 26 27 27 28 28 29 29 30 30 91 31 31 32
REMARK SMILES IDX 90 33 32 34 33 35 34 36 84 37 35 38 89 39 83 40 85 41 36 42
REMARK SMILES IDX 88 43 82 44 81 45 37 47 69 48 49 49 68 50 50 51 53 52 67 53
REMARK SMILES IDX 86 54 51 55 52 56 66 58 87 59 54 60 38 61 39 62 47 63 40 64
REMARK SMILES IDX 46 65 48 66 45 67 41 68 42 69 43 70 44 71 70 72 71 73 79 74
REMARK SMILES IDX 72 75 78 76 80 77 77 78 73 79 74 80 75 81 76 82 55 83 56 84
REMARK SMILES IDX 64 85 57 86 63 87 65 88 62 89 58 90 59 91 60 92 61 93
REMARK H PARENT 85 46 53 57
REMARK Flexibility Score: inf
ROOT
ATOM      1  C   UNL A   1      34.904  32.859  28.439  1.00  0.00     0.188 C 
ENDROOT
BRANCH   1   2
ATOM      2  O   UNL A   1      34.120  31.671  28.458  1.00  0.00    -0.376 OA
BRANCH   2   3
ATOM      3  C   UNL A   1      33.947  30.987  27.219  1.00  0.00     0.202 C 
BRANCH   3   4
ATOM      4  C   UNL A   1      32.668  30.145  27.070  1.00  0.00     0.261 C 
BRANCH   4   5
ATOM      5  O   UNL A   1      32.910  28.726  26.995  1.00  0.00    -0.462 OA
BRANCH   5   6
ATOM      6  C   UNL A   1      31.843  27.875  27.078  1.00  0.00     0.319 C 
ATOM      7  O   UNL A   1      31.077  27.839  28.034  1.00  0.00    -0.251 OA
BRANCH   6   8
ATOM      8  C   UNL A   1      31.636  27.055  25.778  1.00  0.00     0.160 C 
ATOM      9  C   UNL A   1      31.021  27.856  24.632  1.00  0.00     0.032 C 
BRANCH   8  10
ATOM     10  S   UNL A   1      33.269  26.429  25.238  1.00  0.00    -0.090 SA
BRANCH  10  11
ATOM     11  C   UNL A   1      33.028  24.787  24.566  1.00  0.00     0.115 A 
ATOM     12  N   UNL A   1      32.977  23.901  25.603  1.00  0.00    -0.245 NA
ATOM     13  C   UNL A   1      33.117  24.329  23.234  1.00  0.00     0.085 A 
ATOM     14  C   UNL A   1      33.106  22.598  25.320  1.00  0.00     0.045 A 
ATOM     15  C   UNL A   1      33.253  22.947  22.986  1.00  0.00     0.028 A 
ATOM     16  C   UNL A   1      33.292  22.086  24.053  1.00  0.00    -0.025 A 
ATOM     17  C   UNL A   1      33.125  21.504  26.346  1.00  0.00     0.057 C 
ATOM     18  C   UNL A   1      33.522  20.614  24.083  1.00  0.00     0.038 C 
ATOM     19  C   UNL A   1      33.867  20.408  25.568  1.00  0.00     0.011 C 
BRANCH  13  20
ATOM     20  C   UNL A   1      33.149  25.131  22.062  1.00  0.00     0.102 C 
ATOM     21  N   UNL A   1      33.247  25.697  21.047  1.00  0.00    -0.192 NA
ENDBRANCH  13  20
ENDBRANCH  10  11
ENDBRANCH   8  10
ENDBRANCH   6   8
ENDBRANCH   5   6
ENDBRANCH   4   5
ENDBRANCH   3   4
ENDBRANCH   2   3
ENDBRANCH   1   2
BRANCH   1  22
ATOM     22  C   UNL A   1      35.100  33.542  29.790  1.00  0.00     0.188 C 
BRANCH  22  23
ATOM     23  O   UNL A   1      33.996  33.551  30.671  1.00  0.00    -0.376 OA
BRANCH  23  24
ATOM     24  C   UNL A   1      34.040  34.474  31.759  1.00  0.00     0.202 C 
BRANCH  24  25
ATOM     25  C   UNL A   1      34.846  34.170  33.058  1.00  0.00     0.261 C 
BRANCH  25  26
ATOM     26  O   UNL A   1      36.275  33.955  32.990  1.00  0.00    -0.460 OA
BRANCH  26  27
ATOM     27  C   UNL A   1      36.789  32.853  33.595  1.00  0.00     0.338 C 
ATOM     28  O   UNL A   1      36.398  32.387  34.651  1.00  0.00    -0.246 OA
BRANCH  27  29
ATOM     29  C   UNL A   1      37.680  32.129  32.624  1.00  0.00     0.060 A 
ATOM     30  C   UNL A   1      38.351  30.978  33.071  1.00  0.00     0.016 A 
ATOM     31  C   UNL A   1      37.814  32.510  31.285  1.00  0.00     0.016 A 
ATOM     32  C   UNL A   1      39.170  30.235  32.208  1.00  0.00     0.010 A 
ATOM     33  C   UNL A   1      38.667  31.785  30.428  1.00  0.00     0.010 A 
ATOM     34  C   UNL A   1      39.377  30.659  30.891  1.00  0.00    -0.014 A 
BRANCH  34  35
ATOM     35  C   UNL A   1      40.487  30.071  30.080  1.00  0.00     0.031 A 
ATOM     36  C   UNL A   1      41.726  30.906  29.860  1.00  0.00     0.074 A 
ATOM     37  C   UNL A   1      40.445  28.819  29.583  1.00  0.00     0.049 A 
ATOM     38  N   UNL A   1      42.791  30.648  29.146  1.00  0.00    -0.248 NA
ATOM     39  C   UNL A   1      41.762  32.211  30.541  1.00  0.00     0.031 C 
ATOM     40  C   UNL A   1      39.356  27.865  29.779  1.00  0.00     0.029 A 
ATOM     41  N   UNL A   1      41.353  28.129  28.808  1.00  0.00    -0.354 N 
ATOM     42  C   UNL A   1      43.622  31.756  29.289  1.00  0.00     0.074 A 
ATOM     43  C   UNL A   1      42.921  32.703  30.128  1.00  0.00     0.031 C 
ATOM     44  C   UNL A   1      39.657  26.719  29.142  1.00  0.00     0.029 A 
ATOM     45  C   UNL A   1      40.941  26.864  28.454  1.00  0.00     0.049 A 
ATOM     46  H   UNL A   1      42.219  28.509  28.531  1.00  0.00     0.167 HD
ATOM     47  C   UNL A   1      44.861  31.963  28.780  1.00  0.00     0.034 A 
ATOM     48  C   UNL A   1      41.515  25.937  27.653  1.00  0.00     0.034 A 
ATOM     49  C   UNL A   1      45.562  31.021  27.947  1.00  0.00     0.049 A 
ATOM     50  C   UNL A   1      42.844  26.237  26.997  1.00  0.00     0.074 A 
ATOM     51  C   UNL A   1      46.822  31.146  27.387  1.00  0.00     0.029 A 
ATOM     52  N   UNL A   1      45.070  29.787  27.547  1.00  0.00    -0.354 N 
ATOM     53  N   UNL A   1      43.603  27.301  27.120  1.00  0.00    -0.248 NA
ATOM     54  C   UNL A   1      43.393  25.215  26.091  1.00  0.00     0.031 C 
ATOM     55  C   UNL A   1      47.059  30.027  26.586  1.00  0.00     0.029 A 
ATOM     56  C   UNL A   1      45.985  29.162  26.715  1.00  0.00     0.049 A 
ATOM     57  H   UNL A   1      44.199  29.412  27.814  1.00  0.00     0.167 HD
ATOM     58  C   UNL A   1      44.727  27.063  26.330  1.00  0.00     0.074 A 
ATOM     59  C   UNL A   1      44.553  25.753  25.741  1.00  0.00     0.031 C 
ATOM     60  C   UNL A   1      45.807  27.858  26.120  1.00  0.00     0.034 A 
BRANCH  47  61
ATOM     61  C   UNL A   1      45.533  33.279  29.082  1.00  0.00     0.023 A 
ATOM     62  C   UNL A   1      45.196  34.454  28.390  1.00  0.00     0.031 A 
ATOM     63  C   UNL A   1      46.493  33.365  30.106  1.00  0.00     0.131 A 
ATOM     64  C   UNL A   1      45.838  35.659  28.708  1.00  0.00     0.055 A 
ATOM     65  C   UNL A   1      47.082  34.579  30.461  1.00  0.00     0.041 A 
ATOM     66  F   UNL A   1      46.864  32.269  30.788  1.00  0.00    -0.206 F 
ATOM     67  C   UNL A   1      46.760  35.734  29.756  1.00  0.00     0.022 A 
BRANCH  64  68
ATOM     68  S   UNL A   1      45.508  37.117  27.683  1.00  0.00     0.124 S 
ATOM     69  O   UNL A   1      44.367  36.668  26.890  1.00  0.00    -0.237 OA
ATOM     70  O   UNL A   1      45.228  38.147  28.678  1.00  0.00    -0.237 OA
ATOM     71  O   UNL A   1      46.749  37.297  26.933  1.00  0.00    -0.744 OA
ENDBRANCH  64  68
ENDBRANCH  47  61
BRANCH  48  72
ATOM     72  C   UNL A   1      40.825  24.638  27.394  1.00  0.00     0.023 A 
ATOM     73  C   UNL A   1      39.620  24.585  26.675  1.00  0.00     0.031 A 
ATOM     74  C   UNL A   1      41.354  23.429  27.880  1.00  0.00     0.131 A 
ATOM     75  C   UNL A   1      38.978  23.351  26.472  1.00  0.00     0.055 A 
ATOM     76  C   UNL A   1      40.736  22.200  27.638  1.00  0.00     0.041 A 
ATOM     77  F   UNL A   1      42.497  23.424  28.586  1.00  0.00    -0.206 F 
ATOM     78  C   UNL A   1      39.538  22.157  26.933  1.00  0.00     0.022 A 
BRANCH  75  79
ATOM     79  S   UNL A   1      37.376  23.329  25.619  1.00  0.00     0.124 S 
ATOM     80  O   UNL A   1      37.756  23.703  24.262  1.00  0.00    -0.237 OA
ATOM     81  O   UNL A   1      36.949  21.947  25.808  1.00  0.00    -0.237 OA
ATOM     82  O   UNL A   1      36.590  24.324  26.344  1.00  0.00    -0.744 OA
ENDBRANCH  75  79
ENDBRANCH  48  72
BRANCH  60  83
ATOM     83  C   UNL A   1      46.913  27.338  25.235  1.00  0.00     0.023 A 
ATOM     84  C   UNL A   1      47.056  27.770  23.906  1.00  0.00     0.031 A 
ATOM     85  C   UNL A   1      47.879  26.455  25.753  1.00  0.00     0.131 A 
ATOM     86  C   UNL A   1      48.127  27.300  23.131  1.00  0.00     0.055 A 
ATOM     87  C   UNL A   1      48.971  26.032  24.992  1.00  0.00     0.041 A 
ATOM     88  F   UNL A   1      47.795  26.015  27.018  1.00  0.00    -0.206 F 
ATOM     89  C   UNL A   1      49.096  26.450  23.672  1.00  0.00     0.022 A 
BRANCH  86  90
ATOM     90  S   UNL A   1      48.219  27.785  21.386  1.00  0.00     0.124 S 
ATOM     91  O   UNL A   1      49.200  28.864  21.423  1.00  0.00    -0.237 OA
ATOM     92  O   UNL A   1      48.653  26.550  20.739  1.00  0.00    -0.237 OA
ATOM     93  O   UNL A   1      46.852  28.199  21.071  1.00  0.00    -0.744 OA
ENDBRANCH  86  90
ENDBRANCH  60  83
ENDBRANCH  34  35
ENDBRANCH  27  29
ENDBRANCH  26  27
ENDBRANCH  25  26
ENDBRANCH  24  25
ENDBRANCH  23  24
ENDBRANCH  22  23
ENDBRANCH   1  22
TORSDOF 23
ENDMDL
