MODEL 1
REMARK VINA RESULT:      -7.6      0.000      0.000
REMARK SMILES O=C(OCCOCCOCCOC(=O)c1cc(OC[C@@H]2Cc3cc(F)ccc3O2)cs1)c1ccc(-c2c3nc(c(-c4cc(S(=O)(=O)[O-])ccc4F)c4ccc([nH]4)c(-c4cc(S(=O)(=O)[O-])ccc4F)c4nc(c(-c5cc(S(=O)(=O)[O-])ccc5F)c5ccc2[nH]5)C=C4)C=C3)cc1
REMARK SMILES IDX 7 1 6 2 5 3 4 4 3 5 2 6 1 7 32 8 33 9 94 10 34 11 93 12
REMARK SMILES IDX 35 13 36 14 37 15 87 16 38 17 92 18 86 19 88 20 39 21 91 22
REMARK SMILES IDX 85 23 84 24 40 26 72 27 52 28 71 29 53 30 56 31 70 32 89 33
REMARK SMILES IDX 54 34 55 35 69 37 90 38 57 39 41 40 42 41 50 42 43 43 49 44
REMARK SMILES IDX 51 45 48 46 44 47 45 48 46 49 47 50 73 51 74 52 82 53 75 54
REMARK SMILES IDX 81 55 83 56 80 57 76 58 77 59 78 60 79 61 58 62 59 63 67 64
REMARK SMILES IDX 60 65 66 66 68 67 65 68 61 69 62 70 63 71 64 72 8 73 9 74
REMARK SMILES IDX 10 75 11 76 12 77 13 78 14 79 15 80 16 81 31 82 17 83 30 84
REMARK SMILES IDX 18 85 19 86 20 87 21 88 29 89 22 90 28 91 23 92 27 93 24 94
REMARK SMILES IDX 26 95 25 96
REMARK H PARENT 88 25 56 36
REMARK Flexibility Score: inf
ROOT
ATOM      1  C   UNL A   1      34.033  34.276  32.868  1.00  0.00     0.188 C 
ENDROOT
BRANCH   1   2
ATOM      2  O   UNL A   1      32.983  34.838  32.090  1.00  0.00    -0.376 OA
BRANCH   2   3
ATOM      3  C   UNL A   1      33.258  36.011  31.341  1.00  0.00     0.202 C 
BRANCH   3   4
ATOM      4  C   UNL A   1      32.940  35.979  29.843  1.00  0.00     0.261 C 
BRANCH   4   5
ATOM      5  O   UNL A   1      32.648  34.682  29.309  1.00  0.00    -0.460 OA
BRANCH   5   6
ATOM      6  C   UNL A   1      33.491  33.855  28.640  1.00  0.00     0.338 C 
ATOM      7  O   UNL A   1      33.029  33.201  27.704  1.00  0.00    -0.246 OA
BRANCH   6   8
ATOM      8  C   UNL A   1      34.892  33.538  29.093  1.00  0.00     0.060 A 
ATOM      9  C   UNL A   1      35.027  32.524  30.066  1.00  0.00     0.016 A 
ATOM     10  C   UNL A   1      36.064  34.136  28.631  1.00  0.00     0.016 A 
ATOM     11  C   UNL A   1      36.281  32.132  30.565  1.00  0.00     0.010 A 
ATOM     12  C   UNL A   1      37.316  33.753  29.133  1.00  0.00     0.010 A 
ATOM     13  C   UNL A   1      37.442  32.754  30.104  1.00  0.00    -0.014 A 
BRANCH  13  14
ATOM     14  C   UNL A   1      38.804  32.298  30.479  1.00  0.00     0.031 A 
ATOM     15  C   UNL A   1      39.665  33.045  31.453  1.00  0.00     0.074 A 
ATOM     16  C   UNL A   1      39.312  31.233  29.834  1.00  0.00     0.049 A 
ATOM     17  N   UNL A   1      40.934  32.877  31.730  1.00  0.00    -0.248 NA
ATOM     18  C   UNL A   1      39.014  34.112  32.217  1.00  0.00     0.031 C 
ATOM     19  C   UNL A   1      38.567  30.405  28.889  1.00  0.00     0.029 A 
ATOM     20  N   UNL A   1      40.571  30.688  29.851  1.00  0.00    -0.354 N 
ATOM     21  C   UNL A   1      41.254  33.859  32.665  1.00  0.00     0.074 A 
ATOM     22  C   UNL A   1      40.024  34.549  32.958  1.00  0.00     0.031 C 
ATOM     23  C   UNL A   1      39.391  29.471  28.393  1.00  0.00     0.029 A 
ATOM     24  C   UNL A   1      40.729  29.656  28.959  1.00  0.00     0.049 A 
ATOM     25  H   UNL A   1      41.290  31.005  30.443  1.00  0.00     0.167 HD
ATOM     26  C   UNL A   1      42.464  34.176  33.191  1.00  0.00     0.034 A 
ATOM     27  C   UNL A   1      41.823  28.944  28.619  1.00  0.00     0.034 A 
ATOM     28  C   UNL A   1      43.667  33.432  32.916  1.00  0.00     0.049 A 
ATOM     29  C   UNL A   1      43.130  29.209  29.319  1.00  0.00     0.074 A 
ATOM     30  C   UNL A   1      44.935  33.647  33.429  1.00  0.00     0.029 A 
ATOM     31  N   UNL A   1      43.751  32.332  32.085  1.00  0.00    -0.354 N 
ATOM     32  N   UNL A   1      43.419  30.156  30.177  1.00  0.00    -0.248 NA
ATOM     33  C   UNL A   1      44.254  28.302  29.035  1.00  0.00     0.031 C 
ATOM     34  C   UNL A   1      45.804  32.735  32.840  1.00  0.00     0.029 A 
ATOM     35  C   UNL A   1      45.049  31.859  32.076  1.00  0.00     0.049 A 
ATOM     36  H   UNL A   1      43.002  31.943  31.578  1.00  0.00     0.167 HD
ATOM     37  C   UNL A   1      44.740  29.940  30.558  1.00  0.00     0.074 A 
ATOM     38  C   UNL A   1      45.195  28.767  29.849  1.00  0.00     0.031 C 
ATOM     39  C   UNL A   1      45.497  30.660  31.419  1.00  0.00     0.034 A 
BRANCH  26  40
ATOM     40  C   UNL A   1      42.637  35.381  34.090  1.00  0.00     0.023 A 
ATOM     41  C   UNL A   1      43.056  36.602  33.516  1.00  0.00     0.031 A 
ATOM     42  C   UNL A   1      42.596  35.294  35.489  1.00  0.00     0.131 A 
ATOM     43  C   UNL A   1      43.464  37.667  34.330  1.00  0.00     0.055 A 
ATOM     44  C   UNL A   1      42.971  36.371  36.299  1.00  0.00     0.041 A 
ATOM     45  F   UNL A   1      42.206  34.160  36.092  1.00  0.00    -0.206 F 
ATOM     46  C   UNL A   1      43.427  37.556  35.722  1.00  0.00     0.022 A 
BRANCH  43  47
ATOM     47  S   UNL A   1      43.968  39.255  33.615  1.00  0.00     0.124 S 
ATOM     48  O   UNL A   1      43.808  40.152  34.759  1.00  0.00    -0.237 OA
ATOM     49  O   UNL A   1      45.344  38.994  33.206  1.00  0.00    -0.237 OA
ATOM     50  O   UNL A   1      43.012  39.476  32.536  1.00  0.00    -0.744 OA
ENDBRANCH  43  47
ENDBRANCH  26  40
BRANCH  27  51
ATOM     51  C   UNL A   1      41.661  27.852  27.621  1.00  0.00     0.023 A 
ATOM     52  C   UNL A   1      41.440  26.525  28.036  1.00  0.00     0.031 A 
ATOM     53  C   UNL A   1      41.916  28.093  26.262  1.00  0.00     0.131 A 
ATOM     54  C   UNL A   1      41.565  25.482  27.112  1.00  0.00     0.055 A 
ATOM     55  C   UNL A   1      41.964  27.056  25.331  1.00  0.00     0.041 A 
ATOM     56  F   UNL A   1      42.157  29.340  25.830  1.00  0.00    -0.206 F 
ATOM     57  C   UNL A   1      41.811  25.740  25.759  1.00  0.00     0.022 A 
BRANCH  54  58
ATOM     58  S   UNL A   1      41.608  23.754  27.669  1.00  0.00     0.124 S 
ATOM     59  O   UNL A   1      42.338  23.106  26.584  1.00  0.00    -0.237 OA
ATOM     60  O   UNL A   1      42.326  23.863  28.936  1.00  0.00    -0.237 OA
ATOM     61  O   UNL A   1      40.199  23.396  27.788  1.00  0.00    -0.744 OA
ENDBRANCH  54  58
ENDBRANCH  27  51
BRANCH  39  62
ATOM     62  C   UNL A   1      46.912  30.243  31.738  1.00  0.00     0.023 A 
ATOM     63  C   UNL A   1      47.154  29.522  32.927  1.00  0.00     0.031 A 
ATOM     64  C   UNL A   1      48.005  30.803  31.060  1.00  0.00     0.131 A 
ATOM     65  C   UNL A   1      48.451  29.453  33.447  1.00  0.00     0.055 A 
ATOM     66  C   UNL A   1      49.305  30.687  31.558  1.00  0.00     0.041 A 
ATOM     67  F   UNL A   1      47.819  31.521  29.942  1.00  0.00    -0.206 F 
ATOM     68  C   UNL A   1      49.529  30.030  32.767  1.00  0.00     0.022 A 
BRANCH  65  69
ATOM     69  S   UNL A   1      48.764  28.745  35.089  1.00  0.00     0.124 S 
ATOM     70  O   UNL A   1      50.185  29.030  35.274  1.00  0.00    -0.237 OA
ATOM     71  O   UNL A   1      47.859  29.517  35.935  1.00  0.00    -0.237 OA
ATOM     72  O   UNL A   1      48.429  27.332  34.935  1.00  0.00    -0.744 OA
ENDBRANCH  65  69
ENDBRANCH  39  62
ENDBRANCH  13  14
ENDBRANCH   6   8
ENDBRANCH   5   6
ENDBRANCH   4   5
ENDBRANCH   3   4
ENDBRANCH   2   3
ENDBRANCH   1   2
BRANCH   1  73
ATOM     73  C   UNL A   1      34.748  35.156  33.906  1.00  0.00     0.188 C 
BRANCH  73  74
ATOM     74  O   UNL A   1      36.064  34.746  34.255  1.00  0.00    -0.376 OA
BRANCH  74  75
ATOM     75  C   UNL A   1      36.171  34.014  35.471  1.00  0.00     0.202 C 
BRANCH  75  76
ATOM     76  C   UNL A   1      37.502  33.289  35.646  1.00  0.00     0.261 C 
BRANCH  76  77
ATOM     77  O   UNL A   1      37.505  31.912  35.254  1.00  0.00    -0.459 OA
BRANCH  77  78
ATOM     78  C   UNL A   1      38.181  31.017  36.024  1.00  0.00     0.348 C 
ATOM     79  O   UNL A   1      37.739  30.420  36.981  1.00  0.00    -0.245 OA
BRANCH  78  80
ATOM     80  C   UNL A   1      39.543  31.032  35.574  1.00  0.00     0.116 A 
ATOM     81  C   UNL A   1      39.967  30.584  34.348  1.00  0.00     0.074 A 
ATOM     82  S   UNL A   1      40.829  31.541  36.560  1.00  0.00    -0.133 S 
ATOM     83  C   UNL A   1      41.370  30.487  34.275  1.00  0.00     0.131 A 
ATOM     84  C   UNL A   1      41.976  31.023  35.393  1.00  0.00     0.112 A 
BRANCH  83  85
ATOM     85  O   UNL A   1      42.122  29.950  33.291  1.00  0.00    -0.489 OA
BRANCH  85  86
ATOM     86  C   UNL A   1      41.726  28.661  32.816  1.00  0.00     0.275 C 
BRANCH  86  87
ATOM     87  C   UNL A   1      42.487  27.437  33.386  1.00  0.00     0.215 C 
ATOM     88  C   UNL A   1      41.760  26.771  34.567  1.00  0.00     0.088 C 
ATOM     89  O   UNL A   1      43.860  27.717  33.760  1.00  0.00    -0.486 OA
ATOM     90  C   UNL A   1      42.789  26.879  35.622  1.00  0.00     0.001 A 
ATOM     91  C   UNL A   1      43.973  27.331  35.067  1.00  0.00     0.123 A 
ATOM     92  C   UNL A   1      42.719  26.523  36.958  1.00  0.00     0.047 A 
ATOM     93  C   UNL A   1      45.147  27.360  35.794  1.00  0.00     0.050 A 
ATOM     94  C   UNL A   1      43.887  26.593  37.712  1.00  0.00     0.123 A 
ATOM     95  C   UNL A   1      45.101  26.979  37.138  1.00  0.00     0.043 A 
ATOM     96  F   UNL A   1      43.850  26.259  39.010  1.00  0.00    -0.207 F 
ENDBRANCH  86  87
ENDBRANCH  85  86
ENDBRANCH  83  85
ENDBRANCH  78  80
ENDBRANCH  77  78
ENDBRANCH  76  77
ENDBRANCH  75  76
ENDBRANCH  74  75
ENDBRANCH  73  74
ENDBRANCH   1  73
TORSDOF 23
ENDMDL
MODEL 2
REMARK VINA RESULT:      -7.3      4.810     11.627
REMARK SMILES O=C(OCCOCCOCCOC(=O)c1cc(OC[C@@H]2Cc3cc(F)ccc3O2)cs1)c1ccc(-c2c3nc(c(-c4cc(S(=O)(=O)[O-])ccc4F)c4ccc([nH]4)c(-c4cc(S(=O)(=O)[O-])ccc4F)c4nc(c(-c5cc(S(=O)(=O)[O-])ccc5F)c5ccc2[nH]5)C=C4)C=C3)cc1
REMARK SMILES IDX 7 1 6 2 5 3 4 4 3 5 2 6 1 7 32 8 33 9 94 10 34 11 93 12
REMARK SMILES IDX 35 13 36 14 37 15 87 16 38 17 92 18 86 19 88 20 39 21 91 22
REMARK SMILES IDX 85 23 84 24 40 26 72 27 52 28 71 29 53 30 56 31 70 32 89 33
REMARK SMILES IDX 54 34 55 35 69 37 90 38 57 39 41 40 42 41 50 42 43 43 49 44
REMARK SMILES IDX 51 45 48 46 44 47 45 48 46 49 47 50 73 51 74 52 82 53 75 54
REMARK SMILES IDX 81 55 83 56 80 57 76 58 77 59 78 60 79 61 58 62 59 63 67 64
REMARK SMILES IDX 60 65 66 66 68 67 65 68 61 69 62 70 63 71 64 72 8 73 9 74
REMARK SMILES IDX 10 75 11 76 12 77 13 78 14 79 15 80 16 81 31 82 17 83 30 84
REMARK SMILES IDX 18 85 19 86 20 87 21 88 29 89 22 90 28 91 23 92 27 93 24 94
REMARK SMILES IDX 26 95 25 96
REMARK H PARENT 88 25 56 36
REMARK Flexibility Score: inf
ROOT
ATOM      1  C   UNL A   1      40.002  22.627  27.281  1.00  0.00     0.188 C 
ENDROOT
BRANCH   1   2
ATOM      2  O   UNL A   1      41.103  21.915  27.833  1.00  0.00    -0.376 OA
BRANCH   2   3
ATOM      3  C   UNL A   1      41.585  20.778  27.133  1.00  0.00     0.202 C 
BRANCH   3   4
ATOM      4  C   UNL A   1      42.792  20.980  26.211  1.00  0.00     0.261 C 
BRANCH   4   5
ATOM      5  O   UNL A   1      42.595  21.918  25.147  1.00  0.00    -0.460 OA
BRANCH   5   6
ATOM      6  C   UNL A   1      43.400  22.956  24.801  1.00  0.00     0.338 C 
ATOM      7  O   UNL A   1      44.169  22.792  23.853  1.00  0.00    -0.246 OA
BRANCH   6   8
ATOM      8  C   UNL A   1      43.552  24.209  25.621  1.00  0.00     0.060 A 
ATOM      9  C   UNL A   1      43.211  25.424  24.987  1.00  0.00     0.016 A 
ATOM     10  C   UNL A   1      43.978  24.282  26.947  1.00  0.00     0.016 A 
ATOM     11  C   UNL A   1      43.303  26.661  25.648  1.00  0.00     0.010 A 
ATOM     12  C   UNL A   1      44.079  25.516  27.606  1.00  0.00     0.010 A 
ATOM     13  C   UNL A   1      43.749  26.716  26.969  1.00  0.00    -0.014 A 
BRANCH  13  14
ATOM     14  C   UNL A   1      43.737  27.966  27.772  1.00  0.00     0.031 A 
ATOM     15  C   UNL A   1      42.486  28.517  28.385  1.00  0.00     0.074 A 
ATOM     16  C   UNL A   1      44.878  28.673  27.853  1.00  0.00     0.049 A 
ATOM     17  N   UNL A   1      42.287  29.685  28.943  1.00  0.00    -0.248 NA
ATOM     18  C   UNL A   1      41.312  27.642  28.375  1.00  0.00     0.031 C 
ATOM     19  C   UNL A   1      46.166  28.230  27.326  1.00  0.00     0.029 A 
ATOM     20  N   UNL A   1      45.130  29.915  28.377  1.00  0.00    -0.354 N 
ATOM     21  C   UNL A   1      40.942  29.712  29.305  1.00  0.00     0.074 A 
ATOM     22  C   UNL A   1      40.413  28.413  28.975  1.00  0.00     0.031 C 
ATOM     23  C   UNL A   1      47.070  29.199  27.529  1.00  0.00     0.029 A 
ATOM     24  C   UNL A   1      46.418  30.344  28.169  1.00  0.00     0.049 A 
ATOM     25  H   UNL A   1      44.454  30.447  28.856  1.00  0.00     0.167 HD
ATOM     26  C   UNL A   1      40.215  30.736  29.819  1.00  0.00     0.034 A 
ATOM     27  C   UNL A   1      47.010  31.524  28.443  1.00  0.00     0.034 A 
ATOM     28  C   UNL A   1      40.786  32.006  30.185  1.00  0.00     0.049 A 
ATOM     29  C   UNL A   1      46.230  32.601  29.149  1.00  0.00     0.074 A 
ATOM     30  C   UNL A   1      40.144  33.095  30.752  1.00  0.00     0.029 A 
ATOM     31  N   UNL A   1      42.116  32.352  30.048  1.00  0.00    -0.354 N 
ATOM     32  N   UNL A   1      44.956  32.618  29.457  1.00  0.00    -0.248 NA
ATOM     33  C   UNL A   1      46.959  33.806  29.575  1.00  0.00     0.031 C 
ATOM     34  C   UNL A   1      41.065  34.129  30.873  1.00  0.00     0.029 A 
ATOM     35  C   UNL A   1      42.311  33.635  30.522  1.00  0.00     0.049 A 
ATOM     36  H   UNL A   1      42.818  31.773  29.671  1.00  0.00     0.167 HD
ATOM     37  C   UNL A   1      44.740  33.813  30.137  1.00  0.00     0.074 A 
ATOM     38  C   UNL A   1      46.014  34.491  30.209  1.00  0.00     0.031 C 
ATOM     39  C   UNL A   1      43.584  34.294  30.649  1.00  0.00     0.034 A 
BRANCH  26  40
ATOM     40  C   UNL A   1      38.719  30.616  30.011  1.00  0.00     0.023 A 
ATOM     41  C   UNL A   1      37.866  31.415  29.216  1.00  0.00     0.031 A 
ATOM     42  C   UNL A   1      38.146  29.903  31.074  1.00  0.00     0.131 A 
ATOM     43  C   UNL A   1      36.503  31.522  29.523  1.00  0.00     0.055 A 
ATOM     44  C   UNL A   1      36.778  29.985  31.356  1.00  0.00     0.041 A 
ATOM     45  F   UNL A   1      38.904  29.128  31.865  1.00  0.00    -0.206 F 
ATOM     46  C   UNL A   1      35.954  30.813  30.593  1.00  0.00     0.022 A 
BRANCH  43  47
ATOM     47  S   UNL A   1      35.386  32.510  28.492  1.00  0.00     0.124 S 
ATOM     48  O   UNL A   1      34.398  32.951  29.476  1.00  0.00    -0.237 OA
ATOM     49  O   UNL A   1      36.268  33.550  27.976  1.00  0.00    -0.237 OA
ATOM     50  O   UNL A   1      34.876  31.560  27.510  1.00  0.00    -0.744 OA
ENDBRANCH  43  47
ENDBRANCH  26  40
BRANCH  27  51
ATOM     51  C   UNL A   1      48.454  31.672  28.113  1.00  0.00     0.023 A 
ATOM     52  C   UNL A   1      49.444  31.212  29.001  1.00  0.00     0.031 A 
ATOM     53  C   UNL A   1      48.852  32.441  27.008  1.00  0.00     0.131 A 
ATOM     54  C   UNL A   1      50.776  31.600  28.812  1.00  0.00     0.055 A 
ATOM     55  C   UNL A   1      50.189  32.761  26.782  1.00  0.00     0.041 A 
ATOM     56  F   UNL A   1      47.935  32.921  26.153  1.00  0.00    -0.206 F 
ATOM     57  C   UNL A   1      51.156  32.360  27.700  1.00  0.00     0.022 A 
BRANCH  54  58
ATOM     58  S   UNL A   1      52.018  31.300  30.101  1.00  0.00     0.124 S 
ATOM     59  O   UNL A   1      51.284  31.646  31.314  1.00  0.00    -0.237 OA
ATOM     60  O   UNL A   1      52.305  29.879  29.921  1.00  0.00    -0.237 OA
ATOM     61  O   UNL A   1      53.111  32.198  29.743  1.00  0.00    -0.744 OA
ENDBRANCH  54  58
ENDBRANCH  27  51
BRANCH  39  62
ATOM     62  C   UNL A   1      43.555  35.606  31.395  1.00  0.00     0.023 A 
ATOM     63  C   UNL A   1      43.650  36.806  30.658  1.00  0.00     0.031 A 
ATOM     64  C   UNL A   1      43.744  35.656  32.784  1.00  0.00     0.131 A 
ATOM     65  C   UNL A   1      44.008  37.993  31.306  1.00  0.00     0.055 A 
ATOM     66  C   UNL A   1      44.051  36.855  33.432  1.00  0.00     0.041 A 
ATOM     67  F   UNL A   1      43.692  34.536  33.521  1.00  0.00    -0.206 F 
ATOM     68  C   UNL A   1      44.208  38.024  32.690  1.00  0.00     0.022 A 
BRANCH  65  69
ATOM     69  S   UNL A   1      44.373  39.500  30.361  1.00  0.00     0.124 S 
ATOM     70  O   UNL A   1      43.510  39.340  29.193  1.00  0.00    -0.237 OA
ATOM     71  O   UNL A   1      43.973  40.552  31.291  1.00  0.00    -0.237 OA
ATOM     72  O   UNL A   1      45.805  39.410  30.092  1.00  0.00    -0.744 OA
ENDBRANCH  65  69
ENDBRANCH  39  62
ENDBRANCH  13  14
ENDBRANCH   6   8
ENDBRANCH   5   6
ENDBRANCH   4   5
ENDBRANCH   3   4
ENDBRANCH   2   3
ENDBRANCH   1   2
BRANCH   1  73
ATOM     73  C   UNL A   1      39.356  22.114  25.985  1.00  0.00     0.188 C 
BRANCH  73  74
ATOM     74  O   UNL A   1      38.013  21.661  26.106  1.00  0.00    -0.376 OA
BRANCH  74  75
ATOM     75  C   UNL A   1      37.232  21.748  24.919  1.00  0.00     0.202 C 
BRANCH  75  76
ATOM     76  C   UNL A   1      36.410  23.029  24.807  1.00  0.00     0.261 C 
BRANCH  76  77
ATOM     77  O   UNL A   1      35.611  23.344  25.951  1.00  0.00    -0.459 OA
BRANCH  77  78
ATOM     78  C   UNL A   1      34.584  22.512  26.277  1.00  0.00     0.348 C 
ATOM     79  O   UNL A   1      34.556  21.744  27.214  1.00  0.00    -0.245 OA
BRANCH  78  80
ATOM     80  C   UNL A   1      33.617  22.618  25.223  1.00  0.00     0.116 A 
ATOM     81  C   UNL A   1      32.863  23.735  24.963  1.00  0.00     0.074 A 
ATOM     82  S   UNL A   1      33.225  21.316  24.205  1.00  0.00    -0.133 S 
ATOM     83  C   UNL A   1      31.830  23.473  24.042  1.00  0.00     0.131 A 
ATOM     84  C   UNL A   1      31.935  22.207  23.505  1.00  0.00     0.112 A 
BRANCH  83  85
ATOM     85  O   UNL A   1      30.816  24.284  23.669  1.00  0.00    -0.489 OA
BRANCH  85  86
ATOM     86  C   UNL A   1      31.140  25.330  22.751  1.00  0.00     0.275 C 
BRANCH  86  87
ATOM     87  C   UNL A   1      31.243  26.765  23.326  1.00  0.00     0.215 C 
ATOM     88  C   UNL A   1      32.694  27.263  23.450  1.00  0.00     0.088 C 
ATOM     89  O   UNL A   1      30.562  26.944  24.594  1.00  0.00    -0.486 OA
ATOM     90  C   UNL A   1      32.766  27.549  24.897  1.00  0.00     0.001 A 
ATOM     91  C   UNL A   1      31.503  27.440  25.452  1.00  0.00     0.123 A 
ATOM     92  C   UNL A   1      33.845  27.963  25.659  1.00  0.00     0.047 A 
ATOM     93  C   UNL A   1      31.251  27.822  26.756  1.00  0.00     0.050 A 
ATOM     94  C   UNL A   1      33.610  28.306  26.988  1.00  0.00     0.123 A 
ATOM     95  C   UNL A   1      32.324  28.267  27.532  1.00  0.00     0.043 A 
ATOM     96  F   UNL A   1      34.637  28.706  27.753  1.00  0.00    -0.207 F 
ENDBRANCH  86  87
ENDBRANCH  85  86
ENDBRANCH  83  85
ENDBRANCH  78  80
ENDBRANCH  77  78
ENDBRANCH  76  77
ENDBRANCH  75  76
ENDBRANCH  74  75
ENDBRANCH  73  74
ENDBRANCH   1  73
TORSDOF 23
ENDMDL
MODEL 3
REMARK VINA RESULT:      -7.2      3.938     12.135
REMARK SMILES O=C(OCCOCCOCCOC(=O)c1cc(OC[C@@H]2Cc3cc(F)ccc3O2)cs1)c1ccc(-c2c3nc(c(-c4cc(S(=O)(=O)[O-])ccc4F)c4ccc([nH]4)c(-c4cc(S(=O)(=O)[O-])ccc4F)c4nc(c(-c5cc(S(=O)(=O)[O-])ccc5F)c5ccc2[nH]5)C=C4)C=C3)cc1
REMARK SMILES IDX 7 1 6 2 5 3 4 4 3 5 2 6 1 7 32 8 33 9 94 10 34 11 93 12
REMARK SMILES IDX 35 13 36 14 37 15 87 16 38 17 92 18 86 19 88 20 39 21 91 22
REMARK SMILES IDX 85 23 84 24 40 26 72 27 52 28 71 29 53 30 56 31 70 32 89 33
REMARK SMILES IDX 54 34 55 35 69 37 90 38 57 39 41 40 42 41 50 42 43 43 49 44
REMARK SMILES IDX 51 45 48 46 44 47 45 48 46 49 47 50 73 51 74 52 82 53 75 54
REMARK SMILES IDX 81 55 83 56 80 57 76 58 77 59 78 60 79 61 58 62 59 63 67 64
REMARK SMILES IDX 60 65 66 66 68 67 65 68 61 69 62 70 63 71 64 72 8 73 9 74
REMARK SMILES IDX 10 75 11 76 12 77 13 78 14 79 15 80 16 81 31 82 17 83 30 84
REMARK SMILES IDX 18 85 19 86 20 87 21 88 29 89 22 90 28 91 23 92 27 93 24 94
REMARK SMILES IDX 26 95 25 96
REMARK H PARENT 88 25 56 36
REMARK Flexibility Score: inf
ROOT
ATOM      1  C   UNL A   1      49.587  25.257  27.462  1.00  0.00     0.188 C 
ENDROOT
BRANCH   1   2
ATOM      2  O   UNL A   1      50.566  26.290  27.449  1.00  0.00    -0.376 OA
BRANCH   2   3
ATOM      3  C   UNL A   1      51.466  26.347  26.353  1.00  0.00     0.202 C 
BRANCH   3   4
ATOM      4  C   UNL A   1      52.662  27.296  26.474  1.00  0.00     0.261 C 
BRANCH   4   5
ATOM      5  O   UNL A   1      52.423  28.637  26.027  1.00  0.00    -0.460 OA
BRANCH   5   6
ATOM      6  C   UNL A   1      52.266  29.747  26.793  1.00  0.00     0.338 C 
ATOM      7  O   UNL A   1      53.274  30.398  27.071  1.00  0.00    -0.246 OA
BRANCH   6   8
ATOM      8  C   UNL A   1      50.979  30.114  27.484  1.00  0.00     0.060 A 
ATOM      9  C   UNL A   1      49.784  29.740  26.832  1.00  0.00     0.016 A 
ATOM     10  C   UNL A   1      50.858  30.768  28.710  1.00  0.00     0.016 A 
ATOM     11  C   UNL A   1      48.519  30.020  27.378  1.00  0.00     0.010 A 
ATOM     12  C   UNL A   1      49.597  31.055  29.253  1.00  0.00     0.010 A 
ATOM     13  C   UNL A   1      48.416  30.692  28.597  1.00  0.00    -0.014 A 
BRANCH  13  14
ATOM     14  C   UNL A   1      47.124  30.895  29.299  1.00  0.00     0.031 A 
ATOM     15  C   UNL A   1      46.480  29.824  30.126  1.00  0.00     0.074 A 
ATOM     16  C   UNL A   1      46.468  32.050  29.089  1.00  0.00     0.049 A 
ATOM     17  N   UNL A   1      45.273  29.789  30.635  1.00  0.00    -0.248 NA
ATOM     18  C   UNL A   1      47.297  28.646  30.424  1.00  0.00     0.031 C 
ATOM     19  C   UNL A   1      47.000  33.179  28.332  1.00  0.00     0.029 A 
ATOM     20  N   UNL A   1      45.210  32.450  29.465  1.00  0.00    -0.354 N 
ATOM     21  C   UNL A   1      45.163  28.554  31.271  1.00  0.00     0.074 A 
ATOM     22  C   UNL A   1      46.452  27.924  31.148  1.00  0.00     0.031 C 
ATOM     23  C   UNL A   1      46.065  34.137  28.273  1.00  0.00     0.029 A 
ATOM     24  C   UNL A   1      44.856  33.676  28.959  1.00  0.00     0.049 A 
ATOM     25  H   UNL A   1      44.620  31.911  30.040  1.00  0.00     0.167 HD
ATOM     26  C   UNL A   1      44.077  27.990  31.859  1.00  0.00     0.034 A 
ATOM     27  C   UNL A   1      43.690  34.353  29.022  1.00  0.00     0.034 A 
ATOM     28  C   UNL A   1      42.816  28.669  32.010  1.00  0.00     0.049 A 
ATOM     29  C   UNL A   1      42.539  33.780  29.805  1.00  0.00     0.074 A 
ATOM     30  C   UNL A   1      41.667  28.201  32.627  1.00  0.00     0.029 A 
ATOM     31  N   UNL A   1      42.542  29.949  31.571  1.00  0.00    -0.354 N 
ATOM     32  N   UNL A   1      42.444  32.603  30.375  1.00  0.00    -0.248 NA
ATOM     33  C   UNL A   1      41.347  34.624  29.985  1.00  0.00     0.031 C 
ATOM     34  C   UNL A   1      40.672  29.160  32.480  1.00  0.00     0.029 A 
ATOM     35  C   UNL A   1      41.245  30.284  31.907  1.00  0.00     0.049 A 
ATOM     36  H   UNL A   1      43.174  30.534  31.093  1.00  0.00     0.167 HD
ATOM     37  C   UNL A   1      41.203  32.579  31.004  1.00  0.00     0.074 A 
ATOM     38  C   UNL A   1      40.583  33.861  30.758  1.00  0.00     0.031 C 
ATOM     39  C   UNL A   1      40.639  31.576  31.717  1.00  0.00     0.034 A 
BRANCH  26  40
ATOM     40  C   UNL A   1      44.115  26.567  32.372  1.00  0.00     0.023 A 
ATOM     41  C   UNL A   1      44.396  26.344  33.739  1.00  0.00     0.031 A 
ATOM     42  C   UNL A   1      44.085  25.454  31.520  1.00  0.00     0.131 A 
ATOM     43  C   UNL A   1      44.684  25.054  34.204  1.00  0.00     0.055 A 
ATOM     44  C   UNL A   1      44.338  24.162  31.994  1.00  0.00     0.041 A 
ATOM     45  F   UNL A   1      43.823  25.601  30.211  1.00  0.00    -0.206 F 
ATOM     46  C   UNL A   1      44.659  23.960  33.337  1.00  0.00     0.022 A 
BRANCH  43  47
ATOM     47  S   UNL A   1      45.008  24.742  35.960  1.00  0.00     0.124 S 
ATOM     48  O   UNL A   1      45.883  23.573  35.890  1.00  0.00    -0.237 OA
ATOM     49  O   UNL A   1      45.646  25.982  36.389  1.00  0.00    -0.237 OA
ATOM     50  O   UNL A   1      43.689  24.475  36.522  1.00  0.00    -0.744 OA
ENDBRANCH  43  47
ENDBRANCH  26  40
BRANCH  27  51
ATOM     51  C   UNL A   1      43.630  35.697  28.385  1.00  0.00     0.023 A 
ATOM     52  C   UNL A   1      44.046  36.844  29.085  1.00  0.00     0.031 A 
ATOM     53  C   UNL A   1      42.981  35.865  27.151  1.00  0.00     0.131 A 
ATOM     54  C   UNL A   1      43.729  38.113  28.585  1.00  0.00     0.055 A 
ATOM     55  C   UNL A   1      42.735  37.130  26.620  1.00  0.00     0.041 A 
ATOM     56  F   UNL A   1      42.546  34.797  26.465  1.00  0.00    -0.206 F 
ATOM     57  C   UNL A   1      43.089  38.262  27.350  1.00  0.00     0.022 A 
BRANCH  54  58
ATOM     58  S   UNL A   1      43.959  39.594  29.608  1.00  0.00     0.124 S 
ATOM     59  O   UNL A   1      45.382  39.865  29.432  1.00  0.00    -0.237 OA
ATOM     60  O   UNL A   1      43.051  40.545  28.972  1.00  0.00    -0.237 OA
ATOM     61  O   UNL A   1      43.557  39.157  30.941  1.00  0.00    -0.744 OA
ENDBRANCH  54  58
ENDBRANCH  27  51
BRANCH  39  62
ATOM     62  C   UNL A   1      39.287  31.753  32.362  1.00  0.00     0.023 A 
ATOM     63  C   UNL A   1      38.137  31.724  31.545  1.00  0.00     0.031 A 
ATOM     64  C   UNL A   1      39.166  32.239  33.673  1.00  0.00     0.131 A 
ATOM     65  C   UNL A   1      36.932  32.253  32.020  1.00  0.00     0.055 A 
ATOM     66  C   UNL A   1      37.947  32.718  34.159  1.00  0.00     0.041 A 
ATOM     67  F   UNL A   1      40.238  32.312  34.476  1.00  0.00    -0.206 F 
ATOM     68  C   UNL A   1      36.831  32.749  33.325  1.00  0.00     0.022 A 
BRANCH  65  69
ATOM     69  S   UNL A   1      35.501  32.453  30.922  1.00  0.00     0.124 S 
ATOM     70  O   UNL A   1      35.636  31.298  30.037  1.00  0.00    -0.237 OA
ATOM     71  O   UNL A   1      34.382  32.393  31.858  1.00  0.00    -0.237 OA
ATOM     72  O   UNL A   1      35.720  33.750  30.288  1.00  0.00    -0.744 OA
ENDBRANCH  65  69
ENDBRANCH  39  62
ENDBRANCH  13  14
ENDBRANCH   6   8
ENDBRANCH   5   6
ENDBRANCH   4   5
ENDBRANCH   3   4
ENDBRANCH   2   3
ENDBRANCH   1   2
BRANCH   1  73
ATOM     73  C   UNL A   1      48.207  25.527  26.843  1.00  0.00     0.188 C 
BRANCH  73  74
ATOM     74  O   UNL A   1      47.544  24.390  26.305  1.00  0.00    -0.376 OA
BRANCH  74  75
ATOM     75  C   UNL A   1      46.340  24.018  26.968  1.00  0.00     0.202 C 
BRANCH  75  76
ATOM     76  C   UNL A   1      45.727  22.717  26.459  1.00  0.00     0.261 C 
BRANCH  76  77
ATOM     77  O   UNL A   1      44.361  22.501  26.826  1.00  0.00    -0.459 OA
BRANCH  77  78
ATOM     78  C   UNL A   1      43.444  22.307  25.839  1.00  0.00     0.348 C 
ATOM     79  O   UNL A   1      43.364  21.337  25.118  1.00  0.00    -0.245 OA
BRANCH  78  80
ATOM     80  C   UNL A   1      42.695  23.526  25.728  1.00  0.00     0.116 A 
ATOM     81  C   UNL A   1      43.094  24.628  25.015  1.00  0.00     0.074 A 
ATOM     82  S   UNL A   1      41.231  23.779  26.553  1.00  0.00    -0.133 S 
ATOM     83  C   UNL A   1      42.291  25.753  25.286  1.00  0.00     0.131 A 
ATOM     84  C   UNL A   1      41.204  25.426  26.070  1.00  0.00     0.112 A 
BRANCH  83  85
ATOM     85  O   UNL A   1      42.477  27.029  24.886  1.00  0.00    -0.489 OA
BRANCH  85  86
ATOM     86  C   UNL A   1      43.354  27.827  25.683  1.00  0.00     0.275 C 
BRANCH  86  87
ATOM     87  C   UNL A   1      42.705  28.693  26.793  1.00  0.00     0.215 C 
ATOM     88  C   UNL A   1      42.654  27.984  28.158  1.00  0.00     0.088 C 
ATOM     89  O   UNL A   1      41.385  29.190  26.458  1.00  0.00    -0.486 OA
ATOM     90  C   UNL A   1      41.201  28.000  28.423  1.00  0.00     0.001 A 
ATOM     91  C   UNL A   1      40.567  28.780  27.473  1.00  0.00     0.123 A 
ATOM     92  C   UNL A   1      40.493  27.443  29.474  1.00  0.00     0.047 A 
ATOM     93  C   UNL A   1      39.229  29.107  27.582  1.00  0.00     0.050 A 
ATOM     94  C   UNL A   1      39.133  27.728  29.568  1.00  0.00     0.123 A 
ATOM     95  C   UNL A   1      38.504  28.575  28.651  1.00  0.00     0.043 A 
ATOM     96  F   UNL A   1      38.420  27.199  30.572  1.00  0.00    -0.207 F 
ENDBRANCH  86  87
ENDBRANCH  85  86
ENDBRANCH  83  85
ENDBRANCH  78  80
ENDBRANCH  77  78
ENDBRANCH  76  77
ENDBRANCH  75  76
ENDBRANCH  74  75
ENDBRANCH  73  74
ENDBRANCH   1  73
TORSDOF 23
ENDMDL
