MODEL 1
REMARK VINA RESULT:     -11.3      0.000      0.000
REMARK SMILES C[C@@H](O)[C@@H](NC(=O)Nc1ccc(F)cc1F)C(=O)OCCOCCOCCOC(=O)c1ccc(-c2c3nc(c(-c4cc(S(=O)(=O)[O-])ccc4F)c4ccc([nH]4)c(-c4cc(S(=O)(=O)[O-])ccc4F)c4nc(c(-c5cc(S(=O)(=O)[O-])ccc5F)c5ccc2[nH]5)C=C4)C=C3)cc1
REMARK SMILES IDX 24 1 23 2 22 3 21 4 20 5 19 6 17 7 18 8 4 9 2 10 1 11 3 12
REMARK SMILES IDX 5 14 6 15 7 17 8 18 9 20 10 21 15 22 11 23 14 24 16 25 12 26
REMARK SMILES IDX 13 27 25 28 26 29 27 30 28 31 29 32 30 33 31 34 32 35 93 36
REMARK SMILES IDX 33 37 92 38 34 39 35 40 36 41 86 42 37 43 91 44 85 45 87 46
REMARK SMILES IDX 38 47 90 48 84 49 83 50 39 52 71 53 51 54 70 55 52 56 55 57
REMARK SMILES IDX 69 58 88 59 53 60 54 61 68 63 89 64 56 65 40 66 41 67 49 68
REMARK SMILES IDX 42 69 48 70 50 71 47 72 43 73 44 74 45 75 46 76 72 77 73 78
REMARK SMILES IDX 81 79 74 80 80 81 82 82 79 83 75 84 76 85 77 86 78 87 57 88
REMARK SMILES IDX 58 89 66 90 59 91 65 92 67 93 64 94 60 95 61 96 62 97 63 98
REMARK H PARENT 3 13 5 16 8 19 87 51 55 62
REMARK Flexibility Score: inf
ROOT
ATOM      1  C   UNL A   1      34.589  33.964  28.022  1.00  0.00     0.188 C 
ENDROOT
BRANCH   1   2
ATOM      2  C   UNL A   1      35.484  32.490  28.324  1.00  0.00     0.188 C 
BRANCH   2   3
ATOM      3  O   UNL A   1      35.438  30.719  27.318  1.00  0.00    -0.376 OA
BRANCH   3   4
ATOM      4  C   UNL A   1      34.633  29.161  27.699  1.00  0.00     0.202 C 
BRANCH   4   5
ATOM      5  C   UNL A   1      33.271  28.399  26.710  1.00  0.00     0.261 C 
BRANCH   5   6
ATOM      6  O   UNL A   1      33.293  26.843  26.255  1.00  0.00    -0.462 OA
BRANCH   6   7
ATOM      7  C   UNL A   1      33.637  26.335  24.977  1.00  0.00     0.331 C 
ATOM      8  O   UNL A   1      34.443  25.414  24.850  1.00  0.00    -0.250 OA
BRANCH   7   9
ATOM      9  C   UNL A   1      32.719  26.889  23.701  1.00  0.00     0.222 C 
BRANCH   9  10
ATOM     10  C   UNL A   1      33.112  26.330  22.291  1.00  0.00     0.145 C 
ATOM     11  C   UNL A   1      31.962  25.972  21.351  1.00  0.00     0.041 C 
BRANCH  10  12
ATOM     12  O   UNL A   1      33.813  27.387  21.595  1.00  0.00    -0.391 OA
ATOM     13  H   UNL A   1      33.196  28.109  21.397  1.00  0.00     0.211 HD
ENDBRANCH  10  12
ENDBRANCH   9  10
BRANCH   9  14
ATOM     14  N   UNL A   1      31.215  26.845  24.022  1.00  0.00    -0.322 N 
ATOM     15  C   UNL A   1      30.221  25.995  24.410  1.00  0.00     0.320 C 
ATOM     16  H   UNL A   1      30.837  27.747  23.907  1.00  0.00     0.166 HD
ATOM     17  O   UNL A   1      29.081  26.481  24.387  1.00  0.00    -0.248 OA
ATOM     18  N   UNL A   1      30.329  24.710  24.870  1.00  0.00    -0.305 N 
ATOM     19  H   UNL A   1      29.525  24.362  25.319  1.00  0.00     0.171 HD
BRANCH  18  20
ATOM     20  C   UNL A   1      31.403  23.815  24.802  1.00  0.00     0.079 A 
ATOM     21  C   UNL A   1      32.151  23.128  23.391  1.00  0.00     0.032 A 
ATOM     22  C   UNL A   1      31.899  23.286  26.355  1.00  0.00     0.149 A 
ATOM     23  C   UNL A   1      33.396  21.856  23.514  1.00  0.00     0.041 A 
ATOM     24  C   UNL A   1      33.142  21.905  26.588  1.00  0.00     0.080 A 
ATOM     25  F   UNL A   1      31.834  24.416  27.098  1.00  0.00    -0.205 F 
ATOM     26  C   UNL A   1      33.903  21.232  25.093  1.00  0.00     0.126 A 
ATOM     27  F   UNL A   1      34.734  20.186  25.173  1.00  0.00    -0.207 F 
ENDBRANCH  18  20
ENDBRANCH   9  14
ENDBRANCH   7   9
ENDBRANCH   6   7
ENDBRANCH   5   6
ENDBRANCH   4   5
ENDBRANCH   3   4
ENDBRANCH   2   3
ENDBRANCH   1   2
BRANCH   1  28
ATOM     28  O   UNL A   1      34.631  35.166  28.826  1.00  0.00    -0.376 OA
BRANCH  28  29
ATOM     29  C   UNL A   1      33.434  35.970  28.897  1.00  0.00     0.202 C 
BRANCH  29  30
ATOM     30  C   UNL A   1      32.700  36.129  30.230  1.00  0.00     0.261 C 
BRANCH  30  31
ATOM     31  O   UNL A   1      33.603  36.181  31.332  1.00  0.00    -0.460 OA
BRANCH  31  32
ATOM     32  C   UNL A   1      33.473  35.126  32.175  1.00  0.00     0.338 C 
ATOM     33  O   UNL A   1      32.459  34.782  32.759  1.00  0.00    -0.246 OA
BRANCH  32  34
ATOM     34  C   UNL A   1      34.695  34.298  32.084  1.00  0.00     0.060 A 
ATOM     35  C   UNL A   1      34.551  32.917  32.290  1.00  0.00     0.016 A 
ATOM     36  C   UNL A   1      35.935  34.835  31.728  1.00  0.00     0.016 A 
ATOM     37  C   UNL A   1      35.654  32.078  32.208  1.00  0.00     0.010 A 
ATOM     38  C   UNL A   1      37.050  34.000  31.680  1.00  0.00     0.010 A 
ATOM     39  C   UNL A   1      36.916  32.631  31.978  1.00  0.00    -0.014 A 
BRANCH  39  40
ATOM     40  C   UNL A   1      38.112  31.839  32.332  1.00  0.00     0.031 A 
ATOM     41  C   UNL A   1      38.790  32.154  33.638  1.00  0.00     0.074 A 
ATOM     42  C   UNL A   1      38.550  30.840  31.549  1.00  0.00     0.049 A 
ATOM     43  N   UNL A   1      39.879  31.650  34.151  1.00  0.00    -0.248 NA
ATOM     44  C   UNL A   1      38.152  33.187  34.471  1.00  0.00     0.031 C 
ATOM     45  C   UNL A   1      37.923  30.405  30.302  1.00  0.00     0.029 A 
ATOM     46  N   UNL A   1      39.632  30.012  31.692  1.00  0.00    -0.354 N 
ATOM     47  C   UNL A   1      40.064  32.311  35.360  1.00  0.00     0.074 A 
ATOM     48  C   UNL A   1      39.000  33.282  35.482  1.00  0.00     0.031 C 
ATOM     49  C   UNL A   1      38.643  29.394  29.787  1.00  0.00     0.029 A 
ATOM     50  C   UNL A   1      39.803  29.144  30.642  1.00  0.00     0.049 A 
ATOM     51  H   UNL A   1      40.231  30.038  32.474  1.00  0.00     0.167 HD
ATOM     52  C   UNL A   1      41.031  32.117  36.287  1.00  0.00     0.034 A 
ATOM     53  C   UNL A   1      40.803  28.275  30.388  1.00  0.00     0.034 A 
ATOM     54  C   UNL A   1      42.090  31.151  36.138  1.00  0.00     0.049 A 
ATOM     55  C   UNL A   1      41.933  28.153  31.384  1.00  0.00     0.074 A 
ATOM     56  C   UNL A   1      43.118  30.861  37.015  1.00  0.00     0.029 A 
ATOM     57  N   UNL A   1      42.267  30.330  35.030  1.00  0.00    -0.354 N 
ATOM     58  N   UNL A   1      42.105  28.784  32.524  1.00  0.00    -0.248 NA
ATOM     59  C   UNL A   1      43.002  27.198  31.062  1.00  0.00     0.031 C 
ATOM     60  C   UNL A   1      43.970  29.941  36.399  1.00  0.00     0.029 A 
ATOM     61  C   UNL A   1      43.415  29.568  35.184  1.00  0.00     0.049 A 
ATOM     62  H   UNL A   1      41.666  30.296  34.252  1.00  0.00     0.167 HD
ATOM     63  C   UNL A   1      43.278  28.268  33.073  1.00  0.00     0.074 A 
ATOM     64  C   UNL A   1      43.765  27.272  32.142  1.00  0.00     0.031 C 
ATOM     65  C   UNL A   1      43.892  28.581  34.244  1.00  0.00     0.034 A 
BRANCH  52  66
ATOM     66  C   UNL A   1      41.022  33.012  37.503  1.00  0.00     0.023 A 
ATOM     67  C   UNL A   1      40.363  32.651  38.691  1.00  0.00     0.031 A 
ATOM     68  C   UNL A   1      41.661  34.265  37.461  1.00  0.00     0.131 A 
ATOM     69  C   UNL A   1      40.297  33.559  39.758  1.00  0.00     0.055 A 
ATOM     70  C   UNL A   1      41.672  35.125  38.559  1.00  0.00     0.041 A 
ATOM     71  F   UNL A   1      42.277  34.680  36.343  1.00  0.00    -0.206 F 
ATOM     72  C   UNL A   1      40.973  34.780  39.712  1.00  0.00     0.022 A 
BRANCH  69  73
ATOM     73  S   UNL A   1      39.180  33.193  41.140  1.00  0.00     0.124 S 
ATOM     74  O   UNL A   1      40.070  33.355  42.288  1.00  0.00    -0.237 OA
ATOM     75  O   UNL A   1      38.146  34.208  40.987  1.00  0.00    -0.237 OA
ATOM     76  O   UNL A   1      38.753  31.820  40.881  1.00  0.00    -0.744 OA
ENDBRANCH  69  73
ENDBRANCH  52  66
BRANCH  53  77
ATOM     77  C   UNL A   1      40.812  27.487  29.122  1.00  0.00     0.023 A 
ATOM     78  C   UNL A   1      41.732  27.763  28.100  1.00  0.00     0.031 A 
ATOM     79  C   UNL A   1      39.857  26.480  28.892  1.00  0.00     0.131 A 
ATOM     80  C   UNL A   1      41.644  27.081  26.877  1.00  0.00     0.055 A 
ATOM     81  C   UNL A   1      39.817  25.755  27.700  1.00  0.00     0.041 A 
ATOM     82  F   UNL A   1      38.946  26.179  29.832  1.00  0.00    -0.206 F 
ATOM     83  C   UNL A   1      40.705  26.065  26.677  1.00  0.00     0.022 A 
BRANCH  80  84
ATOM     84  S   UNL A   1      42.702  27.618  25.506  1.00  0.00     0.124 S 
ATOM     85  O   UNL A   1      43.959  27.889  26.192  1.00  0.00    -0.237 OA
ATOM     86  O   UNL A   1      42.685  26.448  24.634  1.00  0.00    -0.237 OA
ATOM     87  O   UNL A   1      42.010  28.793  24.982  1.00  0.00    -0.744 OA
ENDBRANCH  80  84
ENDBRANCH  53  77
BRANCH  65  88
ATOM     88  C   UNL A   1      45.125  27.790  34.618  1.00  0.00     0.023 A 
ATOM     89  C   UNL A   1      45.059  26.627  35.403  1.00  0.00     0.031 A 
ATOM     90  C   UNL A   1      46.391  28.212  34.170  1.00  0.00     0.131 A 
ATOM     91  C   UNL A   1      46.240  25.962  35.766  1.00  0.00     0.055 A 
ATOM     92  C   UNL A   1      47.554  27.502  34.469  1.00  0.00     0.041 A 
ATOM     93  F   UNL A   1      46.519  29.321  33.422  1.00  0.00    -0.206 F 
ATOM     94  C   UNL A   1      47.484  26.377  35.284  1.00  0.00     0.022 A 
BRANCH  91  95
ATOM     95  S   UNL A   1      46.143  24.611  36.972  1.00  0.00     0.124 S 
ATOM     96  O   UNL A   1      45.832  25.328  38.204  1.00  0.00    -0.237 OA
ATOM     97  O   UNL A   1      45.072  23.782  36.429  1.00  0.00    -0.237 OA
ATOM     98  O   UNL A   1      47.476  24.011  36.923  1.00  0.00    -0.744 OA
ENDBRANCH  91  95
ENDBRANCH  65  88
ENDBRANCH  39  40
ENDBRANCH  32  34
ENDBRANCH  31  32
ENDBRANCH  30  31
ENDBRANCH  29  30
ENDBRANCH  28  29
ENDBRANCH   1  28
TORSDOF 24
ENDMDL
MODEL 2
REMARK VINA RESULT:     -11.3      5.180      9.848
REMARK SMILES C[C@@H](O)[C@@H](NC(=O)Nc1ccc(F)cc1F)C(=O)OCCOCCOCCOC(=O)c1ccc(-c2c3nc(c(-c4cc(S(=O)(=O)[O-])ccc4F)c4ccc([nH]4)c(-c4cc(S(=O)(=O)[O-])ccc4F)c4nc(c(-c5cc(S(=O)(=O)[O-])ccc5F)c5ccc2[nH]5)C=C4)C=C3)cc1
REMARK SMILES IDX 24 1 23 2 22 3 21 4 20 5 19 6 17 7 18 8 4 9 2 10 1 11 3 12
REMARK SMILES IDX 5 14 6 15 7 17 8 18 9 20 10 21 15 22 11 23 14 24 16 25 12 26
REMARK SMILES IDX 13 27 25 28 26 29 27 30 28 31 29 32 30 33 31 34 32 35 93 36
REMARK SMILES IDX 33 37 92 38 34 39 35 40 36 41 86 42 37 43 91 44 85 45 87 46
REMARK SMILES IDX 38 47 90 48 84 49 83 50 39 52 71 53 51 54 70 55 52 56 55 57
REMARK SMILES IDX 69 58 88 59 53 60 54 61 68 63 89 64 56 65 40 66 41 67 49 68
REMARK SMILES IDX 42 69 48 70 50 71 47 72 43 73 44 74 45 75 46 76 72 77 73 78
REMARK SMILES IDX 81 79 74 80 80 81 82 82 79 83 75 84 76 85 77 86 78 87 57 88
REMARK SMILES IDX 58 89 66 90 59 91 65 92 67 93 64 94 60 95 61 96 62 97 63 98
REMARK H PARENT 3 13 5 16 8 19 87 51 55 62
REMARK Flexibility Score: inf
ROOT
ATOM      1  C   UNL A   1      40.337  22.183  27.334  1.00  0.00     0.188 C 
ENDROOT
BRANCH   1   2
ATOM      2  C   UNL A   1      39.293  23.415  26.658  1.00  0.00     0.188 C 
BRANCH   2   3
ATOM      3  O   UNL A   1      37.563  23.207  25.601  1.00  0.00    -0.376 OA
BRANCH   3   4
ATOM      4  C   UNL A   1      35.856  23.530  26.051  1.00  0.00     0.202 C 
BRANCH   4   5
ATOM      5  C   UNL A   1      34.600  22.235  26.452  1.00  0.00     0.261 C 
BRANCH   5   6
ATOM      6  O   UNL A   1      34.091  21.149  25.362  1.00  0.00    -0.462 OA
BRANCH   6   7
ATOM      7  C   UNL A   1      32.828  21.115  24.720  1.00  0.00     0.331 C 
ATOM      8  O   UNL A   1      32.323  20.055  24.354  1.00  0.00    -0.250 OA
BRANCH   7   9
ATOM      9  C   UNL A   1      31.978  22.550  24.710  1.00  0.00     0.222 C 
BRANCH   9  10
ATOM     10  C   UNL A   1      31.425  22.999  23.315  1.00  0.00     0.145 C 
ATOM     11  C   UNL A   1      32.001  24.289  22.731  1.00  0.00     0.041 C 
BRANCH  10  12
ATOM     12  O   UNL A   1      31.811  21.984  22.358  1.00  0.00    -0.391 OA
ATOM     13  H   UNL A   1      32.156  22.408  21.557  1.00  0.00     0.211 HD
ENDBRANCH  10  12
ENDBRANCH   9  10
BRANCH   9  14
ATOM     14  N   UNL A   1      30.964  22.617  25.864  1.00  0.00    -0.322 N 
ATOM     15  C   UNL A   1      30.351  23.493  26.711  1.00  0.00     0.320 C 
ATOM     16  H   UNL A   1      30.644  21.706  26.060  1.00  0.00     0.166 HD
ATOM     17  O   UNL A   1      29.673  22.966  27.605  1.00  0.00    -0.248 OA
ATOM     18  N   UNL A   1      30.345  24.861  26.664  1.00  0.00    -0.305 N 
ATOM     19  H   UNL A   1      29.654  25.291  27.217  1.00  0.00     0.171 HD
BRANCH  18  20
ATOM     20  C   UNL A   1      31.167  25.743  25.952  1.00  0.00     0.079 A 
ATOM     21  C   UNL A   1      32.876  26.005  26.125  1.00  0.00     0.032 A 
ATOM     22  C   UNL A   1      30.269  26.738  24.885  1.00  0.00     0.149 A 
ATOM     23  C   UNL A   1      33.718  27.312  25.248  1.00  0.00     0.041 A 
ATOM     24  C   UNL A   1      31.044  28.182  23.978  1.00  0.00     0.080 A 
ATOM     25  F   UNL A   1      29.357  25.884  24.363  1.00  0.00    -0.205 F 
ATOM     26  C   UNL A   1      32.827  28.406  24.176  1.00  0.00     0.126 A 
ATOM     27  F   UNL A   1      33.436  29.466  23.630  1.00  0.00    -0.207 F 
ENDBRANCH  18  20
ENDBRANCH   9  14
ENDBRANCH   7   9
ENDBRANCH   6   7
ENDBRANCH   5   6
ENDBRANCH   4   5
ENDBRANCH   3   4
ENDBRANCH   2   3
ENDBRANCH   1   2
BRANCH   1  28
ATOM     28  O   UNL A   1      40.701  20.935  26.702  1.00  0.00    -0.376 OA
BRANCH  28  29
ATOM     29  C   UNL A   1      42.045  20.445  26.901  1.00  0.00     0.202 C 
BRANCH  29  30
ATOM     30  C   UNL A   1      43.137  20.780  25.883  1.00  0.00     0.261 C 
BRANCH  30  31
ATOM     31  O   UNL A   1      43.793  22.007  26.189  1.00  0.00    -0.460 OA
BRANCH  31  32
ATOM     32  C   UNL A   1      43.521  22.991  25.295  1.00  0.00     0.338 C 
ATOM     33  O   UNL A   1      43.287  22.850  24.107  1.00  0.00    -0.246 OA
BRANCH  32  34
ATOM     34  C   UNL A   1      43.302  24.253  26.037  1.00  0.00     0.060 A 
ATOM     35  C   UNL A   1      42.989  25.393  25.282  1.00  0.00     0.016 A 
ATOM     36  C   UNL A   1      43.319  24.310  27.433  1.00  0.00     0.016 A 
ATOM     37  C   UNL A   1      42.760  26.608  25.913  1.00  0.00     0.010 A 
ATOM     38  C   UNL A   1      43.124  25.535  28.066  1.00  0.00     0.010 A 
ATOM     39  C   UNL A   1      42.902  26.695  27.300  1.00  0.00    -0.014 A 
BRANCH  39  40
ATOM     40  C   UNL A   1      43.104  28.025  27.911  1.00  0.00     0.031 A 
ATOM     41  C   UNL A   1      41.892  28.723  28.466  1.00  0.00     0.074 A 
ATOM     42  C   UNL A   1      44.326  28.571  28.017  1.00  0.00     0.049 A 
ATOM     43  N   UNL A   1      41.789  29.911  28.998  1.00  0.00    -0.248 NA
ATOM     44  C   UNL A   1      40.624  27.978  28.402  1.00  0.00     0.031 C 
ATOM     45  C   UNL A   1      45.573  27.947  27.579  1.00  0.00     0.029 A 
ATOM     46  N   UNL A   1      44.713  29.782  28.528  1.00  0.00    -0.354 N 
ATOM     47  C   UNL A   1      40.445  30.060  29.321  1.00  0.00     0.074 A 
ATOM     48  C   UNL A   1      39.766  28.860  28.885  1.00  0.00     0.031 C 
ATOM     49  C   UNL A   1      46.589  28.789  27.832  1.00  0.00     0.029 A 
ATOM     50  C   UNL A   1      46.058  30.027  28.403  1.00  0.00     0.049 A 
ATOM     51  H   UNL A   1      44.085  30.417  28.946  1.00  0.00     0.167 HD
ATOM     52  C   UNL A   1      39.836  31.103  29.934  1.00  0.00     0.034 A 
ATOM     53  C   UNL A   1      46.768  31.138  28.686  1.00  0.00     0.034 A 
ATOM     54  C   UNL A   1      40.532  32.295  30.347  1.00  0.00     0.049 A 
ATOM     55  C   UNL A   1      46.050  32.334  29.267  1.00  0.00     0.074 A 
ATOM     56  C   UNL A   1      40.022  33.410  30.985  1.00  0.00     0.029 A 
ATOM     57  N   UNL A   1      41.887  32.534  30.148  1.00  0.00    -0.354 N 
ATOM     58  N   UNL A   1      44.777  32.472  29.567  1.00  0.00    -0.248 NA
ATOM     59  C   UNL A   1      46.864  33.523  29.554  1.00  0.00     0.031 C 
ATOM     60  C   UNL A   1      41.040  34.361  31.081  1.00  0.00     0.029 A 
ATOM     61  C   UNL A   1      42.217  33.799  30.609  1.00  0.00     0.049 A 
ATOM     62  H   UNL A   1      42.518  31.899  29.740  1.00  0.00     0.167 HD
ATOM     63  C   UNL A   1      44.650  33.746  30.118  1.00  0.00     0.074 A 
ATOM     64  C   UNL A   1      45.975  34.330  30.114  1.00  0.00     0.031 C 
ATOM     65  C   UNL A   1      43.543  34.373  30.593  1.00  0.00     0.034 A 
BRANCH  52  66
ATOM     66  C   UNL A   1      38.341  31.023  30.127  1.00  0.00     0.023 A 
ATOM     67  C   UNL A   1      37.438  31.557  29.192  1.00  0.00     0.031 A 
ATOM     68  C   UNL A   1      37.811  30.427  31.286  1.00  0.00     0.131 A 
ATOM     69  C   UNL A   1      36.062  31.549  29.464  1.00  0.00     0.055 A 
ATOM     70  C   UNL A   1      36.436  30.337  31.506  1.00  0.00     0.041 A 
ATOM     71  F   UNL A   1      38.624  29.930  32.231  1.00  0.00    -0.206 F 
ATOM     72  C   UNL A   1      35.553  30.914  30.599  1.00  0.00     0.022 A 
BRANCH  69  73
ATOM     73  S   UNL A   1      34.961  32.519  28.398  1.00  0.00     0.124 S 
ATOM     74  O   UNL A   1      34.202  33.289  29.381  1.00  0.00    -0.237 OA
ATOM     75  O   UNL A   1      35.901  33.278  27.582  1.00  0.00    -0.237 OA
ATOM     76  O   UNL A   1      34.191  31.503  27.684  1.00  0.00    -0.744 OA
ENDBRANCH  69  73
ENDBRANCH  52  66
BRANCH  53  77
ATOM     77  C   UNL A   1      48.228  31.197  28.383  1.00  0.00     0.023 A 
ATOM     78  C   UNL A   1      49.180  30.718  29.296  1.00  0.00     0.031 A 
ATOM     79  C   UNL A   1      48.695  31.792  27.197  1.00  0.00     0.131 A 
ATOM     80  C   UNL A   1      50.547  30.890  29.034  1.00  0.00     0.055 A 
ATOM     81  C   UNL A   1      50.056  31.897  26.908  1.00  0.00     0.041 A 
ATOM     82  F   UNL A   1      47.829  32.275  26.291  1.00  0.00    -0.206 F 
ATOM     83  C   UNL A   1      50.993  31.458  27.838  1.00  0.00     0.022 A 
BRANCH  80  84
ATOM     84  S   UNL A   1      51.739  30.462  30.332  1.00  0.00     0.124 S 
ATOM     85  O   UNL A   1      51.190  31.173  31.481  1.00  0.00    -0.237 OA
ATOM     86  O   UNL A   1      51.638  29.007  30.368  1.00  0.00    -0.237 OA
ATOM     87  O   UNL A   1      53.003  30.985  29.819  1.00  0.00    -0.744 OA
ENDBRANCH  80  84
ENDBRANCH  53  77
BRANCH  65  88
ATOM     88  C   UNL A   1      43.726  35.740  31.210  1.00  0.00     0.023 A 
ATOM     89  C   UNL A   1      43.839  35.927  32.599  1.00  0.00     0.031 A 
ATOM     90  C   UNL A   1      43.796  36.878  30.385  1.00  0.00     0.131 A 
ATOM     91  C   UNL A   1      43.953  37.223  33.122  1.00  0.00     0.055 A 
ATOM     92  C   UNL A   1      43.989  38.158  30.907  1.00  0.00     0.041 A 
ATOM     93  F   UNL A   1      43.687  36.765  29.051  1.00  0.00    -0.206 F 
ATOM     94  C   UNL A   1      44.054  38.337  32.284  1.00  0.00     0.022 A 
BRANCH  91  95
ATOM     95  S   UNL A   1      43.854  37.449  34.919  1.00  0.00     0.124 S 
ATOM     96  O   UNL A   1      44.047  38.889  35.053  1.00  0.00    -0.237 OA
ATOM     97  O   UNL A   1      42.515  36.954  35.224  1.00  0.00    -0.237 OA
ATOM     98  O   UNL A   1      44.949  36.627  35.429  1.00  0.00    -0.744 OA
ENDBRANCH  91  95
ENDBRANCH  65  88
ENDBRANCH  39  40
ENDBRANCH  32  34
ENDBRANCH  31  32
ENDBRANCH  30  31
ENDBRANCH  29  30
ENDBRANCH  28  29
ENDBRANCH   1  28
TORSDOF 24
ENDMDL
MODEL 3
REMARK VINA RESULT:     -10.8      3.422      4.363
REMARK SMILES C[C@@H](O)[C@@H](NC(=O)Nc1ccc(F)cc1F)C(=O)OCCOCCOCCOC(=O)c1ccc(-c2c3nc(c(-c4cc(S(=O)(=O)[O-])ccc4F)c4ccc([nH]4)c(-c4cc(S(=O)(=O)[O-])ccc4F)c4nc(c(-c5cc(S(=O)(=O)[O-])ccc5F)c5ccc2[nH]5)C=C4)C=C3)cc1
REMARK SMILES IDX 24 1 23 2 22 3 21 4 20 5 19 6 17 7 18 8 4 9 2 10 1 11 3 12
REMARK SMILES IDX 5 14 6 15 7 17 8 18 9 20 10 21 15 22 11 23 14 24 16 25 12 26
REMARK SMILES IDX 13 27 25 28 26 29 27 30 28 31 29 32 30 33 31 34 32 35 93 36
REMARK SMILES IDX 33 37 92 38 34 39 35 40 36 41 86 42 37 43 91 44 85 45 87 46
REMARK SMILES IDX 38 47 90 48 84 49 83 50 39 52 71 53 51 54 70 55 52 56 55 57
REMARK SMILES IDX 69 58 88 59 53 60 54 61 68 63 89 64 56 65 40 66 41 67 49 68
REMARK SMILES IDX 42 69 48 70 50 71 47 72 43 73 44 74 45 75 46 76 72 77 73 78
REMARK SMILES IDX 81 79 74 80 80 81 82 82 79 83 75 84 76 85 77 86 78 87 57 88
REMARK SMILES IDX 58 89 66 90 59 91 65 92 67 93 64 94 60 95 61 96 62 97 63 98
REMARK H PARENT 3 13 5 16 8 19 87 51 55 62
REMARK Flexibility Score: inf
ROOT
ATOM      1  C   UNL A   1      33.645  31.468  27.324  1.00  0.00     0.188 C 
ENDROOT
BRANCH   1   2
ATOM      2  C   UNL A   1      32.756  29.962  27.399  1.00  0.00     0.188 C 
BRANCH   2   3
ATOM      3  O   UNL A   1      32.038  28.806  25.883  1.00  0.00    -0.376 OA
BRANCH   3   4
ATOM      4  C   UNL A   1      31.071  29.226  24.430  1.00  0.00     0.202 C 
BRANCH   4   5
ATOM      5  C   UNL A   1      31.525  28.798  22.691  1.00  0.00     0.261 C 
BRANCH   5   6
ATOM      6  O   UNL A   1      32.450  27.519  22.322  1.00  0.00    -0.462 OA
BRANCH   6   7
ATOM      7  C   UNL A   1      32.128  26.152  22.519  1.00  0.00     0.331 C 
ATOM      8  O   UNL A   1      31.708  25.455  21.597  1.00  0.00    -0.250 OA
BRANCH   7   9
ATOM      9  C   UNL A   1      32.574  25.503  23.988  1.00  0.00     0.222 C 
BRANCH   9  10
ATOM     10  C   UNL A   1      34.076  25.702  24.387  1.00  0.00     0.145 C 
ATOM     11  C   UNL A   1      34.349  26.189  25.810  1.00  0.00     0.041 C 
BRANCH  10  12
ATOM     12  O   UNL A   1      34.705  24.399  24.341  1.00  0.00    -0.391 OA
ATOM     13  H   UNL A   1      35.667  24.505  24.297  1.00  0.00     0.211 HD
ENDBRANCH  10  12
ENDBRANCH   9  10
BRANCH   9  14
ATOM     14  N   UNL A   1      31.558  25.844  25.091  1.00  0.00    -0.322 N 
ATOM     15  C   UNL A   1      31.005  25.352  26.236  1.00  0.00     0.320 C 
ATOM     16  H   UNL A   1      31.168  26.729  24.903  1.00  0.00     0.166 HD
ATOM     17  O   UNL A   1      30.066  26.020  26.692  1.00  0.00    -0.248 OA
ATOM     18  N   UNL A   1      31.390  24.260  26.967  1.00  0.00    -0.305 N 
ATOM     19  H   UNL A   1      31.018  24.219  27.878  1.00  0.00     0.171 HD
BRANCH  18  20
ATOM     20  C   UNL A   1      32.230  23.194  26.624  1.00  0.00     0.079 A 
ATOM     21  C   UNL A   1      33.856  22.885  27.155  1.00  0.00     0.032 A 
ATOM     22  C   UNL A   1      31.532  22.184  25.428  1.00  0.00     0.149 A 
ATOM     23  C   UNL A   1      34.835  21.565  26.459  1.00  0.00     0.041 A 
ATOM     24  C   UNL A   1      32.501  20.822  24.584  1.00  0.00     0.080 A 
ATOM     25  F   UNL A   1      30.237  22.101  25.815  1.00  0.00    -0.205 F 
ATOM     26  C   UNL A   1      34.182  20.528  25.180  1.00  0.00     0.126 A 
ATOM     27  F   UNL A   1      34.965  19.631  24.568  1.00  0.00    -0.207 F 
ENDBRANCH  18  20
ENDBRANCH   9  14
ENDBRANCH   7   9
ENDBRANCH   6   7
ENDBRANCH   5   6
ENDBRANCH   4   5
ENDBRANCH   3   4
ENDBRANCH   2   3
ENDBRANCH   1   2
BRANCH   1  28
ATOM     28  O   UNL A   1      33.142  32.773  27.691  1.00  0.00    -0.376 OA
BRANCH  28  29
ATOM     29  C   UNL A   1      34.095  33.848  27.829  1.00  0.00     0.202 C 
BRANCH  29  30
ATOM     30  C   UNL A   1      34.324  34.493  29.197  1.00  0.00     0.261 C 
BRANCH  30  31
ATOM     31  O   UNL A   1      35.491  33.985  29.837  1.00  0.00    -0.460 OA
BRANCH  31  32
ATOM     32  C   UNL A   1      35.252  32.868  30.569  1.00  0.00     0.338 C 
ATOM     33  O   UNL A   1      34.187  32.536  31.063  1.00  0.00    -0.246 OA
BRANCH  32  34
ATOM     34  C   UNL A   1      36.427  31.976  30.465  1.00  0.00     0.060 A 
ATOM     35  C   UNL A   1      36.356  30.741  31.127  1.00  0.00     0.016 A 
ATOM     36  C   UNL A   1      37.538  32.295  29.679  1.00  0.00     0.016 A 
ATOM     37  C   UNL A   1      37.419  29.850  31.063  1.00  0.00     0.010 A 
ATOM     38  C   UNL A   1      38.620  31.418  29.642  1.00  0.00     0.010 A 
ATOM     39  C   UNL A   1      38.581  30.222  30.382  1.00  0.00    -0.014 A 
BRANCH  39  40
ATOM     40  C   UNL A   1      39.837  29.505  30.681  1.00  0.00     0.031 A 
ATOM     41  C   UNL A   1      40.623  29.957  31.883  1.00  0.00     0.074 A 
ATOM     42  C   UNL A   1      40.241  28.456  29.946  1.00  0.00     0.049 A 
ATOM     43  N   UNL A   1      41.777  29.536  32.327  1.00  0.00    -0.248 NA
ATOM     44  C   UNL A   1      40.025  31.036  32.685  1.00  0.00     0.031 C 
ATOM     45  C   UNL A   1      39.517  27.893  28.808  1.00  0.00     0.029 A 
ATOM     46  N   UNL A   1      41.366  27.682  30.051  1.00  0.00    -0.354 N 
ATOM     47  C   UNL A   1      42.047  30.308  33.452  1.00  0.00     0.074 A 
ATOM     48  C   UNL A   1      40.960  31.249  33.595  1.00  0.00     0.031 C 
ATOM     49  C   UNL A   1      40.226  26.865  28.312  1.00  0.00     0.029 A 
ATOM     50  C   UNL A   1      41.473  26.731  29.066  1.00  0.00     0.049 A 
ATOM     51  H   UNL A   1      42.035  27.796  30.765  1.00  0.00     0.167 HD
ATOM     52  C   UNL A   1      43.107  30.229  34.292  1.00  0.00     0.034 A 
ATOM     53  C   UNL A   1      42.479  25.878  28.788  1.00  0.00     0.034 A 
ATOM     54  C   UNL A   1      44.186  29.290  34.120  1.00  0.00     0.049 A 
ATOM     55  C   UNL A   1      43.704  25.882  29.674  1.00  0.00     0.074 A 
ATOM     56  C   UNL A   1      45.304  29.113  34.913  1.00  0.00     0.029 A 
ATOM     57  N   UNL A   1      44.291  28.381  33.074  1.00  0.00    -0.354 N 
ATOM     58  N   UNL A   1      43.957  26.616  30.735  1.00  0.00    -0.248 NA
ATOM     59  C   UNL A   1      44.776  24.939  29.330  1.00  0.00     0.031 C 
ATOM     60  C   UNL A   1      46.131  28.172  34.295  1.00  0.00     0.029 A 
ATOM     61  C   UNL A   1      45.479  27.675  33.178  1.00  0.00     0.049 A 
ATOM     62  H   UNL A   1      43.621  28.258  32.364  1.00  0.00     0.167 HD
ATOM     63  C   UNL A   1      45.198  26.191  31.207  1.00  0.00     0.074 A 
ATOM     64  C   UNL A   1      45.635  25.134  30.320  1.00  0.00     0.031 C 
ATOM     65  C   UNL A   1      45.906  26.626  32.281  1.00  0.00     0.034 A 
BRANCH  52  66
ATOM     66  C   UNL A   1      43.175  31.226  35.423  1.00  0.00     0.023 A 
ATOM     67  C   UNL A   1      43.716  32.512  35.253  1.00  0.00     0.031 A 
ATOM     68  C   UNL A   1      42.717  30.870  36.705  1.00  0.00     0.131 A 
ATOM     69  C   UNL A   1      43.851  33.366  36.357  1.00  0.00     0.055 A 
ATOM     70  C   UNL A   1      42.768  31.759  37.779  1.00  0.00     0.041 A 
ATOM     71  F   UNL A   1      42.222  29.645  36.938  1.00  0.00    -0.206 F 
ATOM     72  C   UNL A   1      43.351  33.011  37.612  1.00  0.00     0.022 A 
BRANCH  69  73
ATOM     73  S   UNL A   1      44.834  34.879  36.168  1.00  0.00     0.124 S 
ATOM     74  O   UNL A   1      46.196  34.357  36.246  1.00  0.00    -0.237 OA
ATOM     75  O   UNL A   1      44.411  35.368  34.862  1.00  0.00    -0.237 OA
ATOM     76  O   UNL A   1      44.423  35.699  37.306  1.00  0.00    -0.744 OA
ENDBRANCH  69  73
ENDBRANCH  52  66
BRANCH  53  77
ATOM     77  C   UNL A   1      42.401  24.982  27.599  1.00  0.00     0.023 A 
ATOM     78  C   UNL A   1      41.620  23.816  27.616  1.00  0.00     0.031 A 
ATOM     79  C   UNL A   1      43.158  25.248  26.444  1.00  0.00     0.131 A 
ATOM     80  C   UNL A   1      41.655  22.935  26.525  1.00  0.00     0.055 A 
ATOM     81  C   UNL A   1      43.135  24.404  25.332  1.00  0.00     0.041 A 
ATOM     82  F   UNL A   1      43.930  26.345  26.374  1.00  0.00    -0.206 F 
ATOM     83  C   UNL A   1      42.392  23.230  25.375  1.00  0.00     0.022 A 
BRANCH  80  84
ATOM     84  S   UNL A   1      40.813  21.336  26.674  1.00  0.00     0.124 S 
ATOM     85  O   UNL A   1      41.651  20.483  25.840  1.00  0.00    -0.237 OA
ATOM     86  O   UNL A   1      40.878  21.093  28.112  1.00  0.00    -0.237 OA
ATOM     87  O   UNL A   1      39.476  21.605  26.149  1.00  0.00    -0.744 OA
ENDBRANCH  80  84
ENDBRANCH  53  77
BRANCH  65  88
ATOM     88  C   UNL A   1      47.202  25.914  32.597  1.00  0.00     0.023 A 
ATOM     89  C   UNL A   1      48.401  26.207  31.925  1.00  0.00     0.031 A 
ATOM     90  C   UNL A   1      47.232  24.925  33.598  1.00  0.00     0.131 A 
ATOM     91  C   UNL A   1      49.563  25.478  32.220  1.00  0.00     0.055 A 
ATOM     92  C   UNL A   1      48.409  24.258  33.941  1.00  0.00     0.041 A 
ATOM     93  F   UNL A   1      46.117  24.595  34.270  1.00  0.00    -0.206 F 
ATOM     94  C   UNL A   1      49.581  24.523  33.240  1.00  0.00     0.022 A 
BRANCH  91  95
ATOM     95  S   UNL A   1      51.026  25.712  31.175  1.00  0.00     0.124 S 
ATOM     96  O   UNL A   1      50.543  25.261  29.874  1.00  0.00    -0.237 OA
ATOM     97  O   UNL A   1      51.276  27.144  31.301  1.00  0.00    -0.237 OA
ATOM     98  O   UNL A   1      52.032  24.851  31.796  1.00  0.00    -0.744 OA
ENDBRANCH  91  95
ENDBRANCH  65  88
ENDBRANCH  39  40
ENDBRANCH  32  34
ENDBRANCH  31  32
ENDBRANCH  30  31
ENDBRANCH  29  30
ENDBRANCH  28  29
ENDBRANCH   1  28
TORSDOF 24
ENDMDL
