MODEL 1
REMARK VINA RESULT:     -11.0      0.000      0.000
REMARK SMILES O=C(Cc1ccc(F)c(F)c1)NC1(C(=O)OCCOCCOCCOC(=O)c2ccc(-c3c4nc(c(-c5cc(S(=O)(=O)[O-])ccc5F)c5ccc([nH]5)c(-c5cc(S(=O)(=O)[O-])ccc5F)c5nc(c(-c6cc(S(=O)(=O)[O-])ccc6F)c6ccc3[nH]6)C=C5)C=C4)cc2)CCCC1
REMARK SMILES IDX 20 1 19 2 18 3 17 4 16 5 14 6 15 7 13 8 91 9 94 10 92 11
REMARK SMILES IDX 93 12 12 13 1 14 2 15 3 17 4 18 5 19 11 20 6 21 9 22 7 23
REMARK SMILES IDX 10 24 8 25 21 26 22 27 23 28 24 29 25 30 26 31 27 32 28 33
REMARK SMILES IDX 29 34 90 35 30 36 89 37 31 38 32 39 33 40 83 41 34 42 88 43
REMARK SMILES IDX 82 44 84 45 35 46 87 47 81 48 80 49 36 51 68 52 48 53 67 54
REMARK SMILES IDX 49 55 52 56 66 57 85 58 50 59 51 60 65 62 86 63 53 64 37 65
REMARK SMILES IDX 38 66 46 67 39 68 45 69 47 70 44 71 40 72 41 73 42 74 43 75
REMARK SMILES IDX 69 76 70 77 78 78 71 79 77 80 79 81 76 82 72 83 73 84 74 85
REMARK SMILES IDX 75 86 54 87 55 88 63 89 56 90 62 91 64 92 61 93 57 94 58 95
REMARK SMILES IDX 59 96 60 97
REMARK H PARENT 12 16 84 50 52 61
REMARK Flexibility Score: inf
ROOT
ATOM      1  C   UNL A   1      34.171  22.630  25.632  1.00  0.00     0.188 C 
ENDROOT
BRANCH   1   2
ATOM      2  O   UNL A   1      32.995  22.287  26.334  1.00  0.00    -0.376 OA
BRANCH   2   3
ATOM      3  C   UNL A   1      31.886  21.949  25.527  1.00  0.00     0.202 C 
BRANCH   3   4
ATOM      4  C   UNL A   1      30.760  22.983  25.334  1.00  0.00     0.261 C 
BRANCH   4   5
ATOM      5  O   UNL A   1      31.127  24.266  24.791  1.00  0.00    -0.461 OA
BRANCH   5   6
ATOM      6  C   UNL A   1      31.240  25.291  25.682  1.00  0.00     0.331 C 
ATOM      7  O   UNL A   1      31.099  25.128  26.889  1.00  0.00    -0.249 OA
BRANCH   6   8
ATOM      8  C   UNL A   1      31.627  26.658  25.015  1.00  0.00     0.138 C 
ATOM      9  C   UNL A   1      32.578  26.395  23.832  1.00  0.00     0.040 C 
ATOM     10  C   UNL A   1      32.523  27.592  25.860  1.00  0.00     0.040 C 
ATOM     11  C   UNL A   1      33.946  26.194  24.479  1.00  0.00     0.003 C 
ATOM     12  C   UNL A   1      33.946  27.067  25.725  1.00  0.00     0.003 C 
BRANCH   8  13
ATOM     13  N   UNL A   1      30.389  27.362  24.621  1.00  0.00    -0.340 N 
ATOM     14  O   UNL A   1      30.743  27.349  22.352  1.00  0.00    -0.275 OA
ATOM     15  C   UNL A   1      30.015  27.587  23.309  1.00  0.00     0.225 C 
ATOM     16  H   UNL A   1      29.797  27.690  25.336  1.00  0.00     0.164 HD
BRANCH  15  17
ATOM     17  C   UNL A   1      28.625  28.181  23.128  1.00  0.00     0.135 C 
BRANCH  17  18
ATOM     18  C   UNL A   1      28.606  29.607  22.615  1.00  0.00    -0.036 A 
ATOM     19  C   UNL A   1      28.113  29.909  21.335  1.00  0.00     0.007 A 
ATOM     20  C   UNL A   1      28.954  30.676  23.460  1.00  0.00     0.046 A 
ATOM     21  C   UNL A   1      27.953  31.235  20.920  1.00  0.00     0.043 A 
ATOM     22  C   UNL A   1      28.778  31.998  23.042  1.00  0.00     0.159 A 
ATOM     23  C   UNL A   1      28.273  32.274  21.781  1.00  0.00     0.158 A 
ATOM     24  F   UNL A   1      29.076  33.000  23.880  1.00  0.00    -0.204 F 
ATOM     25  F   UNL A   1      28.068  33.537  21.382  1.00  0.00    -0.204 F 
ENDBRANCH  17  18
ENDBRANCH  15  17
ENDBRANCH   8  13
ENDBRANCH   6   8
ENDBRANCH   5   6
ENDBRANCH   4   5
ENDBRANCH   3   4
ENDBRANCH   2   3
ENDBRANCH   1   2
BRANCH   1  26
ATOM     26  C   UNL A   1      34.374  21.771  24.385  1.00  0.00     0.188 C 
BRANCH  26  27
ATOM     27  O   UNL A   1      34.877  20.446  24.485  1.00  0.00    -0.376 OA
BRANCH  27  28
ATOM     28  C   UNL A   1      36.102  20.209  25.165  1.00  0.00     0.202 C 
BRANCH  28  29
ATOM     29  C   UNL A   1      37.402  20.855  24.650  1.00  0.00     0.261 C 
BRANCH  29  30
ATOM     30  O   UNL A   1      37.947  21.901  25.459  1.00  0.00    -0.460 OA
BRANCH  30  31
ATOM     31  C   UNL A   1      39.086  21.580  26.126  1.00  0.00     0.338 C 
ATOM     32  O   UNL A   1      39.663  20.505  26.106  1.00  0.00    -0.246 OA
BRANCH  31  33
ATOM     33  C   UNL A   1      39.639  22.821  26.727  1.00  0.00     0.060 A 
ATOM     34  C   UNL A   1      39.036  24.047  26.411  1.00  0.00     0.016 A 
ATOM     35  C   UNL A   1      40.695  22.779  27.640  1.00  0.00     0.016 A 
ATOM     36  C   UNL A   1      39.504  25.239  26.981  1.00  0.00     0.010 A 
ATOM     37  C   UNL A   1      41.167  23.971  28.203  1.00  0.00     0.010 A 
ATOM     38  C   UNL A   1      40.594  25.215  27.860  1.00  0.00    -0.014 A 
BRANCH  38  39
ATOM     39  C   UNL A   1      41.311  26.461  28.252  1.00  0.00     0.031 A 
ATOM     40  C   UNL A   1      40.485  27.607  28.756  1.00  0.00     0.074 A 
ATOM     41  C   UNL A   1      42.642  26.626  28.155  1.00  0.00     0.049 A 
ATOM     42  N   UNL A   1      40.858  28.823  29.055  1.00  0.00    -0.248 NA
ATOM     43  C   UNL A   1      39.059  27.330  28.986  1.00  0.00     0.031 C 
ATOM     44  C   UNL A   1      43.601  25.581  27.847  1.00  0.00     0.029 A 
ATOM     45  N   UNL A   1      43.420  27.756  28.257  1.00  0.00    -0.354 N 
ATOM     46  C   UNL A   1      39.729  29.436  29.576  1.00  0.00     0.074 A 
ATOM     47  C   UNL A   1      38.636  28.496  29.443  1.00  0.00     0.031 C 
ATOM     48  C   UNL A   1      44.810  26.127  27.629  1.00  0.00     0.029 A 
ATOM     49  C   UNL A   1      44.713  27.568  27.815  1.00  0.00     0.049 A 
ATOM     50  H   UNL A   1      43.088  28.613  28.611  1.00  0.00     0.167 HD
ATOM     51  C   UNL A   1      39.628  30.648  30.169  1.00  0.00     0.034 A 
ATOM     52  C   UNL A   1      45.697  28.453  27.564  1.00  0.00     0.034 A 
ATOM     53  C   UNL A   1      40.707  31.599  30.251  1.00  0.00     0.049 A 
ATOM     54  C   UNL A   1      45.494  29.891  27.954  1.00  0.00     0.074 A 
ATOM     55  C   UNL A   1      40.709  32.851  30.837  1.00  0.00     0.029 A 
ATOM     56  N   UNL A   1      41.969  31.417  29.700  1.00  0.00    -0.354 N 
ATOM     57  N   UNL A   1      44.438  30.451  28.493  1.00  0.00    -0.248 NA
ATOM     58  C   UNL A   1      46.632  30.798  27.767  1.00  0.00     0.031 C 
ATOM     59  C   UNL A   1      41.943  33.456  30.573  1.00  0.00     0.029 A 
ATOM     60  C   UNL A   1      42.741  32.553  29.890  1.00  0.00     0.049 A 
ATOM     61  H   UNL A   1      42.272  30.601  29.240  1.00  0.00     0.167 HD
ATOM     62  C   UNL A   1      44.817  31.753  28.797  1.00  0.00     0.074 A 
ATOM     63  C   UNL A   1      46.184  31.905  28.342  1.00  0.00     0.031 C 
ATOM     64  C   UNL A   1      44.106  32.713  29.441  1.00  0.00     0.034 A 
BRANCH  51  65
ATOM     65  C   UNL A   1      38.283  30.992  30.748  1.00  0.00     0.023 A 
ATOM     66  C   UNL A   1      37.292  31.607  29.960  1.00  0.00     0.031 A 
ATOM     67  C   UNL A   1      38.014  30.782  32.109  1.00  0.00     0.131 A 
ATOM     68  C   UNL A   1      36.115  32.073  30.559  1.00  0.00     0.055 A 
ATOM     69  C   UNL A   1      36.803  31.172  32.681  1.00  0.00     0.041 A 
ATOM     70  F   UNL A   1      38.937  30.225  32.909  1.00  0.00    -0.206 F 
ATOM     71  C   UNL A   1      35.852  31.838  31.910  1.00  0.00     0.022 A 
BRANCH  68  72
ATOM     72  S   UNL A   1      35.014  33.135  29.586  1.00  0.00     0.124 S 
ATOM     73  O   UNL A   1      34.031  33.539  30.588  1.00  0.00    -0.237 OA
ATOM     74  O   UNL A   1      35.915  34.182  29.118  1.00  0.00    -0.237 OA
ATOM     75  O   UNL A   1      34.505  32.241  28.548  1.00  0.00    -0.744 OA
ENDBRANCH  68  72
ENDBRANCH  51  65
BRANCH  52  76
ATOM     76  C   UNL A   1      46.956  28.025  26.892  1.00  0.00     0.023 A 
ATOM     77  C   UNL A   1      47.098  28.061  25.498  1.00  0.00     0.031 A 
ATOM     78  C   UNL A   1      48.011  27.485  27.651  1.00  0.00     0.131 A 
ATOM     79  C   UNL A   1      48.248  27.521  24.898  1.00  0.00     0.055 A 
ATOM     80  C   UNL A   1      49.169  26.983  27.053  1.00  0.00     0.041 A 
ATOM     81  F   UNL A   1      47.918  27.418  28.989  1.00  0.00    -0.206 F 
ATOM     82  C   UNL A   1      49.286  26.987  25.666  1.00  0.00     0.022 A 
BRANCH  79  83
ATOM     83  S   UNL A   1      48.331  27.454  23.087  1.00  0.00     0.124 S 
ATOM     84  O   UNL A   1      47.145  28.212  22.705  1.00  0.00    -0.237 OA
ATOM     85  O   UNL A   1      49.616  28.094  22.823  1.00  0.00    -0.237 OA
ATOM     86  O   UNL A   1      48.279  26.022  22.796  1.00  0.00    -0.744 OA
ENDBRANCH  79  83
ENDBRANCH  52  76
BRANCH  64  87
ATOM     87  C   UNL A   1      44.830  33.990  29.784  1.00  0.00     0.023 A 
ATOM     88  C   UNL A   1      44.812  35.113  28.939  1.00  0.00     0.031 A 
ATOM     89  C   UNL A   1      45.570  34.073  30.978  1.00  0.00     0.131 A 
ATOM     90  C   UNL A   1      45.567  36.249  29.274  1.00  0.00     0.055 A 
ATOM     91  C   UNL A   1      46.265  35.228  31.337  1.00  0.00     0.041 A 
ATOM     92  F   UNL A   1      45.629  33.026  31.818  1.00  0.00    -0.206 F 
ATOM     93  C   UNL A   1      46.276  36.320  30.476  1.00  0.00     0.022 A 
BRANCH  90  94
ATOM     94  S   UNL A   1      45.684  37.600  28.070  1.00  0.00     0.124 S 
ATOM     95  O   UNL A   1      46.356  36.950  26.950  1.00  0.00    -0.237 OA
ATOM     96  O   UNL A   1      44.285  37.953  27.859  1.00  0.00    -0.237 OA
ATOM     97  O   UNL A   1      46.478  38.611  28.767  1.00  0.00    -0.744 OA
ENDBRANCH  90  94
ENDBRANCH  64  87
ENDBRANCH  38  39
ENDBRANCH  31  33
ENDBRANCH  30  31
ENDBRANCH  29  30
ENDBRANCH  28  29
ENDBRANCH  27  28
ENDBRANCH  26  27
ENDBRANCH   1  26
TORSDOF 23
ENDMDL
MODEL 2
REMARK VINA RESULT:     -10.9      2.458      8.446
REMARK SMILES O=C(Cc1ccc(F)c(F)c1)NC1(C(=O)OCCOCCOCCOC(=O)c2ccc(-c3c4nc(c(-c5cc(S(=O)(=O)[O-])ccc5F)c5ccc([nH]5)c(-c5cc(S(=O)(=O)[O-])ccc5F)c5nc(c(-c6cc(S(=O)(=O)[O-])ccc6F)c6ccc3[nH]6)C=C5)C=C4)cc2)CCCC1
REMARK SMILES IDX 20 1 19 2 18 3 17 4 16 5 14 6 15 7 13 8 91 9 94 10 92 11
REMARK SMILES IDX 93 12 12 13 1 14 2 15 3 17 4 18 5 19 11 20 6 21 9 22 7 23
REMARK SMILES IDX 10 24 8 25 21 26 22 27 23 28 24 29 25 30 26 31 27 32 28 33
REMARK SMILES IDX 29 34 90 35 30 36 89 37 31 38 32 39 33 40 83 41 34 42 88 43
REMARK SMILES IDX 82 44 84 45 35 46 87 47 81 48 80 49 36 51 68 52 48 53 67 54
REMARK SMILES IDX 49 55 52 56 66 57 85 58 50 59 51 60 65 62 86 63 53 64 37 65
REMARK SMILES IDX 38 66 46 67 39 68 45 69 47 70 44 71 40 72 41 73 42 74 43 75
REMARK SMILES IDX 69 76 70 77 78 78 71 79 77 80 79 81 76 82 72 83 73 84 74 85
REMARK SMILES IDX 75 86 54 87 55 88 63 89 56 90 62 91 64 92 61 93 57 94 58 95
REMARK SMILES IDX 59 96 60 97
REMARK H PARENT 12 16 84 50 52 61
REMARK Flexibility Score: inf
ROOT
ATOM      1  C   UNL A   1      33.844  31.944  28.290  1.00  0.00     0.188 C 
ENDROOT
BRANCH   1   2
ATOM      2  O   UNL A   1      34.583  30.895  27.700  1.00  0.00    -0.376 OA
BRANCH   2   3
ATOM      3  C   UNL A   1      33.865  30.087  26.790  1.00  0.00     0.202 C 
BRANCH   3   4
ATOM      4  C   UNL A   1      32.362  30.353  26.582  1.00  0.00     0.261 C 
BRANCH   4   5
ATOM      5  O   UNL A   1      31.778  29.914  25.341  1.00  0.00    -0.461 OA
BRANCH   5   6
ATOM      6  C   UNL A   1      31.586  28.571  25.201  1.00  0.00     0.331 C 
ATOM      7  O   UNL A   1      31.373  27.838  26.160  1.00  0.00    -0.249 OA
BRANCH   6   8
ATOM      8  C   UNL A   1      31.604  28.090  23.708  1.00  0.00     0.138 C 
ATOM      9  C   UNL A   1      31.995  26.601  23.658  1.00  0.00     0.040 C 
ATOM     10  C   UNL A   1      32.725  28.678  22.822  1.00  0.00     0.040 C 
ATOM     11  C   UNL A   1      33.516  26.601  23.795  1.00  0.00     0.003 C 
ATOM     12  C   UNL A   1      33.989  27.891  23.142  1.00  0.00     0.003 C 
BRANCH   8  13
ATOM     13  N   UNL A   1      30.284  28.366  23.104  1.00  0.00    -0.340 N 
ATOM     14  O   UNL A   1      29.128  26.654  24.109  1.00  0.00    -0.275 OA
ATOM     15  C   UNL A   1      29.133  27.663  23.412  1.00  0.00     0.225 C 
ATOM     16  H   UNL A   1      30.221  29.092  22.443  1.00  0.00     0.164 HD
BRANCH  15  17
ATOM     17  C   UNL A   1      27.855  28.219  22.802  1.00  0.00     0.135 C 
BRANCH  17  18
ATOM     18  C   UNL A   1      27.842  29.723  22.616  1.00  0.00    -0.036 A 
ATOM     19  C   UNL A   1      27.757  30.588  23.720  1.00  0.00     0.007 A 
ATOM     20  C   UNL A   1      28.052  30.289  21.346  1.00  0.00     0.046 A 
ATOM     21  C   UNL A   1      27.898  31.971  23.564  1.00  0.00     0.043 A 
ATOM     22  C   UNL A   1      28.205  31.671  21.201  1.00  0.00     0.159 A 
ATOM     23  C   UNL A   1      28.136  32.505  22.306  1.00  0.00     0.158 A 
ATOM     24  F   UNL A   1      28.448  32.183  19.987  1.00  0.00    -0.204 F 
ATOM     25  F   UNL A   1      28.316  33.827  22.183  1.00  0.00    -0.204 F 
ENDBRANCH  17  18
ENDBRANCH  15  17
ENDBRANCH   8  13
ENDBRANCH   6   8
ENDBRANCH   5   6
ENDBRANCH   4   5
ENDBRANCH   3   4
ENDBRANCH   2   3
ENDBRANCH   1   2
BRANCH   1  26
ATOM     26  C   UNL A   1      34.591  32.597  29.453  1.00  0.00     0.188 C 
BRANCH  26  27
ATOM     27  O   UNL A   1      34.033  33.704  30.148  1.00  0.00    -0.376 OA
BRANCH  27  28
ATOM     28  C   UNL A   1      34.307  33.876  31.532  1.00  0.00     0.202 C 
BRANCH  28  29
ATOM     29  C   UNL A   1      34.779  32.677  32.374  1.00  0.00     0.261 C 
BRANCH  29  30
ATOM     30  O   UNL A   1      35.693  32.975  33.434  1.00  0.00    -0.460 OA
BRANCH  30  31
ATOM     31  C   UNL A   1      36.739  33.769  33.088  1.00  0.00     0.338 C 
ATOM     32  O   UNL A   1      36.937  34.915  33.457  1.00  0.00    -0.246 OA
BRANCH  31  33
ATOM     33  C   UNL A   1      37.724  32.942  32.344  1.00  0.00     0.060 A 
ATOM     34  C   UNL A   1      38.523  32.040  33.064  1.00  0.00     0.016 A 
ATOM     35  C   UNL A   1      37.822  33.003  30.952  1.00  0.00     0.016 A 
ATOM     36  C   UNL A   1      39.442  31.216  32.399  1.00  0.00     0.010 A 
ATOM     37  C   UNL A   1      38.747  32.184  30.291  1.00  0.00     0.010 A 
ATOM     38  C   UNL A   1      39.583  31.303  31.008  1.00  0.00    -0.014 A 
BRANCH  38  39
ATOM     39  C   UNL A   1      40.735  30.679  30.298  1.00  0.00     0.031 A 
ATOM     40  C   UNL A   1      41.878  31.570  29.912  1.00  0.00     0.074 A 
ATOM     41  C   UNL A   1      40.796  29.378  29.961  1.00  0.00     0.049 A 
ATOM     42  N   UNL A   1      42.936  31.291  29.199  1.00  0.00    -0.248 NA
ATOM     43  C   UNL A   1      41.834  32.946  30.431  1.00  0.00     0.031 C 
ATOM     44  C   UNL A   1      39.867  28.351  30.393  1.00  0.00     0.029 A 
ATOM     45  N   UNL A   1      41.659  28.703  29.129  1.00  0.00    -0.354 N 
ATOM     46  C   UNL A   1      43.720  32.433  29.243  1.00  0.00     0.074 A 
ATOM     47  C   UNL A   1      42.963  33.442  29.953  1.00  0.00     0.031 C 
ATOM     48  C   UNL A   1      40.101  27.215  29.713  1.00  0.00     0.029 A 
ATOM     49  C   UNL A   1      41.226  27.432  28.814  1.00  0.00     0.049 A 
ATOM     50  H   UNL A   1      42.500  29.087  28.792  1.00  0.00     0.167 HD
ATOM     51  C   UNL A   1      44.984  32.604  28.787  1.00  0.00     0.034 A 
ATOM     52  C   UNL A   1      41.666  26.552  27.893  1.00  0.00     0.034 A 
ATOM     53  C   UNL A   1      45.712  31.614  28.037  1.00  0.00     0.049 A 
ATOM     54  C   UNL A   1      42.935  26.860  27.148  1.00  0.00     0.074 A 
ATOM     55  C   UNL A   1      46.999  31.687  27.536  1.00  0.00     0.029 A 
ATOM     56  N   UNL A   1      45.204  30.382  27.646  1.00  0.00    -0.354 N 
ATOM     57  N   UNL A   1      43.697  27.923  27.234  1.00  0.00    -0.248 NA
ATOM     58  C   UNL A   1      43.439  25.826  26.237  1.00  0.00     0.031 C 
ATOM     59  C   UNL A   1      47.240  30.536  26.779  1.00  0.00     0.029 A 
ATOM     60  C   UNL A   1      46.134  29.706  26.871  1.00  0.00     0.049 A 
ATOM     61  H   UNL A   1      44.313  30.038  27.884  1.00  0.00     0.167 HD
ATOM     62  C   UNL A   1      44.819  27.645  26.462  1.00  0.00     0.074 A 
ATOM     63  C   UNL A   1      44.612  26.333  25.885  1.00  0.00     0.031 C 
ATOM     64  C   UNL A   1      45.937  28.396  26.293  1.00  0.00     0.034 A 
BRANCH  51  65
ATOM     65  C   UNL A   1      45.622  33.932  29.090  1.00  0.00     0.023 A 
ATOM     66  C   UNL A   1      45.535  35.001  28.178  1.00  0.00     0.031 A 
ATOM     67  C   UNL A   1      46.389  34.111  30.251  1.00  0.00     0.131 A 
ATOM     68  C   UNL A   1      46.278  36.168  28.398  1.00  0.00     0.055 A 
ATOM     69  C   UNL A   1      47.057  35.309  30.507  1.00  0.00     0.041 A 
ATOM     70  F   UNL A   1      46.527  33.113  31.138  1.00  0.00    -0.206 F 
ATOM     71  C   UNL A   1      47.020  36.339  29.569  1.00  0.00     0.022 A 
BRANCH  68  72
ATOM     72  S   UNL A   1      46.394  37.383  27.057  1.00  0.00     0.124 S 
ATOM     73  O   UNL A   1      45.056  37.967  27.071  1.00  0.00    -0.237 OA
ATOM     74  O   UNL A   1      47.475  38.251  27.509  1.00  0.00    -0.237 OA
ATOM     75  O   UNL A   1      46.698  36.568  25.883  1.00  0.00    -0.744 OA
ENDBRANCH  68  72
ENDBRANCH  51  65
BRANCH  52  76
ATOM     76  C   UNL A   1      40.901  25.308  27.598  1.00  0.00     0.023 A 
ATOM     77  C   UNL A   1      41.495  24.040  27.672  1.00  0.00     0.031 A 
ATOM     78  C   UNL A   1      39.571  25.391  27.147  1.00  0.00     0.131 A 
ATOM     79  C   UNL A   1      40.778  22.907  27.253  1.00  0.00     0.055 A 
ATOM     80  C   UNL A   1      38.848  24.257  26.768  1.00  0.00     0.041 A 
ATOM     81  F   UNL A   1      38.961  26.583  27.049  1.00  0.00    -0.206 F 
ATOM     82  C   UNL A   1      39.457  23.006  26.806  1.00  0.00     0.022 A 
BRANCH  79  83
ATOM     83  S   UNL A   1      41.628  21.305  27.225  1.00  0.00     0.124 S 
ATOM     84  O   UNL A   1      41.843  21.106  25.796  1.00  0.00    -0.237 OA
ATOM     85  O   UNL A   1      42.819  21.585  28.021  1.00  0.00    -0.237 OA
ATOM     86  O   UNL A   1      40.666  20.396  27.845  1.00  0.00    -0.744 OA
ENDBRANCH  79  83
ENDBRANCH  52  76
BRANCH  64  87
ATOM     87  C   UNL A   1      47.074  27.771  25.525  1.00  0.00     0.023 A 
ATOM     88  C   UNL A   1      47.309  28.052  24.169  1.00  0.00     0.031 A 
ATOM     89  C   UNL A   1      47.929  26.856  26.168  1.00  0.00     0.131 A 
ATOM     90  C   UNL A   1      48.337  27.382  23.486  1.00  0.00     0.055 A 
ATOM     91  C   UNL A   1      48.990  26.244  25.502  1.00  0.00     0.041 A 
ATOM     92  F   UNL A   1      47.745  26.543  27.462  1.00  0.00    -0.206 F 
ATOM     93  C   UNL A   1      49.190  26.496  24.149  1.00  0.00     0.022 A 
BRANCH  90  94
ATOM     94  S   UNL A   1      48.486  27.616  21.694  1.00  0.00     0.124 S 
ATOM     95  O   UNL A   1      47.174  28.152  21.349  1.00  0.00    -0.237 OA
ATOM     96  O   UNL A   1      49.604  28.549  21.592  1.00  0.00    -0.237 OA
ATOM     97  O   UNL A   1      48.759  26.270  21.194  1.00  0.00    -0.744 OA
ENDBRANCH  90  94
ENDBRANCH  64  87
ENDBRANCH  38  39
ENDBRANCH  31  33
ENDBRANCH  30  31
ENDBRANCH  29  30
ENDBRANCH  28  29
ENDBRANCH  27  28
ENDBRANCH  26  27
ENDBRANCH   1  26
TORSDOF 23
ENDMDL
MODEL 3
REMARK VINA RESULT:     -10.6      4.631      8.473
REMARK SMILES O=C(Cc1ccc(F)c(F)c1)NC1(C(=O)OCCOCCOCCOC(=O)c2ccc(-c3c4nc(c(-c5cc(S(=O)(=O)[O-])ccc5F)c5ccc([nH]5)c(-c5cc(S(=O)(=O)[O-])ccc5F)c5nc(c(-c6cc(S(=O)(=O)[O-])ccc6F)c6ccc3[nH]6)C=C5)C=C4)cc2)CCCC1
REMARK SMILES IDX 20 1 19 2 18 3 17 4 16 5 14 6 15 7 13 8 91 9 94 10 92 11
REMARK SMILES IDX 93 12 12 13 1 14 2 15 3 17 4 18 5 19 11 20 6 21 9 22 7 23
REMARK SMILES IDX 10 24 8 25 21 26 22 27 23 28 24 29 25 30 26 31 27 32 28 33
REMARK SMILES IDX 29 34 90 35 30 36 89 37 31 38 32 39 33 40 83 41 34 42 88 43
REMARK SMILES IDX 82 44 84 45 35 46 87 47 81 48 80 49 36 51 68 52 48 53 67 54
REMARK SMILES IDX 49 55 52 56 66 57 85 58 50 59 51 60 65 62 86 63 53 64 37 65
REMARK SMILES IDX 38 66 46 67 39 68 45 69 47 70 44 71 40 72 41 73 42 74 43 75
REMARK SMILES IDX 69 76 70 77 78 78 71 79 77 80 79 81 76 82 72 83 73 84 74 85
REMARK SMILES IDX 75 86 54 87 55 88 63 89 56 90 62 91 64 92 61 93 57 94 58 95
REMARK SMILES IDX 59 96 60 97
REMARK H PARENT 12 16 84 50 52 61
REMARK Flexibility Score: inf
ROOT
ATOM      1  C   UNL A   1      38.070  19.885  25.005  1.00  0.00     0.188 C 
ENDROOT
BRANCH   1   2
ATOM      2  O   UNL A   1      36.914  20.697  25.000  1.00  0.00    -0.376 OA
BRANCH   2   3
ATOM      3  C   UNL A   1      36.999  21.864  24.210  1.00  0.00     0.202 C 
BRANCH   3   4
ATOM      4  C   UNL A   1      36.065  23.048  24.524  1.00  0.00     0.261 C 
BRANCH   4   5
ATOM      5  O   UNL A   1      34.893  23.203  23.701  1.00  0.00    -0.461 OA
BRANCH   5   6
ATOM      6  C   UNL A   1      33.719  22.750  24.225  1.00  0.00     0.331 C 
ATOM      7  O   UNL A   1      33.398  21.568  24.184  1.00  0.00    -0.249 OA
BRANCH   6   8
ATOM      8  C   UNL A   1      32.874  23.870  24.926  1.00  0.00     0.138 C 
ATOM      9  C   UNL A   1      33.275  23.955  26.411  1.00  0.00     0.040 C 
ATOM     10  C   UNL A   1      31.365  23.578  25.086  1.00  0.00     0.040 C 
ATOM     11  C   UNL A   1      32.517  22.809  27.077  1.00  0.00     0.003 C 
ATOM     12  C   UNL A   1      31.227  22.653  26.288  1.00  0.00     0.003 C 
BRANCH   8  13
ATOM     13  N   UNL A   1      33.069  25.141  24.197  1.00  0.00    -0.340 N 
ATOM     14  O   UNL A   1      31.633  24.714  22.457  1.00  0.00    -0.275 OA
ATOM     15  C   UNL A   1      32.374  25.487  23.053  1.00  0.00     0.225 C 
ATOM     16  H   UNL A   1      33.734  25.777  24.547  1.00  0.00     0.164 HD
BRANCH  15  17
ATOM     17  C   UNL A   1      32.609  26.908  22.561  1.00  0.00     0.135 C 
BRANCH  17  18
ATOM     18  C   UNL A   1      31.583  27.921  23.031  1.00  0.00    -0.036 A 
ATOM     19  C   UNL A   1      31.806  28.696  24.181  1.00  0.00     0.007 A 
ATOM     20  C   UNL A   1      30.448  28.204  22.250  1.00  0.00     0.046 A 
ATOM     21  C   UNL A   1      30.935  29.734  24.529  1.00  0.00     0.043 A 
ATOM     22  C   UNL A   1      29.591  29.252  22.598  1.00  0.00     0.159 A 
ATOM     23  C   UNL A   1      29.839  30.017  23.727  1.00  0.00     0.158 A 
ATOM     24  F   UNL A   1      28.540  29.531  21.815  1.00  0.00    -0.204 F 
ATOM     25  F   UNL A   1      29.043  31.045  24.051  1.00  0.00    -0.204 F 
ENDBRANCH  17  18
ENDBRANCH  15  17
ENDBRANCH   8  13
ENDBRANCH   6   8
ENDBRANCH   5   6
ENDBRANCH   4   5
ENDBRANCH   3   4
ENDBRANCH   2   3
ENDBRANCH   1   2
BRANCH   1  26
ATOM     26  C   UNL A   1      39.235  20.538  25.750  1.00  0.00     0.188 C 
BRANCH  26  27
ATOM     27  O   UNL A   1      40.452  19.837  25.957  1.00  0.00    -0.376 OA
BRANCH  27  28
ATOM     28  C   UNL A   1      41.544  20.494  26.587  1.00  0.00     0.202 C 
BRANCH  28  29
ATOM     29  C   UNL A   1      42.772  20.908  25.757  1.00  0.00     0.261 C 
BRANCH  29  30
ATOM     30  O   UNL A   1      43.454  22.089  26.189  1.00  0.00    -0.460 OA
BRANCH  30  31
ATOM     31  C   UNL A   1      43.265  23.182  25.405  1.00  0.00     0.338 C 
ATOM     32  O   UNL A   1      43.322  23.224  24.187  1.00  0.00    -0.246 OA
BRANCH  31  33
ATOM     33  C   UNL A   1      42.767  24.289  26.262  1.00  0.00     0.060 A 
ATOM     34  C   UNL A   1      43.506  25.480  26.318  1.00  0.00     0.016 A 
ATOM     35  C   UNL A   1      41.557  24.186  26.953  1.00  0.00     0.016 A 
ATOM     36  C   UNL A   1      43.056  26.562  27.088  1.00  0.00     0.010 A 
ATOM     37  C   UNL A   1      41.113  25.265  27.728  1.00  0.00     0.010 A 
ATOM     38  C   UNL A   1      41.869  26.453  27.824  1.00  0.00    -0.014 A 
BRANCH  38  39
ATOM     39  C   UNL A   1      41.508  27.444  28.876  1.00  0.00     0.031 A 
ATOM     40  C   UNL A   1      42.233  27.362  30.186  1.00  0.00     0.074 A 
ATOM     41  C   UNL A   1      40.555  28.383  28.730  1.00  0.00     0.049 A 
ATOM     42  N   UNL A   1      42.024  28.034  31.287  1.00  0.00    -0.248 NA
ATOM     43  C   UNL A   1      43.362  26.422  30.246  1.00  0.00     0.031 C 
ATOM     44  C   UNL A   1      39.876  28.709  27.490  1.00  0.00     0.029 A 
ATOM     45  N   UNL A   1      39.954  29.208  29.652  1.00  0.00    -0.354 N 
ATOM     46  C   UNL A   1      43.041  27.652  32.148  1.00  0.00     0.074 A 
ATOM     47  C   UNL A   1      43.791  26.607  31.483  1.00  0.00     0.031 C 
ATOM     48  C   UNL A   1      38.852  29.542  27.741  1.00  0.00     0.029 A 
ATOM     49  C   UNL A   1      38.824  29.833  29.167  1.00  0.00     0.049 A 
ATOM     50  H   UNL A   1      40.297  29.341  30.566  1.00  0.00     0.167 HD
ATOM     51  C   UNL A   1      43.359  28.170  33.358  1.00  0.00     0.034 A 
ATOM     52  C   UNL A   1      37.865  30.536  29.800  1.00  0.00     0.034 A 
ATOM     53  C   UNL A   1      42.579  29.173  34.035  1.00  0.00     0.049 A 
ATOM     54  C   UNL A   1      38.059  30.883  31.250  1.00  0.00     0.074 A 
ATOM     55  C   UNL A   1      42.819  29.769  35.260  1.00  0.00     0.029 A 
ATOM     56  N   UNL A   1      41.385  29.704  33.563  1.00  0.00    -0.354 N 
ATOM     57  N   UNL A   1      39.051  30.557  32.043  1.00  0.00    -0.248 NA
ATOM     58  C   UNL A   1      37.046  31.744  31.870  1.00  0.00     0.031 C 
ATOM     59  C   UNL A   1      41.734  30.600  35.563  1.00  0.00     0.029 A 
ATOM     60  C   UNL A   1      40.853  30.584  34.493  1.00  0.00     0.049 A 
ATOM     61  H   UNL A   1      40.976  29.487  32.695  1.00  0.00     0.167 HD
ATOM     62  C   UNL A   1      38.830  31.252  33.226  1.00  0.00     0.074 A 
ATOM     63  C   UNL A   1      37.589  31.979  33.056  1.00  0.00     0.031 C 
ATOM     64  C   UNL A   1      39.617  31.315  34.331  1.00  0.00     0.034 A 
BRANCH  51  65
ATOM     65  C   UNL A   1      44.601  27.624  34.007  1.00  0.00     0.023 A 
ATOM     66  C   UNL A   1      44.543  26.487  34.834  1.00  0.00     0.031 A 
ATOM     67  C   UNL A   1      45.831  28.283  33.868  1.00  0.00     0.131 A 
ATOM     68  C   UNL A   1      45.674  26.097  35.564  1.00  0.00     0.055 A 
ATOM     69  C   UNL A   1      46.975  27.838  34.531  1.00  0.00     0.041 A 
ATOM     70  F   UNL A   1      45.933  29.388  33.114  1.00  0.00    -0.206 F 
ATOM     71  C   UNL A   1      46.897  26.751  35.399  1.00  0.00     0.022 A 
BRANCH  68  72
ATOM     72  S   UNL A   1      45.478  24.837  36.852  1.00  0.00     0.124 S 
ATOM     73  O   UNL A   1      45.266  23.630  36.055  1.00  0.00    -0.237 OA
ATOM     74  O   UNL A   1      46.746  24.914  37.567  1.00  0.00    -0.237 OA
ATOM     75  O   UNL A   1      44.309  25.293  37.601  1.00  0.00    -0.744 OA
ENDBRANCH  68  72
ENDBRANCH  51  65
BRANCH  52  76
ATOM     76  C   UNL A   1      36.622  30.944  29.087  1.00  0.00     0.023 A 
ATOM     77  C   UNL A   1      36.111  32.247  29.180  1.00  0.00     0.031 A 
ATOM     78  C   UNL A   1      35.878  29.991  28.368  1.00  0.00     0.131 A 
ATOM     79  C   UNL A   1      34.866  32.552  28.605  1.00  0.00     0.055 A 
ATOM     80  C   UNL A   1      34.659  30.308  27.765  1.00  0.00     0.041 A 
ATOM     81  F   UNL A   1      36.320  28.728  28.259  1.00  0.00    -0.206 F 
ATOM     82  C   UNL A   1      34.138  31.592  27.894  1.00  0.00     0.022 A 
BRANCH  79  83
ATOM     83  S   UNL A   1      34.170  34.206  28.871  1.00  0.00     0.124 S 
ATOM     84  O   UNL A   1      34.197  34.311  30.325  1.00  0.00    -0.237 OA
ATOM     85  O   UNL A   1      35.120  35.048  28.148  1.00  0.00    -0.237 OA
ATOM     86  O   UNL A   1      32.839  34.117  28.273  1.00  0.00    -0.744 OA
ENDBRANCH  79  83
ENDBRANCH  52  76
BRANCH  64  87
ATOM     87  C   UNL A   1      39.208  32.284  35.411  1.00  0.00     0.023 A 
ATOM     88  C   UNL A   1      39.677  33.608  35.450  1.00  0.00     0.031 A 
ATOM     89  C   UNL A   1      38.341  31.859  36.436  1.00  0.00     0.131 A 
ATOM     90  C   UNL A   1      39.322  34.442  36.522  1.00  0.00     0.055 A 
ATOM     91  C   UNL A   1      37.938  32.713  37.463  1.00  0.00     0.041 A 
ATOM     92  F   UNL A   1      37.868  30.602  36.453  1.00  0.00    -0.206 F 
ATOM     93  C   UNL A   1      38.440  34.010  37.516  1.00  0.00     0.022 A 
BRANCH  90  94
ATOM     94  S   UNL A   1      40.102  36.074  36.649  1.00  0.00     0.124 S 
ATOM     95  O   UNL A   1      41.509  35.724  36.818  1.00  0.00    -0.237 OA
ATOM     96  O   UNL A   1      39.746  36.690  35.375  1.00  0.00    -0.237 OA
ATOM     97  O   UNL A   1      39.464  36.668  37.822  1.00  0.00    -0.744 OA
ENDBRANCH  90  94
ENDBRANCH  64  87
ENDBRANCH  38  39
ENDBRANCH  31  33
ENDBRANCH  30  31
ENDBRANCH  29  30
ENDBRANCH  28  29
ENDBRANCH  27  28
ENDBRANCH  26  27
ENDBRANCH   1  26
TORSDOF 23
ENDMDL
