MODEL 1
REMARK VINA RESULT:      -7.7      0.000      0.000
REMARK SMILES CC(=O)NS(=O)(=O)c1ccc(-c2ccn(C(F)F)c(=O)c2)cc1C(=O)OCCOCCOCCOC(=O)c1ccc(-c2c3nc(c(-c4cc(S(=O)(=O)[O-])ccc4F)c4ccc([nH]4)c(-c4cc(S(=O)(=O)[O-])ccc4F)c4nc(c(-c5cc(S(=O)(=O)[O-])ccc5F)c5ccc2[nH]5)C=C4)C=C3)cc1
REMARK SMILES IDX 31 1 30 2 29 3 28 4 27 5 26 6 24 7 25 8 23 9 8 10 9 11 10 12
REMARK SMILES IDX 22 13 11 14 5 15 6 16 7 17 4 18 1 19 2 20 3 21 12 23 13 24
REMARK SMILES IDX 21 25 14 26 19 27 15 28 20 29 16 30 17 31 18 32 32 33 33 34
REMARK SMILES IDX 34 35 35 36 36 37 37 38 38 39 39 40 100 41 40 42 99 43 41 44
REMARK SMILES IDX 42 45 43 46 93 47 44 48 98 49 92 50 94 51 45 52 97 53 91 54
REMARK SMILES IDX 90 55 46 57 78 58 58 59 77 60 59 61 62 62 76 63 95 64 60 65
REMARK SMILES IDX 61 66 75 68 96 69 63 70 47 71 48 72 56 73 49 74 55 75 57 76
REMARK SMILES IDX 54 77 50 78 51 79 52 80 53 81 79 82 80 83 88 84 81 85 87 86
REMARK SMILES IDX 89 87 86 88 82 89 83 90 84 91 85 92 64 93 65 94 73 95 66 96
REMARK SMILES IDX 72 97 74 98 71 99 67 100 68 101 69 102 70 103
REMARK H PARENT 4 22 94 56 62 67
REMARK Flexibility Score: inf
ROOT
ATOM      1  C   UNL A   1      50.917  26.131  26.712  1.00  0.00     0.188 C 
ENDROOT
BRANCH   1   2
ATOM      2  C   UNL A   1      50.026  25.176  27.527  1.00  0.00     0.188 C 
BRANCH   2   3
ATOM      3  O   UNL A   1      48.723  25.695  27.778  1.00  0.00    -0.376 OA
BRANCH   3   4
ATOM      4  C   UNL A   1      47.654  24.985  27.170  1.00  0.00     0.202 C 
BRANCH   4   5
ATOM      5  C   UNL A   1      46.486  24.783  28.133  1.00  0.00     0.261 C 
BRANCH   5   6
ATOM      6  O   UNL A   1      45.186  24.825  27.516  1.00  0.00    -0.460 OA
BRANCH   6   7
ATOM      7  C   UNL A   1      44.135  24.454  28.269  1.00  0.00     0.339 C 
ATOM      8  O   UNL A   1      44.157  23.897  29.352  1.00  0.00    -0.246 OA
BRANCH   7   9
ATOM      9  C   UNL A   1      42.890  24.829  27.583  1.00  0.00     0.081 A 
ATOM     10  C   UNL A   1      42.163  23.949  26.778  1.00  0.00     0.102 A 
ATOM     11  C   UNL A   1      40.987  24.387  26.151  1.00  0.00     0.024 A 
ATOM     12  C   UNL A   1      40.469  25.648  26.438  1.00  0.00     0.010 A 
ATOM     13  C   UNL A   1      42.351  26.089  27.893  1.00  0.00     0.025 A 
ATOM     14  C   UNL A   1      41.105  26.473  27.375  1.00  0.00    -0.017 A 
BRANCH  10  15
ATOM     15  S   UNL A   1      42.480  22.206  26.717  1.00  0.00     0.264 S 
ATOM     16  O   UNL A   1      41.873  21.707  25.507  1.00  0.00    -0.201 OA
ATOM     17  O   UNL A   1      42.113  21.663  28.010  1.00  0.00    -0.201 OA
BRANCH  15  18
ATOM     18  N   UNL A   1      44.106  21.982  26.561  1.00  0.00    -0.249 N 
ATOM     19  C   UNL A   1      44.469  22.703  24.185  1.00  0.00     0.115 C 
ATOM     20  C   UNL A   1      44.998  22.314  25.534  1.00  0.00     0.230 C 
ATOM     21  O   UNL A   1      46.197  22.200  25.757  1.00  0.00    -0.274 OA
ATOM     22  H   UNL A   1      44.526  21.534  27.330  1.00  0.00     0.183 HD
ENDBRANCH  15  18
ENDBRANCH  10  15
BRANCH  14  23
ATOM     23  C   UNL A   1      40.373  27.594  27.994  1.00  0.00    -0.011 A 
ATOM     24  C   UNL A   1      39.362  28.402  27.345  1.00  0.00     0.027 A 
ATOM     25  C   UNL A   1      40.798  27.947  29.221  1.00  0.00     0.080 A 
ATOM     26  C   UNL A   1      38.903  29.514  27.939  1.00  0.00     0.095 A 
ATOM     27  C   UNL A   1      40.257  29.138  29.918  1.00  0.00     0.255 A 
ATOM     28  N   UNL A   1      39.356  29.895  29.192  1.00  0.00    -0.258 N 
ATOM     29  O   UNL A   1      40.655  29.363  31.057  1.00  0.00    -0.269 OA
BRANCH  28  30
ATOM     30  C   UNL A   1      38.894  31.112  29.812  1.00  0.00     0.451 C 
ATOM     31  F   UNL A   1      39.897  32.024  29.865  1.00  0.00    -0.185 F 
ATOM     32  F   UNL A   1      37.879  31.652  29.096  1.00  0.00    -0.185 F 
ENDBRANCH  28  30
ENDBRANCH  14  23
ENDBRANCH   7   9
ENDBRANCH   6   7
ENDBRANCH   5   6
ENDBRANCH   4   5
ENDBRANCH   3   4
ENDBRANCH   2   3
ENDBRANCH   1   2
BRANCH   1  33
ATOM     33  O   UNL A   1      51.009  25.933  25.305  1.00  0.00    -0.376 OA
BRANCH  33  34
ATOM     34  C   UNL A   1      50.544  26.965  24.440  1.00  0.00     0.202 C 
BRANCH  34  35
ATOM     35  C   UNL A   1      49.036  27.004  24.193  1.00  0.00     0.261 C 
BRANCH  35  36
ATOM     36  O   UNL A   1      48.423  28.136  24.835  1.00  0.00    -0.460 OA
BRANCH  36  37
ATOM     37  C   UNL A   1      47.077  28.219  24.702  1.00  0.00     0.338 C 
ATOM     38  O   UNL A   1      46.433  28.077  23.677  1.00  0.00    -0.246 OA
BRANCH  37  39
ATOM     39  C   UNL A   1      46.447  28.304  26.038  1.00  0.00     0.060 A 
ATOM     40  C   UNL A   1      45.070  28.050  26.122  1.00  0.00     0.016 A 
ATOM     41  C   UNL A   1      47.166  28.672  27.178  1.00  0.00     0.016 A 
ATOM     42  C   UNL A   1      44.395  28.229  27.328  1.00  0.00     0.010 A 
ATOM     43  C   UNL A   1      46.485  28.872  28.384  1.00  0.00     0.010 A 
ATOM     44  C   UNL A   1      45.091  28.698  28.449  1.00  0.00    -0.014 A 
BRANCH  44  45
ATOM     45  C   UNL A   1      44.334  29.274  29.587  1.00  0.00     0.031 A 
ATOM     46  C   UNL A   1      43.944  30.726  29.499  1.00  0.00     0.074 A 
ATOM     47  C   UNL A   1      43.998  28.545  30.665  1.00  0.00     0.049 A 
ATOM     48  N   UNL A   1      43.384  31.494  30.396  1.00  0.00    -0.248 NA
ATOM     49  C   UNL A   1      44.225  31.396  28.219  1.00  0.00     0.031 C 
ATOM     50  C   UNL A   1      44.260  27.118  30.839  1.00  0.00     0.029 A 
ATOM     51  N   UNL A   1      43.378  28.921  31.831  1.00  0.00    -0.354 N 
ATOM     52  C   UNL A   1      43.250  32.740  29.790  1.00  0.00     0.074 A 
ATOM     53  C   UNL A   1      43.802  32.626  28.459  1.00  0.00     0.031 C 
ATOM     54  C   UNL A   1      43.836  26.746  32.062  1.00  0.00     0.029 A 
ATOM     55  C   UNL A   1      43.315  27.916  32.769  1.00  0.00     0.049 A 
ATOM     56  H   UNL A   1      43.014  29.822  31.982  1.00  0.00     0.167 HD
ATOM     57  C   UNL A   1      42.721  33.879  30.298  1.00  0.00     0.034 A 
ATOM     58  C   UNL A   1      42.924  27.954  34.059  1.00  0.00     0.034 A 
ATOM     59  C   UNL A   1      42.217  33.999  31.641  1.00  0.00     0.049 A 
ATOM     60  C   UNL A   1      42.447  29.263  34.647  1.00  0.00     0.074 A 
ATOM     61  C   UNL A   1      41.687  35.110  32.271  1.00  0.00     0.029 A 
ATOM     62  N   UNL A   1      42.201  32.968  32.571  1.00  0.00    -0.354 N 
ATOM     63  N   UNL A   1      42.336  30.438  34.070  1.00  0.00    -0.248 NA
ATOM     64  C   UNL A   1      42.043  29.249  36.061  1.00  0.00     0.031 C 
ATOM     65  C   UNL A   1      41.401  34.766  33.597  1.00  0.00     0.029 A 
ATOM     66  C   UNL A   1      41.693  33.422  33.775  1.00  0.00     0.049 A 
ATOM     67  H   UNL A   1      42.507  32.047  32.398  1.00  0.00     0.167 HD
ATOM     68  C   UNL A   1      41.822  31.292  35.043  1.00  0.00     0.074 A 
ATOM     69  C   UNL A   1      41.641  30.500  36.241  1.00  0.00     0.031 C 
ATOM     70  C   UNL A   1      41.517  32.612  34.956  1.00  0.00     0.034 A 
BRANCH  57  71
ATOM     71  C   UNL A   1      42.738  35.092  29.405  1.00  0.00     0.023 A 
ATOM     72  C   UNL A   1      43.879  35.907  29.297  1.00  0.00     0.031 A 
ATOM     73  C   UNL A   1      41.580  35.478  28.710  1.00  0.00     0.131 A 
ATOM     74  C   UNL A   1      43.814  37.106  28.573  1.00  0.00     0.055 A 
ATOM     75  C   UNL A   1      41.544  36.634  27.930  1.00  0.00     0.041 A 
ATOM     76  F   UNL A   1      40.455  34.751  28.801  1.00  0.00    -0.206 F 
ATOM     77  C   UNL A   1      42.660  37.465  27.871  1.00  0.00     0.022 A 
BRANCH  74  78
ATOM     78  S   UNL A   1      45.207  38.262  28.687  1.00  0.00     0.124 S 
ATOM     79  O   UNL A   1      44.524  39.552  28.628  1.00  0.00    -0.237 OA
ATOM     80  O   UNL A   1      45.801  37.913  29.972  1.00  0.00    -0.237 OA
ATOM     81  O   UNL A   1      46.017  37.937  27.515  1.00  0.00    -0.744 OA
ENDBRANCH  74  78
ENDBRANCH  57  71
BRANCH  58  82
ATOM     82  C   UNL A   1      43.032  26.742  34.920  1.00  0.00     0.023 A 
ATOM     83  C   UNL A   1      44.262  26.348  35.469  1.00  0.00     0.031 A 
ATOM     84  C   UNL A   1      41.915  25.916  35.142  1.00  0.00     0.131 A 
ATOM     85  C   UNL A   1      44.356  25.138  36.175  1.00  0.00     0.055 A 
ATOM     86  C   UNL A   1      42.004  24.739  35.886  1.00  0.00     0.041 A 
ATOM     87  F   UNL A   1      40.717  26.246  34.634  1.00  0.00    -0.206 F 
ATOM     88  C   UNL A   1      43.233  24.338  36.397  1.00  0.00     0.022 A 
BRANCH  85  89
ATOM     89  S   UNL A   1      45.992  24.581  36.724  1.00  0.00     0.124 S 
ATOM     90  O   UNL A   1      46.847  25.660  36.244  1.00  0.00    -0.237 OA
ATOM     91  O   UNL A   1      45.811  24.499  38.170  1.00  0.00    -0.237 OA
ATOM     92  O   UNL A   1      46.161  23.298  36.044  1.00  0.00    -0.744 OA
ENDBRANCH  85  89
ENDBRANCH  58  82
BRANCH  70  93
ATOM     93  C   UNL A   1      40.894  33.260  36.165  1.00  0.00     0.023 A 
ATOM     94  C   UNL A   1      41.664  33.922  37.134  1.00  0.00     0.031 A 
ATOM     95  C   UNL A   1      39.498  33.222  36.336  1.00  0.00     0.131 A 
ATOM     96  C   UNL A   1      41.037  34.492  38.253  1.00  0.00     0.055 A 
ATOM     97  C   UNL A   1      38.875  33.828  37.427  1.00  0.00     0.041 A 
ATOM     98  F   UNL A   1      38.717  32.602  35.436  1.00  0.00    -0.206 F 
ATOM     99  C   UNL A   1      39.646  34.461  38.398  1.00  0.00     0.022 A 
BRANCH  96 100
ATOM    100  S   UNL A   1      42.066  35.231  39.551  1.00  0.00     0.124 S 
ATOM    101  O   UNL A   1      43.010  34.157  39.838  1.00  0.00    -0.237 OA
ATOM    102  O   UNL A   1      42.619  36.404  38.881  1.00  0.00    -0.237 OA
ATOM    103  O   UNL A   1      41.113  35.523  40.620  1.00  0.00    -0.744 OA
ENDBRANCH  96 100
ENDBRANCH  70  93
ENDBRANCH  44  45
ENDBRANCH  37  39
ENDBRANCH  36  37
ENDBRANCH  35  36
ENDBRANCH  34  35
ENDBRANCH  33  34
ENDBRANCH   1  33
TORSDOF 24
ENDMDL
MODEL 2
REMARK VINA RESULT:      -7.5      5.409     11.947
REMARK SMILES CC(=O)NS(=O)(=O)c1ccc(-c2ccn(C(F)F)c(=O)c2)cc1C(=O)OCCOCCOCCOC(=O)c1ccc(-c2c3nc(c(-c4cc(S(=O)(=O)[O-])ccc4F)c4ccc([nH]4)c(-c4cc(S(=O)(=O)[O-])ccc4F)c4nc(c(-c5cc(S(=O)(=O)[O-])ccc5F)c5ccc2[nH]5)C=C4)C=C3)cc1
REMARK SMILES IDX 31 1 30 2 29 3 28 4 27 5 26 6 24 7 25 8 23 9 8 10 9 11 10 12
REMARK SMILES IDX 22 13 11 14 5 15 6 16 7 17 4 18 1 19 2 20 3 21 12 23 13 24
REMARK SMILES IDX 21 25 14 26 19 27 15 28 20 29 16 30 17 31 18 32 32 33 33 34
REMARK SMILES IDX 34 35 35 36 36 37 37 38 38 39 39 40 100 41 40 42 99 43 41 44
REMARK SMILES IDX 42 45 43 46 93 47 44 48 98 49 92 50 94 51 45 52 97 53 91 54
REMARK SMILES IDX 90 55 46 57 78 58 58 59 77 60 59 61 62 62 76 63 95 64 60 65
REMARK SMILES IDX 61 66 75 68 96 69 63 70 47 71 48 72 56 73 49 74 55 75 57 76
REMARK SMILES IDX 54 77 50 78 51 79 52 80 53 81 79 82 80 83 88 84 81 85 87 86
REMARK SMILES IDX 89 87 86 88 82 89 83 90 84 91 85 92 64 93 65 94 73 95 66 96
REMARK SMILES IDX 72 97 74 98 71 99 67 100 68 101 69 102 70 103
REMARK H PARENT 4 22 94 56 62 67
REMARK Flexibility Score: inf
ROOT
ATOM      1  C   UNL A   1      40.470  28.753  29.191  1.00  0.00     0.188 C 
ENDROOT
BRANCH   1   2
ATOM      2  C   UNL A   1      40.033  29.050  27.745  1.00  0.00     0.188 C 
BRANCH   2   3
ATOM      3  O   UNL A   1      40.100  27.912  26.891  1.00  0.00    -0.376 OA
BRANCH   3   4
ATOM      4  C   UNL A   1      41.388  27.332  26.744  1.00  0.00     0.202 C 
BRANCH   4   5
ATOM      5  C   UNL A   1      41.310  25.888  26.255  1.00  0.00     0.261 C 
BRANCH   5   6
ATOM      6  O   UNL A   1      39.972  25.378  26.104  1.00  0.00    -0.460 OA
BRANCH   6   7
ATOM      7  C   UNL A   1      39.534  24.513  27.037  1.00  0.00     0.339 C 
ATOM      8  O   UNL A   1      39.724  24.557  28.239  1.00  0.00    -0.246 OA
BRANCH   7   9
ATOM      9  C   UNL A   1      38.754  23.451  26.385  1.00  0.00     0.081 A 
ATOM     10  C   UNL A   1      39.272  22.188  26.092  1.00  0.00     0.102 A 
ATOM     11  C   UNL A   1      38.464  21.230  25.461  1.00  0.00     0.024 A 
ATOM     12  C   UNL A   1      37.110  21.486  25.252  1.00  0.00     0.010 A 
ATOM     13  C   UNL A   1      37.382  23.696  26.198  1.00  0.00     0.025 A 
ATOM     14  C   UNL A   1      36.546  22.689  25.695  1.00  0.00    -0.017 A 
BRANCH  10  15
ATOM     15  S   UNL A   1      40.823  21.607  26.726  1.00  0.00     0.264 S 
ATOM     16  O   UNL A   1      40.700  21.549  28.162  1.00  0.00    -0.201 OA
ATOM     17  O   UNL A   1      41.861  22.403  26.101  1.00  0.00    -0.201 OA
BRANCH  15  18
ATOM     18  N   UNL A   1      41.045  20.058  26.204  1.00  0.00    -0.249 N 
ATOM     19  C   UNL A   1      43.500  20.071  25.680  1.00  0.00     0.115 C 
ATOM     20  C   UNL A   1      42.203  19.341  25.880  1.00  0.00     0.230 C 
ATOM     21  O   UNL A   1      42.098  18.135  25.695  1.00  0.00    -0.274 OA
ATOM     22  H   UNL A   1      40.212  19.545  26.102  1.00  0.00     0.183 HD
ENDBRANCH  15  18
ENDBRANCH  10  15
BRANCH  14  23
ATOM     23  C   UNL A   1      35.085  22.804  25.865  1.00  0.00    -0.011 A 
ATOM     24  C   UNL A   1      34.165  21.698  26.026  1.00  0.00     0.027 A 
ATOM     25  C   UNL A   1      34.588  24.047  25.726  1.00  0.00     0.080 A 
ATOM     26  C   UNL A   1      32.841  21.909  25.979  1.00  0.00     0.095 A 
ATOM     27  C   UNL A   1      33.128  24.306  25.733  1.00  0.00     0.255 A 
ATOM     28  N   UNL A   1      32.325  23.184  25.811  1.00  0.00    -0.258 N 
ATOM     29  O   UNL A   1      32.756  25.473  25.656  1.00  0.00    -0.269 OA
BRANCH  28  30
ATOM     30  C   UNL A   1      30.903  23.406  25.718  1.00  0.00     0.451 C 
ATOM     31  F   UNL A   1      30.504  23.366  24.422  1.00  0.00    -0.185 F 
ATOM     32  F   UNL A   1      30.229  22.442  26.389  1.00  0.00    -0.185 F 
ENDBRANCH  28  30
ENDBRANCH  14  23
ENDBRANCH   7   9
ENDBRANCH   6   7
ENDBRANCH   5   6
ENDBRANCH   4   5
ENDBRANCH   3   4
ENDBRANCH   2   3
ENDBRANCH   1   2
BRANCH   1  33
ATOM     33  O   UNL A   1      39.884  29.514  30.244  1.00  0.00    -0.376 OA
BRANCH  33  34
ATOM     34  C   UNL A   1      38.465  29.569  30.335  1.00  0.00     0.202 C 
BRANCH  34  35
ATOM     35  C   UNL A   1      37.836  30.953  30.171  1.00  0.00     0.261 C 
BRANCH  35  36
ATOM     36  O   UNL A   1      38.213  31.836  31.242  1.00  0.00    -0.460 OA
BRANCH  36  37
ATOM     37  C   UNL A   1      37.907  33.143  31.050  1.00  0.00     0.338 C 
ATOM     38  O   UNL A   1      36.869  33.704  31.355  1.00  0.00    -0.246 OA
BRANCH  37  39
ATOM     39  C   UNL A   1      39.110  33.876  30.595  1.00  0.00     0.060 A 
ATOM     40  C   UNL A   1      39.090  34.409  29.298  1.00  0.00     0.016 A 
ATOM     41  C   UNL A   1      40.252  34.000  31.391  1.00  0.00     0.016 A 
ATOM     42  C   UNL A   1      40.231  35.007  28.767  1.00  0.00     0.010 A 
ATOM     43  C   UNL A   1      41.404  34.581  30.850  1.00  0.00     0.010 A 
ATOM     44  C   UNL A   1      41.411  35.041  29.521  1.00  0.00    -0.014 A 
BRANCH  44  45
ATOM     45  C   UNL A   1      42.705  35.288  28.840  1.00  0.00     0.031 A 
ATOM     46  C   UNL A   1      43.602  34.102  28.602  1.00  0.00     0.074 A 
ATOM     47  C   UNL A   1      43.080  36.515  28.439  1.00  0.00     0.049 A 
ATOM     48  N   UNL A   1      44.822  34.061  28.133  1.00  0.00    -0.248 NA
ATOM     49  C   UNL A   1      43.039  32.785  28.940  1.00  0.00     0.031 C 
ATOM     50  C   UNL A   1      42.273  37.727  28.553  1.00  0.00     0.029 A 
ATOM     51  N   UNL A   1      44.256  36.941  27.872  1.00  0.00    -0.354 N 
ATOM     52  C   UNL A   1      45.174  32.715  28.125  1.00  0.00     0.074 A 
ATOM     53  C   UNL A   1      44.046  31.978  28.649  1.00  0.00     0.031 C 
ATOM     54  C   UNL A   1      42.995  38.771  28.104  1.00  0.00     0.029 A 
ATOM     55  C   UNL A   1      44.326  38.306  27.713  1.00  0.00     0.049 A 
ATOM     56  H   UNL A   1      44.979  36.329  27.606  1.00  0.00     0.167 HD
ATOM     57  C   UNL A   1      46.334  32.143  27.722  1.00  0.00     0.034 A 
ATOM     58  C   UNL A   1      45.362  39.085  27.340  1.00  0.00     0.034 A 
ATOM     59  C   UNL A   1      47.471  32.887  27.245  1.00  0.00     0.049 A 
ATOM     60  C   UNL A   1      46.689  38.441  27.008  1.00  0.00     0.074 A 
ATOM     61  C   UNL A   1      48.706  32.414  26.840  1.00  0.00     0.029 A 
ATOM     62  N   UNL A   1      47.514  34.269  27.131  1.00  0.00    -0.354 N 
ATOM     63  N   UNL A   1      47.015  37.168  27.015  1.00  0.00    -0.248 NA
ATOM     64  C   UNL A   1      47.786  39.339  26.617  1.00  0.00     0.031 C 
ATOM     65  C   UNL A   1      49.514  33.514  26.532  1.00  0.00     0.029 A 
ATOM     66  C   UNL A   1      48.762  34.669  26.683  1.00  0.00     0.049 A 
ATOM     67  H   UNL A   1      46.767  34.877  27.337  1.00  0.00     0.167 HD
ATOM     68  C   UNL A   1      48.344  37.115  26.601  1.00  0.00     0.074 A 
ATOM     69  C   UNL A   1      48.758  38.479  26.350  1.00  0.00     0.031 C 
ATOM     70  C   UNL A   1      49.151  36.035  26.435  1.00  0.00     0.034 A 
BRANCH  57  71
ATOM     71  C   UNL A   1      46.435  30.646  27.857  1.00  0.00     0.023 A 
ATOM     72  C   UNL A   1      46.134  29.791  26.782  1.00  0.00     0.031 A 
ATOM     73  C   UNL A   1      46.766  30.065  29.093  1.00  0.00     0.131 A 
ATOM     74  C   UNL A   1      46.096  28.403  26.984  1.00  0.00     0.055 A 
ATOM     75  C   UNL A   1      46.799  28.682  29.268  1.00  0.00     0.041 A 
ATOM     76  F   UNL A   1      47.034  30.836  30.159  1.00  0.00    -0.206 F 
ATOM     77  C   UNL A   1      46.446  27.842  28.214  1.00  0.00     0.022 A 
BRANCH  74  78
ATOM     78  S   UNL A   1      45.435  27.355  25.659  1.00  0.00     0.124 S 
ATOM     79  O   UNL A   1      44.302  28.151  25.193  1.00  0.00    -0.237 OA
ATOM     80  O   UNL A   1      46.565  27.256  24.744  1.00  0.00    -0.237 OA
ATOM     81  O   UNL A   1      45.078  26.117  26.349  1.00  0.00    -0.744 OA
ENDBRANCH  74  78
ENDBRANCH  57  71
BRANCH  58  82
ATOM     82  C   UNL A   1      45.227  40.570  27.330  1.00  0.00     0.023 A 
ATOM     83  C   UNL A   1      44.898  41.261  26.154  1.00  0.00     0.031 A 
ATOM     84  C   UNL A   1      45.502  41.325  28.484  1.00  0.00     0.131 A 
ATOM     85  C   UNL A   1      44.896  42.665  26.146  1.00  0.00     0.055 A 
ATOM     86  C   UNL A   1      45.450  42.719  28.484  1.00  0.00     0.041 A 
ATOM     87  F   UNL A   1      45.826  40.712  29.634  1.00  0.00    -0.206 F 
ATOM     88  C   UNL A   1      45.158  43.398  27.306  1.00  0.00     0.022 A 
BRANCH  85  89
ATOM     89  S   UNL A   1      44.631  43.523  24.570  1.00  0.00     0.124 S 
ATOM     90  O   UNL A   1      45.104  44.867  24.883  1.00  0.00    -0.237 OA
ATOM     91  O   UNL A   1      45.464  42.743  23.661  1.00  0.00    -0.237 OA
ATOM     92  O   UNL A   1      43.191  43.400  24.355  1.00  0.00    -0.744 OA
ENDBRANCH  85  89
ENDBRANCH  58  82
BRANCH  70  93
ATOM     93  C   UNL A   1      50.535  36.284  25.894  1.00  0.00     0.023 A 
ATOM     94  C   UNL A   1      51.666  36.307  26.726  1.00  0.00     0.031 A 
ATOM     95  C   UNL A   1      50.720  36.485  24.514  1.00  0.00     0.131 A 
ATOM     96  C   UNL A   1      52.931  36.563  26.175  1.00  0.00     0.055 A 
ATOM     97  C   UNL A   1      51.985  36.694  23.965  1.00  0.00     0.041 A 
ATOM     98  F   UNL A   1      49.670  36.470  23.676  1.00  0.00    -0.206 F 
ATOM     99  C   UNL A   1      53.099  36.743  24.798  1.00  0.00     0.022 A 
BRANCH  96 100
ATOM    100  S   UNL A   1      54.356  36.712  27.287  1.00  0.00     0.124 S 
ATOM    101  O   UNL A   1      54.976  37.949  26.823  1.00  0.00    -0.237 OA
ATOM    102  O   UNL A   1      53.723  36.770  28.601  1.00  0.00    -0.237 OA
ATOM    103  O   UNL A   1      55.125  35.497  27.025  1.00  0.00    -0.744 OA
ENDBRANCH  96 100
ENDBRANCH  70  93
ENDBRANCH  44  45
ENDBRANCH  37  39
ENDBRANCH  36  37
ENDBRANCH  35  36
ENDBRANCH  34  35
ENDBRANCH  33  34
ENDBRANCH   1  33
TORSDOF 24
ENDMDL
MODEL 3
REMARK VINA RESULT:      -7.4      1.745      2.228
REMARK SMILES CC(=O)NS(=O)(=O)c1ccc(-c2ccn(C(F)F)c(=O)c2)cc1C(=O)OCCOCCOCCOC(=O)c1ccc(-c2c3nc(c(-c4cc(S(=O)(=O)[O-])ccc4F)c4ccc([nH]4)c(-c4cc(S(=O)(=O)[O-])ccc4F)c4nc(c(-c5cc(S(=O)(=O)[O-])ccc5F)c5ccc2[nH]5)C=C4)C=C3)cc1
REMARK SMILES IDX 31 1 30 2 29 3 28 4 27 5 26 6 24 7 25 8 23 9 8 10 9 11 10 12
REMARK SMILES IDX 22 13 11 14 5 15 6 16 7 17 4 18 1 19 2 20 3 21 12 23 13 24
REMARK SMILES IDX 21 25 14 26 19 27 15 28 20 29 16 30 17 31 18 32 32 33 33 34
REMARK SMILES IDX 34 35 35 36 36 37 37 38 38 39 39 40 100 41 40 42 99 43 41 44
REMARK SMILES IDX 42 45 43 46 93 47 44 48 98 49 92 50 94 51 45 52 97 53 91 54
REMARK SMILES IDX 90 55 46 57 78 58 58 59 77 60 59 61 62 62 76 63 95 64 60 65
REMARK SMILES IDX 61 66 75 68 96 69 63 70 47 71 48 72 56 73 49 74 55 75 57 76
REMARK SMILES IDX 54 77 50 78 51 79 52 80 53 81 79 82 80 83 88 84 81 85 87 86
REMARK SMILES IDX 89 87 86 88 82 89 83 90 84 91 85 92 64 93 65 94 73 95 66 96
REMARK SMILES IDX 72 97 74 98 71 99 67 100 68 101 69 102 70 103
REMARK H PARENT 4 22 94 56 62 67
REMARK Flexibility Score: inf
ROOT
ATOM      1  C   UNL A   1      51.711  26.573  26.746  1.00  0.00     0.188 C 
ENDROOT
BRANCH   1   2
ATOM      2  C   UNL A   1      51.129  25.607  27.794  1.00  0.00     0.188 C 
BRANCH   2   3
ATOM      3  O   UNL A   1      49.745  25.824  28.054  1.00  0.00    -0.376 OA
BRANCH   3   4
ATOM      4  C   UNL A   1      48.928  24.663  28.025  1.00  0.00     0.202 C 
BRANCH   4   5
ATOM      5  C   UNL A   1      47.467  24.989  28.330  1.00  0.00     0.261 C 
BRANCH   5   6
ATOM      6  O   UNL A   1      46.535  24.569  27.316  1.00  0.00    -0.460 OA
BRANCH   6   7
ATOM      7  C   UNL A   1      45.338  24.118  27.729  1.00  0.00     0.339 C 
ATOM      8  O   UNL A   1      45.113  23.297  28.601  1.00  0.00    -0.246 OA
BRANCH   7   9
ATOM      9  C   UNL A   1      44.277  24.778  26.955  1.00  0.00     0.081 A 
ATOM     10  C   UNL A   1      43.866  24.345  25.692  1.00  0.00     0.102 A 
ATOM     11  C   UNL A   1      42.851  25.035  25.013  1.00  0.00     0.024 A 
ATOM     12  C   UNL A   1      42.156  26.062  25.651  1.00  0.00     0.010 A 
ATOM     13  C   UNL A   1      43.556  25.795  27.605  1.00  0.00     0.025 A 
ATOM     14  C   UNL A   1      42.452  26.391  26.980  1.00  0.00    -0.017 A 
BRANCH  10  15
ATOM     15  S   UNL A   1      44.356  22.791  24.994  1.00  0.00     0.264 S 
ATOM     16  O   UNL A   1      45.798  22.775  24.964  1.00  0.00    -0.201 OA
ATOM     17  O   UNL A   1      43.587  22.611  23.779  1.00  0.00    -0.201 OA
BRANCH  15  18
ATOM     18  N   UNL A   1      43.888  21.592  26.025  1.00  0.00    -0.249 N 
ATOM     19  C   UNL A   1      41.408  21.966  26.108  1.00  0.00     0.115 C 
ATOM     20  C   UNL A   1      42.622  21.136  26.410  1.00  0.00     0.230 C 
ATOM     21  O   UNL A   1      42.558  20.097  27.055  1.00  0.00    -0.274 OA
ATOM     22  H   UNL A   1      44.635  21.109  26.446  1.00  0.00     0.183 HD
ENDBRANCH  15  18
ENDBRANCH  10  15
BRANCH  14  23
ATOM     23  C   UNL A   1      41.481  27.153  27.788  1.00  0.00    -0.011 A 
ATOM     24  C   UNL A   1      41.238  26.974  29.204  1.00  0.00     0.027 A 
ATOM     25  C   UNL A   1      40.685  27.986  27.093  1.00  0.00     0.080 A 
ATOM     26  C   UNL A   1      40.201  27.587  29.793  1.00  0.00     0.095 A 
ATOM     27  C   UNL A   1      39.571  28.718  27.741  1.00  0.00     0.255 A 
ATOM     28  N   UNL A   1      39.363  28.425  29.076  1.00  0.00    -0.258 N 
ATOM     29  O   UNL A   1      38.924  29.500  27.050  1.00  0.00    -0.269 OA
BRANCH  28  30
ATOM     30  C   UNL A   1      38.222  29.050  29.699  1.00  0.00     0.451 C 
ATOM     31  F   UNL A   1      37.777  28.292  30.733  1.00  0.00    -0.185 F 
ATOM     32  F   UNL A   1      38.560  30.266  30.191  1.00  0.00    -0.185 F 
ENDBRANCH  28  30
ENDBRANCH  14  23
ENDBRANCH   7   9
ENDBRANCH   6   7
ENDBRANCH   5   6
ENDBRANCH   4   5
ENDBRANCH   3   4
ENDBRANCH   2   3
ENDBRANCH   1   2
BRANCH   1  33
ATOM     33  O   UNL A   1      51.783  26.138  25.392  1.00  0.00    -0.376 OA
BRANCH  33  34
ATOM     34  C   UNL A   1      50.955  26.779  24.427  1.00  0.00     0.202 C 
BRANCH  34  35
ATOM     35  C   UNL A   1      49.497  26.322  24.384  1.00  0.00     0.261 C 
BRANCH  35  36
ATOM     36  O   UNL A   1      48.691  27.029  25.343  1.00  0.00    -0.460 OA
BRANCH  36  37
ATOM     37  C   UNL A   1      47.356  26.998  25.115  1.00  0.00     0.338 C 
ATOM     38  O   UNL A   1      46.760  26.243  24.366  1.00  0.00    -0.246 OA
BRANCH  37  39
ATOM     39  C   UNL A   1      46.663  27.888  26.073  1.00  0.00     0.060 A 
ATOM     40  C   UNL A   1      47.377  28.296  27.209  1.00  0.00     0.016 A 
ATOM     41  C   UNL A   1      45.332  28.277  25.899  1.00  0.00     0.016 A 
ATOM     42  C   UNL A   1      46.746  29.036  28.207  1.00  0.00     0.010 A 
ATOM     43  C   UNL A   1      44.693  29.002  26.911  1.00  0.00     0.010 A 
ATOM     44  C   UNL A   1      45.384  29.340  28.088  1.00  0.00    -0.014 A 
BRANCH  44  45
ATOM     45  C   UNL A   1      44.621  29.750  29.292  1.00  0.00     0.031 A 
ATOM     46  C   UNL A   1      44.183  31.188  29.381  1.00  0.00     0.074 A 
ATOM     47  C   UNL A   1      44.319  28.885  30.276  1.00  0.00     0.049 A 
ATOM     48  N   UNL A   1      43.607  31.824  30.368  1.00  0.00    -0.248 NA
ATOM     49  C   UNL A   1      44.430  32.016  28.190  1.00  0.00     0.031 C 
ATOM     50  C   UNL A   1      44.629  27.458  30.275  1.00  0.00     0.029 A 
ATOM     51  N   UNL A   1      43.699  29.097  31.482  1.00  0.00    -0.354 N 
ATOM     52  C   UNL A   1      43.427  33.128  29.918  1.00  0.00     0.074 A 
ATOM     53  C   UNL A   1      43.969  33.193  28.579  1.00  0.00     0.031 C 
ATOM     54  C   UNL A   1      44.230  26.927  31.446  1.00  0.00     0.029 A 
ATOM     55  C   UNL A   1      43.677  27.985  32.292  1.00  0.00     0.049 A 
ATOM     56  H   UNL A   1      43.307  29.961  31.743  1.00  0.00     0.167 HD
ATOM     57  C   UNL A   1      42.866  34.179  30.563  1.00  0.00     0.034 A 
ATOM     58  C   UNL A   1      43.298  27.855  33.580  1.00  0.00     0.034 A 
ATOM     59  C   UNL A   1      42.372  34.119  31.913  1.00  0.00     0.049 A 
ATOM     60  C   UNL A   1      42.785  29.067  34.325  1.00  0.00     0.074 A 
ATOM     61  C   UNL A   1      41.813  35.129  32.675  1.00  0.00     0.029 A 
ATOM     62  N   UNL A   1      42.399  32.984  32.711  1.00  0.00    -0.354 N 
ATOM     63  N   UNL A   1      42.630  30.298  33.894  1.00  0.00    -0.248 NA
ATOM     64  C   UNL A   1      42.395  28.869  35.729  1.00  0.00     0.031 C 
ATOM     65  C   UNL A   1      41.551  34.618  33.952  1.00  0.00     0.029 A 
ATOM     66  C   UNL A   1      41.888  33.273  33.965  1.00  0.00     0.049 A 
ATOM     67  H   UNL A   1      42.732  32.102  32.427  1.00  0.00     0.167 HD
ATOM     68  C   UNL A   1      42.098  31.011  34.966  1.00  0.00     0.074 A 
ATOM     69  C   UNL A   1      41.956  30.075  36.061  1.00  0.00     0.031 C 
ATOM     70  C   UNL A   1      41.750  32.322  35.040  1.00  0.00     0.034 A 
BRANCH  57  71
ATOM     71  C   UNL A   1      42.835  35.491  29.822  1.00  0.00     0.023 A 
ATOM     72  C   UNL A   1      43.805  36.484  30.049  1.00  0.00     0.031 A 
ATOM     73  C   UNL A   1      41.787  35.779  28.934  1.00  0.00     0.131 A 
ATOM     74  C   UNL A   1      43.663  37.746  29.453  1.00  0.00     0.055 A 
ATOM     75  C   UNL A   1      41.692  37.011  28.286  1.00  0.00     0.041 A 
ATOM     76  F   UNL A   1      40.819  34.877  28.703  1.00  0.00    -0.206 F 
ATOM     77  C   UNL A   1      42.625  38.010  28.557  1.00  0.00     0.022 A 
BRANCH  74  78
ATOM     78  S   UNL A   1      44.769  39.081  29.985  1.00  0.00     0.124 S 
ATOM     79  O   UNL A   1      44.819  38.864  31.429  1.00  0.00    -0.237 OA
ATOM     80  O   UNL A   1      45.994  38.785  29.253  1.00  0.00    -0.237 OA
ATOM     81  O   UNL A   1      44.067  40.293  29.567  1.00  0.00    -0.744 OA
ENDBRANCH  74  78
ENDBRANCH  57  71
BRANCH  58  82
ATOM     82  C   UNL A   1      43.454  26.552  34.288  1.00  0.00     0.023 A 
ATOM     83  C   UNL A   1      44.723  26.007  34.534  1.00  0.00     0.031 A 
ATOM     84  C   UNL A   1      42.327  25.797  34.660  1.00  0.00     0.131 A 
ATOM     85  C   UNL A   1      44.835  24.723  35.093  1.00  0.00     0.055 A 
ATOM     86  C   UNL A   1      42.445  24.543  35.261  1.00  0.00     0.041 A 
ATOM     87  F   UNL A   1      41.090  26.272  34.442  1.00  0.00    -0.206 F 
ATOM     88  C   UNL A   1      43.705  23.994  35.470  1.00  0.00     0.022 A 
BRANCH  85  89
ATOM     89  S   UNL A   1      46.485  23.984  35.242  1.00  0.00     0.124 S 
ATOM     90  O   UNL A   1      46.681  23.990  36.687  1.00  0.00    -0.237 OA
ATOM     91  O   UNL A   1      46.284  22.677  34.626  1.00  0.00    -0.237 OA
ATOM     92  O   UNL A   1      47.337  24.903  34.490  1.00  0.00    -0.744 OA
ENDBRANCH  85  89
ENDBRANCH  58  82
BRANCH  70  93
ATOM     93  C   UNL A   1      41.118  32.798  36.322  1.00  0.00     0.023 A 
ATOM     94  C   UNL A   1      39.792  32.481  36.660  1.00  0.00     0.031 A 
ATOM     95  C   UNL A   1      41.870  33.569  37.228  1.00  0.00     0.131 A 
ATOM     96  C   UNL A   1      39.244  32.967  37.858  1.00  0.00     0.055 A 
ATOM     97  C   UNL A   1      41.335  34.011  38.437  1.00  0.00     0.041 A 
ATOM     98  F   UNL A   1      43.143  33.896  36.951  1.00  0.00    -0.206 F 
ATOM     99  C   UNL A   1      40.011  33.717  38.754  1.00  0.00     0.022 A 
BRANCH  96 100
ATOM    100  S   UNL A   1      37.493  32.649  38.210  1.00  0.00     0.124 S 
ATOM    101  O   UNL A   1      37.358  33.166  39.568  1.00  0.00    -0.237 OA
ATOM    102  O   UNL A   1      36.820  33.415  37.166  1.00  0.00    -0.237 OA
ATOM    103  O   UNL A   1      37.376  31.197  38.085  1.00  0.00    -0.744 OA
ENDBRANCH  96 100
ENDBRANCH  70  93
ENDBRANCH  44  45
ENDBRANCH  37  39
ENDBRANCH  36  37
ENDBRANCH  35  36
ENDBRANCH  34  35
ENDBRANCH  33  34
ENDBRANCH   1  33
TORSDOF 24
ENDMDL
