MODEL 1
REMARK VINA RESULT:     -10.1      0.000      0.000
REMARK SMILES CC(C)n1c2c(c3ccccc31)[C@@H](c1ccccc1)N(CC(=O)OCCOCCOCCOC(=O)c1ccc(-c3c4nc(c(-c5cc(S(=O)(=O)[O-])ccc5F)c5ccc([nH]5)c(-c5cc(S(=O)(=O)[O-])ccc5F)c5nc(c(-c6cc(S(=O)(=O)[O-])ccc6F)c6ccc3[nH]6)C=C5)C=C4)cc1)C2=O
REMARK SMILES IDX 29 1 28 2 27 3 26 4 25 5 24 6 22 7 23 8 21 9 20 10 4 11 5 12
REMARK SMILES IDX 12 13 6 14 99 15 7 16 11 17 13 18 100 19 8 20 10 21 9 22
REMARK SMILES IDX 2 23 1 24 3 25 14 26 15 27 19 28 16 29 18 30 17 31 30 32
REMARK SMILES IDX 31 33 32 34 33 35 34 36 35 37 36 38 37 39 98 40 38 41 97 42
REMARK SMILES IDX 39 43 40 44 41 45 91 46 42 47 96 48 90 49 92 50 43 51 95 52
REMARK SMILES IDX 89 53 88 54 44 56 76 57 56 58 75 59 57 60 60 61 74 62 93 63
REMARK SMILES IDX 58 64 59 65 73 67 94 68 61 69 45 70 46 71 54 72 47 73 53 74
REMARK SMILES IDX 55 75 52 76 48 77 49 78 50 79 51 80 77 81 78 82 86 83 79 84
REMARK SMILES IDX 85 85 87 86 84 87 80 88 81 89 82 90 83 91 62 92 63 93 71 94
REMARK SMILES IDX 64 95 70 96 72 97 69 98 65 99 66 100 67 101 68 102
REMARK H PARENT 92 55 60 66
REMARK Flexibility Score: inf
ROOT
ATOM      1  C   UNL A   1      46.222  41.516  26.525  1.00  0.00     0.188 C 
ENDROOT
BRANCH   1   2
ATOM      2  C   UNL A   1      44.934  42.336  26.472  1.00  0.00     0.188 C 
BRANCH   2   3
ATOM      3  O   UNL A   1      43.725  41.662  26.729  1.00  0.00    -0.376 OA
BRANCH   3   4
ATOM      4  C   UNL A   1      42.916  41.327  25.610  1.00  0.00     0.202 C 
BRANCH   4   5
ATOM      5  C   UNL A   1      43.043  42.152  24.315  1.00  0.00     0.261 C 
BRANCH   5   6
ATOM      6  O   UNL A   1      42.162  41.712  23.232  1.00  0.00    -0.462 OA
BRANCH   6   7
ATOM      7  C   UNL A   1      42.311  42.394  22.061  1.00  0.00     0.325 C 
ATOM      8  O   UNL A   1      41.390  43.072  21.603  1.00  0.00    -0.250 OA
BRANCH   7   9
ATOM      9  C   UNL A   1      43.762  42.499  21.437  1.00  0.00     0.243 C 
BRANCH   9  10
ATOM     10  N   UNL A   1      44.364  43.451  20.536  1.00  0.00    -0.315 N 
ATOM     11  N   UNL A   1      47.186  45.262  19.434  1.00  0.00    -0.334 N 
ATOM     12  C   UNL A   1      46.047  44.579  19.705  1.00  0.00     0.114 A 
ATOM     13  C   UNL A   1      46.879  46.627  19.539  1.00  0.00     0.049 A 
ATOM     14  C   UNL A   1      44.992  45.435  19.763  1.00  0.00     0.018 A 
ATOM     15  C   UNL A   1      45.671  43.257  20.106  1.00  0.00     0.272 C 
ATOM     16  C   UNL A   1      45.489  46.739  19.768  1.00  0.00     0.006 A 
ATOM     17  C   UNL A   1      47.658  47.796  19.488  1.00  0.00     0.027 A 
ATOM     18  C   UNL A   1      43.736  44.707  20.028  1.00  0.00     0.150 C 
ATOM     19  O   UNL A   1      46.331  42.259  20.211  1.00  0.00    -0.267 OA
ATOM     20  C   UNL A   1      44.889  47.998  19.973  1.00  0.00     0.011 A 
ATOM     21  C   UNL A   1      47.036  49.041  19.675  1.00  0.00     0.002 A 
ATOM     22  C   UNL A   1      45.673  49.145  19.918  1.00  0.00     0.001 A 
BRANCH  11  23
ATOM     23  C   UNL A   1      48.424  44.566  19.095  1.00  0.00     0.082 C 
ATOM     24  C   UNL A   1      49.157  45.081  17.863  1.00  0.00     0.031 C 
ATOM     25  C   UNL A   1      49.406  44.491  20.269  1.00  0.00     0.031 C 
ENDBRANCH  11  23
BRANCH  18  26
ATOM     26  C   UNL A   1      42.953  44.675  18.694  1.00  0.00    -0.021 A 
ATOM     27  C   UNL A   1      41.799  45.451  18.484  1.00  0.00     0.006 A 
ATOM     28  C   UNL A   1      43.507  44.073  17.533  1.00  0.00     0.006 A 
ATOM     29  C   UNL A   1      41.325  45.723  17.180  1.00  0.00     0.000 A 
ATOM     30  C   UNL A   1      43.024  44.323  16.241  1.00  0.00     0.000 A 
ATOM     31  C   UNL A   1      41.961  45.192  16.061  1.00  0.00     0.000 A 
ENDBRANCH  18  26
ENDBRANCH   9  10
ENDBRANCH   7   9
ENDBRANCH   6   7
ENDBRANCH   5   6
ENDBRANCH   4   5
ENDBRANCH   3   4
ENDBRANCH   2   3
ENDBRANCH   1   2
BRANCH   1  32
ATOM     32  O   UNL A   1      46.228  40.127  26.303  1.00  0.00    -0.376 OA
BRANCH  32  33
ATOM     33  C   UNL A   1      45.860  39.307  27.399  1.00  0.00     0.202 C 
BRANCH  33  34
ATOM     34  C   UNL A   1      46.654  39.381  28.730  1.00  0.00     0.261 C 
BRANCH  34  35
ATOM     35  O   UNL A   1      46.663  38.166  29.523  1.00  0.00    -0.460 OA
BRANCH  35  36
ATOM     36  C   UNL A   1      45.661  38.025  30.448  1.00  0.00     0.338 C 
ATOM     37  O   UNL A   1      45.126  38.945  31.047  1.00  0.00    -0.246 OA
BRANCH  36  38
ATOM     38  C   UNL A   1      45.038  36.656  30.307  1.00  0.00     0.060 A 
ATOM     39  C   UNL A   1      44.779  36.014  29.091  1.00  0.00     0.016 A 
ATOM     40  C   UNL A   1      44.410  36.152  31.442  1.00  0.00     0.016 A 
ATOM     41  C   UNL A   1      43.745  35.035  28.992  1.00  0.00     0.010 A 
ATOM     42  C   UNL A   1      43.420  35.162  31.320  1.00  0.00     0.010 A 
ATOM     43  C   UNL A   1      42.960  34.665  30.099  1.00  0.00    -0.014 A 
BRANCH  43  44
ATOM     44  C   UNL A   1      42.044  33.468  30.093  1.00  0.00     0.031 A 
ATOM     45  C   UNL A   1      40.669  33.938  30.283  1.00  0.00     0.074 A 
ATOM     46  C   UNL A   1      42.130  32.117  29.902  1.00  0.00     0.049 A 
ATOM     47  N   UNL A   1      40.111  34.009  31.441  1.00  0.00    -0.248 NA
ATOM     48  C   UNL A   1      39.938  34.581  29.194  1.00  0.00     0.031 C 
ATOM     49  C   UNL A   1      43.292  31.298  29.655  1.00  0.00     0.029 A 
ATOM     50  N   UNL A   1      41.150  31.135  29.892  1.00  0.00    -0.354 N 
ATOM     51  C   UNL A   1      38.842  34.481  31.199  1.00  0.00     0.074 A 
ATOM     52  C   UNL A   1      38.869  35.022  29.860  1.00  0.00     0.031 C 
ATOM     53  C   UNL A   1      42.987  30.061  29.200  1.00  0.00     0.029 A 
ATOM     54  C   UNL A   1      41.562  29.879  29.406  1.00  0.00     0.049 A 
ATOM     55  H   UNL A   1      40.230  31.304  30.201  1.00  0.00     0.167 HD
ATOM     56  C   UNL A   1      37.828  34.151  32.040  1.00  0.00     0.034 A 
ATOM     57  C   UNL A   1      40.995  28.638  29.497  1.00  0.00     0.034 A 
ATOM     58  C   UNL A   1      38.326  33.509  33.237  1.00  0.00     0.049 A 
ATOM     59  C   UNL A   1      40.035  28.656  30.609  1.00  0.00     0.074 A 
ATOM     60  C   UNL A   1      39.187  33.872  34.254  1.00  0.00     0.029 A 
ATOM     61  N   UNL A   1      38.236  32.139  33.291  1.00  0.00    -0.354 N 
ATOM     62  N   UNL A   1      40.379  28.647  31.861  1.00  0.00    -0.248 NA
ATOM     63  C   UNL A   1      38.696  29.126  30.317  1.00  0.00     0.031 C 
ATOM     64  C   UNL A   1      39.901  32.685  34.589  1.00  0.00     0.029 A 
ATOM     65  C   UNL A   1      39.397  31.636  33.820  1.00  0.00     0.049 A 
ATOM     66  H   UNL A   1      37.463  31.605  32.998  1.00  0.00     0.167 HD
ATOM     67  C   UNL A   1      39.536  29.580  32.433  1.00  0.00     0.074 A 
ATOM     68  C   UNL A   1      38.452  29.755  31.466  1.00  0.00     0.031 C 
ATOM     69  C   UNL A   1      39.945  30.332  33.495  1.00  0.00     0.034 A 
BRANCH  56  70
ATOM     70  C   UNL A   1      36.393  34.076  31.608  1.00  0.00     0.023 A 
ATOM     71  C   UNL A   1      35.415  34.997  32.025  1.00  0.00     0.031 A 
ATOM     72  C   UNL A   1      36.011  33.176  30.599  1.00  0.00     0.131 A 
ATOM     73  C   UNL A   1      34.122  34.980  31.497  1.00  0.00     0.055 A 
ATOM     74  C   UNL A   1      34.742  33.211  30.012  1.00  0.00     0.041 A 
ATOM     75  F   UNL A   1      36.876  32.271  30.116  1.00  0.00    -0.206 F 
ATOM     76  C   UNL A   1      33.787  34.112  30.465  1.00  0.00     0.022 A 
BRANCH  73  77
ATOM     77  S   UNL A   1      32.854  36.098  32.152  1.00  0.00     0.124 S 
ATOM     78  O   UNL A   1      31.772  35.173  32.469  1.00  0.00    -0.237 OA
ATOM     79  O   UNL A   1      33.546  36.684  33.298  1.00  0.00    -0.237 OA
ATOM     80  O   UNL A   1      32.605  37.018  31.046  1.00  0.00    -0.744 OA
ENDBRANCH  73  77
ENDBRANCH  56  70
BRANCH  57  81
ATOM     81  C   UNL A   1      40.871  27.604  28.431  1.00  0.00     0.023 A 
ATOM     82  C   UNL A   1      41.432  26.334  28.634  1.00  0.00     0.031 A 
ATOM     83  C   UNL A   1      40.526  27.949  27.104  1.00  0.00     0.131 A 
ATOM     84  C   UNL A   1      41.737  25.511  27.538  1.00  0.00     0.055 A 
ATOM     85  C   UNL A   1      40.798  27.108  26.014  1.00  0.00     0.041 A 
ATOM     86  F   UNL A   1      39.994  29.149  26.825  1.00  0.00    -0.206 F 
ATOM     87  C   UNL A   1      41.433  25.890  26.228  1.00  0.00     0.022 A 
BRANCH  84  88
ATOM     88  S   UNL A   1      42.670  23.975  27.788  1.00  0.00     0.124 S 
ATOM     89  O   UNL A   1      42.280  23.592  29.143  1.00  0.00    -0.237 OA
ATOM     90  O   UNL A   1      42.139  23.134  26.721  1.00  0.00    -0.237 OA
ATOM     91  O   UNL A   1      44.059  24.394  27.637  1.00  0.00    -0.744 OA
ENDBRANCH  84  88
ENDBRANCH  57  81
BRANCH  69  92
ATOM     92  C   UNL A   1      41.174  29.898  34.272  1.00  0.00     0.023 A 
ATOM     93  C   UNL A   1      42.377  29.833  33.546  1.00  0.00     0.031 A 
ATOM     94  C   UNL A   1      41.185  29.386  35.584  1.00  0.00     0.131 A 
ATOM     95  C   UNL A   1      43.512  29.223  34.091  1.00  0.00     0.055 A 
ATOM     96  C   UNL A   1      42.345  28.844  36.157  1.00  0.00     0.041 A 
ATOM     97  F   UNL A   1      40.068  29.318  36.323  1.00  0.00    -0.206 F 
ATOM     98  C   UNL A   1      43.510  28.741  35.402  1.00  0.00     0.022 A 
BRANCH  95  99
ATOM     99  S   UNL A   1      44.953  28.897  33.046  1.00  0.00     0.124 S 
ATOM    100  O   UNL A   1      44.499  27.773  32.231  1.00  0.00    -0.237 OA
ATOM    101  O   UNL A   1      45.113  30.164  32.334  1.00  0.00    -0.237 OA
ATOM    102  O   UNL A   1      46.019  28.590  33.997  1.00  0.00    -0.744 OA
ENDBRANCH  95  99
ENDBRANCH  69  92
ENDBRANCH  43  44
ENDBRANCH  36  38
ENDBRANCH  35  36
ENDBRANCH  34  35
ENDBRANCH  33  34
ENDBRANCH  32  33
ENDBRANCH   1  32
TORSDOF 23
ENDMDL
MODEL 2
REMARK VINA RESULT:      -9.7      3.498      4.749
REMARK SMILES CC(C)n1c2c(c3ccccc31)[C@@H](c1ccccc1)N(CC(=O)OCCOCCOCCOC(=O)c1ccc(-c3c4nc(c(-c5cc(S(=O)(=O)[O-])ccc5F)c5ccc([nH]5)c(-c5cc(S(=O)(=O)[O-])ccc5F)c5nc(c(-c6cc(S(=O)(=O)[O-])ccc6F)c6ccc3[nH]6)C=C5)C=C4)cc1)C2=O
REMARK SMILES IDX 29 1 28 2 27 3 26 4 25 5 24 6 22 7 23 8 21 9 20 10 4 11 5 12
REMARK SMILES IDX 12 13 6 14 99 15 7 16 11 17 13 18 100 19 8 20 10 21 9 22
REMARK SMILES IDX 2 23 1 24 3 25 14 26 15 27 19 28 16 29 18 30 17 31 30 32
REMARK SMILES IDX 31 33 32 34 33 35 34 36 35 37 36 38 37 39 98 40 38 41 97 42
REMARK SMILES IDX 39 43 40 44 41 45 91 46 42 47 96 48 90 49 92 50 43 51 95 52
REMARK SMILES IDX 89 53 88 54 44 56 76 57 56 58 75 59 57 60 60 61 74 62 93 63
REMARK SMILES IDX 58 64 59 65 73 67 94 68 61 69 45 70 46 71 54 72 47 73 53 74
REMARK SMILES IDX 55 75 52 76 48 77 49 78 50 79 51 80 77 81 78 82 86 83 79 84
REMARK SMILES IDX 85 85 87 86 84 87 80 88 81 89 82 90 83 91 62 92 63 93 71 94
REMARK SMILES IDX 64 95 70 96 72 97 69 98 65 99 66 100 67 101 68 102
REMARK H PARENT 92 55 60 66
REMARK Flexibility Score: inf
ROOT
ATOM      1  C   UNL A   1      45.216  42.343  27.776  1.00  0.00     0.188 C 
ENDROOT
BRANCH   1   2
ATOM      2  C   UNL A   1      45.306  42.904  26.358  1.00  0.00     0.188 C 
BRANCH   2   3
ATOM      3  O   UNL A   1      44.587  44.082  26.079  1.00  0.00    -0.376 OA
BRANCH   3   4
ATOM      4  C   UNL A   1      44.769  44.665  24.796  1.00  0.00     0.202 C 
BRANCH   4   5
ATOM      5  C   UNL A   1      43.705  44.434  23.706  1.00  0.00     0.261 C 
BRANCH   5   6
ATOM      6  O   UNL A   1      43.595  43.044  23.259  1.00  0.00    -0.462 OA
BRANCH   6   7
ATOM      7  C   UNL A   1      44.597  42.630  22.431  1.00  0.00     0.325 C 
ATOM      8  O   UNL A   1      45.493  41.892  22.844  1.00  0.00    -0.250 OA
BRANCH   7   9
ATOM      9  C   UNL A   1      44.448  42.909  20.880  1.00  0.00     0.243 C 
BRANCH   9  10
ATOM     10  N   UNL A   1      44.969  43.951  20.027  1.00  0.00    -0.315 N 
ATOM     11  N   UNL A   1      47.712  45.685  18.640  1.00  0.00    -0.334 N 
ATOM     12  C   UNL A   1      46.576  45.062  19.040  1.00  0.00     0.114 A 
ATOM     13  C   UNL A   1      47.593  47.031  19.016  1.00  0.00     0.049 A 
ATOM     14  C   UNL A   1      45.661  45.979  19.451  1.00  0.00     0.018 A 
ATOM     15  C   UNL A   1      46.134  43.726  19.304  1.00  0.00     0.272 C 
ATOM     16  C   UNL A   1      46.297  47.217  19.549  1.00  0.00     0.006 A 
ATOM     17  C   UNL A   1      48.478  48.123  18.979  1.00  0.00     0.027 A 
ATOM     18  C   UNL A   1      44.404  45.323  19.863  1.00  0.00     0.150 C 
ATOM     19  O   UNL A   1      46.680  42.673  19.113  1.00  0.00    -0.267 OA
ATOM     20  C   UNL A   1      45.901  48.466  20.066  1.00  0.00     0.011 A 
ATOM     21  C   UNL A   1      48.055  49.364  19.482  1.00  0.00     0.002 A 
ATOM     22  C   UNL A   1      46.788  49.537  20.022  1.00  0.00     0.001 A 
BRANCH  11  23
ATOM     23  C   UNL A   1      48.769  44.958  17.943  1.00  0.00     0.082 C 
ATOM     24  C   UNL A   1      48.845  45.181  16.438  1.00  0.00     0.031 C 
ATOM     25  C   UNL A   1      50.155  45.191  18.555  1.00  0.00     0.031 C 
ENDBRANCH  11  23
BRANCH  18  26
ATOM     26  C   UNL A   1      43.377  45.588  18.736  1.00  0.00    -0.021 A 
ATOM     27  C   UNL A   1      43.666  46.421  17.641  1.00  0.00     0.006 A 
ATOM     28  C   UNL A   1      42.203  44.800  18.615  1.00  0.00     0.006 A 
ATOM     29  C   UNL A   1      42.909  46.353  16.448  1.00  0.00     0.000 A 
ATOM     30  C   UNL A   1      41.437  44.749  17.442  1.00  0.00     0.000 A 
ATOM     31  C   UNL A   1      41.822  45.489  16.337  1.00  0.00     0.000 A 
ENDBRANCH  18  26
ENDBRANCH   9  10
ENDBRANCH   7   9
ENDBRANCH   6   7
ENDBRANCH   5   6
ENDBRANCH   4   5
ENDBRANCH   3   4
ENDBRANCH   2   3
ENDBRANCH   1   2
BRANCH   1  32
ATOM     32  O   UNL A   1      44.147  41.526  28.186  1.00  0.00    -0.376 OA
BRANCH  32  33
ATOM     33  C   UNL A   1      44.459  40.472  29.081  1.00  0.00     0.202 C 
BRANCH  33  34
ATOM     34  C   UNL A   1      44.139  40.613  30.593  1.00  0.00     0.261 C 
BRANCH  34  35
ATOM     35  O   UNL A   1      44.820  39.675  31.467  1.00  0.00    -0.460 OA
BRANCH  35  36
ATOM     36  C   UNL A   1      44.189  39.359  32.642  1.00  0.00     0.338 C 
ATOM     37  O   UNL A   1      43.649  40.163  33.386  1.00  0.00    -0.246 OA
BRANCH  36  38
ATOM     38  C   UNL A   1      43.894  37.878  32.669  1.00  0.00     0.060 A 
ATOM     39  C   UNL A   1      44.036  37.012  31.579  1.00  0.00     0.016 A 
ATOM     40  C   UNL A   1      43.146  37.425  33.752  1.00  0.00     0.016 A 
ATOM     41  C   UNL A   1      43.261  35.816  31.496  1.00  0.00     0.010 A 
ATOM     42  C   UNL A   1      42.421  36.224  33.657  1.00  0.00     0.010 A 
ATOM     43  C   UNL A   1      42.344  35.450  32.497  1.00  0.00    -0.014 A 
BRANCH  43  44
ATOM     44  C   UNL A   1      41.704  34.087  32.567  1.00  0.00     0.031 A 
ATOM     45  C   UNL A   1      40.531  34.081  31.688  1.00  0.00     0.074 A 
ATOM     46  C   UNL A   1      41.943  32.875  33.155  1.00  0.00     0.049 A 
ATOM     47  N   UNL A   1      39.345  34.351  32.109  1.00  0.00    -0.248 NA
ATOM     48  C   UNL A   1      40.680  34.005  30.238  1.00  0.00     0.031 C 
ATOM     49  C   UNL A   1      43.007  32.484  34.047  1.00  0.00     0.029 A 
ATOM     50  N   UNL A   1      41.252  31.675  33.080  1.00  0.00    -0.354 N 
ATOM     51  C   UNL A   1      38.537  34.234  31.003  1.00  0.00     0.074 A 
ATOM     52  C   UNL A   1      39.423  34.247  29.861  1.00  0.00     0.031 C 
ATOM     53  C   UNL A   1      43.124  31.143  34.182  1.00  0.00     0.029 A 
ATOM     54  C   UNL A   1      41.927  30.558  33.607  1.00  0.00     0.049 A 
ATOM     55  H   UNL A   1      40.352  31.609  32.685  1.00  0.00     0.167 HD
ATOM     56  C   UNL A   1      37.232  33.886  31.153  1.00  0.00     0.034 A 
ATOM     57  C   UNL A   1      41.487  29.313  33.960  1.00  0.00     0.034 A 
ATOM     58  C   UNL A   1      36.838  33.920  32.545  1.00  0.00     0.049 A 
ATOM     59  C   UNL A   1      40.031  29.381  34.150  1.00  0.00     0.074 A 
ATOM     60  C   UNL A   1      36.798  34.890  33.526  1.00  0.00     0.029 A 
ATOM     61  N   UNL A   1      36.784  32.715  33.205  1.00  0.00    -0.354 N 
ATOM     62  N   UNL A   1      39.461  29.929  35.180  1.00  0.00    -0.248 NA
ATOM     63  C   UNL A   1      39.204  29.219  32.972  1.00  0.00     0.031 C 
ATOM     64  C   UNL A   1      37.154  34.225  34.735  1.00  0.00     0.029 A 
ATOM     65  C   UNL A   1      37.323  32.868  34.456  1.00  0.00     0.049 A 
ATOM     66  H   UNL A   1      36.418  31.878  32.838  1.00  0.00     0.167 HD
ATOM     67  C   UNL A   1      38.418  30.646  34.626  1.00  0.00     0.074 A 
ATOM     68  C   UNL A   1      38.238  30.081  33.288  1.00  0.00     0.031 C 
ATOM     69  C   UNL A   1      37.995  31.812  35.191  1.00  0.00     0.034 A 
BRANCH  56  70
ATOM     70  C   UNL A   1      36.447  33.168  30.097  1.00  0.00     0.023 A 
ATOM     71  C   UNL A   1      36.786  31.887  29.624  1.00  0.00     0.031 A 
ATOM     72  C   UNL A   1      35.210  33.682  29.670  1.00  0.00     0.131 A 
ATOM     73  C   UNL A   1      35.958  31.190  28.741  1.00  0.00     0.055 A 
ATOM     74  C   UNL A   1      34.343  32.951  28.852  1.00  0.00     0.041 A 
ATOM     75  F   UNL A   1      34.784  34.886  30.081  1.00  0.00    -0.206 F 
ATOM     76  C   UNL A   1      34.718  31.701  28.376  1.00  0.00     0.022 A 
BRANCH  73  77
ATOM     77  S   UNL A   1      36.490  29.599  28.054  1.00  0.00     0.124 S 
ATOM     78  O   UNL A   1      37.044  28.935  29.228  1.00  0.00    -0.237 OA
ATOM     79  O   UNL A   1      35.228  29.060  27.555  1.00  0.00    -0.237 OA
ATOM     80  O   UNL A   1      37.451  29.977  27.021  1.00  0.00    -0.744 OA
ENDBRANCH  73  77
ENDBRANCH  56  70
BRANCH  57  81
ATOM     81  C   UNL A   1      42.136  27.998  33.692  1.00  0.00     0.023 A 
ATOM     82  C   UNL A   1      41.999  26.958  34.624  1.00  0.00     0.031 A 
ATOM     83  C   UNL A   1      43.160  27.864  32.726  1.00  0.00     0.131 A 
ATOM     84  C   UNL A   1      42.924  25.903  34.649  1.00  0.00     0.055 A 
ATOM     85  C   UNL A   1      44.060  26.788  32.731  1.00  0.00     0.041 A 
ATOM     86  F   UNL A   1      43.362  28.820  31.806  1.00  0.00    -0.206 F 
ATOM     87  C   UNL A   1      43.960  25.813  33.716  1.00  0.00     0.022 A 
BRANCH  84  88
ATOM     88  S   UNL A   1      42.878  24.687  35.995  1.00  0.00     0.124 S 
ATOM     89  O   UNL A   1      42.835  25.539  37.181  1.00  0.00    -0.237 OA
ATOM     90  O   UNL A   1      41.647  23.965  35.695  1.00  0.00    -0.237 OA
ATOM     91  O   UNL A   1      44.116  23.936  35.815  1.00  0.00    -0.744 OA
ENDBRANCH  84  88
ENDBRANCH  57  81
BRANCH  69  92
ATOM     92  C   UNL A   1      38.418  32.136  36.613  1.00  0.00     0.023 A 
ATOM     93  C   UNL A   1      37.473  31.865  37.618  1.00  0.00     0.031 A 
ATOM     94  C   UNL A   1      39.576  32.844  36.989  1.00  0.00     0.131 A 
ATOM     95  C   UNL A   1      37.657  32.340  38.921  1.00  0.00     0.055 A 
ATOM     96  C   UNL A   1      39.794  33.252  38.313  1.00  0.00     0.041 A 
ATOM     97  F   UNL A   1      40.490  33.231  36.089  1.00  0.00    -0.206 F 
ATOM     98  C   UNL A   1      38.822  33.019  39.282  1.00  0.00     0.022 A 
BRANCH  95  99
ATOM     99  S   UNL A   1      36.308  32.226  40.123  1.00  0.00     0.124 S 
ATOM    100  O   UNL A   1      36.450  30.861  40.622  1.00  0.00    -0.237 OA
ATOM    101  O   UNL A   1      36.650  33.281  41.075  1.00  0.00    -0.237 OA
ATOM    102  O   UNL A   1      35.106  32.480  39.332  1.00  0.00    -0.744 OA
ENDBRANCH  95  99
ENDBRANCH  69  92
ENDBRANCH  43  44
ENDBRANCH  36  38
ENDBRANCH  35  36
ENDBRANCH  34  35
ENDBRANCH  33  34
ENDBRANCH  32  33
ENDBRANCH   1  32
TORSDOF 23
ENDMDL
MODEL 3
REMARK VINA RESULT:      -9.6      7.451     13.206
REMARK SMILES CC(C)n1c2c(c3ccccc31)[C@@H](c1ccccc1)N(CC(=O)OCCOCCOCCOC(=O)c1ccc(-c3c4nc(c(-c5cc(S(=O)(=O)[O-])ccc5F)c5ccc([nH]5)c(-c5cc(S(=O)(=O)[O-])ccc5F)c5nc(c(-c6cc(S(=O)(=O)[O-])ccc6F)c6ccc3[nH]6)C=C5)C=C4)cc1)C2=O
REMARK SMILES IDX 29 1 28 2 27 3 26 4 25 5 24 6 22 7 23 8 21 9 20 10 4 11 5 12
REMARK SMILES IDX 12 13 6 14 99 15 7 16 11 17 13 18 100 19 8 20 10 21 9 22
REMARK SMILES IDX 2 23 1 24 3 25 14 26 15 27 19 28 16 29 18 30 17 31 30 32
REMARK SMILES IDX 31 33 32 34 33 35 34 36 35 37 36 38 37 39 98 40 38 41 97 42
REMARK SMILES IDX 39 43 40 44 41 45 91 46 42 47 96 48 90 49 92 50 43 51 95 52
REMARK SMILES IDX 89 53 88 54 44 56 76 57 56 58 75 59 57 60 60 61 74 62 93 63
REMARK SMILES IDX 58 64 59 65 73 67 94 68 61 69 45 70 46 71 54 72 47 73 53 74
REMARK SMILES IDX 55 75 52 76 48 77 49 78 50 79 51 80 77 81 78 82 86 83 79 84
REMARK SMILES IDX 85 85 87 86 84 87 80 88 81 89 82 90 83 91 62 92 63 93 71 94
REMARK SMILES IDX 64 95 70 96 72 97 69 98 65 99 66 100 67 101 68 102
REMARK H PARENT 92 55 60 66
REMARK Flexibility Score: inf
ROOT
ATOM      1  C   UNL A   1      45.675  24.632  26.830  1.00  0.00     0.188 C 
ENDROOT
BRANCH   1   2
ATOM      2  C   UNL A   1      44.669  25.658  26.314  1.00  0.00     0.188 C 
BRANCH   2   3
ATOM      3  O   UNL A   1      45.008  27.019  26.437  1.00  0.00    -0.376 OA
BRANCH   3   4
ATOM      4  C   UNL A   1      45.338  27.717  25.244  1.00  0.00     0.202 C 
BRANCH   4   5
ATOM      5  C   UNL A   1      46.801  27.738  24.763  1.00  0.00     0.261 C 
BRANCH   5   6
ATOM      6  O   UNL A   1      47.105  26.759  23.718  1.00  0.00    -0.462 OA
BRANCH   6   7
ATOM      7  C   UNL A   1      48.435  26.577  23.474  1.00  0.00     0.325 C 
ATOM      8  O   UNL A   1      48.838  26.312  22.341  1.00  0.00    -0.250 OA
BRANCH   7   9
ATOM      9  C   UNL A   1      49.463  26.962  24.615  1.00  0.00     0.243 C 
BRANCH   9  10
ATOM     10  N   UNL A   1      50.827  27.431  24.573  1.00  0.00    -0.315 N 
ATOM     11  N   UNL A   1      53.158  30.014  23.983  1.00  0.00    -0.334 N 
ATOM     12  C   UNL A   1      52.372  28.960  24.313  1.00  0.00     0.114 A 
ATOM     13  C   UNL A   1      54.026  29.576  22.971  1.00  0.00     0.049 A 
ATOM     14  C   UNL A   1      52.837  27.828  23.722  1.00  0.00     0.018 A 
ATOM     15  C   UNL A   1      51.115  28.734  24.960  1.00  0.00     0.272 C 
ATOM     16  C   UNL A   1      53.811  28.190  22.790  1.00  0.00     0.006 A 
ATOM     17  C   UNL A   1      54.970  30.230  22.162  1.00  0.00     0.027 A 
ATOM     18  C   UNL A   1      52.012  26.662  24.092  1.00  0.00     0.150 C 
ATOM     19  O   UNL A   1      50.396  29.494  25.550  1.00  0.00    -0.267 OA
ATOM     20  C   UNL A   1      54.506  27.476  21.794  1.00  0.00     0.011 A 
ATOM     21  C   UNL A   1      55.666  29.494  21.189  1.00  0.00     0.002 A 
ATOM     22  C   UNL A   1      55.438  28.137  21.002  1.00  0.00     0.001 A 
BRANCH  11  23
ATOM     23  C   UNL A   1      53.019  31.302  24.656  1.00  0.00     0.082 C 
ATOM     24  C   UNL A   1      54.315  31.936  25.146  1.00  0.00     0.031 C 
ATOM     25  C   UNL A   1      52.242  32.328  23.824  1.00  0.00     0.031 C 
ENDBRANCH  11  23
BRANCH  18  26
ATOM     26  C   UNL A   1      52.841  25.837  25.106  1.00  0.00    -0.021 A 
ATOM     27  C   UNL A   1      53.962  25.083  24.718  1.00  0.00     0.006 A 
ATOM     28  C   UNL A   1      52.675  26.015  26.505  1.00  0.00     0.006 A 
ATOM     29  C   UNL A   1      54.927  24.665  25.664  1.00  0.00     0.000 A 
ATOM     30  C   UNL A   1      53.619  25.580  27.446  1.00  0.00     0.000 A 
ATOM     31  C   UNL A   1      54.774  24.949  27.018  1.00  0.00     0.000 A 
ENDBRANCH  18  26
ENDBRANCH   9  10
ENDBRANCH   7   9
ENDBRANCH   6   7
ENDBRANCH   5   6
ENDBRANCH   4   5
ENDBRANCH   3   4
ENDBRANCH   2   3
ENDBRANCH   1   2
BRANCH   1  32
ATOM     32  O   UNL A   1      45.719  23.318  26.330  1.00  0.00    -0.376 OA
BRANCH  32  33
ATOM     33  C   UNL A   1      44.863  23.023  25.240  1.00  0.00     0.202 C 
BRANCH  33  34
ATOM     34  C   UNL A   1      43.562  22.210  25.466  1.00  0.00     0.261 C 
BRANCH  34  35
ATOM     35  O   UNL A   1      43.036  22.231  26.819  1.00  0.00    -0.460 OA
BRANCH  35  36
ATOM     36  C   UNL A   1      41.677  22.113  26.955  1.00  0.00     0.338 C 
ATOM     37  O   UNL A   1      41.052  21.068  26.866  1.00  0.00    -0.246 OA
BRANCH  36  38
ATOM     38  C   UNL A   1      41.133  23.348  27.634  1.00  0.00     0.060 A 
ATOM     39  C   UNL A   1      39.933  23.984  27.298  1.00  0.00     0.016 A 
ATOM     40  C   UNL A   1      42.033  24.056  28.424  1.00  0.00     0.016 A 
ATOM     41  C   UNL A   1      39.749  25.375  27.567  1.00  0.00     0.010 A 
ATOM     42  C   UNL A   1      41.809  25.415  28.704  1.00  0.00     0.010 A 
ATOM     43  C   UNL A   1      40.743  26.153  28.185  1.00  0.00    -0.014 A 
BRANCH  43  44
ATOM     44  C   UNL A   1      40.490  27.544  28.709  1.00  0.00     0.031 A 
ATOM     45  C   UNL A   1      41.438  28.459  28.065  1.00  0.00     0.074 A 
ATOM     46  C   UNL A   1      39.611  28.177  29.542  1.00  0.00     0.049 A 
ATOM     47  N   UNL A   1      42.572  28.769  28.590  1.00  0.00    -0.248 NA
ATOM     48  C   UNL A   1      41.251  28.879  26.679  1.00  0.00     0.031 C 
ATOM     49  C   UNL A   1      38.527  27.628  30.319  1.00  0.00     0.029 A 
ATOM     50  N   UNL A   1      39.492  29.514  29.895  1.00  0.00    -0.354 N 
ATOM     51  C   UNL A   1      43.152  29.641  27.698  1.00  0.00     0.074 A 
ATOM     52  C   UNL A   1      42.416  29.495  26.463  1.00  0.00     0.031 C 
ATOM     53  C   UNL A   1      37.667  28.567  30.776  1.00  0.00     0.029 A 
ATOM     54  C   UNL A   1      38.307  29.854  30.575  1.00  0.00     0.049 A 
ATOM     55  H   UNL A   1      40.187  30.179  29.683  1.00  0.00     0.167 HD
ATOM     56  C   UNL A   1      44.026  30.580  28.145  1.00  0.00     0.034 A 
ATOM     57  C   UNL A   1      37.963  30.957  31.304  1.00  0.00     0.034 A 
ATOM     58  C   UNL A   1      44.389  30.345  29.525  1.00  0.00     0.049 A 
ATOM     59  C   UNL A   1      39.199  31.643  31.706  1.00  0.00     0.074 A 
ATOM     60  C   UNL A   1      44.990  29.310  30.215  1.00  0.00     0.029 A 
ATOM     61  N   UNL A   1      43.755  31.111  30.474  1.00  0.00    -0.354 N 
ATOM     62  N   UNL A   1      39.994  31.213  32.638  1.00  0.00    -0.248 NA
ATOM     63  C   UNL A   1      39.769  32.582  30.761  1.00  0.00     0.031 C 
ATOM     64  C   UNL A   1      44.335  29.264  31.480  1.00  0.00     0.029 A 
ATOM     65  C   UNL A   1      43.418  30.314  31.538  1.00  0.00     0.049 A 
ATOM     66  H   UNL A   1      43.572  32.075  30.401  1.00  0.00     0.167 HD
ATOM     67  C   UNL A   1      41.252  31.395  32.095  1.00  0.00     0.074 A 
ATOM     68  C   UNL A   1      41.058  32.341  30.997  1.00  0.00     0.031 C 
ATOM     69  C   UNL A   1      42.273  30.544  32.401  1.00  0.00     0.034 A 
BRANCH  56  70
ATOM     70  C   UNL A   1      44.246  31.892  27.453  1.00  0.00     0.023 A 
ATOM     71  C   UNL A   1      43.605  33.083  27.841  1.00  0.00     0.031 A 
ATOM     72  C   UNL A   1      45.266  32.019  26.494  1.00  0.00     0.131 A 
ATOM     73  C   UNL A   1      43.934  34.312  27.266  1.00  0.00     0.055 A 
ATOM     74  C   UNL A   1      45.652  33.259  25.977  1.00  0.00     0.041 A 
ATOM     75  F   UNL A   1      45.953  30.946  26.072  1.00  0.00    -0.206 F 
ATOM     76  C   UNL A   1      44.980  34.415  26.357  1.00  0.00     0.022 A 
BRANCH  73  77
ATOM     77  S   UNL A   1      42.997  35.803  27.699  1.00  0.00     0.124 S 
ATOM     78  O   UNL A   1      41.899  35.250  28.484  1.00  0.00    -0.237 OA
ATOM     79  O   UNL A   1      43.992  36.566  28.446  1.00  0.00    -0.237 OA
ATOM     80  O   UNL A   1      42.633  36.366  26.401  1.00  0.00    -0.744 OA
ENDBRANCH  73  77
ENDBRANCH  56  70
BRANCH  57  81
ATOM     81  C   UNL A   1      36.675  31.708  31.283  1.00  0.00     0.023 A 
ATOM     82  C   UNL A   1      36.113  32.078  30.052  1.00  0.00     0.031 A 
ATOM     83  C   UNL A   1      36.183  32.362  32.436  1.00  0.00     0.131 A 
ATOM     84  C   UNL A   1      35.191  33.135  29.983  1.00  0.00     0.055 A 
ATOM     85  C   UNL A   1      35.234  33.393  32.368  1.00  0.00     0.041 A 
ATOM     86  F   UNL A   1      36.677  32.072  33.650  1.00  0.00    -0.206 F 
ATOM     87  C   UNL A   1      34.753  33.802  31.130  1.00  0.00     0.022 A 
BRANCH  84  88
ATOM     88  S   UNL A   1      34.644  33.759  28.370  1.00  0.00     0.124 S 
ATOM     89  O   UNL A   1      34.418  35.175  28.645  1.00  0.00    -0.237 OA
ATOM     90  O   UNL A   1      35.799  33.457  27.533  1.00  0.00    -0.237 OA
ATOM     91  O   UNL A   1      33.440  32.980  28.097  1.00  0.00    -0.744 OA
ENDBRANCH  84  88
ENDBRANCH  57  81
BRANCH  69  92
ATOM     92  C   UNL A   1      42.132  29.626  33.601  1.00  0.00     0.023 A 
ATOM     93  C   UNL A   1      42.844  29.999  34.755  1.00  0.00     0.031 A 
ATOM     94  C   UNL A   1      41.513  28.361  33.605  1.00  0.00     0.131 A 
ATOM     95  C   UNL A   1      42.980  29.114  35.830  1.00  0.00     0.055 A 
ATOM     96  C   UNL A   1      41.586  27.507  34.715  1.00  0.00     0.041 A 
ATOM     97  F   UNL A   1      40.890  27.877  32.522  1.00  0.00    -0.206 F 
ATOM     98  C   UNL A   1      42.341  27.873  35.827  1.00  0.00     0.022 A 
BRANCH  95  99
ATOM     99  S   UNL A   1      44.128  29.498  37.177  1.00  0.00     0.124 S 
ATOM    100  O   UNL A   1      44.184  28.234  37.907  1.00  0.00    -0.237 OA
ATOM    101  O   UNL A   1      45.346  29.858  36.453  1.00  0.00    -0.237 OA
ATOM    102  O   UNL A   1      43.487  30.602  37.886  1.00  0.00    -0.744 OA
ENDBRANCH  95  99
ENDBRANCH  69  92
ENDBRANCH  43  44
ENDBRANCH  36  38
ENDBRANCH  35  36
ENDBRANCH  34  35
ENDBRANCH  33  34
ENDBRANCH  32  33
ENDBRANCH   1  32
TORSDOF 23
ENDMDL
