MODEL 1
REMARK VINA RESULT:     -11.9      0.000      0.000
REMARK SMILES Cc1ccc(C(=O)N2C[C@H](C(=O)OCCOCCOCCOC(=O)c3ccc(-c4c5nc(c(-c6cc(S(=O)(=O)[O-])ccc6F)c6ccc([nH]6)c(-c6cc(S(=O)(=O)[O-])ccc6F)c6nc(c(-c7cc(S(=O)(=O)[O-])ccc7F)c7ccc4[nH]7)C=C6)C=C5)cc3)Oc3ccccc32)o1
REMARK SMILES IDX 18 1 17 2 16 3 15 4 14 5 13 6 11 7 12 8 10 9 8 10 9 11 94 12
REMARK SMILES IDX 89 13 93 14 88 15 90 16 92 17 91 18 6 19 7 20 5 21 1 22 2 23
REMARK SMILES IDX 3 24 95 25 4 26 19 27 20 28 21 29 22 30 23 31 24 32 25 33
REMARK SMILES IDX 26 34 87 35 27 36 86 37 28 38 29 39 30 40 80 41 31 42 85 43
REMARK SMILES IDX 79 44 81 45 32 46 84 47 78 48 77 49 33 51 65 52 45 53 64 54
REMARK SMILES IDX 46 55 49 56 63 57 82 58 47 59 48 60 62 62 83 63 50 64 34 65
REMARK SMILES IDX 35 66 43 67 36 68 42 69 44 70 41 71 37 72 38 73 39 74 40 75
REMARK SMILES IDX 66 76 67 77 75 78 68 79 74 80 76 81 73 82 69 83 70 84 71 85
REMARK SMILES IDX 72 86 51 87 52 88 60 89 53 90 59 91 61 92 58 93 54 94 55 95
REMARK SMILES IDX 56 96 57 97
REMARK H PARENT 81 50 49 61
REMARK Flexibility Score: inf
ROOT
ATOM      1  C   UNL A   1      31.777  28.639  26.773  1.00  0.00     0.188 C 
ENDROOT
BRANCH   1   2
ATOM      2  C   UNL A   1      31.664  28.641  25.248  1.00  0.00     0.188 C 
BRANCH   2   3
ATOM      3  O   UNL A   1      32.864  28.367  24.531  1.00  0.00    -0.376 OA
BRANCH   3   4
ATOM      4  C   UNL A   1      32.756  27.541  23.375  1.00  0.00     0.202 C 
BRANCH   4   5
ATOM      5  C   UNL A   1      31.689  26.435  23.405  1.00  0.00     0.261 C 
BRANCH   5   6
ATOM      6  O   UNL A   1      31.559  25.662  22.189  1.00  0.00    -0.460 OA
BRANCH   6   7
ATOM      7  C   UNL A   1      32.658  24.930  21.858  1.00  0.00     0.349 C 
ATOM      8  O   UNL A   1      33.316  25.117  20.836  1.00  0.00    -0.248 OA
BRANCH   7   9
ATOM      9  C   UNL A   1      33.025  23.834  22.844  1.00  0.00     0.302 C 
ATOM     10  N   UNL A   1      33.129  21.531  23.692  1.00  0.00    -0.298 N 
ATOM     11  C   UNL A   1      32.566  22.391  22.619  1.00  0.00     0.183 C 
ATOM     12  C   UNL A   1      34.462  21.864  24.107  1.00  0.00     0.087 A 
ATOM     13  C   UNL A   1      35.075  23.027  23.622  1.00  0.00     0.144 A 
ATOM     14  C   UNL A   1      35.214  21.025  24.941  1.00  0.00     0.030 A 
ATOM     15  O   UNL A   1      34.460  23.919  22.794  1.00  0.00    -0.475 OA
ATOM     16  C   UNL A   1      36.392  23.346  23.951  1.00  0.00     0.049 A 
ATOM     17  C   UNL A   1      36.539  21.339  25.264  1.00  0.00     0.002 A 
ATOM     18  C   UNL A   1      37.128  22.500  24.771  1.00  0.00     0.004 A 
BRANCH  10  19
ATOM     19  C   UNL A   1      32.366  20.628  24.448  1.00  0.00     0.294 C 
ATOM     20  O   UNL A   1      31.674  21.033  25.386  1.00  0.00    -0.265 OA
BRANCH  19  21
ATOM     21  C   UNL A   1      32.511  19.208  24.170  1.00  0.00     0.192 A 
ATOM     22  C   UNL A   1      32.506  16.024  25.833  1.00  0.00     0.087 C 
ATOM     23  C   UNL A   1      32.618  17.090  24.815  1.00  0.00     0.101 A 
ATOM     24  C   UNL A   1      33.003  17.114  23.494  1.00  0.00     0.046 A 
ATOM     25  O   UNL A   1      32.305  18.348  25.224  1.00  0.00    -0.456 OA
ATOM     26  C   UNL A   1      32.937  18.471  23.080  1.00  0.00     0.056 A 
ENDBRANCH  19  21
ENDBRANCH  10  19
ENDBRANCH   7   9
ENDBRANCH   6   7
ENDBRANCH   5   6
ENDBRANCH   4   5
ENDBRANCH   3   4
ENDBRANCH   2   3
ENDBRANCH   1   2
BRANCH   1  27
ATOM     27  O   UNL A   1      31.929  29.923  27.364  1.00  0.00    -0.376 OA
BRANCH  27  28
ATOM     28  C   UNL A   1      31.781  31.064  26.514  1.00  0.00     0.202 C 
BRANCH  28  29
ATOM     29  C   UNL A   1      31.725  32.460  27.171  1.00  0.00     0.261 C 
BRANCH  29  30
ATOM     30  O   UNL A   1      32.946  33.230  27.126  1.00  0.00    -0.460 OA
BRANCH  30  31
ATOM     31  C   UNL A   1      33.461  33.659  28.303  1.00  0.00     0.338 C 
ATOM     32  O   UNL A   1      32.866  34.316  29.142  1.00  0.00    -0.246 OA
BRANCH  31  33
ATOM     33  C   UNL A   1      34.756  32.958  28.544  1.00  0.00     0.060 A 
ATOM     34  C   UNL A   1      34.722  31.572  28.756  1.00  0.00     0.016 A 
ATOM     35  C   UNL A   1      35.990  33.617  28.487  1.00  0.00     0.016 A 
ATOM     36  C   UNL A   1      35.903  30.859  28.979  1.00  0.00     0.010 A 
ATOM     37  C   UNL A   1      37.175  32.904  28.724  1.00  0.00     0.010 A 
ATOM     38  C   UNL A   1      37.133  31.529  29.023  1.00  0.00    -0.014 A 
BRANCH  38  39
ATOM     39  C   UNL A   1      38.298  30.860  29.667  1.00  0.00     0.031 A 
ATOM     40  C   UNL A   1      38.577  31.196  31.112  1.00  0.00     0.074 A 
ATOM     41  C   UNL A   1      39.049  29.936  29.041  1.00  0.00     0.049 A 
ATOM     42  N   UNL A   1      39.521  30.762  31.907  1.00  0.00    -0.248 NA
ATOM     43  C   UNL A   1      37.661  32.163  31.741  1.00  0.00     0.031 C 
ATOM     44  C   UNL A   1      38.857  29.472  27.670  1.00  0.00     0.029 A 
ATOM     45  N   UNL A   1      40.131  29.214  29.490  1.00  0.00    -0.354 N 
ATOM     46  C   UNL A   1      39.310  31.399  33.126  1.00  0.00     0.074 A 
ATOM     47  C   UNL A   1      38.184  32.290  32.948  1.00  0.00     0.031 C 
ATOM     48  C   UNL A   1      39.790  28.544  27.388  1.00  0.00     0.029 A 
ATOM     49  C   UNL A   1      40.669  28.369  28.546  1.00  0.00     0.049 A 
ATOM     50  H   UNL A   1      40.489  29.295  30.403  1.00  0.00     0.167 HD
ATOM     51  C   UNL A   1      39.980  31.249  34.295  1.00  0.00     0.034 A 
ATOM     52  C   UNL A   1      41.752  27.562  28.604  1.00  0.00     0.034 A 
ATOM     53  C   UNL A   1      41.108  30.368  34.466  1.00  0.00     0.049 A 
ATOM     54  C   UNL A   1      42.550  27.486  29.890  1.00  0.00     0.074 A 
ATOM     55  C   UNL A   1      41.859  30.145  35.607  1.00  0.00     0.029 A 
ATOM     56  N   UNL A   1      41.659  29.576  33.468  1.00  0.00    -0.354 N 
ATOM     57  N   UNL A   1      42.342  28.094  31.035  1.00  0.00    -0.248 NA
ATOM     58  C   UNL A   1      43.725  26.601  29.892  1.00  0.00     0.031 C 
ATOM     59  C   UNL A   1      42.910  29.282  35.279  1.00  0.00     0.029 A 
ATOM     60  C   UNL A   1      42.761  28.890  33.958  1.00  0.00     0.049 A 
ATOM     61  H   UNL A   1      41.319  29.510  32.546  1.00  0.00     0.167 HD
ATOM     62  C   UNL A   1      43.333  27.631  31.901  1.00  0.00     0.074 A 
ATOM     63  C   UNL A   1      44.133  26.688  31.149  1.00  0.00     0.031 C 
ATOM     64  C   UNL A   1      43.556  27.950  33.203  1.00  0.00     0.034 A 
BRANCH  51  65
ATOM     65  C   UNL A   1      39.537  32.105  35.458  1.00  0.00     0.023 A 
ATOM     66  C   UNL A   1      38.810  31.574  36.539  1.00  0.00     0.031 A 
ATOM     67  C   UNL A   1      39.809  33.484  35.462  1.00  0.00     0.131 A 
ATOM     68  C   UNL A   1      38.315  32.428  37.535  1.00  0.00     0.055 A 
ATOM     69  C   UNL A   1      39.390  34.314  36.503  1.00  0.00     0.041 A 
ATOM     70  F   UNL A   1      40.473  34.054  34.443  1.00  0.00    -0.206 F 
ATOM     71  C   UNL A   1      38.624  33.791  37.540  1.00  0.00     0.022 A 
BRANCH  68  72
ATOM     72  S   UNL A   1      37.127  31.765  38.736  1.00  0.00     0.124 S 
ATOM     73  O   UNL A   1      36.000  32.682  38.573  1.00  0.00    -0.237 OA
ATOM     74  O   UNL A   1      36.919  30.404  38.258  1.00  0.00    -0.237 OA
ATOM     75  O   UNL A   1      37.830  31.879  40.012  1.00  0.00    -0.744 OA
ENDBRANCH  68  72
ENDBRANCH  51  65
BRANCH  52  76
ATOM     76  C   UNL A   1      42.193  26.787  27.404  1.00  0.00     0.023 A 
ATOM     77  C   UNL A   1      41.975  25.402  27.302  1.00  0.00     0.031 A 
ATOM     78  C   UNL A   1      42.921  27.412  26.376  1.00  0.00     0.131 A 
ATOM     79  C   UNL A   1      42.526  24.682  26.228  1.00  0.00     0.055 A 
ATOM     80  C   UNL A   1      43.414  26.702  25.279  1.00  0.00     0.041 A 
ATOM     81  F   UNL A   1      43.173  28.730  26.426  1.00  0.00    -0.206 F 
ATOM     82  C   UNL A   1      43.230  25.325  25.208  1.00  0.00     0.022 A 
BRANCH  79  83
ATOM     83  S   UNL A   1      42.401  22.871  26.235  1.00  0.00     0.124 S 
ATOM     84  O   UNL A   1      43.442  22.506  27.189  1.00  0.00    -0.237 OA
ATOM     85  O   UNL A   1      41.025  22.662  26.673  1.00  0.00    -0.237 OA
ATOM     86  O   UNL A   1      42.672  22.505  24.846  1.00  0.00    -0.744 OA
ENDBRANCH  79  83
ENDBRANCH  52  76
BRANCH  64  87
ATOM     87  C   UNL A   1      44.669  27.220  33.922  1.00  0.00     0.023 A 
ATOM     88  C   UNL A   1      44.456  26.007  34.600  1.00  0.00     0.031 A 
ATOM     89  C   UNL A   1      45.971  27.755  33.924  1.00  0.00     0.131 A 
ATOM     90  C   UNL A   1      45.513  25.401  35.299  1.00  0.00     0.055 A 
ATOM     91  C   UNL A   1      47.032  27.113  34.565  1.00  0.00     0.041 A 
ATOM     92  F   UNL A   1      46.237  28.911  33.295  1.00  0.00    -0.206 F 
ATOM     93  C   UNL A   1      46.803  25.936  35.270  1.00  0.00     0.022 A 
BRANCH  90  94
ATOM     94  S   UNL A   1      45.159  23.953  36.334  1.00  0.00     0.124 S 
ATOM     95  O   UNL A   1      43.887  23.491  35.788  1.00  0.00    -0.237 OA
ATOM     96  O   UNL A   1      46.312  23.095  36.075  1.00  0.00    -0.237 OA
ATOM     97  O   UNL A   1      45.090  24.504  37.686  1.00  0.00    -0.744 OA
ENDBRANCH  90  94
ENDBRANCH  64  87
ENDBRANCH  38  39
ENDBRANCH  31  33
ENDBRANCH  30  31
ENDBRANCH  29  30
ENDBRANCH  28  29
ENDBRANCH  27  28
ENDBRANCH   1  27
TORSDOF 22
ENDMDL
MODEL 2
REMARK VINA RESULT:     -11.8      4.790     10.699
REMARK SMILES Cc1ccc(C(=O)N2C[C@H](C(=O)OCCOCCOCCOC(=O)c3ccc(-c4c5nc(c(-c6cc(S(=O)(=O)[O-])ccc6F)c6ccc([nH]6)c(-c6cc(S(=O)(=O)[O-])ccc6F)c6nc(c(-c7cc(S(=O)(=O)[O-])ccc7F)c7ccc4[nH]7)C=C6)C=C5)cc3)Oc3ccccc32)o1
REMARK SMILES IDX 18 1 17 2 16 3 15 4 14 5 13 6 11 7 12 8 10 9 8 10 9 11 94 12
REMARK SMILES IDX 89 13 93 14 88 15 90 16 92 17 91 18 6 19 7 20 5 21 1 22 2 23
REMARK SMILES IDX 3 24 95 25 4 26 19 27 20 28 21 29 22 30 23 31 24 32 25 33
REMARK SMILES IDX 26 34 87 35 27 36 86 37 28 38 29 39 30 40 80 41 31 42 85 43
REMARK SMILES IDX 79 44 81 45 32 46 84 47 78 48 77 49 33 51 65 52 45 53 64 54
REMARK SMILES IDX 46 55 49 56 63 57 82 58 47 59 48 60 62 62 83 63 50 64 34 65
REMARK SMILES IDX 35 66 43 67 36 68 42 69 44 70 41 71 37 72 38 73 39 74 40 75
REMARK SMILES IDX 66 76 67 77 75 78 68 79 74 80 76 81 73 82 69 83 70 84 71 85
REMARK SMILES IDX 72 86 51 87 52 88 60 89 53 90 59 91 61 92 58 93 54 94 55 95
REMARK SMILES IDX 56 96 57 97
REMARK H PARENT 81 50 49 61
REMARK Flexibility Score: inf
ROOT
ATOM      1  C   UNL A   1      36.959  22.206  24.287  1.00  0.00     0.188 C 
ENDROOT
BRANCH   1   2
ATOM      2  C   UNL A   1      36.175  23.388  24.857  1.00  0.00     0.188 C 
BRANCH   2   3
ATOM      3  O   UNL A   1      35.236  23.080  25.882  1.00  0.00    -0.376 OA
BRANCH   3   4
ATOM      4  C   UNL A   1      33.972  22.566  25.472  1.00  0.00     0.202 C 
BRANCH   4   5
ATOM      5  C   UNL A   1      32.809  22.696  26.469  1.00  0.00     0.261 C 
BRANCH   5   6
ATOM      6  O   UNL A   1      31.493  22.816  25.879  1.00  0.00    -0.460 OA
BRANCH   6   7
ATOM      7  C   UNL A   1      30.741  23.840  26.366  1.00  0.00     0.349 C 
ATOM      8  O   UNL A   1      29.927  23.709  27.279  1.00  0.00    -0.248 OA
BRANCH   7   9
ATOM      9  C   UNL A   1      30.961  25.182  25.690  1.00  0.00     0.302 C 
ATOM     10  N   UNL A   1      30.318  27.163  24.388  1.00  0.00    -0.298 N 
ATOM     11  C   UNL A   1      29.851  25.835  24.862  1.00  0.00     0.183 C 
ATOM     12  C   UNL A   1      31.122  27.899  25.321  1.00  0.00     0.087 A 
ATOM     13  C   UNL A   1      31.544  27.291  26.511  1.00  0.00     0.144 A 
ATOM     14  C   UNL A   1      31.454  29.246  25.120  1.00  0.00     0.030 A 
ATOM     15  O   UNL A   1      31.277  25.993  26.835  1.00  0.00    -0.475 OA
ATOM     16  C   UNL A   1      32.269  27.996  27.472  1.00  0.00     0.049 A 
ATOM     17  C   UNL A   1      32.173  29.958  26.086  1.00  0.00     0.002 A 
ATOM     18  C   UNL A   1      32.582  29.334  27.261  1.00  0.00     0.004 A 
BRANCH  10  19
ATOM     19  C   UNL A   1      30.228  27.590  23.054  1.00  0.00     0.294 C 
ATOM     20  O   UNL A   1      31.112  27.294  22.245  1.00  0.00    -0.265 OA
BRANCH  19  21
ATOM     21  C   UNL A   1      29.138  28.481  22.692  1.00  0.00     0.192 A 
ATOM     22  C   UNL A   1      28.492  31.500  20.854  1.00  0.00     0.087 C 
ATOM     23  C   UNL A   1      28.345  30.306  21.714  1.00  0.00     0.101 A 
ATOM     24  C   UNL A   1      27.322  29.801  22.483  1.00  0.00     0.046 A 
ATOM     25  O   UNL A   1      29.439  29.505  21.824  1.00  0.00    -0.456 OA
ATOM     26  C   UNL A   1      27.829  28.633  23.112  1.00  0.00     0.056 A 
ENDBRANCH  19  21
ENDBRANCH  10  19
ENDBRANCH   7   9
ENDBRANCH   6   7
ENDBRANCH   5   6
ENDBRANCH   4   5
ENDBRANCH   3   4
ENDBRANCH   2   3
ENDBRANCH   1   2
BRANCH   1  27
ATOM     27  O   UNL A   1      37.596  21.385  25.255  1.00  0.00    -0.376 OA
BRANCH  27  28
ATOM     28  C   UNL A   1      37.650  19.978  24.997  1.00  0.00     0.202 C 
BRANCH  28  29
ATOM     29  C   UNL A   1      38.864  19.186  25.528  1.00  0.00     0.261 C 
BRANCH  29  30
ATOM     30  O   UNL A   1      40.159  19.778  25.292  1.00  0.00    -0.460 OA
BRANCH  30  31
ATOM     31  C   UNL A   1      41.043  19.786  26.319  1.00  0.00     0.338 C 
ATOM     32  O   UNL A   1      41.806  18.878  26.606  1.00  0.00    -0.246 OA
BRANCH  31  33
ATOM     33  C   UNL A   1      41.146  21.176  26.852  1.00  0.00     0.060 A 
ATOM     34  C   UNL A   1      40.559  22.209  26.108  1.00  0.00     0.016 A 
ATOM     35  C   UNL A   1      41.733  21.464  28.090  1.00  0.00     0.016 A 
ATOM     36  C   UNL A   1      40.615  23.531  26.561  1.00  0.00     0.010 A 
ATOM     37  C   UNL A   1      41.803  22.792  28.538  1.00  0.00     0.010 A 
ATOM     38  C   UNL A   1      41.289  23.839  27.750  1.00  0.00    -0.014 A 
BRANCH  38  39
ATOM     39  C   UNL A   1      41.708  25.247  27.998  1.00  0.00     0.031 A 
ATOM     40  C   UNL A   1      43.075  25.660  27.508  1.00  0.00     0.074 A 
ATOM     41  C   UNL A   1      40.901  26.161  28.568  1.00  0.00     0.049 A 
ATOM     42  N   UNL A   1      43.684  26.814  27.595  1.00  0.00    -0.248 NA
ATOM     43  C   UNL A   1      43.862  24.616  26.831  1.00  0.00     0.031 C 
ATOM     44  C   UNL A   1      39.538  25.918  29.033  1.00  0.00     0.029 A 
ATOM     45  N   UNL A   1      41.117  27.491  28.846  1.00  0.00    -0.354 N 
ATOM     46  C   UNL A   1      44.920  26.636  26.982  1.00  0.00     0.074 A 
ATOM     47  C   UNL A   1      44.995  25.248  26.579  1.00  0.00     0.031 C 
ATOM     48  C   UNL A   1      39.040  27.061  29.540  1.00  0.00     0.029 A 
ATOM     49  C   UNL A   1      40.057  28.111  29.468  1.00  0.00     0.049 A 
ATOM     50  H   UNL A   1      41.955  27.957  28.622  1.00  0.00     0.167 HD
ATOM     51  C   UNL A   1      45.902  27.544  26.758  1.00  0.00     0.034 A 
ATOM     52  C   UNL A   1      39.929  29.372  29.938  1.00  0.00     0.034 A 
ATOM     53  C   UNL A   1      45.828  28.923  27.170  1.00  0.00     0.049 A 
ATOM     54  C   UNL A   1      41.079  30.345  29.769  1.00  0.00     0.074 A 
ATOM     55  C   UNL A   1      46.767  29.924  26.995  1.00  0.00     0.029 A 
ATOM     56  N   UNL A   1      44.762  29.495  27.851  1.00  0.00    -0.354 N 
ATOM     57  N   UNL A   1      42.244  30.163  29.190  1.00  0.00    -0.248 NA
ATOM     58  C   UNL A   1      40.889  31.699  30.310  1.00  0.00     0.031 C 
ATOM     59  C   UNL A   1      46.306  31.076  27.639  1.00  0.00     0.029 A 
ATOM     60  C   UNL A   1      45.037  30.826  28.134  1.00  0.00     0.049 A 
ATOM     61  H   UNL A   1      43.932  29.026  28.098  1.00  0.00     0.167 HD
ATOM     62  C   UNL A   1      42.902  31.391  29.260  1.00  0.00     0.074 A 
ATOM     63  C   UNL A   1      42.003  32.306  29.930  1.00  0.00     0.031 C 
ATOM     64  C   UNL A   1      44.135  31.734  28.804  1.00  0.00     0.034 A 
BRANCH  51  65
ATOM     65  C   UNL A   1      47.160  27.047  26.086  1.00  0.00     0.023 A 
ATOM     66  C   UNL A   1      48.143  26.326  26.788  1.00  0.00     0.031 A 
ATOM     67  C   UNL A   1      47.400  27.339  24.733  1.00  0.00     0.131 A 
ATOM     68  C   UNL A   1      49.349  25.991  26.156  1.00  0.00     0.055 A 
ATOM     69  C   UNL A   1      48.564  26.924  24.085  1.00  0.00     0.041 A 
ATOM     70  F   UNL A   1      46.512  28.050  24.019  1.00  0.00    -0.206 F 
ATOM     71  C   UNL A   1      49.555  26.260  24.800  1.00  0.00     0.022 A 
BRANCH  68  72
ATOM     72  S   UNL A   1      50.710  25.344  27.167  1.00  0.00     0.124 S 
ATOM     73  O   UNL A   1      50.060  24.235  27.862  1.00  0.00    -0.237 OA
ATOM     74  O   UNL A   1      51.703  24.977  26.164  1.00  0.00    -0.237 OA
ATOM     75  O   UNL A   1      51.072  26.474  28.020  1.00  0.00    -0.744 OA
ENDBRANCH  68  72
ENDBRANCH  51  65
BRANCH  52  76
ATOM     76  C   UNL A   1      38.691  29.797  30.659  1.00  0.00     0.023 A 
ATOM     77  C   UNL A   1      37.692  30.554  30.022  1.00  0.00     0.031 A 
ATOM     78  C   UNL A   1      38.530  29.524  32.029  1.00  0.00     0.131 A 
ATOM     79  C   UNL A   1      36.610  31.055  30.765  1.00  0.00     0.055 A 
ATOM     80  C   UNL A   1      37.422  29.973  32.750  1.00  0.00     0.041 A 
ATOM     81  F   UNL A   1      39.458  28.818  32.694  1.00  0.00    -0.206 F 
ATOM     82  C   UNL A   1      36.460  30.757  32.121  1.00  0.00     0.022 A 
BRANCH  79  83
ATOM     83  S   UNL A   1      35.451  32.197  29.959  1.00  0.00     0.124 S 
ATOM     84  O   UNL A   1      34.492  32.449  31.029  1.00  0.00    -0.237 OA
ATOM     85  O   UNL A   1      36.322  33.311  29.599  1.00  0.00    -0.237 OA
ATOM     86  O   UNL A   1      34.937  31.421  28.831  1.00  0.00    -0.744 OA
ENDBRANCH  79  83
ENDBRANCH  52  76
BRANCH  64  87
ATOM     87  C   UNL A   1      44.559  33.179  28.949  1.00  0.00     0.023 A 
ATOM     88  C   UNL A   1      45.200  33.660  30.105  1.00  0.00     0.031 A 
ATOM     89  C   UNL A   1      44.316  34.091  27.905  1.00  0.00     0.131 A 
ATOM     90  C   UNL A   1      45.522  35.023  30.212  1.00  0.00     0.055 A 
ATOM     91  C   UNL A   1      44.698  35.431  27.990  1.00  0.00     0.041 A 
ATOM     92  F   UNL A   1      43.707  33.692  26.777  1.00  0.00    -0.206 F 
ATOM     93  C   UNL A   1      45.292  35.907  29.155  1.00  0.00     0.022 A 
BRANCH  90  94
ATOM     94  S   UNL A   1      46.155  35.651  31.792  1.00  0.00     0.124 S 
ATOM     95  O   UNL A   1      45.464  34.801  32.756  1.00  0.00    -0.237 OA
ATOM     96  O   UNL A   1      47.592  35.430  31.663  1.00  0.00    -0.237 OA
ATOM     97  O   UNL A   1      45.742  37.053  31.795  1.00  0.00    -0.744 OA
ENDBRANCH  90  94
ENDBRANCH  64  87
ENDBRANCH  38  39
ENDBRANCH  31  33
ENDBRANCH  30  31
ENDBRANCH  29  30
ENDBRANCH  28  29
ENDBRANCH  27  28
ENDBRANCH   1  27
TORSDOF 22
ENDMDL
MODEL 3
REMARK VINA RESULT:     -11.3      1.671      2.281
REMARK SMILES Cc1ccc(C(=O)N2C[C@H](C(=O)OCCOCCOCCOC(=O)c3ccc(-c4c5nc(c(-c6cc(S(=O)(=O)[O-])ccc6F)c6ccc([nH]6)c(-c6cc(S(=O)(=O)[O-])ccc6F)c6nc(c(-c7cc(S(=O)(=O)[O-])ccc7F)c7ccc4[nH]7)C=C6)C=C5)cc3)Oc3ccccc32)o1
REMARK SMILES IDX 18 1 17 2 16 3 15 4 14 5 13 6 11 7 12 8 10 9 8 10 9 11 94 12
REMARK SMILES IDX 89 13 93 14 88 15 90 16 92 17 91 18 6 19 7 20 5 21 1 22 2 23
REMARK SMILES IDX 3 24 95 25 4 26 19 27 20 28 21 29 22 30 23 31 24 32 25 33
REMARK SMILES IDX 26 34 87 35 27 36 86 37 28 38 29 39 30 40 80 41 31 42 85 43
REMARK SMILES IDX 79 44 81 45 32 46 84 47 78 48 77 49 33 51 65 52 45 53 64 54
REMARK SMILES IDX 46 55 49 56 63 57 82 58 47 59 48 60 62 62 83 63 50 64 34 65
REMARK SMILES IDX 35 66 43 67 36 68 42 69 44 70 41 71 37 72 38 73 39 74 40 75
REMARK SMILES IDX 66 76 67 77 75 78 68 79 74 80 76 81 73 82 69 83 70 84 71 85
REMARK SMILES IDX 72 86 51 87 52 88 60 89 53 90 59 91 61 92 58 93 54 94 55 95
REMARK SMILES IDX 56 96 57 97
REMARK H PARENT 81 50 49 61
REMARK Flexibility Score: inf
ROOT
ATOM      1  C   UNL A   1      32.897  29.719  25.864  1.00  0.00     0.188 C 
ENDROOT
BRANCH   1   2
ATOM      2  C   UNL A   1      31.950  29.154  24.805  1.00  0.00     0.188 C 
BRANCH   2   3
ATOM      3  O   UNL A   1      32.425  28.025  24.078  1.00  0.00    -0.376 OA
BRANCH   3   4
ATOM      4  C   UNL A   1      33.675  28.163  23.408  1.00  0.00     0.202 C 
BRANCH   4   5
ATOM      5  C   UNL A   1      33.710  27.795  21.916  1.00  0.00     0.261 C 
BRANCH   5   6
ATOM      6  O   UNL A   1      33.886  26.388  21.626  1.00  0.00    -0.460 OA
BRANCH   6   7
ATOM      7  C   UNL A   1      32.752  25.642  21.715  1.00  0.00     0.349 C 
ATOM      8  O   UNL A   1      31.775  25.801  20.985  1.00  0.00    -0.248 OA
BRANCH   7   9
ATOM      9  C   UNL A   1      32.759  24.584  22.805  1.00  0.00     0.302 C 
ATOM     10  N   UNL A   1      33.753  23.208  24.581  1.00  0.00    -0.298 N 
ATOM     11  C   UNL A   1      34.058  24.206  23.522  1.00  0.00     0.183 C 
ATOM     12  C   UNL A   1      32.515  23.413  25.278  1.00  0.00     0.087 A 
ATOM     13  C   UNL A   1      31.621  24.397  24.837  1.00  0.00     0.144 A 
ATOM     14  C   UNL A   1      32.188  22.702  26.440  1.00  0.00     0.030 A 
ATOM     15  O   UNL A   1      31.825  25.168  23.730  1.00  0.00    -0.475 OA
ATOM     16  C   UNL A   1      30.440  24.670  25.529  1.00  0.00     0.049 A 
ATOM     17  C   UNL A   1      31.009  22.981  27.141  1.00  0.00     0.002 A 
ATOM     18  C   UNL A   1      30.134  23.963  26.686  1.00  0.00     0.004 A 
BRANCH  10  19
ATOM     19  C   UNL A   1      34.455  22.004  24.742  1.00  0.00     0.294 C 
ATOM     20  O   UNL A   1      35.645  22.017  25.070  1.00  0.00    -0.265 OA
BRANCH  19  21
ATOM     21  C   UNL A   1      33.778  20.765  24.397  1.00  0.00     0.192 A 
ATOM     22  C   UNL A   1      34.268  17.206  24.452  1.00  0.00     0.087 C 
ATOM     23  C   UNL A   1      33.709  18.556  24.224  1.00  0.00     0.101 A 
ATOM     24  C   UNL A   1      32.603  19.032  23.558  1.00  0.00     0.046 A 
ATOM     25  O   UNL A   1      34.413  19.595  24.745  1.00  0.00    -0.456 OA
ATOM     26  C   UNL A   1      32.647  20.448  23.667  1.00  0.00     0.056 A 
ENDBRANCH  19  21
ENDBRANCH  10  19
ENDBRANCH   7   9
ENDBRANCH   6   7
ENDBRANCH   5   6
ENDBRANCH   4   5
ENDBRANCH   3   4
ENDBRANCH   2   3
ENDBRANCH   1   2
BRANCH   1  27
ATOM     27  O   UNL A   1      32.276  30.526  26.855  1.00  0.00    -0.376 OA
BRANCH  27  28
ATOM     28  C   UNL A   1      31.337  31.511  26.412  1.00  0.00     0.202 C 
BRANCH  28  29
ATOM     29  C   UNL A   1      31.480  32.950  26.955  1.00  0.00     0.261 C 
BRANCH  29  30
ATOM     30  O   UNL A   1      32.822  33.478  27.003  1.00  0.00    -0.460 OA
BRANCH  30  31
ATOM     31  C   UNL A   1      33.306  33.855  28.211  1.00  0.00     0.338 C 
ATOM     32  O   UNL A   1      32.696  34.493  29.053  1.00  0.00    -0.246 OA
BRANCH  31  33
ATOM     33  C   UNL A   1      34.580  33.122  28.468  1.00  0.00     0.060 A 
ATOM     34  C   UNL A   1      34.499  31.759  28.786  1.00  0.00     0.016 A 
ATOM     35  C   UNL A   1      35.836  33.724  28.326  1.00  0.00     0.016 A 
ATOM     36  C   UNL A   1      35.659  31.016  29.029  1.00  0.00     0.010 A 
ATOM     37  C   UNL A   1      36.999  32.983  28.583  1.00  0.00     0.010 A 
ATOM     38  C   UNL A   1      36.914  31.638  28.987  1.00  0.00    -0.014 A 
BRANCH  38  39
ATOM     39  C   UNL A   1      38.071  30.971  29.648  1.00  0.00     0.031 A 
ATOM     40  C   UNL A   1      38.322  31.299  31.100  1.00  0.00     0.074 A 
ATOM     41  C   UNL A   1      38.840  30.057  29.029  1.00  0.00     0.049 A 
ATOM     42  N   UNL A   1      39.255  30.866  31.909  1.00  0.00    -0.248 NA
ATOM     43  C   UNL A   1      37.388  32.255  31.719  1.00  0.00     0.031 C 
ATOM     44  C   UNL A   1      38.676  29.602  27.651  1.00  0.00     0.029 A 
ATOM     45  N   UNL A   1      39.919  29.339  29.492  1.00  0.00    -0.354 N 
ATOM     46  C   UNL A   1      39.018  31.493  33.128  1.00  0.00     0.074 A 
ATOM     47  C   UNL A   1      37.889  32.377  32.936  1.00  0.00     0.031 C 
ATOM     48  C   UNL A   1      39.620  28.681  27.380  1.00  0.00     0.029 A 
ATOM     49  C   UNL A   1      40.480  28.504  28.553  1.00  0.00     0.049 A 
ATOM     50  H   UNL A   1      40.260  29.416  30.412  1.00  0.00     0.167 HD
ATOM     51  C   UNL A   1      39.668  31.339  34.308  1.00  0.00     0.034 A 
ATOM     52  C   UNL A   1      41.566  27.704  28.624  1.00  0.00     0.034 A 
ATOM     53  C   UNL A   1      40.799  30.465  34.493  1.00  0.00     0.049 A 
ATOM     54  C   UNL A   1      42.342  27.624  29.924  1.00  0.00     0.074 A 
ATOM     55  C   UNL A   1      41.530  30.238  35.645  1.00  0.00     0.029 A 
ATOM     56  N   UNL A   1      41.373  29.683  33.499  1.00  0.00    -0.354 N 
ATOM     57  N   UNL A   1      42.109  28.223  31.069  1.00  0.00    -0.248 NA
ATOM     58  C   UNL A   1      43.523  26.747  29.941  1.00  0.00     0.031 C 
ATOM     59  C   UNL A   1      42.592  29.385  35.330  1.00  0.00     0.029 A 
ATOM     60  C   UNL A   1      42.470  29.001  34.005  1.00  0.00     0.049 A 
ATOM     61  H   UNL A   1      41.049  29.622  32.572  1.00  0.00     0.167 HD
ATOM     62  C   UNL A   1      43.087  27.761  31.949  1.00  0.00     0.074 A 
ATOM     63  C   UNL A   1      43.907  26.828  31.206  1.00  0.00     0.031 C 
ATOM     64  C   UNL A   1      43.285  28.071  33.258  1.00  0.00     0.034 A 
BRANCH  51  65
ATOM     65  C   UNL A   1      39.198  32.184  35.469  1.00  0.00     0.023 A 
ATOM     66  C   UNL A   1      39.610  33.519  35.631  1.00  0.00     0.031 A 
ATOM     67  C   UNL A   1      38.361  31.629  36.452  1.00  0.00     0.131 A 
ATOM     68  C   UNL A   1      39.247  34.227  36.787  1.00  0.00     0.055 A 
ATOM     69  C   UNL A   1      37.930  32.368  37.555  1.00  0.00     0.041 A 
ATOM     70  F   UNL A   1      37.959  30.351  36.367  1.00  0.00    -0.206 F 
ATOM     71  C   UNL A   1      38.386  33.670  37.736  1.00  0.00     0.022 A 
BRANCH  68  72
ATOM     72  S   UNL A   1      40.044  35.823  37.114  1.00  0.00     0.124 S 
ATOM     73  O   UNL A   1      41.439  35.426  37.297  1.00  0.00    -0.237 OA
ATOM     74  O   UNL A   1      39.748  36.580  35.903  1.00  0.00    -0.237 OA
ATOM     75  O   UNL A   1      39.378  36.298  38.326  1.00  0.00    -0.744 OA
ENDBRANCH  68  72
ENDBRANCH  51  65
BRANCH  52  76
ATOM     76  C   UNL A   1      42.034  26.941  27.427  1.00  0.00     0.023 A 
ATOM     77  C   UNL A   1      41.839  25.553  27.317  1.00  0.00     0.031 A 
ATOM     78  C   UNL A   1      42.766  27.581  26.410  1.00  0.00     0.131 A 
ATOM     79  C   UNL A   1      42.414  24.846  26.248  1.00  0.00     0.055 A 
ATOM     80  C   UNL A   1      43.283  26.883  25.317  1.00  0.00     0.041 A 
ATOM     81  F   UNL A   1      42.996  28.902  26.469  1.00  0.00    -0.206 F 
ATOM     82  C   UNL A   1      43.120  25.504  25.239  1.00  0.00     0.022 A 
BRANCH  79  83
ATOM     83  S   UNL A   1      42.316  23.032  26.247  1.00  0.00     0.124 S 
ATOM     84  O   UNL A   1      40.896  22.812  26.496  1.00  0.00    -0.237 OA
ATOM     85  O   UNL A   1      42.794  22.703  24.908  1.00  0.00    -0.237 OA
ATOM     86  O   UNL A   1      43.209  22.643  27.337  1.00  0.00    -0.744 OA
ENDBRANCH  79  83
ENDBRANCH  52  76
BRANCH  64  87
ATOM     87  C   UNL A   1      44.390  27.345  33.991  1.00  0.00     0.023 A 
ATOM     88  C   UNL A   1      44.255  26.013  34.423  1.00  0.00     0.031 A 
ATOM     89  C   UNL A   1      45.604  28.003  34.262  1.00  0.00     0.131 A 
ATOM     90  C   UNL A   1      45.291  25.404  35.150  1.00  0.00     0.055 A 
ATOM     91  C   UNL A   1      46.656  27.370  34.927  1.00  0.00     0.041 A 
ATOM     92  F   UNL A   1      45.793  29.275  33.876  1.00  0.00    -0.206 F 
ATOM     93  C   UNL A   1      46.497  26.067  35.388  1.00  0.00     0.022 A 
BRANCH  90  94
ATOM     94  S   UNL A   1      45.006  23.763  35.871  1.00  0.00     0.124 S 
ATOM     95  O   UNL A   1      45.785  22.903  34.986  1.00  0.00    -0.237 OA
ATOM     96  O   UNL A   1      45.525  23.922  37.225  1.00  0.00    -0.237 OA
ATOM     97  O   UNL A   1      43.556  23.595  35.780  1.00  0.00    -0.744 OA
ENDBRANCH  90  94
ENDBRANCH  64  87
ENDBRANCH  38  39
ENDBRANCH  31  33
ENDBRANCH  30  31
ENDBRANCH  29  30
ENDBRANCH  28  29
ENDBRANCH  27  28
ENDBRANCH   1  27
TORSDOF 22
ENDMDL
