MODEL 1
REMARK VINA RESULT:      -9.3      0.000      0.000
REMARK SMILES CCCOc1cncc(N[C@@](C)(C(=O)OCCOCCOCCOC(=O)c2ccc(-c3c4nc(c(-c5cc(S(=O)(=O)[O-])ccc5F)c5ccc([nH]5)c(-c5cc(S(=O)(=O)[O-])ccc5F)c5nc(c(-c6cc(S(=O)(=O)[O-])ccc6F)c6ccc3[nH]6)C=C5)C=C4)cc2)C(F)(F)F)n1
REMARK SMILES IDX 19 1 18 2 17 3 16 4 15 5 13 6 14 7 11 8 12 9 10 10 9 12 5 13
REMARK SMILES IDX 6 14 94 15 7 16 8 17 4 18 3 19 2 20 1 21 90 22 91 23 92 24
REMARK SMILES IDX 93 25 20 26 21 27 22 28 23 29 24 30 25 31 26 32 27 33 28 34
REMARK SMILES IDX 89 35 29 36 88 37 30 38 31 39 32 40 82 41 33 42 87 43 81 44
REMARK SMILES IDX 83 45 34 46 86 47 80 48 79 49 35 51 67 52 47 53 66 54 48 55
REMARK SMILES IDX 51 56 65 57 84 58 49 59 50 60 64 62 85 63 52 64 36 65 37 66
REMARK SMILES IDX 45 67 38 68 44 69 46 70 43 71 39 72 40 73 41 74 42 75 68 76
REMARK SMILES IDX 69 77 77 78 70 79 76 80 78 81 75 82 71 83 72 84 73 85 74 86
REMARK SMILES IDX 53 87 54 88 62 89 55 90 61 91 63 92 60 93 56 94 57 95 58 96
REMARK SMILES IDX 59 97
REMARK H PARENT 10 11 83 50 51 61
REMARK Flexibility Score: inf
ROOT
ATOM      1  C   UNL A   1      37.349  22.718  26.061  1.00  0.00     0.188 C 
ENDROOT
BRANCH   1   2
ATOM      2  O   UNL A   1      36.217  23.587  26.049  1.00  0.00    -0.376 OA
BRANCH   2   3
ATOM      3  C   UNL A   1      35.054  23.223  26.775  1.00  0.00     0.202 C 
BRANCH   3   4
ATOM      4  C   UNL A   1      34.433  21.835  26.540  1.00  0.00     0.261 C 
BRANCH   4   5
ATOM      5  O   UNL A   1      33.696  21.677  25.303  1.00  0.00    -0.461 OA
BRANCH   5   6
ATOM      6  C   UNL A   1      33.052  22.785  24.847  1.00  0.00     0.341 C 
ATOM      7  O   UNL A   1      32.180  23.337  25.515  1.00  0.00    -0.249 OA
BRANCH   6   8
ATOM      8  C   UNL A   1      33.409  23.233  23.405  1.00  0.00     0.230 C 
ATOM      9  C   UNL A   1      34.820  22.671  23.176  1.00  0.00     0.058 C 
BRANCH   8  10
ATOM     10  N   UNL A   1      33.491  24.737  23.197  1.00  0.00    -0.346 N 
ATOM     11  H   UNL A   1      34.412  25.065  23.074  1.00  0.00     0.163 HD
BRANCH  10  12
ATOM     12  C   UNL A   1      32.541  25.738  23.145  1.00  0.00     0.149 A 
ATOM     13  C   UNL A   1      31.438  27.462  24.270  1.00  0.00     0.234 A 
ATOM     14  C   UNL A   1      30.813  27.858  23.104  1.00  0.00     0.179 A 
ATOM     15  N   UNL A   1      32.342  26.433  24.302  1.00  0.00    -0.193 NA
ATOM     16  N   UNL A   1      30.916  27.147  21.977  1.00  0.00    -0.255 NA
ATOM     17  C   UNL A   1      31.755  26.083  22.043  1.00  0.00     0.158 A 
BRANCH  13  18
ATOM     18  O   UNL A   1      31.239  28.200  25.416  1.00  0.00    -0.477 OA
BRANCH  18  19
ATOM     19  C   UNL A   1      31.675  29.572  25.298  1.00  0.00     0.231 C 
BRANCH  19  20
ATOM     20  C   UNL A   1      31.947  30.298  26.629  1.00  0.00     0.038 C 
ATOM     21  C   UNL A   1      33.391  30.150  27.104  1.00  0.00     0.007 C 
ENDBRANCH  19  20
ENDBRANCH  18  19
ENDBRANCH  13  18
ENDBRANCH  10  12
ENDBRANCH   8  10
BRANCH   8  22
ATOM     22  C   UNL A   1      32.376  22.474  22.548  1.00  0.00     0.422 C 
ATOM     23  F   UNL A   1      31.128  22.964  22.744  1.00  0.00    -0.168 F 
ATOM     24  F   UNL A   1      32.668  22.608  21.228  1.00  0.00    -0.168 F 
ATOM     25  F   UNL A   1      32.322  21.145  22.755  1.00  0.00    -0.168 F 
ENDBRANCH   8  22
ENDBRANCH   6   8
ENDBRANCH   5   6
ENDBRANCH   4   5
ENDBRANCH   3   4
ENDBRANCH   2   3
ENDBRANCH   1   2
BRANCH   1  26
ATOM     26  C   UNL A   1      37.647  21.849  24.823  1.00  0.00     0.188 C 
BRANCH  26  27
ATOM     27  O   UNL A   1      37.267  20.501  24.960  1.00  0.00    -0.376 OA
BRANCH  27  28
ATOM     28  C   UNL A   1      38.279  19.561  25.244  1.00  0.00     0.202 C 
BRANCH  28  29
ATOM     29  C   UNL A   1      39.722  20.027  25.519  1.00  0.00     0.261 C 
BRANCH  29  30
ATOM     30  O   UNL A   1      40.566  19.176  26.314  1.00  0.00    -0.460 OA
BRANCH  30  31
ATOM     31  C   UNL A   1      41.908  19.277  26.151  1.00  0.00     0.338 C 
ATOM     32  O   UNL A   1      42.643  18.445  25.636  1.00  0.00    -0.246 OA
BRANCH  31  33
ATOM     33  C   UNL A   1      42.315  20.656  26.515  1.00  0.00     0.060 A 
ATOM     34  C   UNL A   1      42.703  21.556  25.511  1.00  0.00     0.016 A 
ATOM     35  C   UNL A   1      42.299  21.067  27.849  1.00  0.00     0.016 A 
ATOM     36  C   UNL A   1      43.079  22.865  25.838  1.00  0.00     0.010 A 
ATOM     37  C   UNL A   1      42.702  22.368  28.176  1.00  0.00     0.010 A 
ATOM     38  C   UNL A   1      43.109  23.273  27.177  1.00  0.00    -0.014 A 
BRANCH  38  39
ATOM     39  C   UNL A   1      43.687  24.588  27.570  1.00  0.00     0.031 A 
ATOM     40  C   UNL A   1      42.754  25.677  28.029  1.00  0.00     0.074 A 
ATOM     41  C   UNL A   1      45.010  24.829  27.492  1.00  0.00     0.049 A 
ATOM     42  N   UNL A   1      42.998  26.942  28.257  1.00  0.00    -0.248 NA
ATOM     43  C   UNL A   1      41.355  25.282  28.258  1.00  0.00     0.031 C 
ATOM     44  C   UNL A   1      46.028  23.844  27.133  1.00  0.00     0.029 A 
ATOM     45  N   UNL A   1      45.722  25.990  27.688  1.00  0.00    -0.354 N 
ATOM     46  C   UNL A   1      41.782  27.501  28.636  1.00  0.00     0.074 A 
ATOM     47  C   UNL A   1      40.800  26.438  28.593  1.00  0.00     0.031 C 
ATOM     48  C   UNL A   1      47.230  24.450  27.107  1.00  0.00     0.029 A 
ATOM     49  C   UNL A   1      47.062  25.874  27.391  1.00  0.00     0.049 A 
ATOM     50  H   UNL A   1      45.312  26.825  28.011  1.00  0.00     0.167 HD
ATOM     51  C   UNL A   1      41.512  28.783  28.982  1.00  0.00     0.034 A 
ATOM     52  C   UNL A   1      48.027  26.815  27.309  1.00  0.00     0.034 A 
ATOM     53  C   UNL A   1      42.499  29.835  29.016  1.00  0.00     0.049 A 
ATOM     54  C   UNL A   1      47.674  28.262  27.591  1.00  0.00     0.074 A 
ATOM     55  C   UNL A   1      42.329  31.161  29.377  1.00  0.00     0.029 A 
ATOM     56  N   UNL A   1      43.834  29.690  28.664  1.00  0.00    -0.354 N 
ATOM     57  N   UNL A   1      46.521  28.779  27.952  1.00  0.00    -0.248 NA
ATOM     58  C   UNL A   1      48.752  29.252  27.451  1.00  0.00     0.031 C 
ATOM     59  C   UNL A   1      43.534  31.835  29.159  1.00  0.00     0.029 A 
ATOM     60  C   UNL A   1      44.484  30.912  28.753  1.00  0.00     0.049 A 
ATOM     61  H   UNL A   1      44.257  28.844  28.391  1.00  0.00     0.167 HD
ATOM     62  C   UNL A   1      46.751  30.145  28.117  1.00  0.00     0.074 A 
ATOM     63  C   UNL A   1      48.152  30.367  27.836  1.00  0.00     0.031 C 
ATOM     64  C   UNL A   1      45.883  31.128  28.469  1.00  0.00     0.034 A 
BRANCH  51  65
ATOM     65  C   UNL A   1      40.079  29.143  29.291  1.00  0.00     0.023 A 
ATOM     66  C   UNL A   1      39.606  29.254  30.608  1.00  0.00     0.031 A 
ATOM     67  C   UNL A   1      39.179  29.399  28.240  1.00  0.00     0.131 A 
ATOM     68  C   UNL A   1      38.258  29.571  30.840  1.00  0.00     0.055 A 
ATOM     69  C   UNL A   1      37.860  29.785  28.478  1.00  0.00     0.041 A 
ATOM     70  F   UNL A   1      39.571  29.282  26.962  1.00  0.00    -0.206 F 
ATOM     71  C   UNL A   1      37.390  29.865  29.785  1.00  0.00     0.022 A 
BRANCH  68  72
ATOM     72  S   UNL A   1      37.623  29.486  32.537  1.00  0.00     0.124 S 
ATOM     73  O   UNL A   1      38.594  30.305  33.258  1.00  0.00    -0.237 OA
ATOM     74  O   UNL A   1      36.286  30.051  32.403  1.00  0.00    -0.237 OA
ATOM     75  O   UNL A   1      37.669  28.059  32.851  1.00  0.00    -0.744 OA
ENDBRANCH  68  72
ENDBRANCH  51  65
BRANCH  52  76
ATOM     76  C   UNL A   1      49.415  26.462  26.871  1.00  0.00     0.023 A 
ATOM     77  C   UNL A   1      50.489  26.477  27.775  1.00  0.00     0.031 A 
ATOM     78  C   UNL A   1      49.705  26.218  25.516  1.00  0.00     0.131 A 
ATOM     79  C   UNL A   1      51.805  26.327  27.307  1.00  0.00     0.055 A 
ATOM     80  C   UNL A   1      51.007  25.994  25.066  1.00  0.00     0.041 A 
ATOM     81  F   UNL A   1      48.722  26.208  24.600  1.00  0.00    -0.206 F 
ATOM     82  C   UNL A   1      52.070  26.067  25.960  1.00  0.00     0.022 A 
BRANCH  79  83
ATOM     83  S   UNL A   1      53.176  26.621  28.458  1.00  0.00     0.124 S 
ATOM     84  O   UNL A   1      52.578  26.238  29.733  1.00  0.00    -0.237 OA
ATOM     85  O   UNL A   1      54.206  25.727  27.938  1.00  0.00    -0.237 OA
ATOM     86  O   UNL A   1      53.453  28.047  28.302  1.00  0.00    -0.744 OA
ENDBRANCH  79  83
ENDBRANCH  52  76
BRANCH  64  87
ATOM     87  C   UNL A   1      46.438  32.526  28.623  1.00  0.00     0.023 A 
ATOM     88  C   UNL A   1      46.553  33.406  27.533  1.00  0.00     0.031 A 
ATOM     89  C   UNL A   1      46.865  32.983  29.884  1.00  0.00     0.131 A 
ATOM     90  C   UNL A   1      47.133  34.671  27.711  1.00  0.00     0.055 A 
ATOM     91  C   UNL A   1      47.376  34.267  30.068  1.00  0.00     0.041 A 
ATOM     92  F   UNL A   1      46.783  32.187  30.963  1.00  0.00    -0.206 F 
ATOM     93  C   UNL A   1      47.526  35.115  28.976  1.00  0.00     0.022 A 
BRANCH  90  94
ATOM     94  S   UNL A   1      47.457  35.697  26.250  1.00  0.00     0.124 S 
ATOM     95  O   UNL A   1      47.932  34.711  25.286  1.00  0.00    -0.237 OA
ATOM     96  O   UNL A   1      46.147  36.277  25.977  1.00  0.00    -0.237 OA
ATOM     97  O   UNL A   1      48.469  36.645  26.714  1.00  0.00    -0.744 OA
ENDBRANCH  90  94
ENDBRANCH  64  87
ENDBRANCH  38  39
ENDBRANCH  31  33
ENDBRANCH  30  31
ENDBRANCH  29  30
ENDBRANCH  28  29
ENDBRANCH  27  28
ENDBRANCH  26  27
ENDBRANCH   1  26
TORSDOF 26
ENDMDL
MODEL 2
REMARK VINA RESULT:      -9.0      2.603      7.806
REMARK SMILES CCCOc1cncc(N[C@@](C)(C(=O)OCCOCCOCCOC(=O)c2ccc(-c3c4nc(c(-c5cc(S(=O)(=O)[O-])ccc5F)c5ccc([nH]5)c(-c5cc(S(=O)(=O)[O-])ccc5F)c5nc(c(-c6cc(S(=O)(=O)[O-])ccc6F)c6ccc3[nH]6)C=C5)C=C4)cc2)C(F)(F)F)n1
REMARK SMILES IDX 19 1 18 2 17 3 16 4 15 5 13 6 14 7 11 8 12 9 10 10 9 12 5 13
REMARK SMILES IDX 6 14 94 15 7 16 8 17 4 18 3 19 2 20 1 21 90 22 91 23 92 24
REMARK SMILES IDX 93 25 20 26 21 27 22 28 23 29 24 30 25 31 26 32 27 33 28 34
REMARK SMILES IDX 89 35 29 36 88 37 30 38 31 39 32 40 82 41 33 42 87 43 81 44
REMARK SMILES IDX 83 45 34 46 86 47 80 48 79 49 35 51 67 52 47 53 66 54 48 55
REMARK SMILES IDX 51 56 65 57 84 58 49 59 50 60 64 62 85 63 52 64 36 65 37 66
REMARK SMILES IDX 45 67 38 68 44 69 46 70 43 71 39 72 40 73 41 74 42 75 68 76
REMARK SMILES IDX 69 77 77 78 70 79 76 80 78 81 75 82 71 83 72 84 73 85 74 86
REMARK SMILES IDX 53 87 54 88 62 89 55 90 61 91 63 92 60 93 56 94 57 95 58 96
REMARK SMILES IDX 59 97
REMARK H PARENT 10 11 83 50 51 61
REMARK Flexibility Score: inf
ROOT
ATOM      1  C   UNL A   1      37.419  22.952  25.385  1.00  0.00     0.188 C 
ENDROOT
BRANCH   1   2
ATOM      2  O   UNL A   1      36.442  23.992  25.349  1.00  0.00    -0.376 OA
BRANCH   2   3
ATOM      3  C   UNL A   1      35.420  24.020  26.333  1.00  0.00     0.202 C 
BRANCH   3   4
ATOM      4  C   UNL A   1      34.698  22.711  26.695  1.00  0.00     0.261 C 
BRANCH   4   5
ATOM      5  O   UNL A   1      33.958  22.081  25.619  1.00  0.00    -0.461 OA
BRANCH   5   6
ATOM      6  C   UNL A   1      32.960  22.824  25.070  1.00  0.00     0.341 C 
ATOM      7  O   UNL A   1      32.163  23.444  25.772  1.00  0.00    -0.249 OA
BRANCH   6   8
ATOM      8  C   UNL A   1      32.828  22.749  23.525  1.00  0.00     0.230 C 
ATOM      9  C   UNL A   1      34.279  22.790  23.023  1.00  0.00     0.058 C 
BRANCH   8  10
ATOM     10  N   UNL A   1      32.102  23.919  22.880  1.00  0.00    -0.346 N 
ATOM     11  H   UNL A   1      31.251  23.664  22.454  1.00  0.00     0.163 HD
BRANCH  10  12
ATOM     12  C   UNL A   1      32.390  25.265  22.769  1.00  0.00     0.149 A 
ATOM     13  C   UNL A   1      32.125  27.412  23.649  1.00  0.00     0.234 A 
ATOM     14  C   UNL A   1      33.040  27.922  22.749  1.00  0.00     0.179 A 
ATOM     15  N   UNL A   1      31.821  26.077  23.705  1.00  0.00    -0.193 NA
ATOM     16  N   UNL A   1      33.548  27.173  21.764  1.00  0.00    -0.255 NA
ATOM     17  C   UNL A   1      33.177  25.868  21.785  1.00  0.00     0.158 A 
BRANCH  13  18
ATOM     18  O   UNL A   1      31.587  28.251  24.599  1.00  0.00    -0.477 OA
BRANCH  18  19
ATOM     19  C   UNL A   1      31.463  27.637  25.901  1.00  0.00     0.231 C 
BRANCH  19  20
ATOM     20  C   UNL A   1      31.776  28.554  27.099  1.00  0.00     0.038 C 
ATOM     21  C   UNL A   1      31.891  30.026  26.708  1.00  0.00     0.007 C 
ENDBRANCH  19  20
ENDBRANCH  18  19
ENDBRANCH  13  18
ENDBRANCH  10  12
ENDBRANCH   8  10
BRANCH   8  22
ATOM     22  C   UNL A   1      32.217  21.350  23.304  1.00  0.00     0.422 C 
ATOM     23  F   UNL A   1      33.157  20.383  23.439  1.00  0.00    -0.168 F 
ATOM     24  F   UNL A   1      31.244  21.110  24.222  1.00  0.00    -0.168 F 
ATOM     25  F   UNL A   1      31.619  21.165  22.112  1.00  0.00    -0.168 F 
ENDBRANCH   8  22
ENDBRANCH   6   8
ENDBRANCH   5   6
ENDBRANCH   4   5
ENDBRANCH   3   4
ENDBRANCH   2   3
ENDBRANCH   1   2
BRANCH   1  26
ATOM     26  C   UNL A   1      37.410  21.869  24.288  1.00  0.00     0.188 C 
BRANCH  26  27
ATOM     27  O   UNL A   1      36.866  20.638  24.699  1.00  0.00    -0.376 OA
BRANCH  27  28
ATOM     28  C   UNL A   1      37.746  19.686  25.255  1.00  0.00     0.202 C 
BRANCH  28  29
ATOM     29  C   UNL A   1      39.259  19.972  25.331  1.00  0.00     0.261 C 
BRANCH  29  30
ATOM     30  O   UNL A   1      40.052  19.174  26.227  1.00  0.00    -0.460 OA
BRANCH  30  31
ATOM     31  C   UNL A   1      41.401  19.253  26.126  1.00  0.00     0.338 C 
ATOM     32  O   UNL A   1      42.157  18.363  25.762  1.00  0.00    -0.246 OA
BRANCH  31  33
ATOM     33  C   UNL A   1      41.798  20.667  26.333  1.00  0.00     0.060 A 
ATOM     34  C   UNL A   1      41.708  21.235  27.613  1.00  0.00     0.016 A 
ATOM     35  C   UNL A   1      42.275  21.430  25.266  1.00  0.00     0.016 A 
ATOM     36  C   UNL A   1      42.091  22.566  27.828  1.00  0.00     0.010 A 
ATOM     37  C   UNL A   1      42.631  22.768  25.478  1.00  0.00     0.010 A 
ATOM     38  C   UNL A   1      42.529  23.352  26.756  1.00  0.00    -0.014 A 
BRANCH  38  39
ATOM     39  C   UNL A   1      42.756  24.815  26.913  1.00  0.00     0.031 A 
ATOM     40  C   UNL A   1      44.093  25.384  26.518  1.00  0.00     0.074 A 
ATOM     41  C   UNL A   1      41.810  25.624  27.429  1.00  0.00     0.049 A 
ATOM     42  N   UNL A   1      44.581  26.581  26.720  1.00  0.00    -0.248 NA
ATOM     43  C   UNL A   1      45.001  24.475  25.802  1.00  0.00     0.031 C 
ATOM     44  C   UNL A   1      40.452  25.217  27.784  1.00  0.00     0.029 A 
ATOM     45  N   UNL A   1      41.858  26.957  27.765  1.00  0.00    -0.354 N 
ATOM     46  C   UNL A   1      45.861  26.565  26.175  1.00  0.00     0.074 A 
ATOM     47  C   UNL A   1      46.076  25.234  25.647  1.00  0.00     0.031 C 
ATOM     48  C   UNL A   1      39.806  26.272  28.314  1.00  0.00     0.029 A 
ATOM     49  C   UNL A   1      40.717  27.412  28.389  1.00  0.00     0.049 A 
ATOM     50  H   UNL A   1      42.634  27.533  27.576  1.00  0.00     0.167 HD
ATOM     51  C   UNL A   1      46.771  27.568  26.125  1.00  0.00     0.034 A 
ATOM     52  C   UNL A   1      40.459  28.592  28.994  1.00  0.00     0.034 A 
ATOM     53  C   UNL A   1      46.546  28.889  26.659  1.00  0.00     0.049 A 
ATOM     54  C   UNL A   1      41.536  29.658  29.025  1.00  0.00     0.074 A 
ATOM     55  C   UNL A   1      47.398  29.981  26.636  1.00  0.00     0.029 A 
ATOM     56  N   UNL A   1      45.399  29.298  27.325  1.00  0.00    -0.354 N 
ATOM     57  N   UNL A   1      42.742  29.634  28.502  1.00  0.00    -0.248 NA
ATOM     58  C   UNL A   1      41.218  30.910  29.728  1.00  0.00     0.031 C 
ATOM     59  C   UNL A   1      46.805  31.017  27.363  1.00  0.00     0.029 A 
ATOM     60  C   UNL A   1      45.542  30.608  27.759  1.00  0.00     0.049 A 
ATOM     61  H   UNL A   1      44.601  28.740  27.469  1.00  0.00     0.167 HD
ATOM     62  C   UNL A   1      43.304  30.878  28.785  1.00  0.00     0.074 A 
ATOM     63  C   UNL A   1      42.302  31.634  29.503  1.00  0.00     0.031 C 
ATOM     64  C   UNL A   1      44.538  31.356  28.478  1.00  0.00     0.034 A 
BRANCH  51  65
ATOM     65  C   UNL A   1      48.124  27.263  25.528  1.00  0.00     0.023 A 
ATOM     66  C   UNL A   1      48.414  27.506  24.177  1.00  0.00     0.031 A 
ATOM     67  C   UNL A   1      49.145  26.738  26.341  1.00  0.00     0.131 A 
ATOM     68  C   UNL A   1      49.682  27.184  23.667  1.00  0.00     0.055 A 
ATOM     69  C   UNL A   1      50.425  26.489  25.846  1.00  0.00     0.041 A 
ATOM     70  F   UNL A   1      48.915  26.461  27.635  1.00  0.00    -0.206 F 
ATOM     71  C   UNL A   1      50.698  26.704  24.499  1.00  0.00     0.022 A 
BRANCH  68  72
ATOM     72  S   UNL A   1      49.956  27.297  21.878  1.00  0.00     0.124 S 
ATOM     73  O   UNL A   1      51.365  26.927  21.770  1.00  0.00    -0.237 OA
ATOM     74  O   UNL A   1      49.000  26.330  21.350  1.00  0.00    -0.237 OA
ATOM     75  O   UNL A   1      49.662  28.695  21.572  1.00  0.00    -0.744 OA
ENDBRANCH  68  72
ENDBRANCH  51  65
BRANCH  52  76
ATOM     76  C   UNL A   1      39.160  28.831  29.698  1.00  0.00     0.023 A 
ATOM     77  C   UNL A   1      38.167  29.649  29.135  1.00  0.00     0.031 A 
ATOM     78  C   UNL A   1      38.940  28.337  30.997  1.00  0.00     0.131 A 
ATOM     79  C   UNL A   1      37.039  30.009  29.892  1.00  0.00     0.055 A 
ATOM     80  C   UNL A   1      37.782  28.635  31.717  1.00  0.00     0.041 A 
ATOM     81  F   UNL A   1      39.860  27.563  31.596  1.00  0.00    -0.206 F 
ATOM     82  C   UNL A   1      36.832  29.493  31.173  1.00  0.00     0.022 A 
BRANCH  79  83
ATOM     83  S   UNL A   1      35.920  31.277  29.235  1.00  0.00     0.124 S 
ATOM     84  O   UNL A   1      36.852  32.168  28.553  1.00  0.00    -0.237 OA
ATOM     85  O   UNL A   1      35.040  30.490  28.378  1.00  0.00    -0.237 OA
ATOM     86  O   UNL A   1      35.291  31.830  30.433  1.00  0.00    -0.744 OA
ENDBRANCH  79  83
ENDBRANCH  52  76
BRANCH  64  87
ATOM     87  C   UNL A   1      44.852  32.781  28.872  1.00  0.00     0.023 A 
ATOM     88  C   UNL A   1      45.478  33.096  30.090  1.00  0.00     0.031 A 
ATOM     89  C   UNL A   1      44.513  33.843  28.013  1.00  0.00     0.131 A 
ATOM     90  C   UNL A   1      45.693  34.438  30.442  1.00  0.00     0.055 A 
ATOM     91  C   UNL A   1      44.792  35.171  28.337  1.00  0.00     0.041 A 
ATOM     92  F   UNL A   1      43.911  33.605  26.837  1.00  0.00    -0.206 F 
ATOM     93  C   UNL A   1      45.372  35.477  29.564  1.00  0.00     0.022 A 
BRANCH  90  94
ATOM     94  S   UNL A   1      46.308  34.817  32.106  1.00  0.00     0.124 S 
ATOM     95  O   UNL A   1      45.371  34.084  32.950  1.00  0.00    -0.237 OA
ATOM     96  O   UNL A   1      47.670  34.296  32.063  1.00  0.00    -0.237 OA
ATOM     97  O   UNL A   1      46.205  36.273  32.187  1.00  0.00    -0.744 OA
ENDBRANCH  90  94
ENDBRANCH  64  87
ENDBRANCH  38  39
ENDBRANCH  31  33
ENDBRANCH  30  31
ENDBRANCH  29  30
ENDBRANCH  28  29
ENDBRANCH  27  28
ENDBRANCH  26  27
ENDBRANCH   1  26
TORSDOF 26
ENDMDL
MODEL 3
REMARK VINA RESULT:      -8.8      2.552      7.913
REMARK SMILES CCCOc1cncc(N[C@@](C)(C(=O)OCCOCCOCCOC(=O)c2ccc(-c3c4nc(c(-c5cc(S(=O)(=O)[O-])ccc5F)c5ccc([nH]5)c(-c5cc(S(=O)(=O)[O-])ccc5F)c5nc(c(-c6cc(S(=O)(=O)[O-])ccc6F)c6ccc3[nH]6)C=C5)C=C4)cc2)C(F)(F)F)n1
REMARK SMILES IDX 19 1 18 2 17 3 16 4 15 5 13 6 14 7 11 8 12 9 10 10 9 12 5 13
REMARK SMILES IDX 6 14 94 15 7 16 8 17 4 18 3 19 2 20 1 21 90 22 91 23 92 24
REMARK SMILES IDX 93 25 20 26 21 27 22 28 23 29 24 30 25 31 26 32 27 33 28 34
REMARK SMILES IDX 89 35 29 36 88 37 30 38 31 39 32 40 82 41 33 42 87 43 81 44
REMARK SMILES IDX 83 45 34 46 86 47 80 48 79 49 35 51 67 52 47 53 66 54 48 55
REMARK SMILES IDX 51 56 65 57 84 58 49 59 50 60 64 62 85 63 52 64 36 65 37 66
REMARK SMILES IDX 45 67 38 68 44 69 46 70 43 71 39 72 40 73 41 74 42 75 68 76
REMARK SMILES IDX 69 77 77 78 70 79 76 80 78 81 75 82 71 83 72 84 73 85 74 86
REMARK SMILES IDX 53 87 54 88 62 89 55 90 61 91 63 92 60 93 56 94 57 95 58 96
REMARK SMILES IDX 59 97
REMARK H PARENT 10 11 83 50 51 61
REMARK Flexibility Score: inf
ROOT
ATOM      1  C   UNL A   1      36.624  23.656  24.351  1.00  0.00     0.188 C 
ENDROOT
BRANCH   1   2
ATOM      2  O   UNL A   1      35.259  23.776  23.952  1.00  0.00    -0.376 OA
BRANCH   2   3
ATOM      3  C   UNL A   1      34.545  24.961  24.265  1.00  0.00     0.202 C 
BRANCH   3   4
ATOM      4  C   UNL A   1      34.176  25.242  25.732  1.00  0.00     0.261 C 
BRANCH   4   5
ATOM      5  O   UNL A   1      33.225  24.327  26.329  1.00  0.00    -0.461 OA
BRANCH   5   6
ATOM      6  C   UNL A   1      31.922  24.716  26.294  1.00  0.00     0.341 C 
ATOM      7  O   UNL A   1      31.541  25.725  26.883  1.00  0.00    -0.249 OA
BRANCH   6   8
ATOM      8  C   UNL A   1      30.945  23.755  25.566  1.00  0.00     0.230 C 
ATOM      9  C   UNL A   1      31.864  22.714  24.908  1.00  0.00     0.058 C 
BRANCH   8  10
ATOM     10  N   UNL A   1      30.125  24.388  24.453  1.00  0.00    -0.346 N 
ATOM     11  H   UNL A   1      29.300  23.891  24.245  1.00  0.00     0.163 HD
BRANCH  10  12
ATOM     12  C   UNL A   1      30.298  25.516  23.675  1.00  0.00     0.149 A 
ATOM     13  C   UNL A   1      29.639  27.708  23.216  1.00  0.00     0.234 A 
ATOM     14  C   UNL A   1      30.675  27.859  22.316  1.00  0.00     0.179 A 
ATOM     15  N   UNL A   1      29.461  26.559  23.941  1.00  0.00    -0.193 NA
ATOM     16  N   UNL A   1      31.457  26.832  21.968  1.00  0.00    -0.255 NA
ATOM     17  C   UNL A   1      31.220  25.677  22.638  1.00  0.00     0.158 A 
BRANCH  13  18
ATOM     18  O   UNL A   1      28.826  28.787  23.483  1.00  0.00    -0.477 OA
BRANCH  18  19
ATOM     19  C   UNL A   1      29.454  30.060  23.209  1.00  0.00     0.231 C 
BRANCH  19  20
ATOM     20  C   UNL A   1      28.617  31.303  23.567  1.00  0.00     0.038 C 
ATOM     21  C   UNL A   1      28.120  32.060  22.337  1.00  0.00     0.007 C 
ENDBRANCH  19  20
ENDBRANCH  18  19
ENDBRANCH  13  18
ENDBRANCH  10  12
ENDBRANCH   8  10
BRANCH   8  22
ATOM     22  C   UNL A   1      30.157  23.123  26.731  1.00  0.00     0.422 C 
ATOM     23  F   UNL A   1      29.104  23.901  27.082  1.00  0.00    -0.168 F 
ATOM     24  F   UNL A   1      29.669  21.909  26.367  1.00  0.00    -0.168 F 
ATOM     25  F   UNL A   1      30.871  22.886  27.848  1.00  0.00    -0.168 F 
ENDBRANCH   8  22
ENDBRANCH   6   8
ENDBRANCH   5   6
ENDBRANCH   4   5
ENDBRANCH   3   4
ENDBRANCH   2   3
ENDBRANCH   1   2
BRANCH   1  26
ATOM     26  C   UNL A   1      37.101  22.355  25.026  1.00  0.00     0.188 C 
BRANCH  26  27
ATOM     27  O   UNL A   1      38.026  22.553  26.069  1.00  0.00    -0.376 OA
BRANCH  27  28
ATOM     28  C   UNL A   1      39.333  22.054  25.888  1.00  0.00     0.202 C 
BRANCH  28  29
ATOM     29  C   UNL A   1      39.738  20.693  26.486  1.00  0.00     0.261 C 
BRANCH  29  30
ATOM     30  O   UNL A   1      40.838  19.990  25.881  1.00  0.00    -0.460 OA
BRANCH  30  31
ATOM     31  C   UNL A   1      42.024  19.977  26.536  1.00  0.00     0.338 C 
ATOM     32  O   UNL A   1      42.760  19.012  26.689  1.00  0.00    -0.246 OA
BRANCH  31  33
ATOM     33  C   UNL A   1      42.385  21.377  26.867  1.00  0.00     0.060 A 
ATOM     34  C   UNL A   1      42.356  21.807  28.202  1.00  0.00     0.016 A 
ATOM     35  C   UNL A   1      42.769  22.263  25.859  1.00  0.00     0.016 A 
ATOM     36  C   UNL A   1      42.706  23.123  28.532  1.00  0.00     0.010 A 
ATOM     37  C   UNL A   1      43.092  23.586  26.189  1.00  0.00     0.010 A 
ATOM     38  C   UNL A   1      43.050  24.032  27.524  1.00  0.00    -0.014 A 
BRANCH  38  39
ATOM     39  C   UNL A   1      43.236  25.479  27.819  1.00  0.00     0.031 A 
ATOM     40  C   UNL A   1      44.633  26.042  27.817  1.00  0.00     0.074 A 
ATOM     41  C   UNL A   1      42.194  26.278  28.119  1.00  0.00     0.049 A 
ATOM     42  N   UNL A   1      45.059  27.215  28.207  1.00  0.00    -0.248 NA
ATOM     43  C   UNL A   1      45.691  25.154  27.308  1.00  0.00     0.031 C 
ATOM     44  C   UNL A   1      40.788  25.880  28.087  1.00  0.00     0.029 A 
ATOM     45  N   UNL A   1      42.160  27.590  28.533  1.00  0.00    -0.354 N 
ATOM     46  C   UNL A   1      46.436  27.203  28.012  1.00  0.00     0.074 A 
ATOM     47  C   UNL A   1      46.773  25.899  27.480  1.00  0.00     0.031 C 
ATOM     48  C   UNL A   1      40.032  26.918  28.493  1.00  0.00     0.029 A 
ATOM     49  C   UNL A   1      40.900  28.033  28.867  1.00  0.00     0.049 A 
ATOM     50  H   UNL A   1      42.963  28.159  28.585  1.00  0.00     0.167 HD
ATOM     51  C   UNL A   1      47.334  28.188  28.257  1.00  0.00     0.034 A 
ATOM     52  C   UNL A   1      40.500  29.183  29.452  1.00  0.00     0.034 A 
ATOM     53  C   UNL A   1      46.986  29.482  28.791  1.00  0.00     0.049 A 
ATOM     54  C   UNL A   1      41.539  30.223  29.822  1.00  0.00     0.074 A 
ATOM     55  C   UNL A   1      47.821  30.556  29.053  1.00  0.00     0.029 A 
ATOM     56  N   UNL A   1      45.708  29.877  29.161  1.00  0.00    -0.354 N 
ATOM     57  N   UNL A   1      42.838  30.203  29.629  1.00  0.00    -0.248 NA
ATOM     58  C   UNL A   1      41.056  31.441  30.491  1.00  0.00     0.031 C 
ATOM     59  C   UNL A   1      47.065  31.563  29.661  1.00  0.00     0.029 A 
ATOM     60  C   UNL A   1      45.741  31.158  29.692  1.00  0.00     0.049 A 
ATOM     61  H   UNL A   1      44.896  29.329  29.061  1.00  0.00     0.167 HD
ATOM     62  C   UNL A   1      43.315  31.418  30.119  1.00  0.00     0.074 A 
ATOM     63  C   UNL A   1      42.166  32.154  30.596  1.00  0.00     0.031 C 
ATOM     64  C   UNL A   1      44.589  31.886  30.170  1.00  0.00     0.034 A 
BRANCH  51  65
ATOM     65  C   UNL A   1      48.793  27.888  28.014  1.00  0.00     0.023 A 
ATOM     66  C   UNL A   1      49.396  28.087  26.762  1.00  0.00     0.031 A 
ATOM     67  C   UNL A   1      49.597  27.415  29.068  1.00  0.00     0.131 A 
ATOM     68  C   UNL A   1      50.753  27.772  26.583  1.00  0.00     0.055 A 
ATOM     69  C   UNL A   1      50.960  27.174  28.903  1.00  0.00     0.041 A 
ATOM     70  F   UNL A   1      49.066  27.183  30.279  1.00  0.00    -0.206 F 
ATOM     71  C   UNL A   1      51.545  27.344  27.652  1.00  0.00     0.022 A 
BRANCH  68  72
ATOM     72  S   UNL A   1      51.445  27.823  24.908  1.00  0.00     0.124 S 
ATOM     73  O   UNL A   1      50.653  28.885  24.291  1.00  0.00    -0.237 OA
ATOM     74  O   UNL A   1      52.848  28.134  25.155  1.00  0.00    -0.237 OA
ATOM     75  O   UNL A   1      51.186  26.482  24.387  1.00  0.00    -0.744 OA
ENDBRANCH  68  72
ENDBRANCH  51  65
BRANCH  52  76
ATOM     76  C   UNL A   1      39.064  29.410  29.809  1.00  0.00     0.023 A 
ATOM     77  C   UNL A   1      38.263  30.297  29.074  1.00  0.00     0.031 A 
ATOM     78  C   UNL A   1      38.505  28.828  30.963  1.00  0.00     0.131 A 
ATOM     79  C   UNL A   1      36.980  30.635  29.536  1.00  0.00     0.055 A 
ATOM     80  C   UNL A   1      37.202  29.108  31.377  1.00  0.00     0.041 A 
ATOM     81  F   UNL A   1      39.228  27.984  31.718  1.00  0.00    -0.206 F 
ATOM     82  C   UNL A   1      36.437  30.033  30.673  1.00  0.00     0.022 A 
BRANCH  79  83
ATOM     83  S   UNL A   1      36.086  31.982  28.712  1.00  0.00     0.124 S 
ATOM     84  O   UNL A   1      35.111  32.355  29.732  1.00  0.00    -0.237 OA
ATOM     85  O   UNL A   1      37.152  32.945  28.461  1.00  0.00    -0.237 OA
ATOM     86  O   UNL A   1      35.530  31.344  27.522  1.00  0.00    -0.744 OA
ENDBRANCH  79  83
ENDBRANCH  52  76
BRANCH  64  87
ATOM     87  C   UNL A   1      44.798  33.281  30.714  1.00  0.00     0.023 A 
ATOM     88  C   UNL A   1      44.687  34.422  29.901  1.00  0.00     0.031 A 
ATOM     89  C   UNL A   1      45.120  33.470  32.071  1.00  0.00     0.131 A 
ATOM     90  C   UNL A   1      44.952  35.693  30.434  1.00  0.00     0.055 A 
ATOM     91  C   UNL A   1      45.314  34.741  32.613  1.00  0.00     0.041 A 
ATOM     92  F   UNL A   1      45.243  32.419  32.898  1.00  0.00    -0.206 F 
ATOM     93  C   UNL A   1      45.245  35.861  31.791  1.00  0.00     0.022 A 
BRANCH  90  94
ATOM     94  S   UNL A   1      45.006  37.118  29.313  1.00  0.00     0.124 S 
ATOM     95  O   UNL A   1      44.722  36.499  28.023  1.00  0.00    -0.237 OA
ATOM     96  O   UNL A   1      43.960  37.979  29.851  1.00  0.00    -0.237 OA
ATOM     97  O   UNL A   1      46.368  37.626  29.469  1.00  0.00    -0.744 OA
ENDBRANCH  90  94
ENDBRANCH  64  87
ENDBRANCH  38  39
ENDBRANCH  31  33
ENDBRANCH  30  31
ENDBRANCH  29  30
ENDBRANCH  28  29
ENDBRANCH  27  28
ENDBRANCH  26  27
ENDBRANCH   1  26
TORSDOF 26
ENDMDL
