MODEL 1
REMARK VINA RESULT:      -9.9      0.000      0.000
REMARK SMILES Cc1ccnc(C(=O)c2[nH]c3cc(Cl)c(F)cc3c2CC(=O)OCCOCCOCCOC(=O)c2ccc(-c3c4nc(c(-c5cc(S(=O)(=O)[O-])ccc5F)c5ccc([nH]5)c(-c5cc(S(=O)(=O)[O-])ccc5F)c5nc(c(-c6cc(S(=O)(=O)[O-])ccc6F)c6ccc3[nH]6)C=C5)C=C4)cc2)c1
REMARK SMILES IDX 27 1 26 2 25 3 24 4 23 5 21 6 22 7 20 8 19 9 9 10 10 11
REMARK SMILES IDX 11 12 18 14 12 15 17 16 13 17 15 18 14 19 16 20 7 21 8 22
REMARK SMILES IDX 6 23 1 24 2 25 3 26 98 27 4 28 5 29 28 30 29 31 30 32 31 33
REMARK SMILES IDX 32 34 33 35 34 36 35 37 36 38 97 39 37 40 96 41 38 42 39 43
REMARK SMILES IDX 40 44 90 45 41 46 95 47 89 48 91 49 42 50 94 51 88 52 87 53
REMARK SMILES IDX 43 55 75 56 55 57 74 58 56 59 59 60 73 61 92 62 57 63 58 64
REMARK SMILES IDX 72 66 93 67 60 68 44 69 45 70 53 71 46 72 52 73 54 74 51 75
REMARK SMILES IDX 47 76 48 77 49 78 50 79 76 80 77 81 85 82 78 83 84 84 86 85
REMARK SMILES IDX 83 86 79 87 80 88 81 89 82 90 61 91 62 92 70 93 63 94 69 95
REMARK SMILES IDX 71 96 68 97 64 98 65 99 66 100 67 101
REMARK H PARENT 10 13 91 54 59 65
REMARK Flexibility Score: inf
ROOT
ATOM      1  C   UNL A   1      33.218  36.771  29.331  1.00  0.00     0.188 C 
ENDROOT
BRANCH   1   2
ATOM      2  O   UNL A   1      33.537  36.883  30.728  1.00  0.00    -0.376 OA
BRANCH   2   3
ATOM      3  C   UNL A   1      32.511  36.231  31.561  1.00  0.00     0.202 C 
BRANCH   3   4
ATOM      4  C   UNL A   1      33.182  35.245  32.534  1.00  0.00     0.261 C 
BRANCH   4   5
ATOM      5  O   UNL A   1      34.223  34.507  31.858  1.00  0.00    -0.463 OA
BRANCH   5   6
ATOM      6  C   UNL A   1      35.441  34.749  32.359  1.00  0.00     0.310 C 
ATOM      7  O   UNL A   1      35.591  35.376  33.404  1.00  0.00    -0.252 OA
BRANCH   6   8
ATOM      8  C   UNL A   1      36.600  34.069  31.709  1.00  0.00     0.161 C 
BRANCH   8   9
ATOM      9  C   UNL A   1      38.057  33.931  32.053  1.00  0.00     0.000 A 
ATOM     10  C   UNL A   1      39.184  34.082  31.221  1.00  0.00     0.093 A 
ATOM     11  N   UNL A   1      40.175  33.334  31.910  1.00  0.00    -0.351 N 
ATOM     12  C   UNL A   1      39.858  33.012  33.188  1.00  0.00     0.048 A 
ATOM     13  H   UNL A   1      41.027  33.068  31.493  1.00  0.00     0.167 HD
ATOM     14  C   UNL A   1      38.509  33.304  33.303  1.00  0.00     0.007 A 
ATOM     15  C   UNL A   1      40.647  32.440  34.203  1.00  0.00     0.050 A 
ATOM     16  C   UNL A   1      37.878  32.908  34.502  1.00  0.00     0.051 A 
ATOM     17  C   UNL A   1      40.013  32.159  35.413  1.00  0.00     0.078 A 
ATOM     18  C   UNL A   1      38.646  32.371  35.548  1.00  0.00     0.142 A 
ATOM     19  Cl  UNL A   1      40.953  31.578  36.739  1.00  0.00    -0.081 Cl
ATOM     20  F   UNL A   1      38.032  32.095  36.709  1.00  0.00    -0.205 F 
BRANCH  10  21
ATOM     21  C   UNL A   1      39.729  34.654  29.923  1.00  0.00     0.227 C 
ATOM     22  O   UNL A   1      38.758  34.657  29.172  1.00  0.00    -0.285 OA
BRANCH  21  23
ATOM     23  C   UNL A   1      41.216  34.953  29.174  1.00  0.00     0.113 A 
ATOM     24  C   UNL A   1      44.930  33.998  29.418  1.00  0.00     0.044 C 
ATOM     25  C   UNL A   1      43.673  34.519  28.770  1.00  0.00    -0.047 A 
ATOM     26  C   UNL A   1      43.614  35.203  27.594  1.00  0.00     0.023 A 
ATOM     27  C   UNL A   1      42.450  34.312  29.425  1.00  0.00     0.036 A 
ATOM     28  C   UNL A   1      42.373  35.727  27.266  1.00  0.00     0.112 A 
ATOM     29  N   UNL A   1      41.224  35.672  28.041  1.00  0.00    -0.253 NA
ENDBRANCH  21  23
ENDBRANCH  10  21
ENDBRANCH   8   9
ENDBRANCH   6   8
ENDBRANCH   5   6
ENDBRANCH   4   5
ENDBRANCH   3   4
ENDBRANCH   2   3
ENDBRANCH   1   2
BRANCH   1  30
ATOM     30  C   UNL A   1      33.364  35.411  28.472  1.00  0.00     0.188 C 
BRANCH  30  31
ATOM     31  O   UNL A   1      32.273  34.452  28.251  1.00  0.00    -0.376 OA
BRANCH  31  32
ATOM     32  C   UNL A   1      32.130  33.539  27.118  1.00  0.00     0.202 C 
BRANCH  32  33
ATOM     33  C   UNL A   1      32.335  31.860  27.297  1.00  0.00     0.261 C 
BRANCH  33  34
ATOM     34  O   UNL A   1      33.671  31.172  27.567  1.00  0.00    -0.460 OA
BRANCH  34  35
ATOM     35  C   UNL A   1      34.646  31.643  28.458  1.00  0.00     0.338 C 
ATOM     36  O   UNL A   1      34.368  32.295  29.464  1.00  0.00    -0.246 OA
BRANCH  35  37
ATOM     37  C   UNL A   1      36.084  31.018  28.265  1.00  0.00     0.060 A 
ATOM     38  C   UNL A   1      36.352  29.813  27.621  1.00  0.00     0.016 A 
ATOM     39  C   UNL A   1      37.156  31.537  29.032  1.00  0.00     0.016 A 
ATOM     40  C   UNL A   1      37.518  29.042  27.942  1.00  0.00     0.010 A 
ATOM     41  C   UNL A   1      38.329  30.773  29.343  1.00  0.00     0.010 A 
ATOM     42  C   UNL A   1      38.508  29.476  28.855  1.00  0.00    -0.014 A 
BRANCH  42  43
ATOM     43  C   UNL A   1      39.803  28.701  28.975  1.00  0.00     0.031 A 
ATOM     44  C   UNL A   1      40.221  28.557  30.370  1.00  0.00     0.074 A 
ATOM     45  C   UNL A   1      40.612  27.994  28.137  1.00  0.00     0.049 A 
ATOM     46  N   UNL A   1      41.212  29.147  30.944  1.00  0.00    -0.248 NA
ATOM     47  C   UNL A   1      39.359  27.759  31.238  1.00  0.00     0.031 C 
ATOM     48  C   UNL A   1      40.395  27.846  26.730  1.00  0.00     0.029 A 
ATOM     49  N   UNL A   1      41.792  27.283  28.281  1.00  0.00    -0.354 N 
ATOM     50  C   UNL A   1      41.237  28.611  32.218  1.00  0.00     0.074 A 
ATOM     51  C   UNL A   1      39.969  27.944  32.406  1.00  0.00     0.031 C 
ATOM     52  C   UNL A   1      41.135  26.866  26.172  1.00  0.00     0.029 A 
ATOM     53  C   UNL A   1      42.135  26.506  27.164  1.00  0.00     0.049 A 
ATOM     54  H   UNL A   1      42.343  27.319  29.097  1.00  0.00     0.167 HD
ATOM     55  C   UNL A   1      42.398  28.504  32.913  1.00  0.00     0.034 A 
ATOM     56  C   UNL A   1      43.214  25.728  26.883  1.00  0.00     0.034 A 
ATOM     57  C   UNL A   1      43.465  29.269  32.328  1.00  0.00     0.049 A 
ATOM     58  C   UNL A   1      44.328  26.105  27.762  1.00  0.00     0.074 A 
ATOM     59  C   UNL A   1      43.719  30.607  32.124  1.00  0.00     0.029 A 
ATOM     60  N   UNL A   1      44.338  28.565  31.538  1.00  0.00    -0.354 N 
ATOM     61  N   UNL A   1      45.037  27.187  27.628  1.00  0.00    -0.248 NA
ATOM     62  C   UNL A   1      44.463  25.413  29.031  1.00  0.00     0.031 C 
ATOM     63  C   UNL A   1      44.588  30.677  31.001  1.00  0.00     0.029 A 
ATOM     64  C   UNL A   1      44.857  29.379  30.562  1.00  0.00     0.049 A 
ATOM     65  H   UNL A   1      44.559  27.613  31.653  1.00  0.00     0.167 HD
ATOM     66  C   UNL A   1      45.303  27.565  28.930  1.00  0.00     0.074 A 
ATOM     67  C   UNL A   1      45.093  26.363  29.725  1.00  0.00     0.031 C 
ATOM     68  C   UNL A   1      45.337  28.881  29.282  1.00  0.00     0.034 A 
BRANCH  55  69
ATOM     69  C   UNL A   1      42.643  27.399  33.902  1.00  0.00     0.023 A 
ATOM     70  C   UNL A   1      43.428  26.273  33.589  1.00  0.00     0.031 A 
ATOM     71  C   UNL A   1      42.257  27.532  35.245  1.00  0.00     0.131 A 
ATOM     72  C   UNL A   1      43.708  25.286  34.535  1.00  0.00     0.055 A 
ATOM     73  C   UNL A   1      42.618  26.592  36.218  1.00  0.00     0.041 A 
ATOM     74  F   UNL A   1      41.556  28.599  35.658  1.00  0.00    -0.206 F 
ATOM     75  C   UNL A   1      43.331  25.451  35.862  1.00  0.00     0.022 A 
BRANCH  72  76
ATOM     76  S   UNL A   1      44.542  23.759  34.030  1.00  0.00     0.124 S 
ATOM     77  O   UNL A   1      44.180  23.670  32.620  1.00  0.00    -0.237 OA
ATOM     78  O   UNL A   1      45.939  24.083  34.308  1.00  0.00    -0.237 OA
ATOM     79  O   UNL A   1      43.959  22.746  34.904  1.00  0.00    -0.744 OA
ENDBRANCH  72  76
ENDBRANCH  55  69
BRANCH  56  80
ATOM     80  C   UNL A   1      43.243  24.505  26.033  1.00  0.00     0.023 A 
ATOM     81  C   UNL A   1      42.339  23.468  26.320  1.00  0.00     0.031 A 
ATOM     82  C   UNL A   1      44.306  24.199  25.163  1.00  0.00     0.131 A 
ATOM     83  C   UNL A   1      42.550  22.171  25.836  1.00  0.00     0.055 A 
ATOM     84  C   UNL A   1      44.502  22.905  24.653  1.00  0.00     0.041 A 
ATOM     85  F   UNL A   1      45.220  25.127  24.840  1.00  0.00    -0.206 F 
ATOM     86  C   UNL A   1      43.631  21.876  25.009  1.00  0.00     0.022 A 
BRANCH  83  87
ATOM     87  S   UNL A   1      41.454  20.831  26.374  1.00  0.00     0.124 S 
ATOM     88  O   UNL A   1      41.963  20.522  27.709  1.00  0.00    -0.237 OA
ATOM     89  O   UNL A   1      40.151  21.485  26.333  1.00  0.00    -0.237 OA
ATOM     90  O   UNL A   1      41.678  19.790  25.375  1.00  0.00    -0.744 OA
ENDBRANCH  83  87
ENDBRANCH  56  80
BRANCH  68  91
ATOM     91  C   UNL A   1      45.675  29.913  28.232  1.00  0.00     0.023 A 
ATOM     92  C   UNL A   1      47.018  30.340  28.188  1.00  0.00     0.031 A 
ATOM     93  C   UNL A   1      44.746  30.599  27.430  1.00  0.00     0.131 A 
ATOM     94  C   UNL A   1      47.389  31.445  27.418  1.00  0.00     0.055 A 
ATOM     95  C   UNL A   1      45.139  31.652  26.594  1.00  0.00     0.041 A 
ATOM     96  F   UNL A   1      43.433  30.331  27.490  1.00  0.00    -0.206 F 
ATOM     97  C   UNL A   1      46.461  32.095  26.601  1.00  0.00     0.022 A 
BRANCH  94  98
ATOM     98  S   UNL A   1      49.044  32.165  27.592  1.00  0.00     0.124 S 
ATOM     99  O   UNL A   1      49.314  32.656  26.245  1.00  0.00    -0.237 OA
ATOM    100  O   UNL A   1      48.828  33.197  28.603  1.00  0.00    -0.237 OA
ATOM    101  O   UNL A   1      49.874  31.044  28.027  1.00  0.00    -0.744 OA
ENDBRANCH  94  98
ENDBRANCH  68  91
ENDBRANCH  42  43
ENDBRANCH  35  37
ENDBRANCH  34  35
ENDBRANCH  33  34
ENDBRANCH  32  33
ENDBRANCH  31  32
ENDBRANCH  30  31
ENDBRANCH   1  30
TORSDOF 23
ENDMDL
MODEL 2
REMARK VINA RESULT:      -9.5      4.844     10.360
REMARK SMILES Cc1ccnc(C(=O)c2[nH]c3cc(Cl)c(F)cc3c2CC(=O)OCCOCCOCCOC(=O)c2ccc(-c3c4nc(c(-c5cc(S(=O)(=O)[O-])ccc5F)c5ccc([nH]5)c(-c5cc(S(=O)(=O)[O-])ccc5F)c5nc(c(-c6cc(S(=O)(=O)[O-])ccc6F)c6ccc3[nH]6)C=C5)C=C4)cc2)c1
REMARK SMILES IDX 27 1 26 2 25 3 24 4 23 5 21 6 22 7 20 8 19 9 9 10 10 11
REMARK SMILES IDX 11 12 18 14 12 15 17 16 13 17 15 18 14 19 16 20 7 21 8 22
REMARK SMILES IDX 6 23 1 24 2 25 3 26 98 27 4 28 5 29 28 30 29 31 30 32 31 33
REMARK SMILES IDX 32 34 33 35 34 36 35 37 36 38 97 39 37 40 96 41 38 42 39 43
REMARK SMILES IDX 40 44 90 45 41 46 95 47 89 48 91 49 42 50 94 51 88 52 87 53
REMARK SMILES IDX 43 55 75 56 55 57 74 58 56 59 59 60 73 61 92 62 57 63 58 64
REMARK SMILES IDX 72 66 93 67 60 68 44 69 45 70 53 71 46 72 52 73 54 74 51 75
REMARK SMILES IDX 47 76 48 77 49 78 50 79 76 80 77 81 85 82 78 83 84 84 86 85
REMARK SMILES IDX 83 86 79 87 80 88 81 89 82 90 61 91 62 92 70 93 63 94 69 95
REMARK SMILES IDX 71 96 68 97 64 98 65 99 66 100 67 101
REMARK H PARENT 10 13 91 54 59 65
REMARK Flexibility Score: inf
ROOT
ATOM      1  C   UNL A   1      32.066  30.390  26.604  1.00  0.00     0.188 C 
ENDROOT
BRANCH   1   2
ATOM      2  O   UNL A   1      31.686  29.146  27.216  1.00  0.00    -0.376 OA
BRANCH   2   3
ATOM      3  C   UNL A   1      31.414  28.115  26.197  1.00  0.00     0.202 C 
BRANCH   3   4
ATOM      4  C   UNL A   1      32.183  26.828  26.543  1.00  0.00     0.261 C 
BRANCH   4   5
ATOM      5  O   UNL A   1      33.583  26.983  26.229  1.00  0.00    -0.463 OA
BRANCH   5   6
ATOM      6  C   UNL A   1      33.867  26.684  24.955  1.00  0.00     0.310 C 
ATOM      7  O   UNL A   1      34.049  27.562  24.116  1.00  0.00    -0.252 OA
BRANCH   6   8
ATOM      8  C   UNL A   1      34.144  25.254  24.628  1.00  0.00     0.161 C 
BRANCH   8   9
ATOM      9  C   UNL A   1      33.280  24.084  24.248  1.00  0.00     0.000 A 
ATOM     10  C   UNL A   1      31.905  24.058  23.939  1.00  0.00     0.093 A 
ATOM     11  N   UNL A   1      31.558  22.706  24.197  1.00  0.00    -0.351 N 
ATOM     12  C   UNL A   1      32.613  21.865  24.333  1.00  0.00     0.048 A 
ATOM     13  H   UNL A   1      30.625  22.401  24.274  1.00  0.00     0.167 HD
ATOM     14  C   UNL A   1      33.717  22.694  24.443  1.00  0.00     0.007 A 
ATOM     15  C   UNL A   1      32.649  20.460  24.422  1.00  0.00     0.050 A 
ATOM     16  C   UNL A   1      34.944  22.072  24.758  1.00  0.00     0.051 A 
ATOM     17  C   UNL A   1      33.897  19.873  24.628  1.00  0.00     0.078 A 
ATOM     18  C   UNL A   1      35.020  20.671  24.815  1.00  0.00     0.142 A 
ATOM     19  Cl  UNL A   1      34.027  18.152  24.618  1.00  0.00    -0.081 Cl
ATOM     20  F   UNL A   1      36.221  20.108  25.020  1.00  0.00    -0.205 F 
BRANCH  10  21
ATOM     21  C   UNL A   1      30.693  24.865  23.506  1.00  0.00     0.227 C 
ATOM     22  O   UNL A   1      29.891  24.015  23.133  1.00  0.00    -0.285 OA
BRANCH  21  23
ATOM     23  C   UNL A   1      30.282  26.459  23.115  1.00  0.00     0.113 A 
ATOM     24  C   UNL A   1      27.299  28.880  23.196  1.00  0.00     0.044 C 
ATOM     25  C   UNL A   1      28.747  28.467  23.129  1.00  0.00    -0.047 A 
ATOM     26  C   UNL A   1      29.788  29.282  22.800  1.00  0.00     0.023 A 
ATOM     27  C   UNL A   1      29.072  27.130  23.403  1.00  0.00     0.036 A 
ATOM     28  C   UNL A   1      31.014  28.653  22.644  1.00  0.00     0.112 A 
ATOM     29  N   UNL A   1      31.260  27.292  22.729  1.00  0.00    -0.253 NA
ENDBRANCH  21  23
ENDBRANCH  10  21
ENDBRANCH   8   9
ENDBRANCH   6   8
ENDBRANCH   5   6
ENDBRANCH   4   5
ENDBRANCH   3   4
ENDBRANCH   2   3
ENDBRANCH   1   2
BRANCH   1  30
ATOM     30  C   UNL A   1      33.088  31.452  27.264  1.00  0.00     0.188 C 
BRANCH  30  31
ATOM     31  O   UNL A   1      32.770  32.865  27.504  1.00  0.00    -0.376 OA
BRANCH  31  32
ATOM     32  C   UNL A   1      33.682  33.892  28.005  1.00  0.00     0.202 C 
BRANCH  32  33
ATOM     33  C   UNL A   1      34.154  33.941  29.638  1.00  0.00     0.261 C 
BRANCH  33  34
ATOM     34  O   UNL A   1      34.485  32.714  30.485  1.00  0.00    -0.460 OA
BRANCH  34  35
ATOM     35  C   UNL A   1      35.276  32.733  31.642  1.00  0.00     0.338 C 
ATOM     36  O   UNL A   1      34.797  32.784  32.775  1.00  0.00    -0.246 OA
BRANCH  35  37
ATOM     37  C   UNL A   1      36.795  32.366  31.417  1.00  0.00     0.060 A 
ATOM     38  C   UNL A   1      37.330  31.862  30.234  1.00  0.00     0.016 A 
ATOM     39  C   UNL A   1      37.639  32.251  32.549  1.00  0.00     0.016 A 
ATOM     40  C   UNL A   1      38.514  31.053  30.238  1.00  0.00     0.010 A 
ATOM     41  C   UNL A   1      38.831  31.453  32.552  1.00  0.00     0.010 A 
ATOM     42  C   UNL A   1      39.264  30.780  31.407  1.00  0.00    -0.014 A 
BRANCH  42  43
ATOM     43  C   UNL A   1      40.609  30.097  31.287  1.00  0.00     0.031 A 
ATOM     44  C   UNL A   1      41.518  30.843  30.415  1.00  0.00     0.074 A 
ATOM     45  C   UNL A   1      41.237  29.041  31.875  1.00  0.00     0.049 A 
ATOM     46  N   UNL A   1      41.906  30.505  29.233  1.00  0.00    -0.248 NA
ATOM     47  C   UNL A   1      41.938  32.164  30.875  1.00  0.00     0.031 C 
ATOM     48  C   UNL A   1      40.645  28.192  32.864  1.00  0.00     0.029 A 
ATOM     49  N   UNL A   1      42.481  28.444  31.749  1.00  0.00    -0.354 N 
ATOM     50  C   UNL A   1      42.817  31.483  28.881  1.00  0.00     0.074 A 
ATOM     51  C   UNL A   1      42.633  32.570  29.816  1.00  0.00     0.031 C 
ATOM     52  C   UNL A   1      41.541  27.422  33.517  1.00  0.00     0.029 A 
ATOM     53  C   UNL A   1      42.776  27.512  32.754  1.00  0.00     0.049 A 
ATOM     54  H   UNL A   1      43.104  28.656  31.016  1.00  0.00     0.167 HD
ATOM     55  C   UNL A   1      43.846  31.214  28.036  1.00  0.00     0.034 A 
ATOM     56  C   UNL A   1      43.837  26.686  32.959  1.00  0.00     0.034 A 
ATOM     57  C   UNL A   1      43.682  29.963  27.348  1.00  0.00     0.049 A 
ATOM     58  C   UNL A   1      44.569  26.515  31.698  1.00  0.00     0.074 A 
ATOM     59  C   UNL A   1      42.798  29.459  26.420  1.00  0.00     0.029 A 
ATOM     60  N   UNL A   1      44.364  28.898  27.879  1.00  0.00    -0.354 N 
ATOM     61  N   UNL A   1      44.158  25.788  30.700  1.00  0.00    -0.248 NA
ATOM     62  C   UNL A   1      45.653  27.436  31.405  1.00  0.00     0.031 C 
ATOM     63  C   UNL A   1      42.795  28.049  26.603  1.00  0.00     0.029 A 
ATOM     64  C   UNL A   1      43.691  27.729  27.624  1.00  0.00     0.049 A 
ATOM     65  H   UNL A   1      45.213  28.963  28.372  1.00  0.00     0.167 HD
ATOM     66  C   UNL A   1      44.572  26.498  29.590  1.00  0.00     0.074 A 
ATOM     67  C   UNL A   1      45.625  27.380  30.073  1.00  0.00     0.031 C 
ATOM     68  C   UNL A   1      43.802  26.548  28.466  1.00  0.00     0.034 A 
BRANCH  55  69
ATOM     69  C   UNL A   1      45.171  31.916  28.136  1.00  0.00     0.023 A 
ATOM     70  C   UNL A   1      45.596  32.854  27.176  1.00  0.00     0.031 A 
ATOM     71  C   UNL A   1      45.960  31.810  29.292  1.00  0.00     0.131 A 
ATOM     72  C   UNL A   1      46.796  33.552  27.312  1.00  0.00     0.055 A 
ATOM     73  C   UNL A   1      47.114  32.581  29.476  1.00  0.00     0.041 A 
ATOM     74  F   UNL A   1      45.609  30.988  30.292  1.00  0.00    -0.206 F 
ATOM     75  C   UNL A   1      47.550  33.444  28.475  1.00  0.00     0.022 A 
BRANCH  72  76
ATOM     76  S   UNL A   1      47.400  34.588  25.953  1.00  0.00     0.124 S 
ATOM     77  O   UNL A   1      46.222  34.681  25.099  1.00  0.00    -0.237 OA
ATOM     78  O   UNL A   1      47.772  35.811  26.660  1.00  0.00    -0.237 OA
ATOM     79  O   UNL A   1      48.521  33.823  25.414  1.00  0.00    -0.744 OA
ENDBRANCH  72  76
ENDBRANCH  55  69
BRANCH  56  80
ATOM     80  C   UNL A   1      44.375  26.221  34.267  1.00  0.00     0.023 A 
ATOM     81  C   UNL A   1      45.567  26.792  34.743  1.00  0.00     0.031 A 
ATOM     82  C   UNL A   1      43.934  25.046  34.905  1.00  0.00     0.131 A 
ATOM     83  C   UNL A   1      46.323  26.163  35.739  1.00  0.00     0.055 A 
ATOM     84  C   UNL A   1      44.678  24.429  35.925  1.00  0.00     0.041 A 
ATOM     85  F   UNL A   1      42.810  24.428  34.510  1.00  0.00    -0.206 F 
ATOM     86  C   UNL A   1      45.893  24.977  36.331  1.00  0.00     0.022 A 
BRANCH  83  87
ATOM     87  S   UNL A   1      47.938  26.847  36.197  1.00  0.00     0.124 S 
ATOM     88  O   UNL A   1      48.419  27.399  34.932  1.00  0.00    -0.237 OA
ATOM     89  O   UNL A   1      47.564  27.827  37.210  1.00  0.00    -0.237 OA
ATOM     90  O   UNL A   1      48.674  25.682  36.679  1.00  0.00    -0.744 OA
ENDBRANCH  83  87
ENDBRANCH  56  80
BRANCH  68  91
ATOM     91  C   UNL A   1      42.841  25.417  28.185  1.00  0.00     0.023 A 
ATOM     92  C   UNL A   1      43.356  24.329  27.452  1.00  0.00     0.031 A 
ATOM     93  C   UNL A   1      41.457  25.439  28.434  1.00  0.00     0.131 A 
ATOM     94  C   UNL A   1      42.503  23.345  26.943  1.00  0.00     0.055 A 
ATOM     95  C   UNL A   1      40.619  24.405  27.996  1.00  0.00     0.041 A 
ATOM     96  F   UNL A   1      40.866  26.486  29.028  1.00  0.00    -0.206 F 
ATOM     97  C   UNL A   1      41.136  23.363  27.228  1.00  0.00     0.022 A 
BRANCH  94  98
ATOM     98  S   UNL A   1      43.127  22.117  25.764  1.00  0.00     0.124 S 
ATOM     99  O   UNL A   1      43.030  22.828  24.493  1.00  0.00    -0.237 OA
ATOM    100  O   UNL A   1      44.486  21.885  26.249  1.00  0.00    -0.237 OA
ATOM    101  O   UNL A   1      42.218  20.984  25.917  1.00  0.00    -0.744 OA
ENDBRANCH  94  98
ENDBRANCH  68  91
ENDBRANCH  42  43
ENDBRANCH  35  37
ENDBRANCH  34  35
ENDBRANCH  33  34
ENDBRANCH  32  33
ENDBRANCH  31  32
ENDBRANCH  30  31
ENDBRANCH   1  30
TORSDOF 23
ENDMDL
MODEL 3
REMARK VINA RESULT:      -9.4      4.230      9.701
REMARK SMILES Cc1ccnc(C(=O)c2[nH]c3cc(Cl)c(F)cc3c2CC(=O)OCCOCCOCCOC(=O)c2ccc(-c3c4nc(c(-c5cc(S(=O)(=O)[O-])ccc5F)c5ccc([nH]5)c(-c5cc(S(=O)(=O)[O-])ccc5F)c5nc(c(-c6cc(S(=O)(=O)[O-])ccc6F)c6ccc3[nH]6)C=C5)C=C4)cc2)c1
REMARK SMILES IDX 27 1 26 2 25 3 24 4 23 5 21 6 22 7 20 8 19 9 9 10 10 11
REMARK SMILES IDX 11 12 18 14 12 15 17 16 13 17 15 18 14 19 16 20 7 21 8 22
REMARK SMILES IDX 6 23 1 24 2 25 3 26 98 27 4 28 5 29 28 30 29 31 30 32 31 33
REMARK SMILES IDX 32 34 33 35 34 36 35 37 36 38 97 39 37 40 96 41 38 42 39 43
REMARK SMILES IDX 40 44 90 45 41 46 95 47 89 48 91 49 42 50 94 51 88 52 87 53
REMARK SMILES IDX 43 55 75 56 55 57 74 58 56 59 59 60 73 61 92 62 57 63 58 64
REMARK SMILES IDX 72 66 93 67 60 68 44 69 45 70 53 71 46 72 52 73 54 74 51 75
REMARK SMILES IDX 47 76 48 77 49 78 50 79 76 80 77 81 85 82 78 83 84 84 86 85
REMARK SMILES IDX 83 86 79 87 80 88 81 89 82 90 61 91 62 92 70 93 63 94 69 95
REMARK SMILES IDX 71 96 68 97 64 98 65 99 66 100 67 101
REMARK H PARENT 10 13 91 54 59 65
REMARK Flexibility Score: inf
ROOT
ATOM      1  C   UNL A   1      37.234  31.431  28.587  1.00  0.00     0.188 C 
ENDROOT
BRANCH   1   2
ATOM      2  O   UNL A   1      36.522  30.224  28.907  1.00  0.00    -0.376 OA
BRANCH   2   3
ATOM      3  C   UNL A   1      36.093  29.521  27.683  1.00  0.00     0.202 C 
BRANCH   3   4
ATOM      4  C   UNL A   1      34.622  29.857  27.381  1.00  0.00     0.261 C 
BRANCH   4   5
ATOM      5  O   UNL A   1      34.076  28.909  26.440  1.00  0.00    -0.463 OA
BRANCH   5   6
ATOM      6  C   UNL A   1      32.847  28.494  26.773  1.00  0.00     0.310 C 
ATOM      7  O   UNL A   1      32.118  29.166  27.498  1.00  0.00    -0.252 OA
BRANCH   6   8
ATOM      8  C   UNL A   1      32.319  27.281  26.081  1.00  0.00     0.161 C 
BRANCH   8   9
ATOM      9  C   UNL A   1      32.676  26.566  24.808  1.00  0.00     0.000 A 
ATOM     10  C   UNL A   1      31.959  26.496  23.597  1.00  0.00     0.093 A 
ATOM     11  N   UNL A   1      32.472  25.312  23.005  1.00  0.00    -0.351 N 
ATOM     12  C   UNL A   1      33.609  24.841  23.572  1.00  0.00     0.048 A 
ATOM     13  H   UNL A   1      32.036  24.867  22.242  1.00  0.00     0.167 HD
ATOM     14  C   UNL A   1      33.740  25.553  24.752  1.00  0.00     0.007 A 
ATOM     15  C   UNL A   1      34.475  23.812  23.152  1.00  0.00     0.050 A 
ATOM     16  C   UNL A   1      34.769  25.142  25.627  1.00  0.00     0.051 A 
ATOM     17  C   UNL A   1      35.544  23.505  23.993  1.00  0.00     0.078 A 
ATOM     18  C   UNL A   1      35.671  24.146  25.220  1.00  0.00     0.142 A 
ATOM     19  Cl  UNL A   1      36.713  22.345  23.476  1.00  0.00    -0.081 Cl
ATOM     20  F   UNL A   1      36.696  23.848  26.034  1.00  0.00    -0.205 F 
BRANCH  10  21
ATOM     21  C   UNL A   1      30.876  27.120  22.733  1.00  0.00     0.227 C 
ATOM     22  O   UNL A   1      31.207  26.828  21.588  1.00  0.00    -0.285 OA
BRANCH  21  23
ATOM     23  C   UNL A   1      29.641  28.270  22.850  1.00  0.00     0.113 A 
ATOM     24  C   UNL A   1      28.883  31.938  21.992  1.00  0.00     0.044 C 
ATOM     25  C   UNL A   1      28.575  30.505  22.340  1.00  0.00    -0.047 A 
ATOM     26  C   UNL A   1      27.359  30.028  22.725  1.00  0.00     0.023 A 
ATOM     27  C   UNL A   1      29.618  29.568  22.291  1.00  0.00     0.036 A 
ATOM     28  C   UNL A   1      27.340  28.709  23.153  1.00  0.00     0.112 A 
ATOM     29  N   UNL A   1      28.435  27.868  23.280  1.00  0.00    -0.253 NA
ENDBRANCH  21  23
ENDBRANCH  10  21
ENDBRANCH   8   9
ENDBRANCH   6   8
ENDBRANCH   5   6
ENDBRANCH   4   5
ENDBRANCH   3   4
ENDBRANCH   2   3
ENDBRANCH   1   2
BRANCH   1  30
ATOM     30  C   UNL A   1      36.641  32.918  28.799  1.00  0.00     0.188 C 
BRANCH  30  31
ATOM     31  O   UNL A   1      36.457  33.555  30.109  1.00  0.00    -0.376 OA
BRANCH  31  32
ATOM     32  C   UNL A   1      35.188  33.960  30.712  1.00  0.00     0.202 C 
BRANCH  32  33
ATOM     33  C   UNL A   1      34.805  33.573  32.323  1.00  0.00     0.261 C 
BRANCH  33  34
ATOM     34  O   UNL A   1      35.417  32.414  33.107  1.00  0.00    -0.460 OA
BRANCH  34  35
ATOM     35  C   UNL A   1      36.559  32.514  33.915  1.00  0.00     0.338 C 
ATOM     36  O   UNL A   1      36.576  33.146  34.970  1.00  0.00    -0.246 OA
BRANCH  35  37
ATOM     37  C   UNL A   1      37.722  31.508  33.551  1.00  0.00     0.060 A 
ATOM     38  C   UNL A   1      38.878  31.316  34.304  1.00  0.00     0.016 A 
ATOM     39  C   UNL A   1      37.765  30.967  32.243  1.00  0.00     0.016 A 
ATOM     40  C   UNL A   1      40.093  30.855  33.697  1.00  0.00     0.010 A 
ATOM     41  C   UNL A   1      38.976  30.494  31.638  1.00  0.00     0.010 A 
ATOM     42  C   UNL A   1      40.188  30.487  32.334  1.00  0.00    -0.014 A 
BRANCH  42  43
ATOM     43  C   UNL A   1      41.447  29.815  31.830  1.00  0.00     0.031 A 
ATOM     44  C   UNL A   1      42.107  30.611  30.793  1.00  0.00     0.074 A 
ATOM     45  C   UNL A   1      42.194  28.730  32.175  1.00  0.00     0.049 A 
ATOM     46  N   UNL A   1      42.170  30.341  29.535  1.00  0.00    -0.248 NA
ATOM     47  C   UNL A   1      42.648  31.906  31.200  1.00  0.00     0.031 C 
ATOM     48  C   UNL A   1      41.870  27.825  33.236  1.00  0.00     0.029 A 
ATOM     49  N   UNL A   1      43.355  28.145  31.697  1.00  0.00    -0.354 N 
ATOM     50  C   UNL A   1      42.969  31.340  29.012  1.00  0.00     0.074 A 
ATOM     51  C   UNL A   1      43.048  32.372  30.020  1.00  0.00     0.031 C 
ATOM     52  C   UNL A   1      42.896  27.022  33.590  1.00  0.00     0.029 A 
ATOM     53  C   UNL A   1      43.891  27.158  32.538  1.00  0.00     0.049 A 
ATOM     54  H   UNL A   1      43.769  28.398  30.839  1.00  0.00     0.167 HD
ATOM     55  C   UNL A   1      43.739  31.122  27.915  1.00  0.00     0.034 A 
ATOM     56  C   UNL A   1      44.958  26.325  32.414  1.00  0.00     0.034 A 
ATOM     57  C   UNL A   1      43.387  29.911  27.225  1.00  0.00     0.049 A 
ATOM     58  C   UNL A   1      45.335  26.226  30.998  1.00  0.00     0.074 A 
ATOM     59  C   UNL A   1      42.286  29.457  26.533  1.00  0.00     0.029 A 
ATOM     60  N   UNL A   1      44.171  28.819  27.501  1.00  0.00    -0.354 N 
ATOM     61  N   UNL A   1      44.669  25.556  30.104  1.00  0.00    -0.248 NA
ATOM     62  C   UNL A   1      46.316  27.166  30.484  1.00  0.00     0.031 C 
ATOM     63  C   UNL A   1      42.314  28.039  26.634  1.00  0.00     0.029 A 
ATOM     64  C   UNL A   1      43.442  27.665  27.366  1.00  0.00     0.049 A 
ATOM     65  H   UNL A   1      45.121  28.859  27.759  1.00  0.00     0.167 HD
ATOM     66  C   UNL A   1      44.789  26.327  28.964  1.00  0.00     0.074 A 
ATOM     67  C   UNL A   1      45.941  27.185  29.204  1.00  0.00     0.031 C 
ATOM     68  C   UNL A   1      43.754  26.438  28.085  1.00  0.00     0.034 A 
BRANCH  55  69
ATOM     69  C   UNL A   1      45.053  31.820  27.704  1.00  0.00     0.023 A 
ATOM     70  C   UNL A   1      46.286  31.157  27.851  1.00  0.00     0.031 A 
ATOM     71  C   UNL A   1      45.105  33.115  27.166  1.00  0.00     0.131 A 
ATOM     72  C   UNL A   1      47.499  31.794  27.586  1.00  0.00     0.055 A 
ATOM     73  C   UNL A   1      46.315  33.722  26.807  1.00  0.00     0.041 A 
ATOM     74  F   UNL A   1      43.981  33.810  26.932  1.00  0.00    -0.206 F 
ATOM     75  C   UNL A   1      47.523  33.070  27.035  1.00  0.00     0.022 A 
BRANCH  72  76
ATOM     76  S   UNL A   1      49.062  30.970  27.990  1.00  0.00     0.124 S 
ATOM     77  O   UNL A   1      48.599  29.707  28.552  1.00  0.00    -0.237 OA
ATOM     78  O   UNL A   1      49.697  30.887  26.677  1.00  0.00    -0.237 OA
ATOM     79  O   UNL A   1      49.701  31.890  28.927  1.00  0.00    -0.744 OA
ENDBRANCH  72  76
ENDBRANCH  55  69
BRANCH  56  80
ATOM     80  C   UNL A   1      45.812  25.789  33.509  1.00  0.00     0.023 A 
ATOM     81  C   UNL A   1      45.695  24.429  33.847  1.00  0.00     0.031 A 
ATOM     82  C   UNL A   1      46.502  26.612  34.419  1.00  0.00     0.131 A 
ATOM     83  C   UNL A   1      46.161  23.947  35.076  1.00  0.00     0.055 A 
ATOM     84  C   UNL A   1      46.994  26.123  35.640  1.00  0.00     0.041 A 
ATOM     85  F   UNL A   1      46.654  27.924  34.181  1.00  0.00    -0.206 F 
ATOM     86  C   UNL A   1      46.803  24.786  35.984  1.00  0.00     0.022 A 
BRANCH  83  87
ATOM     87  S   UNL A   1      45.832  22.225  35.539  1.00  0.00     0.124 S 
ATOM     88  O   UNL A   1      45.821  22.286  36.999  1.00  0.00    -0.237 OA
ATOM     89  O   UNL A   1      44.536  21.996  34.909  1.00  0.00    -0.237 OA
ATOM     90  O   UNL A   1      46.959  21.500  34.962  1.00  0.00    -0.744 OA
ENDBRANCH  83  87
ENDBRANCH  56  80
BRANCH  68  91
ATOM     91  C   UNL A   1      42.739  25.323  28.002  1.00  0.00     0.023 A 
ATOM     92  C   UNL A   1      43.114  24.193  27.247  1.00  0.00     0.031 A 
ATOM     93  C   UNL A   1      41.411  25.390  28.458  1.00  0.00     0.131 A 
ATOM     94  C   UNL A   1      42.175  23.212  26.917  1.00  0.00     0.055 A 
ATOM     95  C   UNL A   1      40.495  24.361  28.198  1.00  0.00     0.041 A 
ATOM     96  F   UNL A   1      40.939  26.474  29.090  1.00  0.00    -0.206 F 
ATOM     97  C   UNL A   1      40.868  23.277  27.405  1.00  0.00     0.022 A 
BRANCH  94  98
ATOM     98  S   UNL A   1      42.586  21.924  25.710  1.00  0.00     0.124 S 
ATOM     99  O   UNL A   1      42.968  22.704  24.537  1.00  0.00    -0.237 OA
ATOM    100  O   UNL A   1      43.679  21.216  26.373  1.00  0.00    -0.237 OA
ATOM    101  O   UNL A   1      41.350  21.156  25.574  1.00  0.00    -0.744 OA
ENDBRANCH  94  98
ENDBRANCH  68  91
ENDBRANCH  42  43
ENDBRANCH  35  37
ENDBRANCH  34  35
ENDBRANCH  33  34
ENDBRANCH  32  33
ENDBRANCH  31  32
ENDBRANCH  30  31
ENDBRANCH   1  30
TORSDOF 23
ENDMDL
