MODEL 1
REMARK VINA RESULT:     -10.5      0.000      0.000
REMARK SMILES CCC1(C(=O)N[C@H]2C=C[C@H](C(=O)OCCOCCOCCOC(=O)c3ccc(-c4c5nc(c(-c6cc(S(=O)(=O)[O-])ccc6F)c6ccc([nH]6)c(-c6cc(S(=O)(=O)[O-])ccc6F)c6nc(c(-c7cc(S(=O)(=O)[O-])ccc7F)c7ccc4[nH]7)C=C6)C=C5)cc3)C2)CC[NH2+]CC1
REMARK SMILES IDX 17 1 16 2 15 3 14 4 13 5 11 6 12 7 10 8 7 9 8 10 88 11 9 12
REMARK SMILES IDX 6 13 4 14 5 15 3 17 89 18 93 19 90 20 92 21 91 22 2 25 1 26
REMARK SMILES IDX 18 27 19 28 20 29 21 30 22 31 23 32 24 33 25 34 26 35 87 36
REMARK SMILES IDX 27 37 86 38 28 39 29 40 30 41 80 42 31 43 85 44 79 45 81 46
REMARK SMILES IDX 32 47 84 48 78 49 77 50 33 52 65 53 45 54 64 55 46 56 49 57
REMARK SMILES IDX 63 58 82 59 47 60 48 61 62 63 83 64 50 65 34 66 35 67 43 68
REMARK SMILES IDX 36 69 42 70 44 71 41 72 37 73 38 74 39 75 40 76 66 77 67 78
REMARK SMILES IDX 75 79 68 80 74 81 76 82 73 83 69 84 70 85 71 86 72 87 51 88
REMARK SMILES IDX 52 89 60 90 53 91 59 92 61 93 58 94 54 95 55 96 56 97 57 98
REMARK H PARENT 6 16 91 23 91 24 81 51 49 62
REMARK Flexibility Score: inf
ROOT
ATOM      1  C   UNL A   1      44.209  18.994  25.866  1.00  0.00     0.188 C 
ENDROOT
BRANCH   1   2
ATOM      2  O   UNL A   1      43.050  18.442  25.266  1.00  0.00    -0.376 OA
BRANCH   2   3
ATOM      3  C   UNL A   1      41.798  18.951  25.717  1.00  0.00     0.202 C 
BRANCH   3   4
ATOM      4  C   UNL A   1      41.828  20.275  26.494  1.00  0.00     0.261 C 
BRANCH   4   5
ATOM      5  O   UNL A   1      40.560  20.620  27.084  1.00  0.00    -0.463 OA
BRANCH   5   6
ATOM      6  C   UNL A   1      40.031  21.865  26.866  1.00  0.00     0.312 C 
ATOM      7  O   UNL A   1      40.337  22.868  27.498  1.00  0.00    -0.252 OA
BRANCH   6   8
ATOM      8  C   UNL A   1      38.945  21.836  25.781  1.00  0.00     0.124 C 
ATOM      9  C   UNL A   1      36.518  22.261  25.452  1.00  0.00     0.106 C 
ATOM     10  C   UNL A   1      36.917  20.847  25.128  1.00  0.00    -0.006 C 
ATOM     11  C   UNL A   1      37.777  22.743  26.118  1.00  0.00     0.048 C 
ATOM     12  C   UNL A   1      38.211  20.591  25.398  1.00  0.00    -0.014 C 
BRANCH   9  13
ATOM     13  N   UNL A   1      36.011  22.976  24.279  1.00  0.00    -0.349 N 
ATOM     14  C   UNL A   1      34.770  23.307  23.789  1.00  0.00     0.227 C 
ATOM     15  O   UNL A   1      34.695  23.337  22.553  1.00  0.00    -0.274 OA
ATOM     16  H   UNL A   1      36.738  23.299  23.697  1.00  0.00     0.164 HD
BRANCH  14  17
ATOM     17  C   UNL A   1      33.535  23.749  24.662  1.00  0.00     0.060 C 
ATOM     18  C   UNL A   1      32.202  23.468  23.900  1.00  0.00     0.078 C 
ATOM     19  C   UNL A   1      33.687  22.990  26.015  1.00  0.00     0.078 C 
ATOM     20  C   UNL A   1      31.014  23.180  24.835  1.00  0.00     0.261 C 
ATOM     21  C   UNL A   1      32.391  22.729  26.776  1.00  0.00     0.261 C 
ATOM     22  N   UNL A   1      31.316  22.255  25.921  1.00  0.00    -0.346 N 
ATOM     23  H   UNL A   1      31.590  21.357  25.520  1.00  0.00     0.346 HD
ATOM     24  H   UNL A   1      30.478  22.168  26.496  1.00  0.00     0.346 HD
BRANCH  17  25
ATOM     25  C   UNL A   1      33.520  25.321  24.886  1.00  0.00     0.014 C 
ATOM     26  C   UNL A   1      33.625  26.238  23.673  1.00  0.00     0.005 C 
ENDBRANCH  17  25
ENDBRANCH  14  17
ENDBRANCH   9  13
ENDBRANCH   6   8
ENDBRANCH   5   6
ENDBRANCH   4   5
ENDBRANCH   3   4
ENDBRANCH   2   3
ENDBRANCH   1   2
BRANCH   1  27
ATOM     27  C   UNL A   1      45.333  19.433  24.929  1.00  0.00     0.188 C 
BRANCH  27  28
ATOM     28  O   UNL A   1      45.861  20.741  25.100  1.00  0.00    -0.376 OA
BRANCH  28  29
ATOM     29  C   UNL A   1      45.335  21.725  24.196  1.00  0.00     0.202 C 
BRANCH  29  30
ATOM     30  C   UNL A   1      43.988  22.344  24.632  1.00  0.00     0.261 C 
BRANCH  30  31
ATOM     31  O   UNL A   1      43.815  23.756  24.358  1.00  0.00    -0.460 OA
BRANCH  31  32
ATOM     32  C   UNL A   1      44.619  24.636  25.007  1.00  0.00     0.338 C 
ATOM     33  O   UNL A   1      45.762  24.925  24.688  1.00  0.00    -0.246 OA
BRANCH  32  34
ATOM     34  C   UNL A   1      43.794  25.426  25.972  1.00  0.00     0.060 A 
ATOM     35  C   UNL A   1      43.676  26.810  25.764  1.00  0.00     0.016 A 
ATOM     36  C   UNL A   1      43.057  24.824  26.997  1.00  0.00     0.016 A 
ATOM     37  C   UNL A   1      42.877  27.597  26.606  1.00  0.00     0.010 A 
ATOM     38  C   UNL A   1      42.265  25.614  27.845  1.00  0.00     0.010 A 
ATOM     39  C   UNL A   1      42.203  27.011  27.684  1.00  0.00    -0.014 A 
BRANCH  39  40
ATOM     40  C   UNL A   1      41.662  27.853  28.792  1.00  0.00     0.031 A 
ATOM     41  C   UNL A   1      42.410  27.836  30.103  1.00  0.00     0.074 A 
ATOM     42  C   UNL A   1      40.556  28.612  28.674  1.00  0.00     0.049 A 
ATOM     43  N   UNL A   1      42.092  28.360  31.258  1.00  0.00    -0.248 NA
ATOM     44  C   UNL A   1      43.693  27.116  30.101  1.00  0.00     0.031 C 
ATOM     45  C   UNL A   1      39.769  28.788  27.456  1.00  0.00     0.029 A 
ATOM     46  N   UNL A   1      39.894  29.375  29.612  1.00  0.00    -0.354 N 
ATOM     47  C   UNL A   1      43.125  28.016  32.126  1.00  0.00     0.074 A 
ATOM     48  C   UNL A   1      44.057  27.208  31.369  1.00  0.00     0.031 C 
ATOM     49  C   UNL A   1      38.723  29.592  27.725  1.00  0.00     0.029 A 
ATOM     50  C   UNL A   1      38.733  29.951  29.144  1.00  0.00     0.049 A 
ATOM     51  H   UNL A   1      40.221  29.497  30.533  1.00  0.00     0.167 HD
ATOM     52  C   UNL A   1      43.290  28.346  33.430  1.00  0.00     0.034 A 
ATOM     53  C   UNL A   1      37.775  30.652  29.793  1.00  0.00     0.034 A 
ATOM     54  C   UNL A   1      42.354  29.144  34.183  1.00  0.00     0.049 A 
ATOM     55  C   UNL A   1      37.918  30.912  31.279  1.00  0.00     0.074 A 
ATOM     56  C   UNL A   1      42.430  29.533  35.510  1.00  0.00     0.029 A 
ATOM     57  N   UNL A   1      41.167  29.662  33.685  1.00  0.00    -0.354 N 
ATOM     58  N   UNL A   1      38.891  30.568  32.093  1.00  0.00    -0.248 NA
ATOM     59  C   UNL A   1      36.833  31.659  31.934  1.00  0.00     0.031 C 
ATOM     60  C   UNL A   1      41.254  30.215  35.834  1.00  0.00     0.029 A 
ATOM     61  C   UNL A   1      40.486  30.338  34.687  1.00  0.00     0.049 A 
ATOM     62  H   UNL A   1      40.854  29.565  32.757  1.00  0.00     0.167 HD
ATOM     63  C   UNL A   1      38.551  31.096  33.340  1.00  0.00     0.074 A 
ATOM     64  C   UNL A   1      37.290  31.782  33.172  1.00  0.00     0.031 C 
ATOM     65  C   UNL A   1      39.230  31.028  34.515  1.00  0.00     0.034 A 
BRANCH  52  66
ATOM     66  C   UNL A   1      44.503  27.790  34.135  1.00  0.00     0.023 A 
ATOM     67  C   UNL A   1      44.515  26.494  34.680  1.00  0.00     0.031 A 
ATOM     68  C   UNL A   1      45.653  28.583  34.297  1.00  0.00     0.131 A 
ATOM     69  C   UNL A   1      45.620  26.061  35.427  1.00  0.00     0.055 A 
ATOM     70  C   UNL A   1      46.785  28.111  34.963  1.00  0.00     0.041 A 
ATOM     71  F   UNL A   1      45.692  29.838  33.821  1.00  0.00    -0.206 F 
ATOM     72  C   UNL A   1      46.767  26.849  35.548  1.00  0.00     0.022 A 
BRANCH  69  73
ATOM     73  S   UNL A   1      45.473  24.520  36.374  1.00  0.00     0.124 S 
ATOM     74  O   UNL A   1      45.776  23.519  35.355  1.00  0.00    -0.237 OA
ATOM     75  O   UNL A   1      46.475  24.694  37.417  1.00  0.00    -0.237 OA
ATOM     76  O   UNL A   1      44.085  24.532  36.832  1.00  0.00    -0.744 OA
ENDBRANCH  69  73
ENDBRANCH  52  66
BRANCH  53  77
ATOM     77  C   UNL A   1      36.551  31.122  29.072  1.00  0.00     0.023 A 
ATOM     78  C   UNL A   1      35.621  30.212  28.542  1.00  0.00     0.031 A 
ATOM     79  C   UNL A   1      36.340  32.490  28.825  1.00  0.00     0.131 A 
ATOM     80  C   UNL A   1      34.556  30.675  27.750  1.00  0.00     0.055 A 
ATOM     81  C   UNL A   1      35.244  32.952  28.091  1.00  0.00     0.041 A 
ATOM     82  F   UNL A   1      37.204  33.406  29.291  1.00  0.00    -0.206 F 
ATOM     83  C   UNL A   1      34.353  32.039  27.535  1.00  0.00     0.022 A 
BRANCH  80  84
ATOM     84  S   UNL A   1      33.501  29.460  26.909  1.00  0.00     0.124 S 
ATOM     85  O   UNL A   1      33.127  28.581  28.012  1.00  0.00    -0.237 OA
ATOM     86  O   UNL A   1      32.438  30.302  26.371  1.00  0.00    -0.237 OA
ATOM     87  O   UNL A   1      34.390  28.868  25.912  1.00  0.00    -0.744 OA
ENDBRANCH  80  84
ENDBRANCH  53  77
BRANCH  65  88
ATOM     88  C   UNL A   1      38.666  31.780  35.701  1.00  0.00     0.023 A 
ATOM     89  C   UNL A   1      38.047  31.128  36.781  1.00  0.00     0.031 A 
ATOM     90  C   UNL A   1      38.772  33.183  35.753  1.00  0.00     0.131 A 
ATOM     91  C   UNL A   1      37.518  31.881  37.843  1.00  0.00     0.055 A 
ATOM     92  C   UNL A   1      38.302  33.920  36.840  1.00  0.00     0.041 A 
ATOM     93  F   UNL A   1      39.351  33.862  34.749  1.00  0.00    -0.206 F 
ATOM     94  C   UNL A   1      37.660  33.270  37.889  1.00  0.00     0.022 A 
BRANCH  91  95
ATOM     95  S   UNL A   1      36.564  31.029  39.131  1.00  0.00     0.124 S 
ATOM     96  O   UNL A   1      37.504  31.018  40.248  1.00  0.00    -0.237 OA
ATOM     97  O   UNL A   1      35.401  31.897  39.285  1.00  0.00    -0.237 OA
ATOM     98  O   UNL A   1      36.285  29.720  38.543  1.00  0.00    -0.744 OA
ENDBRANCH  91  95
ENDBRANCH  65  88
ENDBRANCH  39  40
ENDBRANCH  32  34
ENDBRANCH  31  32
ENDBRANCH  30  31
ENDBRANCH  29  30
ENDBRANCH  28  29
ENDBRANCH  27  28
ENDBRANCH   1  27
TORSDOF 23
ENDMDL
MODEL 2
REMARK VINA RESULT:     -10.4      1.588      2.103
REMARK SMILES CCC1(C(=O)N[C@H]2C=C[C@H](C(=O)OCCOCCOCCOC(=O)c3ccc(-c4c5nc(c(-c6cc(S(=O)(=O)[O-])ccc6F)c6ccc([nH]6)c(-c6cc(S(=O)(=O)[O-])ccc6F)c6nc(c(-c7cc(S(=O)(=O)[O-])ccc7F)c7ccc4[nH]7)C=C6)C=C5)cc3)C2)CC[NH2+]CC1
REMARK SMILES IDX 17 1 16 2 15 3 14 4 13 5 11 6 12 7 10 8 7 9 8 10 88 11 9 12
REMARK SMILES IDX 6 13 4 14 5 15 3 17 89 18 93 19 90 20 92 21 91 22 2 25 1 26
REMARK SMILES IDX 18 27 19 28 20 29 21 30 22 31 23 32 24 33 25 34 26 35 87 36
REMARK SMILES IDX 27 37 86 38 28 39 29 40 30 41 80 42 31 43 85 44 79 45 81 46
REMARK SMILES IDX 32 47 84 48 78 49 77 50 33 52 65 53 45 54 64 55 46 56 49 57
REMARK SMILES IDX 63 58 82 59 47 60 48 61 62 63 83 64 50 65 34 66 35 67 43 68
REMARK SMILES IDX 36 69 42 70 44 71 41 72 37 73 38 74 39 75 40 76 66 77 67 78
REMARK SMILES IDX 75 79 68 80 74 81 76 82 73 83 69 84 70 85 71 86 72 87 51 88
REMARK SMILES IDX 52 89 60 90 53 91 59 92 61 93 58 94 54 95 55 96 56 97 57 98
REMARK H PARENT 6 16 91 23 91 24 81 51 49 62
REMARK Flexibility Score: inf
ROOT
ATOM      1  C   UNL A   1      42.565  19.408  26.299  1.00  0.00     0.188 C 
ENDROOT
BRANCH   1   2
ATOM      2  O   UNL A   1      41.382  18.867  25.739  1.00  0.00    -0.376 OA
BRANCH   2   3
ATOM      3  C   UNL A   1      40.196  19.644  25.885  1.00  0.00     0.202 C 
BRANCH   3   4
ATOM      4  C   UNL A   1      40.381  21.146  26.146  1.00  0.00     0.261 C 
BRANCH   4   5
ATOM      5  O   UNL A   1      39.243  21.761  26.780  1.00  0.00    -0.463 OA
BRANCH   5   6
ATOM      6  C   UNL A   1      38.695  22.891  26.232  1.00  0.00     0.312 C 
ATOM      7  O   UNL A   1      38.979  24.032  26.571  1.00  0.00    -0.252 OA
BRANCH   6   8
ATOM      8  C   UNL A   1      37.617  22.550  25.193  1.00  0.00     0.124 C 
ATOM      9  C   UNL A   1      35.248  23.036  24.622  1.00  0.00     0.106 C 
ATOM     10  C   UNL A   1      35.503  21.576  24.875  1.00  0.00    -0.006 C 
ATOM     11  C   UNL A   1      36.545  23.619  25.111  1.00  0.00     0.048 C 
ATOM     12  C   UNL A   1      36.764  21.325  25.278  1.00  0.00    -0.014 C 
BRANCH   9  13
ATOM     13  N   UNL A   1      34.822  23.294  23.245  1.00  0.00    -0.349 N 
ATOM     14  C   UNL A   1      33.702  23.818  22.643  1.00  0.00     0.227 C 
ATOM     15  O   UNL A   1      33.434  23.327  21.539  1.00  0.00    -0.274 OA
ATOM     16  H   UNL A   1      35.505  23.026  22.588  1.00  0.00     0.164 HD
BRANCH  14  17
ATOM     17  C   UNL A   1      32.857  25.030  23.191  1.00  0.00     0.060 C 
ATOM     18  C   UNL A   1      33.800  26.185  23.653  1.00  0.00     0.078 C 
ATOM     19  C   UNL A   1      31.874  25.408  22.043  1.00  0.00     0.078 C 
ATOM     20  C   UNL A   1      33.165  27.580  23.522  1.00  0.00     0.261 C 
ATOM     21  C   UNL A   1      31.400  26.857  22.028  1.00  0.00     0.261 C 
ATOM     22  N   UNL A   1      32.474  27.809  22.257  1.00  0.00    -0.346 N 
ATOM     23  H   UNL A   1      33.149  27.728  21.496  1.00  0.00     0.346 HD
ATOM     24  H   UNL A   1      32.061  28.740  22.295  1.00  0.00     0.346 HD
BRANCH  17  25
ATOM     25  C   UNL A   1      32.069  24.633  24.512  1.00  0.00     0.014 C 
ATOM     26  C   UNL A   1      30.652  25.155  24.710  1.00  0.00     0.005 C 
ENDBRANCH  17  25
ENDBRANCH  14  17
ENDBRANCH   9  13
ENDBRANCH   6   8
ENDBRANCH   5   6
ENDBRANCH   4   5
ENDBRANCH   3   4
ENDBRANCH   2   3
ENDBRANCH   1   2
BRANCH   1  27
ATOM     27  C   UNL A   1      43.781  19.515  25.380  1.00  0.00     0.188 C 
BRANCH  27  28
ATOM     28  O   UNL A   1      44.638  20.637  25.549  1.00  0.00    -0.376 OA
BRANCH  28  29
ATOM     29  C   UNL A   1      44.606  21.585  24.472  1.00  0.00     0.202 C 
BRANCH  29  30
ATOM     30  C   UNL A   1      43.437  22.596  24.540  1.00  0.00     0.261 C 
BRANCH  30  31
ATOM     31  O   UNL A   1      43.790  23.992  24.381  1.00  0.00    -0.460 OA
BRANCH  31  32
ATOM     32  C   UNL A   1      44.609  24.553  25.306  1.00  0.00     0.338 C 
ATOM     33  O   UNL A   1      45.826  24.624  25.230  1.00  0.00    -0.246 OA
BRANCH  32  34
ATOM     34  C   UNL A   1      43.782  25.345  26.268  1.00  0.00     0.060 A 
ATOM     35  C   UNL A   1      43.635  26.723  26.037  1.00  0.00     0.016 A 
ATOM     36  C   UNL A   1      43.071  24.748  27.314  1.00  0.00     0.016 A 
ATOM     37  C   UNL A   1      42.833  27.509  26.876  1.00  0.00     0.010 A 
ATOM     38  C   UNL A   1      42.276  25.538  28.160  1.00  0.00     0.010 A 
ATOM     39  C   UNL A   1      42.185  26.931  27.974  1.00  0.00    -0.014 A 
BRANCH  39  40
ATOM     40  C   UNL A   1      41.644  27.782  29.075  1.00  0.00     0.031 A 
ATOM     41  C   UNL A   1      42.343  27.714  30.410  1.00  0.00     0.074 A 
ATOM     42  C   UNL A   1      40.579  28.594  28.929  1.00  0.00     0.049 A 
ATOM     43  N   UNL A   1      42.007  28.237  31.561  1.00  0.00    -0.248 NA
ATOM     44  C   UNL A   1      43.590  26.935  30.443  1.00  0.00     0.031 C 
ATOM     45  C   UNL A   1      39.845  28.821  27.686  1.00  0.00     0.029 A 
ATOM     46  N   UNL A   1      39.919  29.374  29.853  1.00  0.00    -0.354 N 
ATOM     47  C   UNL A   1      42.992  27.834  32.460  1.00  0.00     0.074 A 
ATOM     48  C   UNL A   1      43.912  26.994  31.725  1.00  0.00     0.031 C 
ATOM     49  C   UNL A   1      38.828  29.669  27.930  1.00  0.00     0.029 A 
ATOM     50  C   UNL A   1      38.803  30.008  29.353  1.00  0.00     0.049 A 
ATOM     51  H   UNL A   1      40.217  29.469  30.787  1.00  0.00     0.167 HD
ATOM     52  C   UNL A   1      43.124  28.140  33.774  1.00  0.00     0.034 A 
ATOM     53  C   UNL A   1      37.856  30.745  29.977  1.00  0.00     0.034 A 
ATOM     54  C   UNL A   1      42.199  28.970  34.505  1.00  0.00     0.049 A 
ATOM     55  C   UNL A   1      37.957  30.979  31.472  1.00  0.00     0.074 A 
ATOM     56  C   UNL A   1      42.245  29.338  35.839  1.00  0.00     0.029 A 
ATOM     57  N   UNL A   1      41.056  29.549  33.973  1.00  0.00    -0.354 N 
ATOM     58  N   UNL A   1      38.882  30.580  32.315  1.00  0.00    -0.248 NA
ATOM     59  C   UNL A   1      36.883  31.766  32.099  1.00  0.00     0.031 C 
ATOM     60  C   UNL A   1      41.090  30.069  36.132  1.00  0.00     0.029 A 
ATOM     61  C   UNL A   1      40.371  30.242  34.959  1.00  0.00     0.049 A 
ATOM     62  H   UNL A   1      40.772  29.479  33.033  1.00  0.00     0.167 HD
ATOM     63  C   UNL A   1      38.523  31.107  33.557  1.00  0.00     0.074 A 
ATOM     64  C   UNL A   1      37.301  31.853  33.354  1.00  0.00     0.031 C 
ATOM     65  C   UNL A   1      39.155  30.992  34.754  1.00  0.00     0.034 A 
BRANCH  52  66
ATOM     66  C   UNL A   1      44.285  27.519  34.513  1.00  0.00     0.023 A 
ATOM     67  C   UNL A   1      45.597  28.006  34.377  1.00  0.00     0.031 A 
ATOM     68  C   UNL A   1      44.080  26.399  35.338  1.00  0.00     0.131 A 
ATOM     69  C   UNL A   1      46.661  27.328  34.990  1.00  0.00     0.055 A 
ATOM     70  C   UNL A   1      45.133  25.784  36.019  1.00  0.00     0.041 A 
ATOM     71  F   UNL A   1      42.855  25.872  35.486  1.00  0.00    -0.206 F 
ATOM     72  C   UNL A   1      46.435  26.238  35.834  1.00  0.00     0.022 A 
BRANCH  69  73
ATOM     73  S   UNL A   1      48.355  27.793  34.539  1.00  0.00     0.124 S 
ATOM     74  O   UNL A   1      48.890  26.521  34.059  1.00  0.00    -0.237 OA
ATOM     75  O   UNL A   1      48.142  28.819  33.526  1.00  0.00    -0.237 OA
ATOM     76  O   UNL A   1      48.927  28.265  35.797  1.00  0.00    -0.744 OA
ENDBRANCH  69  73
ENDBRANCH  52  66
BRANCH  53  77
ATOM     77  C   UNL A   1      36.681  31.281  29.221  1.00  0.00     0.023 A 
ATOM     78  C   UNL A   1      35.688  30.426  28.714  1.00  0.00     0.031 A 
ATOM     79  C   UNL A   1      36.583  32.650  28.916  1.00  0.00     0.131 A 
ATOM     80  C   UNL A   1      34.672  30.939  27.889  1.00  0.00     0.055 A 
ATOM     81  C   UNL A   1      35.535  33.166  28.148  1.00  0.00     0.041 A 
ATOM     82  F   UNL A   1      37.512  33.513  29.357  1.00  0.00    -0.206 F 
ATOM     83  C   UNL A   1      34.580  32.305  27.617  1.00  0.00     0.022 A 
BRANCH  80  84
ATOM     84  S   UNL A   1      33.532  29.778  27.084  1.00  0.00     0.124 S 
ATOM     85  O   UNL A   1      33.987  29.830  25.698  1.00  0.00    -0.237 OA
ATOM     86  O   UNL A   1      33.803  28.538  27.803  1.00  0.00    -0.237 OA
ATOM     87  O   UNL A   1      32.216  30.366  27.331  1.00  0.00    -0.744 OA
ENDBRANCH  80  84
ENDBRANCH  53  77
BRANCH  65  88
ATOM     88  C   UNL A   1      38.583  31.753  35.930  1.00  0.00     0.023 A 
ATOM     89  C   UNL A   1      37.941  31.112  37.002  1.00  0.00     0.031 A 
ATOM     90  C   UNL A   1      38.705  33.156  35.979  1.00  0.00     0.131 A 
ATOM     91  C   UNL A   1      37.406  31.874  38.055  1.00  0.00     0.055 A 
ATOM     92  C   UNL A   1      38.229  33.902  37.058  1.00  0.00     0.041 A 
ATOM     93  F   UNL A   1      39.307  33.825  34.982  1.00  0.00    -0.206 F 
ATOM     94  C   UNL A   1      37.565  33.261  38.099  1.00  0.00     0.022 A 
BRANCH  91  95
ATOM     95  S   UNL A   1      36.425  31.037  39.332  1.00  0.00     0.124 S 
ATOM     96  O   UNL A   1      37.395  30.888  40.412  1.00  0.00    -0.237 OA
ATOM     97  O   UNL A   1      35.347  31.990  39.572  1.00  0.00    -0.237 OA
ATOM     98  O   UNL A   1      36.017  29.790  38.689  1.00  0.00    -0.744 OA
ENDBRANCH  91  95
ENDBRANCH  65  88
ENDBRANCH  39  40
ENDBRANCH  32  34
ENDBRANCH  31  32
ENDBRANCH  30  31
ENDBRANCH  29  30
ENDBRANCH  28  29
ENDBRANCH  27  28
ENDBRANCH   1  27
TORSDOF 23
ENDMDL
MODEL 3
REMARK VINA RESULT:     -10.1      4.867      6.220
REMARK SMILES CCC1(C(=O)N[C@H]2C=C[C@H](C(=O)OCCOCCOCCOC(=O)c3ccc(-c4c5nc(c(-c6cc(S(=O)(=O)[O-])ccc6F)c6ccc([nH]6)c(-c6cc(S(=O)(=O)[O-])ccc6F)c6nc(c(-c7cc(S(=O)(=O)[O-])ccc7F)c7ccc4[nH]7)C=C6)C=C5)cc3)C2)CC[NH2+]CC1
REMARK SMILES IDX 17 1 16 2 15 3 14 4 13 5 11 6 12 7 10 8 7 9 8 10 88 11 9 12
REMARK SMILES IDX 6 13 4 14 5 15 3 17 89 18 93 19 90 20 92 21 91 22 2 25 1 26
REMARK SMILES IDX 18 27 19 28 20 29 21 30 22 31 23 32 24 33 25 34 26 35 87 36
REMARK SMILES IDX 27 37 86 38 28 39 29 40 30 41 80 42 31 43 85 44 79 45 81 46
REMARK SMILES IDX 32 47 84 48 78 49 77 50 33 52 65 53 45 54 64 55 46 56 49 57
REMARK SMILES IDX 63 58 82 59 47 60 48 61 62 63 83 64 50 65 34 66 35 67 43 68
REMARK SMILES IDX 36 69 42 70 44 71 41 72 37 73 38 74 39 75 40 76 66 77 67 78
REMARK SMILES IDX 75 79 68 80 74 81 76 82 73 83 69 84 70 85 71 86 72 87 51 88
REMARK SMILES IDX 52 89 60 90 53 91 59 92 61 93 58 94 54 95 55 96 56 97 57 98
REMARK H PARENT 6 16 91 23 91 24 81 51 49 62
REMARK Flexibility Score: inf
ROOT
ATOM      1  C   UNL A   1      38.172  22.224  25.743  1.00  0.00     0.188 C 
ENDROOT
BRANCH   1   2
ATOM      2  O   UNL A   1      37.378  21.085  25.458  1.00  0.00    -0.376 OA
BRANCH   2   3
ATOM      3  C   UNL A   1      36.173  21.316  24.732  1.00  0.00     0.202 C 
BRANCH   3   4
ATOM      4  C   UNL A   1      34.867  21.305  25.539  1.00  0.00     0.261 C 
BRANCH   4   5
ATOM      5  O   UNL A   1      33.693  21.502  24.728  1.00  0.00    -0.463 OA
BRANCH   5   6
ATOM      6  C   UNL A   1      32.488  21.005  25.153  1.00  0.00     0.312 C 
ATOM      7  O   UNL A   1      32.257  19.818  25.342  1.00  0.00    -0.252 OA
BRANCH   6   8
ATOM      8  C   UNL A   1      31.435  22.114  25.286  1.00  0.00     0.124 C 
ATOM      9  C   UNL A   1      31.103  24.538  24.847  1.00  0.00     0.106 C 
ATOM     10  C   UNL A   1      30.944  24.177  26.298  1.00  0.00    -0.006 C 
ATOM     11  C   UNL A   1      31.683  23.255  24.318  1.00  0.00     0.048 C 
ATOM     12  C   UNL A   1      31.218  22.882  26.550  1.00  0.00    -0.014 C 
BRANCH   9  13
ATOM     13  N   UNL A   1      29.862  25.055  24.265  1.00  0.00    -0.349 N 
ATOM     14  C   UNL A   1      29.353  26.300  23.980  1.00  0.00     0.227 C 
ATOM     15  O   UNL A   1      28.123  26.391  24.090  1.00  0.00    -0.274 OA
ATOM     16  H   UNL A   1      29.239  24.334  24.018  1.00  0.00     0.164 HD
BRANCH  14  17
ATOM     17  C   UNL A   1      30.186  27.519  23.429  1.00  0.00     0.060 C 
ATOM     18  C   UNL A   1      29.238  28.576  22.781  1.00  0.00     0.078 C 
ATOM     19  C   UNL A   1      31.016  28.041  24.640  1.00  0.00     0.078 C 
ATOM     20  C   UNL A   1      29.778  30.014  22.866  1.00  0.00     0.261 C 
ATOM     21  C   UNL A   1      31.406  29.514  24.590  1.00  0.00     0.261 C 
ATOM     22  N   UNL A   1      30.313  30.377  24.174  1.00  0.00    -0.346 N 
ATOM     23  H   UNL A   1      29.564  30.310  24.864  1.00  0.00     0.346 HD
ATOM     24  H   UNL A   1      30.676  31.327  24.106  1.00  0.00     0.346 HD
BRANCH  17  25
ATOM     25  C   UNL A   1      31.134  27.076  22.234  1.00  0.00     0.014 C 
ATOM     26  C   UNL A   1      32.626  26.917  22.497  1.00  0.00     0.005 C 
ENDBRANCH  17  25
ENDBRANCH  14  17
ENDBRANCH   9  13
ENDBRANCH   6   8
ENDBRANCH   5   6
ENDBRANCH   4   5
ENDBRANCH   3   4
ENDBRANCH   2   3
ENDBRANCH   1   2
BRANCH   1  27
ATOM     27  C   UNL A   1      39.532  21.976  26.392  1.00  0.00     0.188 C 
BRANCH  27  28
ATOM     28  O   UNL A   1      39.850  20.643  26.768  1.00  0.00    -0.376 OA
BRANCH  28  29
ATOM     29  C   UNL A   1      41.197  20.451  27.222  1.00  0.00     0.202 C 
BRANCH  29  30
ATOM     30  C   UNL A   1      42.281  20.724  26.154  1.00  0.00     0.261 C 
BRANCH  30  31
ATOM     31  O   UNL A   1      43.122  21.883  26.380  1.00  0.00    -0.460 OA
BRANCH  31  32
ATOM     32  C   UNL A   1      43.114  22.869  25.449  1.00  0.00     0.338 C 
ATOM     33  O   UNL A   1      43.042  22.708  24.241  1.00  0.00    -0.246 OA
BRANCH  32  34
ATOM     34  C   UNL A   1      42.885  24.179  26.133  1.00  0.00     0.060 A 
ATOM     35  C   UNL A   1      42.628  25.307  25.337  1.00  0.00     0.016 A 
ATOM     36  C   UNL A   1      42.812  24.295  27.526  1.00  0.00     0.016 A 
ATOM     37  C   UNL A   1      42.358  26.552  25.922  1.00  0.00     0.010 A 
ATOM     38  C   UNL A   1      42.551  25.545  28.110  1.00  0.00     0.010 A 
ATOM     39  C   UNL A   1      42.365  26.691  27.315  1.00  0.00    -0.014 A 
BRANCH  39  40
ATOM     40  C   UNL A   1      42.452  28.042  27.946  1.00  0.00     0.031 A 
ATOM     41  C   UNL A   1      43.819  28.674  28.042  1.00  0.00     0.074 A 
ATOM     42  C   UNL A   1      41.382  28.707  28.422  1.00  0.00     0.049 A 
ATOM     43  N   UNL A   1      44.197  29.765  28.656  1.00  0.00    -0.248 NA
ATOM     44  C   UNL A   1      44.906  27.961  27.355  1.00  0.00     0.031 C 
ATOM     45  C   UNL A   1      39.993  28.261  28.337  1.00  0.00     0.029 A 
ATOM     46  N   UNL A   1      41.306  29.910  29.091  1.00  0.00    -0.354 N 
ATOM     47  C   UNL A   1      45.570  29.860  28.444  1.00  0.00     0.074 A 
ATOM     48  C   UNL A   1      45.958  28.695  27.679  1.00  0.00     0.031 C 
ATOM     49  C   UNL A   1      39.207  29.169  28.945  1.00  0.00     0.029 A 
ATOM     50  C   UNL A   1      40.035  30.237  29.508  1.00  0.00     0.049 A 
ATOM     51  H   UNL A   1      42.089  30.483  29.257  1.00  0.00     0.167 HD
ATOM     52  C   UNL A   1      46.430  30.828  28.842  1.00  0.00     0.034 A 
ATOM     53  C   UNL A   1      39.597  31.257  30.281  1.00  0.00     0.034 A 
ATOM     54  C   UNL A   1      46.042  31.983  29.613  1.00  0.00     0.049 A 
ATOM     55  C   UNL A   1      40.591  32.268  30.816  1.00  0.00     0.074 A 
ATOM     56  C   UNL A   1      46.838  33.022  30.067  1.00  0.00     0.029 A 
ATOM     57  N   UNL A   1      44.754  32.249  30.057  1.00  0.00    -0.354 N 
ATOM     58  N   UNL A   1      41.889  32.338  30.624  1.00  0.00    -0.248 NA
ATOM     59  C   UNL A   1      40.059  33.340  31.672  1.00  0.00     0.031 C 
ATOM     60  C   UNL A   1      46.050  33.868  30.852  1.00  0.00     0.029 A 
ATOM     61  C   UNL A   1      44.741  33.414  30.808  1.00  0.00     0.049 A 
ATOM     62  H   UNL A   1      43.965  31.691  29.868  1.00  0.00     0.167 HD
ATOM     63  C   UNL A   1      42.315  33.484  31.298  1.00  0.00     0.074 A 
ATOM     64  C   UNL A   1      41.139  34.075  31.898  1.00  0.00     0.031 C 
ATOM     65  C   UNL A   1      43.565  34.006  31.401  1.00  0.00     0.034 A 
BRANCH  52  66
ATOM     66  C   UNL A   1      47.888  30.642  28.497  1.00  0.00     0.023 A 
ATOM     67  C   UNL A   1      48.755  29.897  29.317  1.00  0.00     0.031 A 
ATOM     68  C   UNL A   1      48.428  31.251  27.350  1.00  0.00     0.131 A 
ATOM     69  C   UNL A   1      50.125  29.846  29.021  1.00  0.00     0.055 A 
ATOM     70  C   UNL A   1      49.776  31.119  27.012  1.00  0.00     0.041 A 
ATOM     71  F   UNL A   1      47.656  31.996  26.544  1.00  0.00    -0.206 F 
ATOM     72  C   UNL A   1      50.637  30.428  27.858  1.00  0.00     0.022 A 
BRANCH  69  73
ATOM     73  S   UNL A   1      51.251  29.149  30.260  1.00  0.00     0.124 S 
ATOM     74  O   UNL A   1      51.888  28.072  29.506  1.00  0.00    -0.237 OA
ATOM     75  O   UNL A   1      52.101  30.287  30.590  1.00  0.00    -0.237 OA
ATOM     76  O   UNL A   1      50.356  28.707  31.326  1.00  0.00    -0.744 OA
ENDBRANCH  69  73
ENDBRANCH  52  66
BRANCH  53  77
ATOM     77  C   UNL A   1      38.153  31.364  30.661  1.00  0.00     0.023 A 
ATOM     78  C   UNL A   1      37.239  32.072  29.863  1.00  0.00     0.031 A 
ATOM     79  C   UNL A   1      37.687  30.834  31.877  1.00  0.00     0.131 A 
ATOM     80  C   UNL A   1      35.923  32.276  30.314  1.00  0.00     0.055 A 
ATOM     81  C   UNL A   1      36.360  30.984  32.291  1.00  0.00     0.041 A 
ATOM     82  F   UNL A   1      38.518  30.162  32.690  1.00  0.00    -0.206 F 
ATOM     83  C   UNL A   1      35.474  31.723  31.514  1.00  0.00     0.022 A 
BRANCH  80  84
ATOM     84  S   UNL A   1      34.833  33.371  29.360  1.00  0.00     0.124 S 
ATOM     85  O   UNL A   1      34.234  32.437  28.412  1.00  0.00    -0.237 OA
ATOM     86  O   UNL A   1      33.947  33.894  30.394  1.00  0.00    -0.237 OA
ATOM     87  O   UNL A   1      35.755  34.345  28.779  1.00  0.00    -0.744 OA
ENDBRANCH  80  84
ENDBRANCH  53  77
BRANCH  65  88
ATOM     88  C   UNL A   1      43.723  35.325  32.124  1.00  0.00     0.023 A 
ATOM     89  C   UNL A   1      43.891  35.405  33.517  1.00  0.00     0.031 A 
ATOM     90  C   UNL A   1      43.722  36.528  31.391  1.00  0.00     0.131 A 
ATOM     91  C   UNL A   1      44.005  36.661  34.138  1.00  0.00     0.055 A 
ATOM     92  C   UNL A   1      43.901  37.768  32.005  1.00  0.00     0.041 A 
ATOM     93  F   UNL A   1      43.563  36.516  30.058  1.00  0.00    -0.206 F 
ATOM     94  C   UNL A   1      44.033  37.840  33.389  1.00  0.00     0.022 A 
BRANCH  91  95
ATOM     95  S   UNL A   1      44.037  36.743  35.950  1.00  0.00     0.124 S 
ATOM     96  O   UNL A   1      43.874  38.173  36.192  1.00  0.00    -0.237 OA
ATOM     97  O   UNL A   1      42.905  35.901  36.322  1.00  0.00    -0.237 OA
ATOM     98  O   UNL A   1      45.350  36.202  36.296  1.00  0.00    -0.744 OA
ENDBRANCH  91  95
ENDBRANCH  65  88
ENDBRANCH  39  40
ENDBRANCH  32  34
ENDBRANCH  31  32
ENDBRANCH  30  31
ENDBRANCH  29  30
ENDBRANCH  28  29
ENDBRANCH  27  28
ENDBRANCH   1  27
TORSDOF 23
ENDMDL
