MODEL 1
REMARK VINA RESULT:     -10.4      0.000      0.000
REMARK SMILES O=C(OCCOCCOCCOC(=O)c1ccc(-c2c3nc(c(-c4cc(S(=O)(=O)[O-])ccc4F)c4ccc([nH]4)c(-c4cc(S(=O)(=O)[O-])ccc4F)c4nc(c(-c5cc(S(=O)(=O)[O-])ccc5F)c5ccc2[nH]5)C=C4)C=C3)cc1)C1=Cc2cc(OC(F)(F)F)ccc2O[C@@H]1C(F)(F)F
REMARK SMILES IDX 8 1 7 2 6 3 5 4 4 5 3 6 2 7 1 8 78 9 79 10 92 11 80 12 91 13
REMARK SMILES IDX 81 14 90 15 82 16 89 17 88 18 93 19 94 20 95 21 96 22 83 23
REMARK SMILES IDX 84 24 85 25 86 26 87 27 9 28 10 29 11 30 12 31 13 32 14 33
REMARK SMILES IDX 15 34 16 35 77 36 17 37 76 38 18 39 19 40 20 41 70 42 21 43
REMARK SMILES IDX 75 44 69 45 71 46 22 47 74 48 68 49 67 50 23 52 55 53 35 54
REMARK SMILES IDX 54 55 36 56 39 57 53 58 72 59 37 60 38 61 52 63 73 64 40 65
REMARK SMILES IDX 24 66 25 67 33 68 26 69 32 70 34 71 31 72 27 73 28 74 29 75
REMARK SMILES IDX 30 76 56 77 57 78 65 79 58 80 64 81 66 82 63 83 59 84 60 85
REMARK SMILES IDX 61 86 62 87 41 88 42 89 50 90 43 91 49 92 51 93 48 94 44 95
REMARK SMILES IDX 45 96 46 97 47 98
REMARK H PARENT 71 51 39 62
REMARK Flexibility Score: inf
ROOT
ATOM      1  C   UNL A   1      33.395  35.362  30.023  1.00  0.00     0.188 C 
ENDROOT
BRANCH   1   2
ATOM      2  C   UNL A   1      32.679  36.438  30.854  1.00  0.00     0.188 C 
BRANCH   2   3
ATOM      3  O   UNL A   1      33.290  37.001  32.100  1.00  0.00    -0.376 OA
BRANCH   3   4
ATOM      4  C   UNL A   1      34.325  36.188  33.234  1.00  0.00     0.202 C 
BRANCH   4   5
ATOM      5  C   UNL A   1      34.387  34.025  33.468  1.00  0.00     0.261 C 
BRANCH   5   6
ATOM      6  O   UNL A   1      35.592  33.132  33.250  1.00  0.00    -0.460 OA
BRANCH   6   7
ATOM      7  C   UNL A   1      36.740  33.799  33.450  1.00  0.00     0.338 C 
ATOM      8  O   UNL A   1      36.873  34.965  33.729  1.00  0.00    -0.246 OA
BRANCH   7   9
ATOM      9  C   UNL A   1      37.612  32.880  32.732  1.00  0.00     0.087 C 
ATOM     10  C   UNL A   1      38.063  33.305  31.416  1.00  0.00     0.027 C 
ATOM     11  C   UNL A   1      38.756  32.650  34.252  1.00  0.00     0.316 C 
ATOM     12  C   UNL A   1      39.687  33.974  31.074  1.00  0.00     0.021 A 
ATOM     13  O   UNL A   1      40.472  33.549  33.969  1.00  0.00    -0.475 OA
ATOM     14  C   UNL A   1      39.987  34.367  29.804  1.00  0.00     0.058 A 
ATOM     15  C   UNL A   1      40.883  34.175  32.296  1.00  0.00     0.128 A 
ATOM     16  C   UNL A   1      41.292  34.854  29.599  1.00  0.00     0.130 A 
ATOM     17  C   UNL A   1      42.137  34.650  32.033  1.00  0.00     0.051 A 
ATOM     18  C   UNL A   1      42.307  34.979  30.650  1.00  0.00     0.050 A 
BRANCH  11  19
ATOM     19  C   UNL A   1      38.361  31.005  34.392  1.00  0.00     0.430 C 
ATOM     20  F   UNL A   1      37.640  30.387  33.450  1.00  0.00    -0.167 F 
ATOM     21  F   UNL A   1      39.491  30.283  34.576  1.00  0.00    -0.167 F 
ATOM     22  F   UNL A   1      37.613  30.787  35.521  1.00  0.00    -0.167 F 
ENDBRANCH  11  19
BRANCH  16  23
ATOM     23  O   UNL A   1      41.456  35.174  28.270  1.00  0.00    -0.406 OA
BRANCH  23  24
ATOM     24  C   UNL A   1      42.108  36.366  27.902  1.00  0.00     0.573 C 
ATOM     25  F   UNL A   1      41.540  36.904  26.803  1.00  0.00    -0.132 F 
ATOM     26  F   UNL A   1      42.095  37.262  28.908  1.00  0.00    -0.132 F 
ATOM     27  F   UNL A   1      43.396  36.076  27.611  1.00  0.00    -0.132 F 
ENDBRANCH  23  24
ENDBRANCH  16  23
ENDBRANCH   7   9
ENDBRANCH   6   7
ENDBRANCH   5   6
ENDBRANCH   4   5
ENDBRANCH   3   4
ENDBRANCH   2   3
ENDBRANCH   1   2
BRANCH   1  28
ATOM     28  O   UNL A   1      32.752  34.871  28.871  1.00  0.00    -0.376 OA
BRANCH  28  29
ATOM     29  C   UNL A   1      33.417  33.786  28.237  1.00  0.00     0.202 C 
BRANCH  29  30
ATOM     30  C   UNL A   1      34.538  33.070  29.019  1.00  0.00     0.261 C 
BRANCH  30  31
ATOM     31  O   UNL A   1      35.435  32.275  28.205  1.00  0.00    -0.460 OA
BRANCH  31  32
ATOM     32  C   UNL A   1      35.220  30.933  28.144  1.00  0.00     0.338 C 
ATOM     33  O   UNL A   1      34.205  30.373  27.766  1.00  0.00    -0.246 OA
BRANCH  32  34
ATOM     34  C   UNL A   1      36.469  30.213  28.487  1.00  0.00     0.060 A 
ATOM     35  C   UNL A   1      36.591  29.538  29.713  1.00  0.00     0.016 A 
ATOM     36  C   UNL A   1      37.541  30.234  27.597  1.00  0.00     0.016 A 
ATOM     37  C   UNL A   1      37.755  28.815  30.011  1.00  0.00     0.010 A 
ATOM     38  C   UNL A   1      38.724  29.560  27.922  1.00  0.00     0.010 A 
ATOM     39  C   UNL A   1      38.839  28.836  29.123  1.00  0.00    -0.014 A 
BRANCH  39  40
ATOM     40  C   UNL A   1      40.161  28.264  29.500  1.00  0.00     0.031 A 
ATOM     41  C   UNL A   1      40.948  28.962  30.573  1.00  0.00     0.074 A 
ATOM     42  C   UNL A   1      40.683  27.197  28.862  1.00  0.00     0.049 A 
ATOM     43  N   UNL A   1      42.181  28.764  30.956  1.00  0.00    -0.248 NA
ATOM     44  C   UNL A   1      40.254  30.038  31.298  1.00  0.00     0.031 C 
ATOM     45  C   UNL A   1      39.996  26.413  27.840  1.00  0.00     0.029 A 
ATOM     46  N   UNL A   1      41.921  26.602  28.960  1.00  0.00    -0.354 N 
ATOM     47  C   UNL A   1      42.422  29.709  31.947  1.00  0.00     0.074 A 
ATOM     48  C   UNL A   1      41.207  30.476  32.107  1.00  0.00     0.031 C 
ATOM     49  C   UNL A   1      40.824  25.452  27.392  1.00  0.00     0.029 A 
ATOM     50  C   UNL A   1      42.126  25.590  28.045  1.00  0.00     0.049 A 
ATOM     51  H   UNL A   1      42.597  26.872  29.622  1.00  0.00     0.167 HD
ATOM     52  C   UNL A   1      43.564  29.927  32.640  1.00  0.00     0.034 A 
ATOM     53  C   UNL A   1      43.245  24.896  27.734  1.00  0.00     0.034 A 
ATOM     54  C   UNL A   1      44.771  29.164  32.454  1.00  0.00     0.049 A 
ATOM     55  C   UNL A   1      44.531  25.223  28.470  1.00  0.00     0.074 A 
ATOM     56  C   UNL A   1      45.968  29.280  33.138  1.00  0.00     0.029 A 
ATOM     57  N   UNL A   1      44.951  28.173  31.500  1.00  0.00    -0.354 N 
ATOM     58  N   UNL A   1      44.732  26.092  29.436  1.00  0.00    -0.248 NA
ATOM     59  C   UNL A   1      45.741  24.488  28.071  1.00  0.00     0.031 C 
ATOM     60  C   UNL A   1      46.901  28.438  32.529  1.00  0.00     0.029 A 
ATOM     61  C   UNL A   1      46.258  27.714  31.537  1.00  0.00     0.049 A 
ATOM     62  H   UNL A   1      44.253  27.844  30.887  1.00  0.00     0.167 HD
ATOM     63  C   UNL A   1      46.082  25.986  29.769  1.00  0.00     0.074 A 
ATOM     64  C   UNL A   1      46.639  24.952  28.927  1.00  0.00     0.031 C 
ATOM     65  C   UNL A   1      46.800  26.683  30.686  1.00  0.00     0.034 A 
BRANCH  52  66
ATOM     66  C   UNL A   1      43.597  31.080  33.608  1.00  0.00     0.023 A 
ATOM     67  C   UNL A   1      43.031  31.001  34.890  1.00  0.00     0.031 A 
ATOM     68  C   UNL A   1      44.242  32.275  33.241  1.00  0.00     0.131 A 
ATOM     69  C   UNL A   1      43.095  32.109  35.749  1.00  0.00     0.055 A 
ATOM     70  C   UNL A   1      44.369  33.345  34.126  1.00  0.00     0.041 A 
ATOM     71  F   UNL A   1      44.769  32.418  32.014  1.00  0.00    -0.206 F 
ATOM     72  C   UNL A   1      43.789  33.267  35.387  1.00  0.00     0.022 A 
BRANCH  69  73
ATOM     73  S   UNL A   1      42.167  32.058  37.304  1.00  0.00     0.124 S 
ATOM     74  O   UNL A   1      42.128  33.472  37.672  1.00  0.00    -0.237 OA
ATOM     75  O   UNL A   1      40.896  31.470  36.897  1.00  0.00    -0.237 OA
ATOM     76  O   UNL A   1      42.993  31.220  38.170  1.00  0.00    -0.744 OA
ENDBRANCH  69  73
ENDBRANCH  52  66
BRANCH  53  77
ATOM     77  C   UNL A   1      43.259  23.894  26.619  1.00  0.00     0.023 A 
ATOM     78  C   UNL A   1      42.780  22.584  26.804  1.00  0.00     0.031 A 
ATOM     79  C   UNL A   1      43.871  24.192  25.387  1.00  0.00     0.131 A 
ATOM     80  C   UNL A   1      42.988  21.611  25.811  1.00  0.00     0.055 A 
ATOM     81  C   UNL A   1      43.998  23.242  24.369  1.00  0.00     0.041 A 
ATOM     82  F   UNL A   1      44.377  25.413  25.153  1.00  0.00    -0.206 F 
ATOM     83  C   UNL A   1      43.574  21.936  24.586  1.00  0.00     0.022 A 
BRANCH  80  84
ATOM     84  S   UNL A   1      42.643  19.871  26.208  1.00  0.00     0.124 S 
ATOM     85  O   UNL A   1      41.486  19.601  25.363  1.00  0.00    -0.237 OA
ATOM     86  O   UNL A   1      43.888  19.218  25.818  1.00  0.00    -0.237 OA
ATOM     87  O   UNL A   1      42.376  19.896  27.644  1.00  0.00    -0.744 OA
ENDBRANCH  80  84
ENDBRANCH  53  77
BRANCH  65  88
ATOM     88  C   UNL A   1      48.257  26.325  30.856  1.00  0.00     0.023 A 
ATOM     89  C   UNL A   1      48.677  25.333  31.759  1.00  0.00     0.031 A 
ATOM     90  C   UNL A   1      49.239  26.972  30.082  1.00  0.00     0.131 A 
ATOM     91  C   UNL A   1      50.044  25.048  31.898  1.00  0.00     0.055 A 
ATOM     92  C   UNL A   1      50.588  26.632  30.172  1.00  0.00     0.041 A 
ATOM     93  F   UNL A   1      48.897  27.933  29.208  1.00  0.00    -0.206 F 
ATOM     94  C   UNL A   1      51.000  25.673  31.092  1.00  0.00     0.022 A 
BRANCH  91  95
ATOM     95  S   UNL A   1      50.567  23.916  33.214  1.00  0.00     0.124 S 
ATOM     96  O   UNL A   1      49.311  23.661  33.911  1.00  0.00    -0.237 OA
ATOM     97  O   UNL A   1      51.119  22.793  32.463  1.00  0.00    -0.237 OA
ATOM     98  O   UNL A   1      51.546  24.697  33.968  1.00  0.00    -0.744 OA
ENDBRANCH  91  95
ENDBRANCH  65  88
ENDBRANCH  39  40
ENDBRANCH  32  34
ENDBRANCH  31  32
ENDBRANCH  30  31
ENDBRANCH  29  30
ENDBRANCH  28  29
ENDBRANCH   1  28
TORSDOF 23
ENDMDL
MODEL 2
REMARK VINA RESULT:     -10.0      5.991     11.391
REMARK SMILES O=C(OCCOCCOCCOC(=O)c1ccc(-c2c3nc(c(-c4cc(S(=O)(=O)[O-])ccc4F)c4ccc([nH]4)c(-c4cc(S(=O)(=O)[O-])ccc4F)c4nc(c(-c5cc(S(=O)(=O)[O-])ccc5F)c5ccc2[nH]5)C=C4)C=C3)cc1)C1=Cc2cc(OC(F)(F)F)ccc2O[C@@H]1C(F)(F)F
REMARK SMILES IDX 8 1 7 2 6 3 5 4 4 5 3 6 2 7 1 8 78 9 79 10 92 11 80 12 91 13
REMARK SMILES IDX 81 14 90 15 82 16 89 17 88 18 93 19 94 20 95 21 96 22 83 23
REMARK SMILES IDX 84 24 85 25 86 26 87 27 9 28 10 29 11 30 12 31 13 32 14 33
REMARK SMILES IDX 15 34 16 35 77 36 17 37 76 38 18 39 19 40 20 41 70 42 21 43
REMARK SMILES IDX 75 44 69 45 71 46 22 47 74 48 68 49 67 50 23 52 55 53 35 54
REMARK SMILES IDX 54 55 36 56 39 57 53 58 72 59 37 60 38 61 52 63 73 64 40 65
REMARK SMILES IDX 24 66 25 67 33 68 26 69 32 70 34 71 31 72 27 73 28 74 29 75
REMARK SMILES IDX 30 76 56 77 57 78 65 79 58 80 64 81 66 82 63 83 59 84 60 85
REMARK SMILES IDX 61 86 62 87 41 88 42 89 50 90 43 91 49 92 51 93 48 94 44 95
REMARK SMILES IDX 45 96 46 97 47 98
REMARK H PARENT 71 51 39 62
REMARK Flexibility Score: inf
ROOT
ATOM      1  C   UNL A   1      40.775  19.911  26.873  1.00  0.00     0.188 C 
ENDROOT
BRANCH   1   2
ATOM      2  C   UNL A   1      40.244  21.152  26.137  1.00  0.00     0.188 C 
BRANCH   2   3
ATOM      3  O   UNL A   1      40.333  22.520  26.740  1.00  0.00    -0.376 OA
BRANCH   3   4
ATOM      4  C   UNL A   1      39.150  23.790  26.667  1.00  0.00     0.202 C 
BRANCH   4   5
ATOM      5  C   UNL A   1      37.256  23.609  25.611  1.00  0.00     0.261 C 
BRANCH   5   6
ATOM      6  O   UNL A   1      35.886  23.467  26.243  1.00  0.00    -0.460 OA
BRANCH   6   7
ATOM      7  C   UNL A   1      35.412  22.219  26.112  1.00  0.00     0.338 C 
ATOM      8  O   UNL A   1      36.023  21.231  25.789  1.00  0.00    -0.246 OA
BRANCH   7   9
ATOM      9  C   UNL A   1      34.008  22.572  25.949  1.00  0.00     0.087 C 
ATOM     10  C   UNL A   1      33.667  23.976  26.120  1.00  0.00     0.027 C 
ATOM     11  C   UNL A   1      33.873  21.612  24.296  1.00  0.00     0.316 C 
ATOM     12  C   UNL A   1      33.362  25.110  24.769  1.00  0.00     0.021 A 
ATOM     13  O   UNL A   1      33.737  22.850  22.786  1.00  0.00    -0.475 OA
ATOM     14  C   UNL A   1      33.078  26.412  25.050  1.00  0.00     0.058 A 
ATOM     15  C   UNL A   1      33.445  24.629  23.118  1.00  0.00     0.128 A 
ATOM     16  C   UNL A   1      32.818  27.242  23.942  1.00  0.00     0.130 A 
ATOM     17  C   UNL A   1      33.175  25.481  22.085  1.00  0.00     0.051 A 
ATOM     18  C   UNL A   1      32.856  26.799  22.546  1.00  0.00     0.050 A 
BRANCH  11  19
ATOM     19  C   UNL A   1      32.760  20.506  24.945  1.00  0.00     0.430 C 
ATOM     20  F   UNL A   1      33.088  19.728  25.982  1.00  0.00    -0.167 F 
ATOM     21  F   UNL A   1      31.617  21.155  25.271  1.00  0.00    -0.167 F 
ATOM     22  F   UNL A   1      32.390  19.588  23.996  1.00  0.00    -0.167 F 
ENDBRANCH  11  19
BRANCH  16  23
ATOM     23  O   UNL A   1      32.514  28.510  24.384  1.00  0.00    -0.406 OA
BRANCH  23  24
ATOM     24  C   UNL A   1      31.219  29.034  24.201  1.00  0.00     0.573 C 
ATOM     25  F   UNL A   1      30.971  30.019  25.088  1.00  0.00    -0.132 F 
ATOM     26  F   UNL A   1      31.051  29.495  22.946  1.00  0.00    -0.132 F 
ATOM     27  F   UNL A   1      30.324  28.042  24.411  1.00  0.00    -0.132 F 
ENDBRANCH  23  24
ENDBRANCH  16  23
ENDBRANCH   7   9
ENDBRANCH   6   7
ENDBRANCH   5   6
ENDBRANCH   4   5
ENDBRANCH   3   4
ENDBRANCH   2   3
ENDBRANCH   1   2
BRANCH   1  28
ATOM     28  O   UNL A   1      42.150  19.848  27.169  1.00  0.00    -0.376 OA
BRANCH  28  29
ATOM     29  C   UNL A   1      42.755  18.588  26.908  1.00  0.00     0.202 C 
BRANCH  29  30
ATOM     30  C   UNL A   1      43.437  18.384  25.540  1.00  0.00     0.261 C 
BRANCH  30  31
ATOM     31  O   UNL A   1      43.418  19.543  24.671  1.00  0.00    -0.460 OA
BRANCH  31  32
ATOM     32  C   UNL A   1      44.611  20.069  24.283  1.00  0.00     0.338 C 
ATOM     33  O   UNL A   1      45.400  19.580  23.492  1.00  0.00    -0.246 OA
BRANCH  32  34
ATOM     34  C   UNL A   1      44.774  21.421  24.867  1.00  0.00     0.060 A 
ATOM     35  C   UNL A   1      44.572  22.568  24.083  1.00  0.00     0.016 A 
ATOM     36  C   UNL A   1      45.163  21.551  26.198  1.00  0.00     0.016 A 
ATOM     37  C   UNL A   1      44.677  23.845  24.653  1.00  0.00     0.010 A 
ATOM     38  C   UNL A   1      45.325  22.827  26.751  1.00  0.00     0.010 A 
ATOM     39  C   UNL A   1      45.073  23.983  25.990  1.00  0.00    -0.014 A 
BRANCH  39  40
ATOM     40  C   UNL A   1      45.403  25.315  26.566  1.00  0.00     0.031 A 
ATOM     41  C   UNL A   1      44.274  26.147  27.106  1.00  0.00     0.074 A 
ATOM     42  C   UNL A   1      46.658  25.808  26.549  1.00  0.00     0.049 A 
ATOM     43  N   UNL A   1      44.276  27.393  27.500  1.00  0.00    -0.248 NA
ATOM     44  C   UNL A   1      42.962  25.486  27.200  1.00  0.00     0.031 C 
ATOM     45  C   UNL A   1      47.838  25.079  26.093  1.00  0.00     0.029 A 
ATOM     46  N   UNL A   1      47.148  27.046  26.900  1.00  0.00    -0.354 N 
ATOM     47  C   UNL A   1      42.964  27.675  27.859  1.00  0.00     0.074 A 
ATOM     48  C   UNL A   1      42.194  26.471  27.642  1.00  0.00     0.031 C 
ATOM     49  C   UNL A   1      48.912  25.885  26.175  1.00  0.00     0.029 A 
ATOM     50  C   UNL A   1      48.490  27.211  26.626  1.00  0.00     0.049 A 
ATOM     51  H   UNL A   1      46.594  27.748  27.309  1.00  0.00     0.167 HD
ATOM     52  C   UNL A   1      42.449  28.844  28.308  1.00  0.00     0.034 A 
ATOM     53  C   UNL A   1      49.271  28.314  26.679  1.00  0.00     0.034 A 
ATOM     54  C   UNL A   1      43.229  30.040  28.502  1.00  0.00     0.049 A 
ATOM     55  C   UNL A   1      48.645  29.629  27.105  1.00  0.00     0.074 A 
ATOM     56  C   UNL A   1      42.807  31.263  28.994  1.00  0.00     0.029 A 
ATOM     57  N   UNL A   1      44.572  30.178  28.184  1.00  0.00    -0.354 N 
ATOM     58  N   UNL A   1      47.409  29.871  27.483  1.00  0.00    -0.248 NA
ATOM     59  C   UNL A   1      49.509  30.820  27.102  1.00  0.00     0.031 C 
ATOM     60  C   UNL A   1      43.864  32.168  28.873  1.00  0.00     0.029 A 
ATOM     61  C   UNL A   1      44.978  31.483  28.412  1.00  0.00     0.049 A 
ATOM     62  H   UNL A   1      45.151  29.456  27.848  1.00  0.00     0.167 HD
ATOM     63  C   UNL A   1      47.362  31.232  27.783  1.00  0.00     0.074 A 
ATOM     64  C   UNL A   1      48.694  31.752  27.571  1.00  0.00     0.031 C 
ATOM     65  C   UNL A   1      46.311  31.988  28.192  1.00  0.00     0.034 A 
BRANCH  52  66
ATOM     66  C   UNL A   1      40.964  28.919  28.548  1.00  0.00     0.023 A 
ATOM     67  C   UNL A   1      40.406  28.827  29.833  1.00  0.00     0.031 A 
ATOM     68  C   UNL A   1      40.095  29.122  27.461  1.00  0.00     0.131 A 
ATOM     69  C   UNL A   1      39.014  28.905  29.994  1.00  0.00     0.055 A 
ATOM     70  C   UNL A   1      38.721  29.277  27.636  1.00  0.00     0.041 A 
ATOM     71  F   UNL A   1      40.573  29.183  26.207  1.00  0.00    -0.206 F 
ATOM     72  C   UNL A   1      38.172  29.163  28.908  1.00  0.00     0.022 A 
BRANCH  69  73
ATOM     73  S   UNL A   1      38.306  28.559  31.626  1.00  0.00     0.124 S 
ATOM     74  O   UNL A   1      38.494  27.114  31.730  1.00  0.00    -0.237 OA
ATOM     75  O   UNL A   1      39.132  29.375  32.509  1.00  0.00    -0.237 OA
ATOM     76  O   UNL A   1      36.916  28.991  31.496  1.00  0.00    -0.744 OA
ENDBRANCH  69  73
ENDBRANCH  52  66
BRANCH  53  77
ATOM     77  C   UNL A   1      50.703  28.281  26.234  1.00  0.00     0.023 A 
ATOM     78  C   UNL A   1      51.053  28.411  24.878  1.00  0.00     0.031 A 
ATOM     79  C   UNL A   1      51.737  27.992  27.144  1.00  0.00     0.131 A 
ATOM     80  C   UNL A   1      52.377  28.177  24.466  1.00  0.00     0.055 A 
ATOM     81  C   UNL A   1      53.067  27.845  26.740  1.00  0.00     0.041 A 
ATOM     82  F   UNL A   1      51.470  27.826  28.450  1.00  0.00    -0.206 F 
ATOM     83  C   UNL A   1      53.390  27.917  25.390  1.00  0.00     0.022 A 
BRANCH  80  84
ATOM     84  S   UNL A   1      52.726  28.042  22.687  1.00  0.00     0.124 S 
ATOM     85  O   UNL A   1      51.736  27.057  22.268  1.00  0.00    -0.237 OA
ATOM     86  O   UNL A   1      52.506  29.409  22.230  1.00  0.00    -0.237 OA
ATOM     87  O   UNL A   1      54.114  27.588  22.647  1.00  0.00    -0.744 OA
ENDBRANCH  80  84
ENDBRANCH  53  77
BRANCH  65  88
ATOM     88  C   UNL A   1      46.566  33.449  28.476  1.00  0.00     0.023 A 
ATOM     89  C   UNL A   1      46.956  33.899  29.749  1.00  0.00     0.031 A 
ATOM     90  C   UNL A   1      46.441  34.402  27.448  1.00  0.00     0.131 A 
ATOM     91  C   UNL A   1      47.162  35.269  29.972  1.00  0.00     0.055 A 
ATOM     92  C   UNL A   1      46.719  35.752  27.658  1.00  0.00     0.041 A 
ATOM     93  F   UNL A   1      46.065  34.030  26.213  1.00  0.00    -0.206 F 
ATOM     94  C   UNL A   1      47.071  36.195  28.930  1.00  0.00     0.022 A 
BRANCH  91  95
ATOM     95  S   UNL A   1      47.459  35.839  31.668  1.00  0.00     0.124 S 
ATOM     96  O   UNL A   1      47.027  34.688  32.454  1.00  0.00    -0.237 OA
ATOM     97  O   UNL A   1      48.893  36.107  31.664  1.00  0.00    -0.237 OA
ATOM     98  O   UNL A   1      46.609  37.024  31.785  1.00  0.00    -0.744 OA
ENDBRANCH  91  95
ENDBRANCH  65  88
ENDBRANCH  39  40
ENDBRANCH  32  34
ENDBRANCH  31  32
ENDBRANCH  30  31
ENDBRANCH  29  30
ENDBRANCH  28  29
ENDBRANCH   1  28
TORSDOF 23
ENDMDL
MODEL 3
REMARK VINA RESULT:      -9.9      5.465     11.758
REMARK SMILES O=C(OCCOCCOCCOC(=O)c1ccc(-c2c3nc(c(-c4cc(S(=O)(=O)[O-])ccc4F)c4ccc([nH]4)c(-c4cc(S(=O)(=O)[O-])ccc4F)c4nc(c(-c5cc(S(=O)(=O)[O-])ccc5F)c5ccc2[nH]5)C=C4)C=C3)cc1)C1=Cc2cc(OC(F)(F)F)ccc2O[C@@H]1C(F)(F)F
REMARK SMILES IDX 8 1 7 2 6 3 5 4 4 5 3 6 2 7 1 8 78 9 79 10 92 11 80 12 91 13
REMARK SMILES IDX 81 14 90 15 82 16 89 17 88 18 93 19 94 20 95 21 96 22 83 23
REMARK SMILES IDX 84 24 85 25 86 26 87 27 9 28 10 29 11 30 12 31 13 32 14 33
REMARK SMILES IDX 15 34 16 35 77 36 17 37 76 38 18 39 19 40 20 41 70 42 21 43
REMARK SMILES IDX 75 44 69 45 71 46 22 47 74 48 68 49 67 50 23 52 55 53 35 54
REMARK SMILES IDX 54 55 36 56 39 57 53 58 72 59 37 60 38 61 52 63 73 64 40 65
REMARK SMILES IDX 24 66 25 67 33 68 26 69 32 70 34 71 31 72 27 73 28 74 29 75
REMARK SMILES IDX 30 76 56 77 57 78 65 79 58 80 64 81 66 82 63 83 59 84 60 85
REMARK SMILES IDX 61 86 62 87 41 88 42 89 50 90 43 91 49 92 51 93 48 94 44 95
REMARK SMILES IDX 45 96 46 97 47 98
REMARK H PARENT 71 51 39 62
REMARK Flexibility Score: inf
ROOT
ATOM      1  C   UNL A   1      40.886  20.947  27.238  1.00  0.00     0.188 C 
ENDROOT
BRANCH   1   2
ATOM      2  C   UNL A   1      40.787  22.352  26.622  1.00  0.00     0.188 C 
BRANCH   2   3
ATOM      3  O   UNL A   1      40.193  23.500  27.379  1.00  0.00    -0.376 OA
BRANCH   3   4
ATOM      4  C   UNL A   1      38.844  24.492  26.914  1.00  0.00     0.202 C 
BRANCH   4   5
ATOM      5  C   UNL A   1      37.276  23.829  25.559  1.00  0.00     0.261 C 
BRANCH   5   6
ATOM      6  O   UNL A   1      35.901  23.328  25.952  1.00  0.00    -0.460 OA
BRANCH   6   7
ATOM      7  C   UNL A   1      35.379  22.533  25.006  1.00  0.00     0.338 C 
ATOM      8  O   UNL A   1      35.971  21.913  24.158  1.00  0.00    -0.246 OA
BRANCH   7   9
ATOM      9  C   UNL A   1      34.033  23.090  25.021  1.00  0.00     0.087 C 
ATOM     10  C   UNL A   1      33.839  24.301  25.802  1.00  0.00     0.027 C 
ATOM     11  C   UNL A   1      33.882  22.989  23.114  1.00  0.00     0.316 C 
ATOM     12  C   UNL A   1      33.733  25.945  25.103  1.00  0.00     0.021 A 
ATOM     13  O   UNL A   1      33.963  24.775  22.317  1.00  0.00    -0.475 OA
ATOM     14  C   UNL A   1      33.579  27.011  25.938  1.00  0.00     0.058 A 
ATOM     15  C   UNL A   1      33.850  26.242  23.411  1.00  0.00     0.128 A 
ATOM     16  C   UNL A   1      33.470  28.271  25.319  1.00  0.00     0.130 A 
ATOM     17  C   UNL A   1      33.731  27.491  22.869  1.00  0.00     0.051 A 
ATOM     18  C   UNL A   1      33.535  28.494  23.871  1.00  0.00     0.050 A 
BRANCH  11  19
ATOM     19  C   UNL A   1      32.622  21.855  23.201  1.00  0.00     0.430 C 
ATOM     20  F   UNL A   1      32.791  20.683  23.823  1.00  0.00    -0.167 F 
ATOM     21  F   UNL A   1      31.523  22.440  23.732  1.00  0.00    -0.167 F 
ATOM     22  F   UNL A   1      32.241  21.464  21.942  1.00  0.00    -0.167 F 
ENDBRANCH  11  19
BRANCH  16  23
ATOM     23  O   UNL A   1      33.284  29.237  26.281  1.00  0.00    -0.406 OA
BRANCH  23  24
ATOM     24  C   UNL A   1      31.986  29.560  26.721  1.00  0.00     0.573 C 
ATOM     25  F   UNL A   1      31.638  28.808  27.785  1.00  0.00    -0.132 F 
ATOM     26  F   UNL A   1      31.886  30.868  27.032  1.00  0.00    -0.132 F 
ATOM     27  F   UNL A   1      31.118  29.297  25.718  1.00  0.00    -0.132 F 
ENDBRANCH  23  24
ENDBRANCH  16  23
ENDBRANCH   7   9
ENDBRANCH   6   7
ENDBRANCH   5   6
ENDBRANCH   4   5
ENDBRANCH   3   4
ENDBRANCH   2   3
ENDBRANCH   1   2
BRANCH   1  28
ATOM     28  O   UNL A   1      42.163  20.442  27.547  1.00  0.00    -0.376 OA
BRANCH  28  29
ATOM     29  C   UNL A   1      42.286  19.030  27.432  1.00  0.00     0.202 C 
BRANCH  29  30
ATOM     30  C   UNL A   1      42.694  18.450  26.062  1.00  0.00     0.261 C 
BRANCH  30  31
ATOM     31  O   UNL A   1      42.971  19.438  25.041  1.00  0.00    -0.460 OA
BRANCH  31  32
ATOM     32  C   UNL A   1      44.273  19.695  24.738  1.00  0.00     0.338 C 
ATOM     33  O   UNL A   1      45.065  18.929  24.217  1.00  0.00    -0.246 OA
BRANCH  32  34
ATOM     34  C   UNL A   1      44.578  21.118  25.017  1.00  0.00     0.060 A 
ATOM     35  C   UNL A   1      45.207  21.492  26.216  1.00  0.00     0.016 A 
ATOM     36  C   UNL A   1      44.208  22.093  24.094  1.00  0.00     0.016 A 
ATOM     37  C   UNL A   1      45.540  22.834  26.453  1.00  0.00     0.010 A 
ATOM     38  C   UNL A   1      44.489  23.439  24.358  1.00  0.00     0.010 A 
ATOM     39  C   UNL A   1      45.166  23.821  25.531  1.00  0.00    -0.014 A 
BRANCH  39  40
ATOM     40  C   UNL A   1      45.309  25.269  25.846  1.00  0.00     0.031 A 
ATOM     41  C   UNL A   1      46.674  25.885  25.716  1.00  0.00     0.074 A 
ATOM     42  C   UNL A   1      44.275  26.004  26.303  1.00  0.00     0.049 A 
ATOM     43  N   UNL A   1      47.088  27.066  26.089  1.00  0.00    -0.248 NA
ATOM     44  C   UNL A   1      47.713  25.047  25.096  1.00  0.00     0.031 C 
ATOM     45  C   UNL A   1      42.900  25.529  26.427  1.00  0.00     0.029 A 
ATOM     46  N   UNL A   1      44.223  27.297  26.771  1.00  0.00    -0.354 N 
ATOM     47  C   UNL A   1      48.442  27.104  25.777  1.00  0.00     0.074 A 
ATOM     48  C   UNL A   1      48.778  25.830  25.181  1.00  0.00     0.031 C 
ATOM     49  C   UNL A   1      42.142  26.509  26.953  1.00  0.00     0.029 A 
ATOM     50  C   UNL A   1      42.988  27.660  27.266  1.00  0.00     0.049 A 
ATOM     51  H   UNL A   1      44.995  27.908  26.752  1.00  0.00     0.167 HD
ATOM     52  C   UNL A   1      49.325  28.107  25.992  1.00  0.00     0.034 A 
ATOM     53  C   UNL A   1      42.599  28.766  27.942  1.00  0.00     0.034 A 
ATOM     54  C   UNL A   1      48.977  29.364  26.604  1.00  0.00     0.049 A 
ATOM     55  C   UNL A   1      43.634  29.836  28.242  1.00  0.00     0.074 A 
ATOM     56  C   UNL A   1      49.791  30.460  26.827  1.00  0.00     0.029 A 
ATOM     57  N   UNL A   1      47.729  29.682  27.121  1.00  0.00    -0.354 N 
ATOM     58  N   UNL A   1      44.903  29.876  27.902  1.00  0.00    -0.248 NA
ATOM     59  C   UNL A   1      43.191  31.000  29.024  1.00  0.00     0.031 C 
ATOM     60  C   UNL A   1      49.069  31.395  27.571  1.00  0.00     0.029 A 
ATOM     61  C   UNL A   1      47.771  30.932  27.716  1.00  0.00     0.049 A 
ATOM     62  H   UNL A   1      46.933  29.105  27.071  1.00  0.00     0.167 HD
ATOM     63  C   UNL A   1      45.396  31.078  28.410  1.00  0.00     0.074 A 
ATOM     64  C   UNL A   1      44.286  31.746  29.051  1.00  0.00     0.031 C 
ATOM     65  C   UNL A   1      46.654  31.584  28.356  1.00  0.00     0.034 A 
BRANCH  52  66
ATOM     66  C   UNL A   1      50.770  27.868  25.639  1.00  0.00     0.023 A 
ATOM     67  C   UNL A   1      51.737  27.558  26.608  1.00  0.00     0.031 A 
ATOM     68  C   UNL A   1      51.174  27.921  24.293  1.00  0.00     0.131 A 
ATOM     69  C   UNL A   1      53.068  27.344  26.219  1.00  0.00     0.055 A 
ATOM     70  C   UNL A   1      52.481  27.631  23.904  1.00  0.00     0.041 A 
ATOM     71  F   UNL A   1      50.297  28.247  23.330  1.00  0.00    -0.206 F 
ATOM     72  C   UNL A   1      53.439  27.346  24.871  1.00  0.00     0.022 A 
BRANCH  69  73
ATOM     73  S   UNL A   1      54.333  27.168  27.504  1.00  0.00     0.124 S 
ATOM     74  O   UNL A   1      55.556  27.095  26.709  1.00  0.00    -0.237 OA
ATOM     75  O   UNL A   1      54.157  28.383  28.291  1.00  0.00    -0.237 OA
ATOM     76  O   UNL A   1      53.965  25.927  28.182  1.00  0.00    -0.744 OA
ENDBRANCH  69  73
ENDBRANCH  52  66
BRANCH  53  77
ATOM     77  C   UNL A   1      41.207  28.906  28.479  1.00  0.00     0.023 A 
ATOM     78  C   UNL A   1      40.943  28.844  29.860  1.00  0.00     0.031 A 
ATOM     79  C   UNL A   1      40.100  28.977  27.612  1.00  0.00     0.131 A 
ATOM     80  C   UNL A   1      39.617  28.776  30.322  1.00  0.00     0.055 A 
ATOM     81  C   UNL A   1      38.784  28.995  28.082  1.00  0.00     0.041 A 
ATOM     82  F   UNL A   1      40.277  29.009  26.282  1.00  0.00    -0.206 F 
ATOM     83  C   UNL A   1      38.536  28.874  29.445  1.00  0.00     0.022 A 
BRANCH  80  84
ATOM     84  S   UNL A   1      39.322  28.381  32.071  1.00  0.00     0.124 S 
ATOM     85  O   UNL A   1      38.263  27.382  31.972  1.00  0.00    -0.237 OA
ATOM     86  O   UNL A   1      40.628  27.890  32.497  1.00  0.00    -0.237 OA
ATOM     87  O   UNL A   1      38.920  29.662  32.647  1.00  0.00    -0.744 OA
ENDBRANCH  80  84
ENDBRANCH  53  77
BRANCH  65  88
ATOM     88  C   UNL A   1      46.890  32.942  28.971  1.00  0.00     0.023 A 
ATOM     89  C   UNL A   1      46.646  34.130  28.262  1.00  0.00     0.031 A 
ATOM     90  C   UNL A   1      47.345  33.047  30.299  1.00  0.00     0.131 A 
ATOM     91  C   UNL A   1      46.901  35.371  28.868  1.00  0.00     0.055 A 
ATOM     92  C   UNL A   1      47.525  34.283  30.920  1.00  0.00     0.041 A 
ATOM     93  F   UNL A   1      47.603  31.946  31.023  1.00  0.00    -0.206 F 
ATOM     94  C   UNL A   1      47.314  35.455  30.200  1.00  0.00     0.022 A 
BRANCH  91  95
ATOM     95  S   UNL A   1      46.774  36.873  27.861  1.00  0.00     0.124 S 
ATOM     96  O   UNL A   1      46.838  36.335  26.506  1.00  0.00    -0.237 OA
ATOM     97  O   UNL A   1      45.484  37.419  28.270  1.00  0.00    -0.237 OA
ATOM     98  O   UNL A   1      47.937  37.659  28.270  1.00  0.00    -0.744 OA
ENDBRANCH  91  95
ENDBRANCH  65  88
ENDBRANCH  39  40
ENDBRANCH  32  34
ENDBRANCH  31  32
ENDBRANCH  30  31
ENDBRANCH  29  30
ENDBRANCH  28  29
ENDBRANCH   1  28
TORSDOF 23
ENDMDL
