MODEL 1
REMARK VINA RESULT:      -8.6      0.000      0.000
REMARK SMILES CC[C@H](C(=O)OCCOCCOCCOC(=O)c1ccc(-c2c3nc(c(-c4cc(S(=O)(=O)[O-])ccc4F)c4ccc([nH]4)c(-c4cc(S(=O)(=O)[O-])ccc4F)c4nc(c(-c5cc(S(=O)(=O)[O-])ccc5F)c5ccc2[nH]5)C=C4)C=C3)cc1)[N@@H+](C)Cc1cncn1C(C)C
REMARK SMILES IDX 10 1 9 2 8 3 7 4 6 5 4 6 5 7 3 8 2 9 1 10 81 11 82 12 83 14
REMARK SMILES IDX 84 15 85 16 88 17 86 18 87 19 89 20 90 21 91 22 11 23 12 24
REMARK SMILES IDX 13 25 14 26 15 27 16 28 17 29 18 30 19 31 80 32 20 33 79 34
REMARK SMILES IDX 21 35 22 36 23 37 73 38 24 39 78 40 72 41 74 42 25 43 77 44
REMARK SMILES IDX 71 45 70 46 26 48 58 49 38 50 57 51 39 52 42 53 56 54 75 55
REMARK SMILES IDX 40 56 41 57 55 59 76 60 43 61 27 62 28 63 36 64 29 65 35 66
REMARK SMILES IDX 37 67 34 68 30 69 31 70 32 71 33 72 59 73 60 74 68 75 61 76
REMARK SMILES IDX 67 77 69 78 66 79 62 80 63 81 64 82 65 83 44 84 45 85 53 86
REMARK SMILES IDX 46 87 52 88 54 89 51 90 47 91 48 92 49 93 50 94
REMARK H PARENT 81 13 74 47 42 58
REMARK Flexibility Score: inf
ROOT
ATOM      1  C   UNL A   1      34.984  29.329  27.207  1.00  0.00     0.188 C 
ENDROOT
BRANCH   1   2
ATOM      2  O   UNL A   1      33.662  29.096  26.742  1.00  0.00    -0.376 OA
BRANCH   2   3
ATOM      3  C   UNL A   1      33.515  29.032  25.333  1.00  0.00     0.202 C 
BRANCH   3   4
ATOM      4  C   UNL A   1      32.934  27.704  24.843  1.00  0.00     0.261 C 
BRANCH   4   5
ATOM      5  O   UNL A   1      32.955  26.625  25.788  1.00  0.00    -0.459 OA
BRANCH   5   6
ATOM      6  C   UNL A   1      31.768  26.221  26.331  1.00  0.00     0.364 C 
ATOM      7  O   UNL A   1      31.147  26.851  27.175  1.00  0.00    -0.245 OA
BRANCH   6   8
ATOM      8  C   UNL A   1      31.407  24.836  25.764  1.00  0.00     0.294 C 
BRANCH   8   9
ATOM      9  C   UNL A   1      31.333  23.878  26.960  1.00  0.00     0.074 C 
ATOM     10  C   UNL A   1      32.265  22.673  26.891  1.00  0.00     0.011 C 
ENDBRANCH   8   9
BRANCH   8  11
ATOM     11  N   UNL A   1      30.353  24.892  24.723  1.00  0.00    -0.321 N 
ATOM     12  C   UNL A   1      29.650  26.166  24.629  1.00  0.00     0.333 C 
ATOM     13  H   UNL A   1      29.744  24.206  25.170  1.00  0.00     0.348 HD
BRANCH  11  14
ATOM     14  C   UNL A   1      30.503  24.215  23.435  1.00  0.00     0.319 C 
BRANCH  14  15
ATOM     15  C   UNL A   1      31.885  23.993  22.903  1.00  0.00     0.093 A 
ATOM     16  C   UNL A   1      32.793  24.783  22.222  1.00  0.00     0.140 A 
ATOM     17  N   UNL A   1      32.569  22.793  23.027  1.00  0.00    -0.327 N 
ATOM     18  N   UNL A   1      34.042  24.230  22.204  1.00  0.00    -0.245 NA
ATOM     19  C   UNL A   1      33.889  23.048  22.748  1.00  0.00     0.200 A 
BRANCH  17  20
ATOM     20  C   UNL A   1      31.998  21.446  23.085  1.00  0.00     0.082 C 
ATOM     21  C   UNL A   1      31.910  20.880  21.661  1.00  0.00     0.031 C 
ATOM     22  C   UNL A   1      32.761  20.502  24.011  1.00  0.00     0.031 C 
ENDBRANCH  17  20
ENDBRANCH  14  15
ENDBRANCH  11  14
ENDBRANCH   8  11
ENDBRANCH   6   8
ENDBRANCH   5   6
ENDBRANCH   4   5
ENDBRANCH   3   4
ENDBRANCH   2   3
ENDBRANCH   1   2
BRANCH   1  23
ATOM     23  C   UNL A   1      35.182  30.710  27.871  1.00  0.00     0.188 C 
BRANCH  23  24
ATOM     24  O   UNL A   1      34.547  31.867  27.345  1.00  0.00    -0.376 OA
BRANCH  24  25
ATOM     25  C   UNL A   1      33.395  32.371  27.997  1.00  0.00     0.202 C 
BRANCH  25  26
ATOM     26  C   UNL A   1      32.953  33.823  27.737  1.00  0.00     0.261 C 
BRANCH  26  27
ATOM     27  O   UNL A   1      33.663  34.847  28.459  1.00  0.00    -0.460 OA
BRANCH  27  28
ATOM     28  C   UNL A   1      33.467  34.890  29.804  1.00  0.00     0.338 C 
ATOM     29  O   UNL A   1      32.463  35.278  30.380  1.00  0.00    -0.246 OA
BRANCH  28  30
ATOM     30  C   UNL A   1      34.588  34.208  30.502  1.00  0.00     0.060 A 
ATOM     31  C   UNL A   1      35.905  34.467  30.089  1.00  0.00     0.016 A 
ATOM     32  C   UNL A   1      34.355  33.305  31.541  1.00  0.00     0.016 A 
ATOM     33  C   UNL A   1      36.988  33.839  30.713  1.00  0.00     0.010 A 
ATOM     34  C   UNL A   1      35.440  32.644  32.138  1.00  0.00     0.010 A 
ATOM     35  C   UNL A   1      36.762  32.896  31.723  1.00  0.00    -0.014 A 
BRANCH  35  36
ATOM     36  C   UNL A   1      37.876  32.054  32.237  1.00  0.00     0.031 A 
ATOM     37  C   UNL A   1      38.454  32.370  33.591  1.00  0.00     0.074 A 
ATOM     38  C   UNL A   1      38.386  31.035  31.521  1.00  0.00     0.049 A 
ATOM     39  N   UNL A   1      39.520  31.888  34.177  1.00  0.00    -0.248 NA
ATOM     40  C   UNL A   1      37.724  33.368  34.385  1.00  0.00     0.031 C 
ATOM     41  C   UNL A   1      37.876  30.566  30.234  1.00  0.00     0.029 A 
ATOM     42  N   UNL A   1      39.470  30.226  31.768  1.00  0.00    -0.354 N 
ATOM     43  C   UNL A   1      39.598  32.534  35.408  1.00  0.00     0.074 A 
ATOM     44  C   UNL A   1      38.485  33.460  35.465  1.00  0.00     0.031 C 
ATOM     45  C   UNL A   1      38.665  29.571  29.790  1.00  0.00     0.029 A 
ATOM     46  C   UNL A   1      39.767  29.370  30.732  1.00  0.00     0.049 A 
ATOM     47  H   UNL A   1      39.984  30.256  32.607  1.00  0.00     0.167 HD
ATOM     48  C   UNL A   1      40.511  32.370  36.398  1.00  0.00     0.034 A 
ATOM     49  C   UNL A   1      40.831  28.561  30.541  1.00  0.00     0.034 A 
ATOM     50  C   UNL A   1      41.631  31.463  36.320  1.00  0.00     0.049 A 
ATOM     51  C   UNL A   1      41.926  28.509  31.585  1.00  0.00     0.074 A 
ATOM     52  C   UNL A   1      42.605  31.213  37.272  1.00  0.00     0.029 A 
ATOM     53  N   UNL A   1      41.942  30.674  35.221  1.00  0.00    -0.354 N 
ATOM     54  N   UNL A   1      41.996  29.124  32.742  1.00  0.00    -0.248 NA
ATOM     55  C   UNL A   1      43.090  27.660  31.288  1.00  0.00     0.031 C 
ATOM     56  C   UNL A   1      43.549  30.344  36.716  1.00  0.00     0.029 A 
ATOM     57  C   UNL A   1      43.121  29.980  35.450  1.00  0.00     0.049 A 
ATOM     58  H   UNL A   1      41.404  30.616  34.399  1.00  0.00     0.167 HD
ATOM     59  C   UNL A   1      43.199  28.717  33.319  1.00  0.00     0.074 A 
ATOM     60  C   UNL A   1      43.815  27.794  32.390  1.00  0.00     0.031 C 
ATOM     61  C   UNL A   1      43.742  29.074  34.512  1.00  0.00     0.034 A 
BRANCH  48  62
ATOM     62  C   UNL A   1      40.368  33.246  37.621  1.00  0.00     0.023 A 
ATOM     63  C   UNL A   1      39.595  32.851  38.726  1.00  0.00     0.031 A 
ATOM     64  C   UNL A   1      40.980  34.511  37.665  1.00  0.00     0.131 A 
ATOM     65  C   UNL A   1      39.383  33.744  39.787  1.00  0.00     0.055 A 
ATOM     66  C   UNL A   1      40.839  35.360  38.764  1.00  0.00     0.041 A 
ATOM     67  F   UNL A   1      41.714  34.953  36.631  1.00  0.00    -0.206 F 
ATOM     68  C   UNL A   1      40.020  34.986  39.826  1.00  0.00     0.022 A 
BRANCH  65  69
ATOM     69  S   UNL A   1      38.127  33.327  41.027  1.00  0.00     0.124 S 
ATOM     70  O   UNL A   1      37.635  34.649  41.404  1.00  0.00    -0.237 OA
ATOM     71  O   UNL A   1      37.202  32.493  40.269  1.00  0.00    -0.237 OA
ATOM     72  O   UNL A   1      38.889  32.633  42.064  1.00  0.00    -0.744 OA
ENDBRANCH  65  69
ENDBRANCH  48  62
BRANCH  49  73
ATOM     73  C   UNL A   1      40.963  27.773  29.281  1.00  0.00     0.023 A 
ATOM     74  C   UNL A   1      41.904  28.130  28.304  1.00  0.00     0.031 A 
ATOM     75  C   UNL A   1      40.112  26.687  29.010  1.00  0.00     0.131 A 
ATOM     76  C   UNL A   1      41.950  27.431  27.088  1.00  0.00     0.055 A 
ATOM     77  C   UNL A   1      40.196  25.960  27.822  1.00  0.00     0.041 A 
ATOM     78  F   UNL A   1      39.186  26.309  29.907  1.00  0.00    -0.206 F 
ATOM     79  C   UNL A   1      41.114  26.339  26.846  1.00  0.00     0.022 A 
BRANCH  76  80
ATOM     80  S   UNL A   1      43.079  28.016  25.797  1.00  0.00     0.124 S 
ATOM     81  O   UNL A   1      43.162  29.440  26.101  1.00  0.00    -0.237 OA
ATOM     82  O   UNL A   1      44.278  27.231  26.072  1.00  0.00    -0.237 OA
ATOM     83  O   UNL A   1      42.383  27.679  24.557  1.00  0.00    -0.744 OA
ENDBRANCH  76  80
ENDBRANCH  49  73
BRANCH  61  84
ATOM     84  C   UNL A   1      45.059  28.441  34.898  1.00  0.00     0.023 A 
ATOM     85  C   UNL A   1      46.290  29.052  34.599  1.00  0.00     0.031 A 
ATOM     86  C   UNL A   1      45.083  27.220  35.596  1.00  0.00     0.131 A 
ATOM     87  C   UNL A   1      47.492  28.424  34.964  1.00  0.00     0.055 A 
ATOM     88  C   UNL A   1      46.279  26.628  36.008  1.00  0.00     0.041 A 
ATOM     89  F   UNL A   1      43.939  26.587  35.904  1.00  0.00    -0.206 F 
ATOM     90  C   UNL A   1      47.493  27.226  35.684  1.00  0.00     0.022 A 
BRANCH  87  91
ATOM     91  S   UNL A   1      49.061  29.157  34.425  1.00  0.00     0.124 S 
ATOM     92  O   UNL A   1      49.496  28.216  33.396  1.00  0.00    -0.237 OA
ATOM     93  O   UNL A   1      48.646  30.473  33.950  1.00  0.00    -0.237 OA
ATOM     94  O   UNL A   1      49.873  29.164  35.640  1.00  0.00    -0.744 OA
ENDBRANCH  87  91
ENDBRANCH  61  84
ENDBRANCH  35  36
ENDBRANCH  28  30
ENDBRANCH  27  28
ENDBRANCH  26  27
ENDBRANCH  25  26
ENDBRANCH  24  25
ENDBRANCH  23  24
ENDBRANCH   1  23
TORSDOF 25
ENDMDL
MODEL 2
REMARK VINA RESULT:      -8.2      6.410      9.910
REMARK SMILES CC[C@H](C(=O)OCCOCCOCCOC(=O)c1ccc(-c2c3nc(c(-c4cc(S(=O)(=O)[O-])ccc4F)c4ccc([nH]4)c(-c4cc(S(=O)(=O)[O-])ccc4F)c4nc(c(-c5cc(S(=O)(=O)[O-])ccc5F)c5ccc2[nH]5)C=C4)C=C3)cc1)[N@@H+](C)Cc1cncn1C(C)C
REMARK SMILES IDX 10 1 9 2 8 3 7 4 6 5 4 6 5 7 3 8 2 9 1 10 81 11 82 12 83 14
REMARK SMILES IDX 84 15 85 16 88 17 86 18 87 19 89 20 90 21 91 22 11 23 12 24
REMARK SMILES IDX 13 25 14 26 15 27 16 28 17 29 18 30 19 31 80 32 20 33 79 34
REMARK SMILES IDX 21 35 22 36 23 37 73 38 24 39 78 40 72 41 74 42 25 43 77 44
REMARK SMILES IDX 71 45 70 46 26 48 58 49 38 50 57 51 39 52 42 53 56 54 75 55
REMARK SMILES IDX 40 56 41 57 55 59 76 60 43 61 27 62 28 63 36 64 29 65 35 66
REMARK SMILES IDX 37 67 34 68 30 69 31 70 32 71 33 72 59 73 60 74 68 75 61 76
REMARK SMILES IDX 67 77 69 78 66 79 62 80 63 81 64 82 65 83 44 84 45 85 53 86
REMARK SMILES IDX 46 87 52 88 54 89 51 90 47 91 48 92 49 93 50 94
REMARK H PARENT 81 13 74 47 42 58
REMARK Flexibility Score: inf
ROOT
ATOM      1  C   UNL A   1      34.127  34.631  30.177  1.00  0.00     0.188 C 
ENDROOT
BRANCH   1   2
ATOM      2  O   UNL A   1      32.983  34.363  29.378  1.00  0.00    -0.376 OA
BRANCH   2   3
ATOM      3  C   UNL A   1      33.233  34.209  27.990  1.00  0.00     0.202 C 
BRANCH   3   4
ATOM      4  C   UNL A   1      32.635  32.928  27.405  1.00  0.00     0.261 C 
BRANCH   4   5
ATOM      5  O   UNL A   1      33.455  31.754  27.498  1.00  0.00    -0.459 OA
BRANCH   5   6
ATOM      6  C   UNL A   1      32.930  30.567  27.073  1.00  0.00     0.364 C 
ATOM      7  O   UNL A   1      31.748  30.268  27.157  1.00  0.00    -0.245 OA
BRANCH   6   8
ATOM      8  C   UNL A   1      34.073  29.673  26.559  1.00  0.00     0.294 C 
BRANCH   8   9
ATOM      9  C   UNL A   1      35.056  29.504  27.724  1.00  0.00     0.074 C 
ATOM     10  C   UNL A   1      36.497  29.906  27.426  1.00  0.00     0.011 C 
ENDBRANCH   8   9
BRANCH   8  11
ATOM     11  N   UNL A   1      33.593  28.527  25.749  1.00  0.00    -0.321 N 
ATOM     12  C   UNL A   1      33.243  27.338  26.516  1.00  0.00     0.333 C 
ATOM     13  H   UNL A   1      34.483  28.369  25.275  1.00  0.00     0.348 HD
BRANCH  11  14
ATOM     14  C   UNL A   1      32.765  28.716  24.558  1.00  0.00     0.319 C 
BRANCH  14  15
ATOM     15  C   UNL A   1      32.953  27.782  23.403  1.00  0.00     0.093 A 
ATOM     16  C   UNL A   1      33.754  27.793  22.277  1.00  0.00     0.140 A 
ATOM     17  N   UNL A   1      32.257  26.591  23.261  1.00  0.00    -0.327 N 
ATOM     18  N   UNL A   1      33.786  26.576  21.657  1.00  0.00    -0.245 NA
ATOM     19  C   UNL A   1      32.911  25.851  22.308  1.00  0.00     0.200 A 
BRANCH  17  20
ATOM     20  C   UNL A   1      30.905  26.289  23.736  1.00  0.00     0.082 C 
ATOM     21  C   UNL A   1      29.929  27.317  23.147  1.00  0.00     0.031 C 
ATOM     22  C   UNL A   1      30.459  24.862  23.431  1.00  0.00     0.031 C 
ENDBRANCH  17  20
ENDBRANCH  14  15
ENDBRANCH  11  14
ENDBRANCH   8  11
ENDBRANCH   6   8
ENDBRANCH   5   6
ENDBRANCH   4   5
ENDBRANCH   3   4
ENDBRANCH   2   3
ENDBRANCH   1   2
BRANCH   1  23
ATOM     23  C   UNL A   1      34.825  33.363  30.717  1.00  0.00     0.188 C 
BRANCH  23  24
ATOM     24  O   UNL A   1      34.299  32.665  31.837  1.00  0.00    -0.376 OA
BRANCH  24  25
ATOM     25  C   UNL A   1      34.944  32.802  33.091  1.00  0.00     0.202 C 
BRANCH  25  26
ATOM     26  C   UNL A   1      36.480  32.717  33.166  1.00  0.00     0.261 C 
BRANCH  26  27
ATOM     27  O   UNL A   1      37.036  31.415  33.432  1.00  0.00    -0.460 OA
BRANCH  27  28
ATOM     28  C   UNL A   1      37.139  30.569  32.372  1.00  0.00     0.338 C 
ATOM     29  O   UNL A   1      36.255  29.858  31.923  1.00  0.00    -0.246 OA
BRANCH  28  30
ATOM     30  C   UNL A   1      38.445  30.766  31.691  1.00  0.00     0.060 A 
ATOM     31  C   UNL A   1      39.606  30.897  32.471  1.00  0.00     0.016 A 
ATOM     32  C   UNL A   1      38.536  30.842  30.301  1.00  0.00     0.016 A 
ATOM     33  C   UNL A   1      40.854  31.093  31.870  1.00  0.00     0.010 A 
ATOM     34  C   UNL A   1      39.782  31.080  29.701  1.00  0.00     0.010 A 
ATOM     35  C   UNL A   1      40.947  31.218  30.479  1.00  0.00    -0.014 A 
BRANCH  35  36
ATOM     36  C   UNL A   1      42.221  31.652  29.840  1.00  0.00     0.031 A 
ATOM     37  C   UNL A   1      43.235  30.603  29.468  1.00  0.00     0.074 A 
ATOM     38  C   UNL A   1      42.491  32.949  29.605  1.00  0.00     0.049 A 
ATOM     39  N   UNL A   1      44.468  30.745  29.053  1.00  0.00    -0.248 NA
ATOM     40  C   UNL A   1      42.789  29.208  29.582  1.00  0.00     0.031 C 
ATOM     41  C   UNL A   1      41.573  34.062  29.840  1.00  0.00     0.029 A 
ATOM     42  N   UNL A   1      43.636  33.551  29.137  1.00  0.00    -0.354 N 
ATOM     43  C   UNL A   1      44.954  29.453  28.869  1.00  0.00     0.074 A 
ATOM     44  C   UNL A   1      43.887  28.549  29.244  1.00  0.00     0.031 C 
ATOM     45  C   UNL A   1      42.201  35.214  29.543  1.00  0.00     0.029 A 
ATOM     46  C   UNL A   1      43.582  34.925  29.152  1.00  0.00     0.049 A 
ATOM     47  H   UNL A   1      44.419  33.045  28.821  1.00  0.00     0.167 HD
ATOM     48  C   UNL A   1      46.174  29.059  28.426  1.00  0.00     0.034 A 
ATOM     49  C   UNL A   1      44.548  35.843  28.929  1.00  0.00     0.034 A 
ATOM     50  C   UNL A   1      47.239  29.970  28.078  1.00  0.00     0.049 A 
ATOM     51  C   UNL A   1      45.950  35.384  28.592  1.00  0.00     0.074 A 
ATOM     52  C   UNL A   1      48.507  29.673  27.608  1.00  0.00     0.029 A 
ATOM     53  N   UNL A   1      47.171  31.352  28.185  1.00  0.00    -0.354 N 
ATOM     54  N   UNL A   1      46.403  34.164  28.423  1.00  0.00    -0.248 NA
ATOM     55  C   UNL A   1      46.972  36.429  28.428  1.00  0.00     0.031 C 
ATOM     56  C   UNL A   1      49.231  30.866  27.515  1.00  0.00     0.029 A 
ATOM     57  C   UNL A   1      48.390  31.918  27.842  1.00  0.00     0.049 A 
ATOM     58  H   UNL A   1      46.373  31.858  28.463  1.00  0.00     0.167 HD
ATOM     59  C   UNL A   1      47.756  34.298  28.110  1.00  0.00     0.074 A 
ATOM     60  C   UNL A   1      48.041  35.717  28.099  1.00  0.00     0.031 C 
ATOM     61  C   UNL A   1      48.677  33.334  27.851  1.00  0.00     0.034 A 
BRANCH  48  62
ATOM     62  C   UNL A   1      46.439  27.574  28.362  1.00  0.00     0.023 A 
ATOM     63  C   UNL A   1      46.276  26.844  27.171  1.00  0.00     0.031 A 
ATOM     64  C   UNL A   1      46.818  26.868  29.518  1.00  0.00     0.131 A 
ATOM     65  C   UNL A   1      46.407  25.448  27.182  1.00  0.00     0.055 A 
ATOM     66  C   UNL A   1      47.035  25.490  29.502  1.00  0.00     0.041 A 
ATOM     67  F   UNL A   1      46.969  27.505  30.690  1.00  0.00    -0.206 F 
ATOM     68  C   UNL A   1      46.811  24.768  28.333  1.00  0.00     0.022 A 
BRANCH  65  69
ATOM     69  S   UNL A   1      45.874  24.521  25.717  1.00  0.00     0.124 S 
ATOM     70  O   UNL A   1      46.451  25.319  24.638  1.00  0.00    -0.237 OA
ATOM     71  O   UNL A   1      46.477  23.212  25.938  1.00  0.00    -0.237 OA
ATOM     72  O   UNL A   1      44.415  24.560  25.801  1.00  0.00    -0.744 OA
ENDBRANCH  65  69
ENDBRANCH  48  62
BRANCH  49  73
ATOM     73  C   UNL A   1      44.254  37.298  29.079  1.00  0.00     0.023 A 
ATOM     74  C   UNL A   1      43.995  38.099  27.957  1.00  0.00     0.031 A 
ATOM     75  C   UNL A   1      44.286  37.921  30.339  1.00  0.00     0.131 A 
ATOM     76  C   UNL A   1      43.811  39.482  28.112  1.00  0.00     0.055 A 
ATOM     77  C   UNL A   1      44.050  39.287  30.495  1.00  0.00     0.041 A 
ATOM     78  F   UNL A   1      44.540  37.202  31.446  1.00  0.00    -0.206 F 
ATOM     79  C   UNL A   1      43.821  40.079  29.374  1.00  0.00     0.022 A 
BRANCH  76  80
ATOM     80  S   UNL A   1      43.624  40.500  26.624  1.00  0.00     0.124 S 
ATOM     81  O   UNL A   1      42.265  40.172  26.210  1.00  0.00    -0.237 OA
ATOM     82  O   UNL A   1      43.825  41.844  27.158  1.00  0.00    -0.237 OA
ATOM     83  O   UNL A   1      44.683  40.014  25.743  1.00  0.00    -0.744 OA
ENDBRANCH  76  80
ENDBRANCH  49  73
BRANCH  61  84
ATOM     84  C   UNL A   1      50.078  33.780  27.504  1.00  0.00     0.023 A 
ATOM     85  C   UNL A   1      50.421  34.202  26.208  1.00  0.00     0.031 A 
ATOM     86  C   UNL A   1      51.080  33.804  28.492  1.00  0.00     0.131 A 
ATOM     87  C   UNL A   1      51.739  34.596  25.925  1.00  0.00     0.055 A 
ATOM     88  C   UNL A   1      52.375  34.252  28.218  1.00  0.00     0.041 A 
ATOM     89  F   UNL A   1      50.813  33.407  29.746  1.00  0.00    -0.206 F 
ATOM     90  C   UNL A   1      52.712  34.643  26.927  1.00  0.00     0.022 A 
BRANCH  87  91
ATOM     91  S   UNL A   1      52.188  34.982  24.210  1.00  0.00     0.124 S 
ATOM     92  O   UNL A   1      53.588  35.373  24.344  1.00  0.00    -0.237 OA
ATOM     93  O   UNL A   1      51.943  33.714  23.529  1.00  0.00    -0.237 OA
ATOM     94  O   UNL A   1      51.274  36.064  23.851  1.00  0.00    -0.744 OA
ENDBRANCH  87  91
ENDBRANCH  61  84
ENDBRANCH  35  36
ENDBRANCH  28  30
ENDBRANCH  27  28
ENDBRANCH  26  27
ENDBRANCH  25  26
ENDBRANCH  24  25
ENDBRANCH  23  24
ENDBRANCH   1  23
TORSDOF 25
ENDMDL
MODEL 3
REMARK VINA RESULT:      -8.2      2.463      3.231
REMARK SMILES CC[C@H](C(=O)OCCOCCOCCOC(=O)c1ccc(-c2c3nc(c(-c4cc(S(=O)(=O)[O-])ccc4F)c4ccc([nH]4)c(-c4cc(S(=O)(=O)[O-])ccc4F)c4nc(c(-c5cc(S(=O)(=O)[O-])ccc5F)c5ccc2[nH]5)C=C4)C=C3)cc1)[N@@H+](C)Cc1cncn1C(C)C
REMARK SMILES IDX 10 1 9 2 8 3 7 4 6 5 4 6 5 7 3 8 2 9 1 10 81 11 82 12 83 14
REMARK SMILES IDX 84 15 85 16 88 17 86 18 87 19 89 20 90 21 91 22 11 23 12 24
REMARK SMILES IDX 13 25 14 26 15 27 16 28 17 29 18 30 19 31 80 32 20 33 79 34
REMARK SMILES IDX 21 35 22 36 23 37 73 38 24 39 78 40 72 41 74 42 25 43 77 44
REMARK SMILES IDX 71 45 70 46 26 48 58 49 38 50 57 51 39 52 42 53 56 54 75 55
REMARK SMILES IDX 40 56 41 57 55 59 76 60 43 61 27 62 28 63 36 64 29 65 35 66
REMARK SMILES IDX 37 67 34 68 30 69 31 70 32 71 33 72 59 73 60 74 68 75 61 76
REMARK SMILES IDX 67 77 69 78 66 79 62 80 63 81 64 82 65 83 44 84 45 85 53 86
REMARK SMILES IDX 46 87 52 88 54 89 51 90 47 91 48 92 49 93 50 94
REMARK H PARENT 81 13 74 47 42 58
REMARK Flexibility Score: inf
ROOT
ATOM      1  C   UNL A   1      35.179  31.815  28.919  1.00  0.00     0.188 C 
ENDROOT
BRANCH   1   2
ATOM      2  O   UNL A   1      33.965  31.320  28.371  1.00  0.00    -0.376 OA
BRANCH   2   3
ATOM      3  C   UNL A   1      34.106  30.504  27.219  1.00  0.00     0.202 C 
BRANCH   3   4
ATOM      4  C   UNL A   1      33.925  29.012  27.507  1.00  0.00     0.261 C 
BRANCH   4   5
ATOM      5  O   UNL A   1      33.166  28.276  26.537  1.00  0.00    -0.459 OA
BRANCH   5   6
ATOM      6  C   UNL A   1      31.867  27.974  26.832  1.00  0.00     0.364 C 
ATOM      7  O   UNL A   1      31.412  27.920  27.966  1.00  0.00    -0.245 OA
BRANCH   6   8
ATOM      8  C   UNL A   1      31.123  27.646  25.525  1.00  0.00     0.294 C 
BRANCH   8   9
ATOM      9  C   UNL A   1      31.466  28.764  24.532  1.00  0.00     0.074 C 
ATOM     10  C   UNL A   1      30.276  29.374  23.799  1.00  0.00     0.011 C 
ENDBRANCH   8   9
BRANCH   8  11
ATOM     11  N   UNL A   1      31.194  26.210  25.161  1.00  0.00    -0.321 N 
ATOM     12  C   UNL A   1      31.408  25.946  23.744  1.00  0.00     0.333 C 
ATOM     13  H   UNL A   1      30.222  26.006  25.397  1.00  0.00     0.348 HD
BRANCH  11  14
ATOM     14  C   UNL A   1      31.823  25.222  26.038  1.00  0.00     0.319 C 
BRANCH  14  15
ATOM     15  C   UNL A   1      33.129  24.624  25.618  1.00  0.00     0.093 A 
ATOM     16  C   UNL A   1      34.392  25.136  25.385  1.00  0.00     0.140 A 
ATOM     17  N   UNL A   1      33.305  23.272  25.361  1.00  0.00    -0.327 N 
ATOM     18  N   UNL A   1      35.337  24.153  25.301  1.00  0.00    -0.245 NA
ATOM     19  C   UNL A   1      34.657  23.035  25.344  1.00  0.00     0.200 A 
BRANCH  17  20
ATOM     20  C   UNL A   1      32.309  22.328  24.850  1.00  0.00     0.082 C 
ATOM     21  C   UNL A   1      32.984  20.969  24.617  1.00  0.00     0.031 C 
ATOM     22  C   UNL A   1      31.084  22.191  25.751  1.00  0.00     0.031 C 
ENDBRANCH  17  20
ENDBRANCH  14  15
ENDBRANCH  11  14
ENDBRANCH   8  11
ENDBRANCH   6   8
ENDBRANCH   5   6
ENDBRANCH   4   5
ENDBRANCH   3   4
ENDBRANCH   2   3
ENDBRANCH   1   2
BRANCH   1  23
ATOM     23  C   UNL A   1      35.661  33.138  28.285  1.00  0.00     0.188 C 
BRANCH  23  24
ATOM     24  O   UNL A   1      34.741  34.020  27.657  1.00  0.00    -0.376 OA
BRANCH  24  25
ATOM     25  C   UNL A   1      34.566  35.320  28.193  1.00  0.00     0.202 C 
BRANCH  25  26
ATOM     26  C   UNL A   1      33.197  35.722  28.772  1.00  0.00     0.261 C 
BRANCH  26  27
ATOM     27  O   UNL A   1      32.723  34.946  29.889  1.00  0.00    -0.460 OA
BRANCH  27  28
ATOM     28  C   UNL A   1      32.889  35.491  31.124  1.00  0.00     0.338 C 
ATOM     29  O   UNL A   1      32.150  36.297  31.666  1.00  0.00    -0.246 OA
BRANCH  28  30
ATOM     30  C   UNL A   1      34.013  34.820  31.827  1.00  0.00     0.060 A 
ATOM     31  C   UNL A   1      35.129  35.582  32.208  1.00  0.00     0.016 A 
ATOM     32  C   UNL A   1      33.987  33.451  32.097  1.00  0.00     0.016 A 
ATOM     33  C   UNL A   1      36.212  34.987  32.864  1.00  0.00     0.010 A 
ATOM     34  C   UNL A   1      35.091  32.848  32.719  1.00  0.00     0.010 A 
ATOM     35  C   UNL A   1      36.216  33.607  33.097  1.00  0.00    -0.014 A 
BRANCH  35  36
ATOM     36  C   UNL A   1      37.446  32.923  33.582  1.00  0.00     0.031 A 
ATOM     37  C   UNL A   1      37.867  33.127  35.013  1.00  0.00     0.074 A 
ATOM     38  C   UNL A   1      38.192  32.146  32.776  1.00  0.00     0.049 A 
ATOM     39  N   UNL A   1      38.973  32.772  35.616  1.00  0.00    -0.248 NA
ATOM     40  C   UNL A   1      36.906  33.830  35.873  1.00  0.00     0.031 C 
ATOM     41  C   UNL A   1      37.863  31.796  31.395  1.00  0.00     0.029 A 
ATOM     42  N   UNL A   1      39.401  31.530  32.999  1.00  0.00    -0.354 N 
ATOM     43  C   UNL A   1      38.847  33.219  36.929  1.00  0.00     0.074 A 
ATOM     44  C   UNL A   1      37.569  33.895  37.018  1.00  0.00     0.031 C 
ATOM     45  C   UNL A   1      38.861  31.052  30.886  1.00  0.00     0.029 A 
ATOM     46  C   UNL A   1      39.925  30.921  31.883  1.00  0.00     0.049 A 
ATOM     47  H   UNL A   1      39.849  31.526  33.876  1.00  0.00     0.167 HD
ATOM     48  C   UNL A   1      39.715  33.080  37.962  1.00  0.00     0.034 A 
ATOM     49  C   UNL A   1      41.140  30.370  31.673  1.00  0.00     0.034 A 
ATOM     50  C   UNL A   1      40.998  32.427  37.855  1.00  0.00     0.049 A 
ATOM     51  C   UNL A   1      42.160  30.365  32.791  1.00  0.00     0.074 A 
ATOM     52  C   UNL A   1      41.945  32.221  38.843  1.00  0.00     0.029 A 
ATOM     53  N   UNL A   1      41.525  31.895  36.686  1.00  0.00    -0.354 N 
ATOM     54  N   UNL A   1      42.036  30.793  34.026  1.00  0.00    -0.248 NA
ATOM     55  C   UNL A   1      43.487  29.812  32.481  1.00  0.00     0.031 C 
ATOM     56  C   UNL A   1      43.077  31.646  38.255  1.00  0.00     0.029 A 
ATOM     57  C   UNL A   1      42.805  31.411  36.917  1.00  0.00     0.049 A 
ATOM     58  H   UNL A   1      41.059  31.864  35.820  1.00  0.00     0.167 HD
ATOM     59  C   UNL A   1      43.261  30.537  34.643  1.00  0.00     0.074 A 
ATOM     60  C   UNL A   1      44.104  29.907  33.650  1.00  0.00     0.031 C 
ATOM     61  C   UNL A   1      43.651  30.799  35.918  1.00  0.00     0.034 A 
BRANCH  48  62
ATOM     62  C   UNL A   1      39.327  33.708  39.279  1.00  0.00     0.023 A 
ATOM     63  C   UNL A   1      39.762  34.996  39.640  1.00  0.00     0.031 A 
ATOM     64  C   UNL A   1      38.546  32.994  40.205  1.00  0.00     0.131 A 
ATOM     65  C   UNL A   1      39.488  35.493  40.923  1.00  0.00     0.055 A 
ATOM     66  C   UNL A   1      38.200  33.532  41.446  1.00  0.00     0.041 A 
ATOM     67  F   UNL A   1      38.119  31.752  39.927  1.00  0.00    -0.206 F 
ATOM     68  C   UNL A   1      38.688  34.781  41.819  1.00  0.00     0.022 A 
BRANCH  65  69
ATOM     69  S   UNL A   1      40.335  37.003  41.461  1.00  0.00     0.124 S 
ATOM     70  O   UNL A   1      41.405  37.109  40.473  1.00  0.00    -0.237 OA
ATOM     71  O   UNL A   1      39.279  38.005  41.369  1.00  0.00    -0.237 OA
ATOM     72  O   UNL A   1      40.777  36.682  42.817  1.00  0.00    -0.744 OA
ENDBRANCH  65  69
ENDBRANCH  48  62
BRANCH  49  73
ATOM     73  C   UNL A   1      41.502  29.829  30.330  1.00  0.00     0.023 A 
ATOM     74  C   UNL A   1      41.108  28.540  29.944  1.00  0.00     0.031 A 
ATOM     75  C   UNL A   1      42.295  30.571  29.437  1.00  0.00     0.131 A 
ATOM     76  C   UNL A   1      41.535  28.018  28.713  1.00  0.00     0.055 A 
ATOM     77  C   UNL A   1      42.674  30.068  28.192  1.00  0.00     0.041 A 
ATOM     78  F   UNL A   1      42.709  31.808  29.762  1.00  0.00    -0.206 F 
ATOM     79  C   UNL A   1      42.302  28.778  27.828  1.00  0.00     0.022 A 
BRANCH  76  80
ATOM     80  S   UNL A   1      41.127  26.297  28.317  1.00  0.00     0.124 S 
ATOM     81  O   UNL A   1      41.161  26.314  26.859  1.00  0.00    -0.237 OA
ATOM     82  O   UNL A   1      42.210  25.575  28.976  1.00  0.00    -0.237 OA
ATOM     83  O   UNL A   1      39.804  26.115  28.910  1.00  0.00    -0.744 OA
ENDBRANCH  76  80
ENDBRANCH  49  73
BRANCH  61  84
ATOM     84  C   UNL A   1      45.044  30.378  36.325  1.00  0.00     0.023 A 
ATOM     85  C   UNL A   1      45.305  29.103  36.858  1.00  0.00     0.031 A 
ATOM     86  C   UNL A   1      46.130  31.256  36.154  1.00  0.00     0.131 A 
ATOM     87  C   UNL A   1      46.613  28.757  37.236  1.00  0.00     0.055 A 
ATOM     88  C   UNL A   1      47.437  30.885  36.478  1.00  0.00     0.041 A 
ATOM     89  F   UNL A   1      45.940  32.488  35.654  1.00  0.00    -0.206 F 
ATOM     90  C   UNL A   1      47.683  29.632  37.030  1.00  0.00     0.022 A 
BRANCH  87  91
ATOM     91  S   UNL A   1      46.891  27.169  38.067  1.00  0.00     0.124 S 
ATOM     92  O   UNL A   1      47.396  27.594  39.370  1.00  0.00    -0.237 OA
ATOM     93  O   UNL A   1      45.558  26.575  38.063  1.00  0.00    -0.237 OA
ATOM     94  O   UNL A   1      47.870  26.500  37.213  1.00  0.00    -0.744 OA
ENDBRANCH  87  91
ENDBRANCH  61  84
ENDBRANCH  35  36
ENDBRANCH  28  30
ENDBRANCH  27  28
ENDBRANCH  26  27
ENDBRANCH  25  26
ENDBRANCH  24  25
ENDBRANCH  23  24
ENDBRANCH   1  23
TORSDOF 25
ENDMDL
