MODEL 1
REMARK VINA RESULT:     -10.1      0.000      0.000
REMARK SMILES C[C@H]1OCC[C@H]1C(=O)Nc1ccsc1C(=O)OCCOCCOCCOC(=O)c1ccc(-c2c3nc(c(-c4cc(S(=O)(=O)[O-])ccc4F)c4ccc([nH]4)c(-c4cc(S(=O)(=O)[O-])ccc4F)c4nc(c(-c5cc(S(=O)(=O)[O-])ccc5F)c5ccc2[nH]5)C=C4)C=C3)cc1
REMARK SMILES IDX 22 1 21 2 20 3 19 4 18 5 17 6 15 7 16 8 14 9 10 10 11 11
REMARK SMILES IDX 12 12 13 13 9 14 7 15 8 16 6 18 1 19 2 20 3 21 4 22 5 23
REMARK SMILES IDX 23 24 24 25 25 26 26 27 27 28 28 29 29 30 30 31 91 32 31 33
REMARK SMILES IDX 90 34 32 35 33 36 34 37 84 38 35 39 89 40 83 41 85 42 36 43
REMARK SMILES IDX 88 44 82 45 81 46 37 48 69 49 49 50 68 51 50 52 53 53 67 54
REMARK SMILES IDX 86 55 51 56 52 57 66 59 87 60 54 61 38 62 39 63 47 64 40 65
REMARK SMILES IDX 46 66 48 67 45 68 41 69 42 70 43 71 44 72 70 73 71 74 79 75
REMARK SMILES IDX 72 76 78 77 80 78 77 79 73 80 74 81 75 82 76 83 55 84 56 85
REMARK SMILES IDX 64 86 57 87 63 88 65 89 62 90 58 91 59 92 60 93 61 94
REMARK H PARENT 9 17 85 47 53 58
REMARK Flexibility Score: inf
ROOT
ATOM      1  C   UNL A   1      37.272  21.974  24.752  1.00  0.00     0.188 C 
ENDROOT
BRANCH   1   2
ATOM      2  C   UNL A   1      36.065  22.890  25.037  1.00  0.00     0.188 C 
BRANCH   2   3
ATOM      3  O   UNL A   1      35.479  22.982  26.331  1.00  0.00    -0.376 OA
BRANCH   3   4
ATOM      4  C   UNL A   1      34.530  22.026  26.769  1.00  0.00     0.202 C 
BRANCH   4   5
ATOM      5  C   UNL A   1      33.355  22.536  27.608  1.00  0.00     0.261 C 
BRANCH   5   6
ATOM      6  O   UNL A   1      32.105  22.578  26.901  1.00  0.00    -0.459 OA
BRANCH   6   7
ATOM      7  C   UNL A   1      31.707  23.822  26.494  1.00  0.00     0.350 C 
ATOM      8  O   UNL A   1      30.983  24.556  27.157  1.00  0.00    -0.245 OA
BRANCH   7   9
ATOM      9  C   UNL A   1      32.302  24.156  25.208  1.00  0.00     0.136 A 
ATOM     10  C   UNL A   1      33.086  25.233  24.779  1.00  0.00     0.066 A 
ATOM     11  C   UNL A   1      33.444  25.052  23.414  1.00  0.00     0.039 A 
ATOM     12  C   UNL A   1      32.877  23.947  22.823  1.00  0.00     0.068 A 
ATOM     13  S   UNL A   1      31.963  23.051  23.930  1.00  0.00    -0.135 S 
BRANCH  10  14
ATOM     14  N   UNL A   1      33.503  26.228  25.658  1.00  0.00    -0.324 N 
ATOM     15  C   UNL A   1      33.503  27.581  25.717  1.00  0.00     0.230 C 
ATOM     16  O   UNL A   1      34.271  28.051  26.577  1.00  0.00    -0.274 OA
ATOM     17  H   UNL A   1      33.916  25.839  26.464  1.00  0.00     0.169 HD
BRANCH  15  18
ATOM     18  C   UNL A   1      32.620  28.584  24.974  1.00  0.00     0.110 C 
ATOM     19  C   UNL A   1      34.179  28.621  22.911  1.00  0.00     0.039 C 
ATOM     20  C   UNL A   1      32.811  28.901  23.509  1.00  0.00     0.127 C 
ATOM     21  O   UNL A   1      31.757  28.241  22.796  1.00  0.00    -0.378 OA
ATOM     22  C   UNL A   1      30.688  27.949  23.708  1.00  0.00     0.161 C 
ATOM     23  C   UNL A   1      31.130  28.351  25.097  1.00  0.00     0.044 C 
ENDBRANCH  15  18
ENDBRANCH  10  14
ENDBRANCH   7   9
ENDBRANCH   6   7
ENDBRANCH   5   6
ENDBRANCH   4   5
ENDBRANCH   3   4
ENDBRANCH   2   3
ENDBRANCH   1   2
BRANCH   1  24
ATOM     24  O   UNL A   1      37.330  20.783  25.521  1.00  0.00    -0.376 OA
BRANCH  24  25
ATOM     25  C   UNL A   1      37.974  19.677  24.902  1.00  0.00     0.202 C 
BRANCH  25  26
ATOM     26  C   UNL A   1      39.223  19.204  25.654  1.00  0.00     0.261 C 
BRANCH  26  27
ATOM     27  O   UNL A   1      40.249  20.199  25.806  1.00  0.00    -0.460 OA
BRANCH  27  28
ATOM     28  C   UNL A   1      40.841  20.285  27.020  1.00  0.00     0.338 C 
ATOM     29  O   UNL A   1      41.277  19.364  27.687  1.00  0.00    -0.246 OA
BRANCH  28  30
ATOM     30  C   UNL A   1      41.042  21.716  27.326  1.00  0.00     0.060 A 
ATOM     31  C   UNL A   1      40.424  22.674  26.513  1.00  0.00     0.016 A 
ATOM     32  C   UNL A   1      41.831  22.107  28.410  1.00  0.00     0.016 A 
ATOM     33  C   UNL A   1      40.615  24.033  26.774  1.00  0.00     0.010 A 
ATOM     34  C   UNL A   1      42.033  23.467  28.660  1.00  0.00     0.010 A 
ATOM     35  C   UNL A   1      41.445  24.437  27.830  1.00  0.00    -0.014 A 
BRANCH  35  36
ATOM     36  C   UNL A   1      41.831  25.862  27.976  1.00  0.00     0.031 A 
ATOM     37  C   UNL A   1      43.160  26.307  27.429  1.00  0.00     0.074 A 
ATOM     38  C   UNL A   1      41.024  26.745  28.592  1.00  0.00     0.049 A 
ATOM     39  N   UNL A   1      43.730  27.482  27.479  1.00  0.00    -0.248 NA
ATOM     40  C   UNL A   1      43.951  25.279  26.735  1.00  0.00     0.031 C 
ATOM     41  C   UNL A   1      39.705  26.443  29.142  1.00  0.00     0.029 A 
ATOM     42  N   UNL A   1      41.208  28.077  28.869  1.00  0.00    -0.354 N 
ATOM     43  C   UNL A   1      44.946  27.340  26.820  1.00  0.00     0.074 A 
ATOM     44  C   UNL A   1      45.045  25.954  26.416  1.00  0.00     0.031 C 
ATOM     45  C   UNL A   1      39.204  27.556  29.706  1.00  0.00     0.029 A 
ATOM     46  C   UNL A   1      40.179  28.640  29.585  1.00  0.00     0.049 A 
ATOM     47  H   UNL A   1      42.004  28.582  28.581  1.00  0.00     0.167 HD
ATOM     48  C   UNL A   1      45.890  28.281  26.568  1.00  0.00     0.034 A 
ATOM     49  C   UNL A   1      40.050  29.879  30.103  1.00  0.00     0.034 A 
ATOM     50  C   UNL A   1      45.797  29.652  27.001  1.00  0.00     0.049 A 
ATOM     51  C   UNL A   1      41.154  30.888  29.888  1.00  0.00     0.074 A 
ATOM     52  C   UNL A   1      46.691  30.688  26.789  1.00  0.00     0.029 A 
ATOM     53  N   UNL A   1      44.756  30.177  27.756  1.00  0.00    -0.354 N 
ATOM     54  N   UNL A   1      42.290  30.748  29.243  1.00  0.00    -0.248 NA
ATOM     55  C   UNL A   1      40.956  32.223  30.469  1.00  0.00     0.031 C 
ATOM     56  C   UNL A   1      46.223  31.818  27.469  1.00  0.00     0.029 A 
ATOM     57  C   UNL A   1      45.002  31.511  28.046  1.00  0.00     0.049 A 
ATOM     58  H   UNL A   1      43.959  29.676  28.043  1.00  0.00     0.167 HD
ATOM     59  C   UNL A   1      42.923  31.988  29.315  1.00  0.00     0.074 A 
ATOM     60  C   UNL A   1      42.042  32.862  30.059  1.00  0.00     0.031 C 
ATOM     61  C   UNL A   1      44.120  32.370  28.801  1.00  0.00     0.034 A 
BRANCH  48  62
ATOM     62  C   UNL A   1      47.125  27.827  25.830  1.00  0.00     0.023 A 
ATOM     63  C   UNL A   1      47.299  28.084  24.458  1.00  0.00     0.031 A 
ATOM     64  C   UNL A   1      48.119  27.088  26.495  1.00  0.00     0.131 A 
ATOM     65  C   UNL A   1      48.400  27.541  23.779  1.00  0.00     0.055 A 
ATOM     66  C   UNL A   1      49.252  26.616  25.829  1.00  0.00     0.041 A 
ATOM     67  F   UNL A   1      47.995  26.793  27.798  1.00  0.00    -0.206 F 
ATOM     68  C   UNL A   1      49.390  26.828  24.460  1.00  0.00     0.022 A 
BRANCH  65  69
ATOM     69  S   UNL A   1      48.443  27.652  21.969  1.00  0.00     0.124 S 
ATOM     70  O   UNL A   1      48.669  26.258  21.593  1.00  0.00    -0.237 OA
ATOM     71  O   UNL A   1      47.126  28.192  21.655  1.00  0.00    -0.237 OA
ATOM     72  O   UNL A   1      49.567  28.549  21.707  1.00  0.00    -0.744 OA
ENDBRANCH  65  69
ENDBRANCH  48  62
BRANCH  49  73
ATOM     73  C   UNL A   1      38.853  30.237  30.917  1.00  0.00     0.023 A 
ATOM     74  C   UNL A   1      37.771  30.933  30.354  1.00  0.00     0.031 A 
ATOM     75  C   UNL A   1      38.803  29.935  32.289  1.00  0.00     0.131 A 
ATOM     76  C   UNL A   1      36.704  31.342  31.170  1.00  0.00     0.055 A 
ATOM     77  C   UNL A   1      37.718  30.302  33.085  1.00  0.00     0.041 A 
ATOM     78  F   UNL A   1      39.813  29.274  32.875  1.00  0.00    -0.206 F 
ATOM     79  C   UNL A   1      36.664  31.021  32.528  1.00  0.00     0.022 A 
BRANCH  76  80
ATOM     80  S   UNL A   1      35.398  32.370  30.442  1.00  0.00     0.124 S 
ATOM     81  O   UNL A   1      35.040  31.601  29.256  1.00  0.00    -0.237 OA
ATOM     82  O   UNL A   1      34.405  32.401  31.511  1.00  0.00    -0.237 OA
ATOM     83  O   UNL A   1      36.070  33.642  30.183  1.00  0.00    -0.744 OA
ENDBRANCH  76  80
ENDBRANCH  49  73
BRANCH  61  84
ATOM     84  C   UNL A   1      44.520  33.814  28.986  1.00  0.00     0.023 A 
ATOM     85  C   UNL A   1      45.305  34.235  30.074  1.00  0.00     0.031 A 
ATOM     86  C   UNL A   1      44.107  34.783  28.054  1.00  0.00     0.131 A 
ATOM     87  C   UNL A   1      45.613  35.596  30.227  1.00  0.00     0.055 A 
ATOM     88  C   UNL A   1      44.460  36.127  28.185  1.00  0.00     0.041 A 
ATOM     89  F   UNL A   1      43.356  34.437  26.997  1.00  0.00    -0.206 F 
ATOM     90  C   UNL A   1      45.208  36.542  29.282  1.00  0.00     0.022 A 
BRANCH  87  91
ATOM     91  S   UNL A   1      46.493  36.130  31.721  1.00  0.00     0.124 S 
ATOM     92  O   UNL A   1      45.421  36.736  32.506  1.00  0.00    -0.237 OA
ATOM     93  O   UNL A   1      47.028  34.874  32.237  1.00  0.00    -0.237 OA
ATOM     94  O   UNL A   1      47.494  37.067  31.214  1.00  0.00    -0.744 OA
ENDBRANCH  87  91
ENDBRANCH  61  84
ENDBRANCH  35  36
ENDBRANCH  28  30
ENDBRANCH  27  28
ENDBRANCH  26  27
ENDBRANCH  25  26
ENDBRANCH  24  25
ENDBRANCH   1  24
TORSDOF 22
ENDMDL
MODEL 2
REMARK VINA RESULT:      -9.8      1.968      7.899
REMARK SMILES C[C@H]1OCC[C@H]1C(=O)Nc1ccsc1C(=O)OCCOCCOCCOC(=O)c1ccc(-c2c3nc(c(-c4cc(S(=O)(=O)[O-])ccc4F)c4ccc([nH]4)c(-c4cc(S(=O)(=O)[O-])ccc4F)c4nc(c(-c5cc(S(=O)(=O)[O-])ccc5F)c5ccc2[nH]5)C=C4)C=C3)cc1
REMARK SMILES IDX 22 1 21 2 20 3 19 4 18 5 17 6 15 7 16 8 14 9 10 10 11 11
REMARK SMILES IDX 12 12 13 13 9 14 7 15 8 16 6 18 1 19 2 20 3 21 4 22 5 23
REMARK SMILES IDX 23 24 24 25 25 26 26 27 27 28 28 29 29 30 30 31 91 32 31 33
REMARK SMILES IDX 90 34 32 35 33 36 34 37 84 38 35 39 89 40 83 41 85 42 36 43
REMARK SMILES IDX 88 44 82 45 81 46 37 48 69 49 49 50 68 51 50 52 53 53 67 54
REMARK SMILES IDX 86 55 51 56 52 57 66 59 87 60 54 61 38 62 39 63 47 64 40 65
REMARK SMILES IDX 46 66 48 67 45 68 41 69 42 70 43 71 44 72 70 73 71 74 79 75
REMARK SMILES IDX 72 76 78 77 80 78 77 79 73 80 74 81 75 82 76 83 55 84 56 85
REMARK SMILES IDX 64 86 57 87 63 88 65 89 62 90 58 91 59 92 60 93 61 94
REMARK H PARENT 9 17 85 47 53 58
REMARK Flexibility Score: inf
ROOT
ATOM      1  C   UNL A   1      34.403  22.777  26.215  1.00  0.00     0.188 C 
ENDROOT
BRANCH   1   2
ATOM      2  C   UNL A   1      33.125  23.342  25.565  1.00  0.00     0.188 C 
BRANCH   2   3
ATOM      3  O   UNL A   1      32.620  22.838  24.334  1.00  0.00    -0.376 OA
BRANCH   3   4
ATOM      4  C   UNL A   1      33.385  22.924  23.145  1.00  0.00     0.202 C 
BRANCH   4   5
ATOM      5  C   UNL A   1      32.978  23.989  22.123  1.00  0.00     0.261 C 
BRANCH   5   6
ATOM      6  O   UNL A   1      33.534  25.289  22.380  1.00  0.00    -0.459 OA
BRANCH   6   7
ATOM      7  C   UNL A   1      32.663  26.334  22.240  1.00  0.00     0.350 C 
ATOM      8  O   UNL A   1      31.763  26.364  21.408  1.00  0.00    -0.245 OA
BRANCH   7   9
ATOM      9  C   UNL A   1      32.925  27.359  23.240  1.00  0.00     0.136 A 
ATOM     10  C   UNL A   1      32.527  28.695  23.354  1.00  0.00     0.066 A 
ATOM     11  C   UNL A   1      33.035  29.246  24.564  1.00  0.00     0.039 A 
ATOM     12  C   UNL A   1      33.852  28.395  25.273  1.00  0.00     0.068 A 
ATOM     13  S   UNL A   1      33.959  26.877  24.533  1.00  0.00    -0.135 S 
BRANCH  10  14
ATOM     14  N   UNL A   1      31.665  29.281  22.432  1.00  0.00    -0.324 N 
ATOM     15  C   UNL A   1      30.334  29.493  22.295  1.00  0.00     0.230 C 
ATOM     16  O   UNL A   1      29.987  29.797  21.138  1.00  0.00    -0.274 OA
ATOM     17  H   UNL A   1      32.163  29.642  21.662  1.00  0.00     0.169 HD
BRANCH  15  18
ATOM     18  C   UNL A   1      29.243  29.532  23.364  1.00  0.00     0.110 C 
ATOM     19  C   UNL A   1      28.721  32.026  22.919  1.00  0.00     0.039 C 
ATOM     20  C   UNL A   1      28.283  30.693  23.498  1.00  0.00     0.127 C 
ATOM     21  O   UNL A   1      27.023  30.256  22.975  1.00  0.00    -0.378 OA
ATOM     22  C   UNL A   1      26.990  28.821  22.971  1.00  0.00     0.161 C 
ATOM     23  C   UNL A   1      28.344  28.318  23.418  1.00  0.00     0.044 C 
ENDBRANCH  15  18
ENDBRANCH  10  14
ENDBRANCH   7   9
ENDBRANCH   6   7
ENDBRANCH   5   6
ENDBRANCH   4   5
ENDBRANCH   3   4
ENDBRANCH   2   3
ENDBRANCH   1   2
BRANCH   1  24
ATOM     24  O   UNL A   1      34.629  21.390  26.015  1.00  0.00    -0.376 OA
BRANCH  24  25
ATOM     25  C   UNL A   1      35.964  21.019  25.701  1.00  0.00     0.202 C 
BRANCH  25  26
ATOM     26  C   UNL A   1      36.925  22.212  25.631  1.00  0.00     0.261 C 
BRANCH  26  27
ATOM     27  O   UNL A   1      38.255  21.890  25.192  1.00  0.00    -0.460 OA
BRANCH  27  28
ATOM     28  C   UNL A   1      39.158  21.588  26.154  1.00  0.00     0.338 C 
ATOM     29  O   UNL A   1      39.602  20.486  26.420  1.00  0.00    -0.246 OA
BRANCH  28  30
ATOM     30  C   UNL A   1      39.665  22.857  26.714  1.00  0.00     0.060 A 
ATOM     31  C   UNL A   1      39.198  24.065  26.182  1.00  0.00     0.016 A 
ATOM     32  C   UNL A   1      40.592  22.854  27.760  1.00  0.00     0.016 A 
ATOM     33  C   UNL A   1      39.678  25.277  26.684  1.00  0.00     0.010 A 
ATOM     34  C   UNL A   1      41.081  24.067  28.250  1.00  0.00     0.010 A 
ATOM     35  C   UNL A   1      40.644  25.284  27.700  1.00  0.00    -0.014 A 
BRANCH  35  36
ATOM     36  C   UNL A   1      41.320  26.549  28.083  1.00  0.00     0.031 A 
ATOM     37  C   UNL A   1      40.513  27.616  28.770  1.00  0.00     0.074 A 
ATOM     38  C   UNL A   1      42.623  26.753  27.815  1.00  0.00     0.049 A 
ATOM     39  N   UNL A   1      40.871  28.813  29.153  1.00  0.00    -0.248 NA
ATOM     40  C   UNL A   1      39.110  27.283  29.057  1.00  0.00     0.031 C 
ATOM     41  C   UNL A   1      43.515  25.789  27.176  1.00  0.00     0.029 A 
ATOM     42  N   UNL A   1      43.416  27.851  28.039  1.00  0.00    -0.354 N 
ATOM     43  C   UNL A   1      39.741  29.378  29.733  1.00  0.00     0.074 A 
ATOM     44  C   UNL A   1      38.676  28.405  29.612  1.00  0.00     0.031 C 
ATOM     45  C   UNL A   1      44.732  26.345  27.044  1.00  0.00     0.029 A 
ATOM     46  C   UNL A   1      44.697  27.713  27.560  1.00  0.00     0.049 A 
ATOM     47  H   UNL A   1      43.097  28.661  28.499  1.00  0.00     0.167 HD
ATOM     48  C   UNL A   1      39.604  30.594  30.319  1.00  0.00     0.034 A 
ATOM     49  C   UNL A   1      45.715  28.598  27.521  1.00  0.00     0.034 A 
ATOM     50  C   UNL A   1      40.661  31.569  30.407  1.00  0.00     0.049 A 
ATOM     51  C   UNL A   1      45.515  29.980  28.099  1.00  0.00     0.074 A 
ATOM     52  C   UNL A   1      40.632  32.825  30.989  1.00  0.00     0.029 A 
ATOM     53  N   UNL A   1      41.935  31.408  29.878  1.00  0.00    -0.354 N 
ATOM     54  N   UNL A   1      44.447  30.494  28.665  1.00  0.00    -0.248 NA
ATOM     55  C   UNL A   1      46.661  30.898  28.035  1.00  0.00     0.031 C 
ATOM     56  C   UNL A   1      41.864  33.446  30.756  1.00  0.00     0.029 A 
ATOM     57  C   UNL A   1      42.688  32.553  30.092  1.00  0.00     0.049 A 
ATOM     58  H   UNL A   1      42.258  30.599  29.420  1.00  0.00     0.167 HD
ATOM     59  C   UNL A   1      44.807  31.784  29.053  1.00  0.00     0.074 A 
ATOM     60  C   UNL A   1      46.188  31.966  28.662  1.00  0.00     0.031 C 
ATOM     61  C   UNL A   1      44.063  32.728  29.685  1.00  0.00     0.034 A 
BRANCH  48  62
ATOM     62  C   UNL A   1      38.240  30.940  30.861  1.00  0.00     0.023 A 
ATOM     63  C   UNL A   1      37.282  31.606  30.075  1.00  0.00     0.031 A 
ATOM     64  C   UNL A   1      37.908  30.643  32.195  1.00  0.00     0.131 A 
ATOM     65  C   UNL A   1      36.072  32.021  30.650  1.00  0.00     0.055 A 
ATOM     66  C   UNL A   1      36.670  30.991  32.739  1.00  0.00     0.041 A 
ATOM     67  F   UNL A   1      38.791  30.030  32.998  1.00  0.00    -0.206 F 
ATOM     68  C   UNL A   1      35.749  31.698  31.969  1.00  0.00     0.022 A 
BRANCH  65  69
ATOM     69  S   UNL A   1      34.989  33.118  29.693  1.00  0.00     0.124 S 
ATOM     70  O   UNL A   1      34.275  32.164  28.847  1.00  0.00    -0.237 OA
ATOM     71  O   UNL A   1      34.198  33.765  30.732  1.00  0.00    -0.237 OA
ATOM     72  O   UNL A   1      35.923  33.989  28.983  1.00  0.00    -0.744 OA
ENDBRANCH  65  69
ENDBRANCH  48  62
BRANCH  49  73
ATOM     73  C   UNL A   1      47.009  28.233  26.875  1.00  0.00     0.023 A 
ATOM     74  C   UNL A   1      47.128  28.151  25.479  1.00  0.00     0.031 A 
ATOM     75  C   UNL A   1      48.130  27.901  27.656  1.00  0.00     0.131 A 
ATOM     76  C   UNL A   1      48.331  27.708  24.906  1.00  0.00     0.055 A 
ATOM     77  C   UNL A   1      49.338  27.506  27.080  1.00  0.00     0.041 A 
ATOM     78  F   UNL A   1      48.066  27.959  28.995  1.00  0.00    -0.206 F 
ATOM     79  C   UNL A   1      49.440  27.396  25.696  1.00  0.00     0.022 A 
BRANCH  76  80
ATOM     80  S   UNL A   1      48.402  27.470  23.109  1.00  0.00     0.124 S 
ATOM     81  O   UNL A   1      48.197  26.032  22.991  1.00  0.00    -0.237 OA
ATOM     82  O   UNL A   1      47.304  28.314  22.648  1.00  0.00    -0.237 OA
ATOM     83  O   UNL A   1      49.739  27.943  22.755  1.00  0.00    -0.744 OA
ENDBRANCH  76  80
ENDBRANCH  49  73
BRANCH  61  84
ATOM     84  C   UNL A   1      44.750  34.025  30.037  1.00  0.00     0.023 A 
ATOM     85  C   UNL A   1      44.750  35.128  29.166  1.00  0.00     0.031 A 
ATOM     86  C   UNL A   1      45.417  34.156  31.269  1.00  0.00     0.131 A 
ATOM     87  C   UNL A   1      45.441  36.297  29.519  1.00  0.00     0.055 A 
ATOM     88  C   UNL A   1      46.059  35.339  31.637  1.00  0.00     0.041 A 
ATOM     89  F   UNL A   1      45.449  33.134  32.140  1.00  0.00    -0.206 F 
ATOM     90  C   UNL A   1      46.083  36.415  30.755  1.00  0.00     0.022 A 
BRANCH  87  91
ATOM     91  S   UNL A   1      45.555  37.645  28.309  1.00  0.00     0.124 S 
ATOM     92  O   UNL A   1      45.910  38.783  29.153  1.00  0.00    -0.237 OA
ATOM     93  O   UNL A   1      46.600  37.170  27.408  1.00  0.00    -0.237 OA
ATOM     94  O   UNL A   1      44.215  37.699  27.728  1.00  0.00    -0.744 OA
ENDBRANCH  87  91
ENDBRANCH  61  84
ENDBRANCH  35  36
ENDBRANCH  28  30
ENDBRANCH  27  28
ENDBRANCH  26  27
ENDBRANCH  25  26
ENDBRANCH  24  25
ENDBRANCH   1  24
TORSDOF 22
ENDMDL
MODEL 3
REMARK VINA RESULT:      -9.7      1.881      2.180
REMARK SMILES C[C@H]1OCC[C@H]1C(=O)Nc1ccsc1C(=O)OCCOCCOCCOC(=O)c1ccc(-c2c3nc(c(-c4cc(S(=O)(=O)[O-])ccc4F)c4ccc([nH]4)c(-c4cc(S(=O)(=O)[O-])ccc4F)c4nc(c(-c5cc(S(=O)(=O)[O-])ccc5F)c5ccc2[nH]5)C=C4)C=C3)cc1
REMARK SMILES IDX 22 1 21 2 20 3 19 4 18 5 17 6 15 7 16 8 14 9 10 10 11 11
REMARK SMILES IDX 12 12 13 13 9 14 7 15 8 16 6 18 1 19 2 20 3 21 4 22 5 23
REMARK SMILES IDX 23 24 24 25 25 26 26 27 27 28 28 29 29 30 30 31 91 32 31 33
REMARK SMILES IDX 90 34 32 35 33 36 34 37 84 38 35 39 89 40 83 41 85 42 36 43
REMARK SMILES IDX 88 44 82 45 81 46 37 48 69 49 49 50 68 51 50 52 53 53 67 54
REMARK SMILES IDX 86 55 51 56 52 57 66 59 87 60 54 61 38 62 39 63 47 64 40 65
REMARK SMILES IDX 46 66 48 67 45 68 41 69 42 70 43 71 44 72 70 73 71 74 79 75
REMARK SMILES IDX 72 76 78 77 80 78 77 79 73 80 74 81 75 82 76 83 55 84 56 85
REMARK SMILES IDX 64 86 57 87 63 88 65 89 62 90 58 91 59 92 60 93 61 94
REMARK H PARENT 9 17 85 47 53 58
REMARK Flexibility Score: inf
ROOT
ATOM      1  C   UNL A   1      37.304  22.164  24.946  1.00  0.00     0.188 C 
ENDROOT
BRANCH   1   2
ATOM      2  C   UNL A   1      36.081  23.047  25.265  1.00  0.00     0.188 C 
BRANCH   2   3
ATOM      3  O   UNL A   1      35.441  23.015  26.536  1.00  0.00    -0.376 OA
BRANCH   3   4
ATOM      4  C   UNL A   1      34.427  22.066  26.815  1.00  0.00     0.202 C 
BRANCH   4   5
ATOM      5  C   UNL A   1      33.232  22.539  27.648  1.00  0.00     0.261 C 
BRANCH   5   6
ATOM      6  O   UNL A   1      32.005  22.637  26.907  1.00  0.00    -0.459 OA
BRANCH   6   7
ATOM      7  C   UNL A   1      31.685  23.893  26.470  1.00  0.00     0.350 C 
ATOM      8  O   UNL A   1      30.980  24.673  27.100  1.00  0.00    -0.245 OA
BRANCH   7   9
ATOM      9  C   UNL A   1      32.337  24.177  25.200  1.00  0.00     0.136 A 
ATOM     10  C   UNL A   1      33.153  25.228  24.769  1.00  0.00     0.066 A 
ATOM     11  C   UNL A   1      33.563  24.997  23.426  1.00  0.00     0.039 A 
ATOM     12  C   UNL A   1      33.006  23.880  22.849  1.00  0.00     0.068 A 
ATOM     13  S   UNL A   1      32.034  23.034  23.945  1.00  0.00    -0.135 S 
BRANCH  10  14
ATOM     14  N   UNL A   1      33.548  26.246  25.631  1.00  0.00    -0.324 N 
ATOM     15  C   UNL A   1      33.509  27.600  25.672  1.00  0.00     0.230 C 
ATOM     16  O   UNL A   1      34.270  28.104  26.520  1.00  0.00    -0.274 OA
ATOM     17  H   UNL A   1      33.978  25.880  26.438  1.00  0.00     0.169 HD
BRANCH  15  18
ATOM     18  C   UNL A   1      32.590  28.566  24.924  1.00  0.00     0.110 C 
ATOM     19  C   UNL A   1      34.123  28.612  22.843  1.00  0.00     0.039 C 
ATOM     20  C   UNL A   1      32.756  28.864  23.452  1.00  0.00     0.127 C 
ATOM     21  O   UNL A   1      31.712  28.165  22.762  1.00  0.00    -0.378 OA
ATOM     22  C   UNL A   1      30.661  27.860  23.692  1.00  0.00     0.161 C 
ATOM     23  C   UNL A   1      31.109  28.296  25.069  1.00  0.00     0.044 C 
ENDBRANCH  15  18
ENDBRANCH  10  14
ENDBRANCH   7   9
ENDBRANCH   6   7
ENDBRANCH   5   6
ENDBRANCH   4   5
ENDBRANCH   3   4
ENDBRANCH   2   3
ENDBRANCH   1   2
BRANCH   1  24
ATOM     24  O   UNL A   1      37.208  20.813  25.367  1.00  0.00    -0.376 OA
BRANCH  24  25
ATOM     25  C   UNL A   1      38.111  19.906  24.748  1.00  0.00     0.202 C 
BRANCH  25  26
ATOM     26  C   UNL A   1      39.349  19.605  25.601  1.00  0.00     0.261 C 
BRANCH  26  27
ATOM     27  O   UNL A   1      40.134  20.757  25.951  1.00  0.00    -0.460 OA
BRANCH  27  28
ATOM     28  C   UNL A   1      40.595  20.817  27.223  1.00  0.00     0.338 C 
ATOM     29  O   UNL A   1      40.856  19.877  27.950  1.00  0.00    -0.246 OA
BRANCH  28  30
ATOM     30  C   UNL A   1      40.910  22.228  27.524  1.00  0.00     0.060 A 
ATOM     31  C   UNL A   1      40.258  23.235  26.803  1.00  0.00     0.016 A 
ATOM     32  C   UNL A   1      41.840  22.553  28.514  1.00  0.00     0.016 A 
ATOM     33  C   UNL A   1      40.554  24.577  27.059  1.00  0.00     0.010 A 
ATOM     34  C   UNL A   1      42.146  23.894  28.758  1.00  0.00     0.010 A 
ATOM     35  C   UNL A   1      41.522  24.912  28.017  1.00  0.00    -0.014 A 
BRANCH  35  36
ATOM     36  C   UNL A   1      42.002  26.311  28.137  1.00  0.00     0.031 A 
ATOM     37  C   UNL A   1      43.337  26.667  27.541  1.00  0.00     0.074 A 
ATOM     38  C   UNL A   1      41.275  27.247  28.774  1.00  0.00     0.049 A 
ATOM     39  N   UNL A   1      43.982  27.803  27.562  1.00  0.00    -0.248 NA
ATOM     40  C   UNL A   1      44.037  25.586  26.830  1.00  0.00     0.031 C 
ATOM     41  C   UNL A   1      39.959  27.033  29.371  1.00  0.00     0.029 A 
ATOM     42  N   UNL A   1      41.552  28.566  29.032  1.00  0.00    -0.354 N 
ATOM     43  C   UNL A   1      45.163  27.581  26.863  1.00  0.00     0.074 A 
ATOM     44  C   UNL A   1      45.160  26.188  26.467  1.00  0.00     0.031 C 
ATOM     45  C   UNL A   1      39.550  28.179  29.942  1.00  0.00     0.029 A 
ATOM     46  C   UNL A   1      40.586  29.198  29.779  1.00  0.00     0.049 A 
ATOM     47  H   UNL A   1      42.368  29.018  28.714  1.00  0.00     0.167 HD
ATOM     48  C   UNL A   1      46.155  28.458  26.571  1.00  0.00     0.034 A 
ATOM     49  C   UNL A   1      40.554  30.446  30.290  1.00  0.00     0.034 A 
ATOM     50  C   UNL A   1      46.164  29.835  26.995  1.00  0.00     0.049 A 
ATOM     51  C   UNL A   1      41.712  31.381  30.029  1.00  0.00     0.074 A 
ATOM     52  C   UNL A   1      47.114  30.811  26.744  1.00  0.00     0.029 A 
ATOM     53  N   UNL A   1      45.185  30.430  27.781  1.00  0.00    -0.354 N 
ATOM     54  N   UNL A   1      42.813  31.166  29.347  1.00  0.00    -0.248 NA
ATOM     55  C   UNL A   1      41.618  32.730  30.605  1.00  0.00     0.031 C 
ATOM     56  C   UNL A   1      46.742  31.972  27.430  1.00  0.00     0.029 A 
ATOM     57  C   UNL A   1      45.525  31.747  28.051  1.00  0.00     0.049 A 
ATOM     58  H   UNL A   1      44.368  29.982  28.100  1.00  0.00     0.167 HD
ATOM     59  C   UNL A   1      43.525  32.363  29.386  1.00  0.00     0.074 A 
ATOM     60  C   UNL A   1      42.728  33.296  30.153  1.00  0.00     0.031 C 
ATOM     61  C   UNL A   1      44.726  32.665  28.829  1.00  0.00     0.034 A 
BRANCH  48  62
ATOM     62  C   UNL A   1      47.332  27.922  25.795  1.00  0.00     0.023 A 
ATOM     63  C   UNL A   1      47.467  28.146  24.413  1.00  0.00     0.031 A 
ATOM     64  C   UNL A   1      48.308  27.138  26.435  1.00  0.00     0.131 A 
ATOM     65  C   UNL A   1      48.508  27.529  23.703  1.00  0.00     0.055 A 
ATOM     66  C   UNL A   1      49.386  26.591  25.735  1.00  0.00     0.041 A 
ATOM     67  F   UNL A   1      48.218  26.872  27.747  1.00  0.00    -0.206 F 
ATOM     68  C   UNL A   1      49.481  26.772  24.358  1.00  0.00     0.022 A 
BRANCH  65  69
ATOM     69  S   UNL A   1      48.487  27.608  21.891  1.00  0.00     0.124 S 
ATOM     70  O   UNL A   1      49.602  28.513  21.621  1.00  0.00    -0.237 OA
ATOM     71  O   UNL A   1      48.689  26.215  21.512  1.00  0.00    -0.237 OA
ATOM     72  O   UNL A   1      47.166  28.154  21.586  1.00  0.00    -0.744 OA
ENDBRANCH  65  69
ENDBRANCH  48  62
BRANCH  49  73
ATOM     73  C   UNL A   1      39.411  30.884  31.141  1.00  0.00     0.023 A 
ATOM     74  C   UNL A   1      39.541  30.998  32.534  1.00  0.00     0.031 A 
ATOM     75  C   UNL A   1      38.150  31.136  30.572  1.00  0.00     0.131 A 
ATOM     76  C   UNL A   1      38.419  31.316  33.317  1.00  0.00     0.055 A 
ATOM     77  C   UNL A   1      37.049  31.499  31.350  1.00  0.00     0.041 A 
ATOM     78  F   UNL A   1      37.972  31.037  29.246  1.00  0.00    -0.206 F 
ATOM     79  C   UNL A   1      37.178  31.578  32.734  1.00  0.00     0.022 A 
BRANCH  76  80
ATOM     80  S   UNL A   1      38.589  31.307  35.123  1.00  0.00     0.124 S 
ATOM     81  O   UNL A   1      38.814  29.892  35.394  1.00  0.00    -0.237 OA
ATOM     82  O   UNL A   1      39.734  32.188  35.325  1.00  0.00    -0.237 OA
ATOM     83  O   UNL A   1      37.309  31.836  35.589  1.00  0.00    -0.744 OA
ENDBRANCH  76  80
ENDBRANCH  49  73
BRANCH  61  84
ATOM     84  C   UNL A   1      45.223  34.082  28.988  1.00  0.00     0.023 A 
ATOM     85  C   UNL A   1      44.723  35.138  28.206  1.00  0.00     0.031 A 
ATOM     86  C   UNL A   1      46.215  34.376  29.941  1.00  0.00     0.131 A 
ATOM     87  C   UNL A   1      45.249  36.430  28.359  1.00  0.00     0.055 A 
ATOM     88  C   UNL A   1      46.697  35.673  30.124  1.00  0.00     0.041 A 
ATOM     89  F   UNL A   1      46.727  33.406  30.714  1.00  0.00    -0.206 F 
ATOM     90  C   UNL A   1      46.222  36.707  29.324  1.00  0.00     0.022 A 
BRANCH  87  91
ATOM     91  S   UNL A   1      44.697  37.739  27.230  1.00  0.00     0.124 S 
ATOM     92  O   UNL A   1      45.812  37.821  26.291  1.00  0.00    -0.237 OA
ATOM     93  O   UNL A   1      43.454  37.191  26.698  1.00  0.00    -0.237 OA
ATOM     94  O   UNL A   1      44.537  38.901  28.103  1.00  0.00    -0.744 OA
ENDBRANCH  87  91
ENDBRANCH  61  84
ENDBRANCH  35  36
ENDBRANCH  28  30
ENDBRANCH  27  28
ENDBRANCH  26  27
ENDBRANCH  25  26
ENDBRANCH  24  25
ENDBRANCH   1  24
TORSDOF 22
ENDMDL
