MODEL 1
REMARK VINA RESULT:      -9.8      0.000      0.000
REMARK SMILES Cc1c(Cl)cc2c(c1C)O[C@@H](C(F)(F)F)C(C(=O)OCCOCCOCCOC(=O)c1ccc(-c3c4nc(c(-c5cc(S(=O)(=O)[O-])ccc5F)c5ccc([nH]5)c(-c5cc(S(=O)(=O)[O-])ccc5F)c5nc(c(-c6cc(S(=O)(=O)[O-])ccc6F)c6ccc3[nH]6)C=C5)C=C4)cc1)=C2
REMARK SMILES IDX 24 1 23 2 22 3 21 4 20 5 19 6 17 7 18 8 16 9 1 10 2 11 3 12
REMARK SMILES IDX 8 13 4 14 5 15 7 16 9 17 6 18 10 19 94 20 11 21 12 22 13 23
REMARK SMILES IDX 14 24 15 25 25 26 26 27 27 28 28 29 29 30 30 31 31 32 32 33
REMARK SMILES IDX 93 34 33 35 92 36 34 37 35 38 36 39 86 40 37 41 91 42 85 43
REMARK SMILES IDX 87 44 38 45 90 46 84 47 83 48 39 50 71 51 51 52 70 53 52 54
REMARK SMILES IDX 55 55 69 56 88 57 53 58 54 59 68 61 89 62 56 63 40 64 41 65
REMARK SMILES IDX 49 66 42 67 48 68 50 69 47 70 43 71 44 72 45 73 46 74 72 75
REMARK SMILES IDX 73 76 81 77 74 78 80 79 82 80 79 81 75 82 76 83 77 84 78 85
REMARK SMILES IDX 57 86 58 87 66 88 59 89 65 90 67 91 64 92 60 93 61 94 62 95
REMARK SMILES IDX 63 96
REMARK H PARENT 87 49 55 60
REMARK Flexibility Score: inf
ROOT
ATOM      1  C   UNL A   1      33.220  36.008  28.559  1.00  0.00     0.188 C 
ENDROOT
BRANCH   1   2
ATOM      2  C   UNL A   1      33.616  37.240  29.393  1.00  0.00     0.188 C 
BRANCH   2   3
ATOM      3  O   UNL A   1      32.893  37.555  30.578  1.00  0.00    -0.376 OA
BRANCH   3   4
ATOM      4  C   UNL A   1      33.439  37.227  31.849  1.00  0.00     0.202 C 
BRANCH   4   5
ATOM      5  C   UNL A   1      33.166  35.832  32.431  1.00  0.00     0.261 C 
BRANCH   5   6
ATOM      6  O   UNL A   1      34.086  34.809  32.004  1.00  0.00    -0.460 OA
BRANCH   6   7
ATOM      7  C   UNL A   1      34.266  33.782  32.864  1.00  0.00     0.338 C 
ATOM      8  O   UNL A   1      33.462  32.894  33.102  1.00  0.00    -0.246 OA
BRANCH   7   9
ATOM      9  C   UNL A   1      35.629  33.790  33.430  1.00  0.00     0.087 C 
ATOM     10  C   UNL A   1      40.680  34.973  37.384  1.00  0.00     0.046 C 
ATOM     11  C   UNL A   1      39.412  34.542  36.689  1.00  0.00    -0.026 A 
ATOM     12  C   UNL A   1      38.360  33.925  37.396  1.00  0.00     0.045 A 
ATOM     13  C   UNL A   1      39.251  34.773  35.297  1.00  0.00    -0.004 A 
ATOM     14  Cl  UNL A   1      38.455  33.580  39.088  1.00  0.00    -0.084 Cl
ATOM     15  C   UNL A   1      37.166  33.579  36.755  1.00  0.00     0.032 A 
ATOM     16  C   UNL A   1      38.032  34.433  34.673  1.00  0.00     0.131 A 
ATOM     17  C   UNL A   1      40.349  35.357  34.442  1.00  0.00     0.049 C 
ATOM     18  C   UNL A   1      36.993  33.846  35.398  1.00  0.00     0.019 A 
ATOM     19  O   UNL A   1      37.885  34.792  33.354  1.00  0.00    -0.475 OA
ATOM     20  C   UNL A   1      35.704  33.626  34.759  1.00  0.00     0.027 C 
ATOM     21  C   UNL A   1      36.821  34.157  32.589  1.00  0.00     0.316 C 
BRANCH  21  22
ATOM     22  C   UNL A   1      37.437  33.020  31.755  1.00  0.00     0.430 C 
ATOM     23  F   UNL A   1      36.629  32.696  30.711  1.00  0.00    -0.167 F 
ATOM     24  F   UNL A   1      38.640  33.347  31.233  1.00  0.00    -0.167 F 
ATOM     25  F   UNL A   1      37.586  31.887  32.476  1.00  0.00    -0.167 F 
ENDBRANCH  21  22
ENDBRANCH   7   9
ENDBRANCH   6   7
ENDBRANCH   5   6
ENDBRANCH   4   5
ENDBRANCH   3   4
ENDBRANCH   2   3
ENDBRANCH   1   2
BRANCH   1  26
ATOM     26  O   UNL A   1      33.878  34.817  28.942  1.00  0.00    -0.376 OA
BRANCH  26  27
ATOM     27  C   UNL A   1      33.523  33.638  28.243  1.00  0.00     0.202 C 
BRANCH  27  28
ATOM     28  C   UNL A   1      34.647  32.619  27.998  1.00  0.00     0.261 C 
BRANCH  28  29
ATOM     29  O   UNL A   1      34.526  31.365  28.689  1.00  0.00    -0.460 OA
BRANCH  29  30
ATOM     30  C   UNL A   1      34.824  30.239  27.997  1.00  0.00     0.338 C 
ATOM     31  O   UNL A   1      34.155  29.724  27.120  1.00  0.00    -0.246 OA
BRANCH  30  32
ATOM     32  C   UNL A   1      36.210  29.865  28.360  1.00  0.00     0.060 A 
ATOM     33  C   UNL A   1      37.246  30.078  27.441  1.00  0.00     0.016 A 
ATOM     34  C   UNL A   1      36.487  29.354  29.629  1.00  0.00     0.016 A 
ATOM     35  C   UNL A   1      38.566  29.784  27.796  1.00  0.00     0.010 A 
ATOM     36  C   UNL A   1      37.806  29.039  29.974  1.00  0.00     0.010 A 
ATOM     37  C   UNL A   1      38.851  29.240  29.056  1.00  0.00    -0.014 A 
BRANCH  37  38
ATOM     38  C   UNL A   1      40.217  28.746  29.366  1.00  0.00     0.031 A 
ATOM     39  C   UNL A   1      41.006  29.440  30.442  1.00  0.00     0.074 A 
ATOM     40  C   UNL A   1      40.742  27.687  28.722  1.00  0.00     0.049 A 
ATOM     41  N   UNL A   1      42.225  29.209  30.855  1.00  0.00    -0.248 NA
ATOM     42  C   UNL A   1      40.329  30.542  31.144  1.00  0.00     0.031 C 
ATOM     43  C   UNL A   1      40.059  26.900  27.695  1.00  0.00     0.029 A 
ATOM     44  N   UNL A   1      41.972  27.086  28.840  1.00  0.00    -0.354 N 
ATOM     45  C   UNL A   1      42.458  30.126  31.873  1.00  0.00     0.074 A 
ATOM     46  C   UNL A   1      41.271  30.946  31.984  1.00  0.00     0.031 C 
ATOM     47  C   UNL A   1      40.878  25.915  27.285  1.00  0.00     0.029 A 
ATOM     48  C   UNL A   1      42.155  26.020  27.989  1.00  0.00     0.049 A 
ATOM     49  H   UNL A   1      42.660  27.391  29.475  1.00  0.00     0.167 HD
ATOM     50  C   UNL A   1      43.554  30.261  32.657  1.00  0.00     0.034 A 
ATOM     51  C   UNL A   1      43.232  25.231  27.793  1.00  0.00     0.034 A 
ATOM     52  C   UNL A   1      44.738  29.449  32.534  1.00  0.00     0.049 A 
ATOM     53  C   UNL A   1      44.486  25.473  28.600  1.00  0.00     0.074 A 
ATOM     54  C   UNL A   1      45.902  29.515  33.278  1.00  0.00     0.029 A 
ATOM     55  N   UNL A   1      44.910  28.431  31.608  1.00  0.00    -0.354 N 
ATOM     56  N   UNL A   1      44.700  26.362  29.542  1.00  0.00    -0.248 NA
ATOM     57  C   UNL A   1      45.642  24.609  28.318  1.00  0.00     0.031 C 
ATOM     58  C   UNL A   1      46.804  28.583  32.759  1.00  0.00     0.029 A 
ATOM     59  C   UNL A   1      46.175  27.881  31.743  1.00  0.00     0.049 A 
ATOM     60  H   UNL A   1      44.236  28.141  30.953  1.00  0.00     0.167 HD
ATOM     61  C   UNL A   1      46.002  26.141  29.986  1.00  0.00     0.074 A 
ATOM     62  C   UNL A   1      46.527  25.040  29.207  1.00  0.00     0.031 C 
ATOM     63  C   UNL A   1      46.692  26.786  30.959  1.00  0.00     0.034 A 
BRANCH  50  64
ATOM     64  C   UNL A   1      43.537  31.345  33.701  1.00  0.00     0.023 A 
ATOM     65  C   UNL A   1      43.275  31.056  35.050  1.00  0.00     0.031 A 
ATOM     66  C   UNL A   1      43.816  32.676  33.349  1.00  0.00     0.131 A 
ATOM     67  C   UNL A   1      43.265  32.092  35.995  1.00  0.00     0.055 A 
ATOM     68  C   UNL A   1      43.867  33.692  34.303  1.00  0.00     0.041 A 
ATOM     69  F   UNL A   1      44.053  33.009  32.069  1.00  0.00    -0.206 F 
ATOM     70  C   UNL A   1      43.584  33.404  35.635  1.00  0.00     0.022 A 
BRANCH  67  71
ATOM     71  S   UNL A   1      42.753  31.714  37.694  1.00  0.00     0.124 S 
ATOM     72  O   UNL A   1      43.466  30.465  37.945  1.00  0.00    -0.237 OA
ATOM     73  O   UNL A   1      43.225  32.879  38.434  1.00  0.00    -0.237 OA
ATOM     74  O   UNL A   1      41.301  31.586  37.593  1.00  0.00    -0.744 OA
ENDBRANCH  67  71
ENDBRANCH  50  64
BRANCH  51  75
ATOM     75  C   UNL A   1      43.186  24.141  26.776  1.00  0.00     0.023 A 
ATOM     76  C   UNL A   1      42.501  22.942  27.032  1.00  0.00     0.031 A 
ATOM     77  C   UNL A   1      43.841  24.277  25.540  1.00  0.00     0.131 A 
ATOM     78  C   UNL A   1      42.502  21.918  26.071  1.00  0.00     0.055 A 
ATOM     79  C   UNL A   1      43.805  23.273  24.571  1.00  0.00     0.041 A 
ATOM     80  F   UNL A   1      44.513  25.402  25.248  1.00  0.00    -0.206 F 
ATOM     81  C   UNL A   1      43.138  22.081  24.837  1.00  0.00     0.022 A 
BRANCH  78  82
ATOM     82  S   UNL A   1      41.691  20.346  26.471  1.00  0.00     0.124 S 
ATOM     83  O   UNL A   1      42.035  19.532  25.310  1.00  0.00    -0.237 OA
ATOM     84  O   UNL A   1      42.337  19.981  27.727  1.00  0.00    -0.237 OA
ATOM     85  O   UNL A   1      40.280  20.710  26.582  1.00  0.00    -0.744 OA
ENDBRANCH  78  82
ENDBRANCH  51  75
BRANCH  63  86
ATOM     86  C   UNL A   1      48.083  26.302  31.282  1.00  0.00     0.023 A 
ATOM     87  C   UNL A   1      49.205  26.748  30.564  1.00  0.00     0.031 A 
ATOM     88  C   UNL A   1      48.291  25.450  32.383  1.00  0.00     0.131 A 
ATOM     89  C   UNL A   1      50.489  26.327  30.947  1.00  0.00     0.055 A 
ATOM     90  C   UNL A   1      49.572  25.071  32.786  1.00  0.00     0.041 A 
ATOM     91  F   UNL A   1      47.252  25.003  33.105  1.00  0.00    -0.206 F 
ATOM     92  C   UNL A   1      50.680  25.508  32.065  1.00  0.00     0.022 A 
BRANCH  89  93
ATOM     93  S   UNL A   1      51.913  26.851  29.955  1.00  0.00     0.124 S 
ATOM     94  O   UNL A   1      53.031  26.307  30.719  1.00  0.00    -0.237 OA
ATOM     95  O   UNL A   1      51.653  26.215  28.667  1.00  0.00    -0.237 OA
ATOM     96  O   UNL A   1      51.813  28.310  29.954  1.00  0.00    -0.744 OA
ENDBRANCH  89  93
ENDBRANCH  63  86
ENDBRANCH  37  38
ENDBRANCH  30  32
ENDBRANCH  29  30
ENDBRANCH  28  29
ENDBRANCH  27  28
ENDBRANCH  26  27
ENDBRANCH   1  26
TORSDOF 21
ENDMDL
MODEL 2
REMARK VINA RESULT:      -9.3      5.346      8.733
REMARK SMILES Cc1c(Cl)cc2c(c1C)O[C@@H](C(F)(F)F)C(C(=O)OCCOCCOCCOC(=O)c1ccc(-c3c4nc(c(-c5cc(S(=O)(=O)[O-])ccc5F)c5ccc([nH]5)c(-c5cc(S(=O)(=O)[O-])ccc5F)c5nc(c(-c6cc(S(=O)(=O)[O-])ccc6F)c6ccc3[nH]6)C=C5)C=C4)cc1)=C2
REMARK SMILES IDX 24 1 23 2 22 3 21 4 20 5 19 6 17 7 18 8 16 9 1 10 2 11 3 12
REMARK SMILES IDX 8 13 4 14 5 15 7 16 9 17 6 18 10 19 94 20 11 21 12 22 13 23
REMARK SMILES IDX 14 24 15 25 25 26 26 27 27 28 28 29 29 30 30 31 31 32 32 33
REMARK SMILES IDX 93 34 33 35 92 36 34 37 35 38 36 39 86 40 37 41 91 42 85 43
REMARK SMILES IDX 87 44 38 45 90 46 84 47 83 48 39 50 71 51 51 52 70 53 52 54
REMARK SMILES IDX 55 55 69 56 88 57 53 58 54 59 68 61 89 62 56 63 40 64 41 65
REMARK SMILES IDX 49 66 42 67 48 68 50 69 47 70 43 71 44 72 45 73 46 74 72 75
REMARK SMILES IDX 73 76 81 77 74 78 80 79 82 80 79 81 75 82 76 83 77 84 78 85
REMARK SMILES IDX 57 86 58 87 66 88 59 89 65 90 67 91 64 92 60 93 61 94 62 95
REMARK SMILES IDX 63 96
REMARK H PARENT 87 49 55 60
REMARK Flexibility Score: inf
ROOT
ATOM      1  C   UNL A   1      32.064  29.043  25.875  1.00  0.00     0.188 C 
ENDROOT
BRANCH   1   2
ATOM      2  C   UNL A   1      31.055  29.467  24.793  1.00  0.00     0.188 C 
BRANCH   2   3
ATOM      3  O   UNL A   1      31.360  29.255  23.418  1.00  0.00    -0.376 OA
BRANCH   3   4
ATOM      4  C   UNL A   1      30.732  28.195  22.709  1.00  0.00     0.202 C 
BRANCH   4   5
ATOM      5  C   UNL A   1      29.569  27.448  23.378  1.00  0.00     0.261 C 
BRANCH   5   6
ATOM      6  O   UNL A   1      29.774  26.030  23.537  1.00  0.00    -0.460 OA
BRANCH   6   7
ATOM      7  C   UNL A   1      30.449  25.654  24.646  1.00  0.00     0.338 C 
ATOM      8  O   UNL A   1      30.215  26.016  25.788  1.00  0.00    -0.246 OA
BRANCH   7   9
ATOM      9  C   UNL A   1      31.472  24.639  24.331  1.00  0.00     0.087 C 
ATOM     10  C   UNL A   1      35.616  19.636  24.926  1.00  0.00     0.046 C 
ATOM     11  C   UNL A   1      34.453  20.592  24.815  1.00  0.00    -0.026 A 
ATOM     12  C   UNL A   1      33.140  20.191  25.134  1.00  0.00     0.045 A 
ATOM     13  C   UNL A   1      34.673  21.932  24.401  1.00  0.00    -0.004 A 
ATOM     14  Cl  UNL A   1      32.755  18.580  25.632  1.00  0.00    -0.084 Cl
ATOM     15  C   UNL A   1      32.077  21.099  25.082  1.00  0.00     0.032 A 
ATOM     16  C   UNL A   1      33.590  22.836  24.372  1.00  0.00     0.131 A 
ATOM     17  C   UNL A   1      36.029  22.432  23.967  1.00  0.00     0.049 C 
ATOM     18  C   UNL A   1      32.301  22.424  24.717  1.00  0.00     0.019 A 
ATOM     19  O   UNL A   1      33.881  24.149  24.084  1.00  0.00    -0.475 OA
ATOM     20  C   UNL A   1      31.231  23.407  24.803  1.00  0.00     0.027 C 
ATOM     21  C   UNL A   1      32.781  25.021  23.696  1.00  0.00     0.316 C 
BRANCH  21  22
ATOM     22  C   UNL A   1      32.781  25.144  22.162  1.00  0.00     0.430 C 
ATOM     23  F   UNL A   1      31.510  25.234  21.687  1.00  0.00    -0.167 F 
ATOM     24  F   UNL A   1      33.442  26.238  21.724  1.00  0.00    -0.167 F 
ATOM     25  F   UNL A   1      33.325  24.059  21.568  1.00  0.00    -0.167 F 
ENDBRANCH  21  22
ENDBRANCH   7   9
ENDBRANCH   6   7
ENDBRANCH   5   6
ENDBRANCH   4   5
ENDBRANCH   3   4
ENDBRANCH   2   3
ENDBRANCH   1   2
BRANCH   1  26
ATOM     26  O   UNL A   1      33.186  29.896  25.982  1.00  0.00    -0.376 OA
BRANCH  26  27
ATOM     27  C   UNL A   1      33.211  30.783  27.087  1.00  0.00     0.202 C 
BRANCH  27  28
ATOM     28  C   UNL A   1      32.538  32.150  26.886  1.00  0.00     0.261 C 
BRANCH  28  29
ATOM     29  O   UNL A   1      32.530  33.024  28.026  1.00  0.00    -0.460 OA
BRANCH  29  30
ATOM     30  C   UNL A   1      33.507  33.959  28.104  1.00  0.00     0.338 C 
ATOM     31  O   UNL A   1      33.404  35.144  27.842  1.00  0.00    -0.246 OA
BRANCH  30  32
ATOM     32  C   UNL A   1      34.667  33.317  28.763  1.00  0.00     0.060 A 
ATOM     33  C   UNL A   1      35.962  33.604  28.313  1.00  0.00     0.016 A 
ATOM     34  C   UNL A   1      34.471  32.473  29.858  1.00  0.00     0.016 A 
ATOM     35  C   UNL A   1      37.067  33.049  28.967  1.00  0.00     0.010 A 
ATOM     36  C   UNL A   1      35.577  31.901  30.496  1.00  0.00     0.010 A 
ATOM     37  C   UNL A   1      36.880  32.175  30.047  1.00  0.00    -0.014 A 
BRANCH  37  38
ATOM     38  C   UNL A   1      38.033  31.434  30.618  1.00  0.00     0.031 A 
ATOM     39  C   UNL A   1      38.474  31.757  32.019  1.00  0.00     0.074 A 
ATOM     40  C   UNL A   1      38.667  30.475  29.916  1.00  0.00     0.049 A 
ATOM     41  N   UNL A   1      39.472  31.269  32.707  1.00  0.00    -0.248 NA
ATOM     42  C   UNL A   1      37.681  32.767  32.739  1.00  0.00     0.031 C 
ATOM     43  C   UNL A   1      38.305  30.037  28.569  1.00  0.00     0.029 A 
ATOM     44  N   UNL A   1      39.747  29.693  30.243  1.00  0.00    -0.354 N 
ATOM     45  C   UNL A   1      39.423  31.900  33.945  1.00  0.00     0.074 A 
ATOM     46  C   UNL A   1      38.322  32.839  33.896  1.00  0.00     0.031 C 
ATOM     47  C   UNL A   1      39.143  29.056  28.189  1.00  0.00     0.029 A 
ATOM     48  C   UNL A   1      40.125  28.821  29.248  1.00  0.00     0.049 A 
ATOM     49  H   UNL A   1      40.210  29.750  31.111  1.00  0.00     0.167 HD
ATOM     50  C   UNL A   1      40.210  31.702  35.029  1.00  0.00     0.034 A 
ATOM     51  C   UNL A   1      41.152  27.946  29.192  1.00  0.00     0.034 A 
ATOM     52  C   UNL A   1      41.310  30.774  35.067  1.00  0.00     0.049 A 
ATOM     53  C   UNL A   1      42.086  27.824  30.372  1.00  0.00     0.074 A 
ATOM     54  C   UNL A   1      42.170  30.508  36.118  1.00  0.00     0.029 A 
ATOM     55  N   UNL A   1      41.706  29.966  34.011  1.00  0.00    -0.354 N 
ATOM     56  N   UNL A   1      42.042  28.447  31.526  1.00  0.00    -0.248 NA
ATOM     57  C   UNL A   1      43.210  26.884  30.242  1.00  0.00     0.031 C 
ATOM     58  C   UNL A   1      43.127  29.590  35.677  1.00  0.00     0.029 A 
ATOM     59  C   UNL A   1      42.817  29.224  34.376  1.00  0.00     0.049 A 
ATOM     60  H   UNL A   1      41.264  29.926  33.133  1.00  0.00     0.167 HD
ATOM     61  C   UNL A   1      43.109  27.950  32.270  1.00  0.00     0.074 A 
ATOM     62  C   UNL A   1      43.784  26.979  31.434  1.00  0.00     0.031 C 
ATOM     63  C   UNL A   1      43.487  28.261  33.534  1.00  0.00     0.034 A 
BRANCH  50  64
ATOM     64  C   UNL A   1      39.926  32.525  36.257  1.00  0.00     0.023 A 
ATOM     65  C   UNL A   1      38.935  32.146  37.177  1.00  0.00     0.031 A 
ATOM     66  C   UNL A   1      40.676  33.682  36.526  1.00  0.00     0.131 A 
ATOM     67  C   UNL A   1      38.697  32.939  38.309  1.00  0.00     0.055 A 
ATOM     68  C   UNL A   1      40.477  34.431  37.686  1.00  0.00     0.041 A 
ATOM     69  F   UNL A   1      41.621  34.098  35.668  1.00  0.00    -0.206 F 
ATOM     70  C   UNL A   1      39.479  34.064  38.584  1.00  0.00     0.022 A 
BRANCH  67  71
ATOM     71  S   UNL A   1      37.297  32.520  39.384  1.00  0.00     0.124 S 
ATOM     72  O   UNL A   1      37.599  31.136  39.736  1.00  0.00    -0.237 OA
ATOM     73  O   UNL A   1      37.422  33.495  40.462  1.00  0.00    -0.237 OA
ATOM     74  O   UNL A   1      36.134  32.697  38.516  1.00  0.00    -0.744 OA
ENDBRANCH  67  71
ENDBRANCH  50  64
BRANCH  51  75
ATOM     75  C   UNL A   1      41.366  27.121  27.968  1.00  0.00     0.023 A 
ATOM     76  C   UNL A   1      41.019  25.761  27.944  1.00  0.00     0.031 A 
ATOM     77  C   UNL A   1      41.936  27.679  26.810  1.00  0.00     0.131 A 
ATOM     78  C   UNL A   1      41.263  24.998  26.790  1.00  0.00     0.055 A 
ATOM     79  C   UNL A   1      42.139  26.927  25.652  1.00  0.00     0.041 A 
ATOM     80  F   UNL A   1      42.288  28.974  26.784  1.00  0.00    -0.206 F 
ATOM     81  C   UNL A   1      41.808  25.575  25.640  1.00  0.00     0.022 A 
BRANCH  78  82
ATOM     82  S   UNL A   1      40.894  23.223  26.824  1.00  0.00     0.124 S 
ATOM     83  O   UNL A   1      41.251  22.872  28.195  1.00  0.00    -0.237 OA
ATOM     84  O   UNL A   1      39.471  23.201  26.506  1.00  0.00    -0.237 OA
ATOM     85  O   UNL A   1      41.769  22.673  25.791  1.00  0.00    -0.744 OA
ENDBRANCH  78  82
ENDBRANCH  51  75
BRANCH  63  86
ATOM     86  C   UNL A   1      44.660  27.524  34.128  1.00  0.00     0.023 A 
ATOM     87  C   UNL A   1      44.517  26.248  34.699  1.00  0.00     0.031 A 
ATOM     88  C   UNL A   1      45.952  28.074  34.040  1.00  0.00     0.131 A 
ATOM     89  C   UNL A   1      45.650  25.568  35.174  1.00  0.00     0.055 A 
ATOM     90  C   UNL A   1      47.079  27.375  34.473  1.00  0.00     0.041 A 
ATOM     91  F   UNL A   1      46.141  29.286  33.497  1.00  0.00    -0.206 F 
ATOM     92  C   UNL A   1      46.931  26.115  35.047  1.00  0.00     0.022 A 
BRANCH  89  93
ATOM     93  S   UNL A   1      45.430  23.958  35.980  1.00  0.00     0.124 S 
ATOM     94  O   UNL A   1      46.041  24.186  37.284  1.00  0.00    -0.237 OA
ATOM     95  O   UNL A   1      43.979  23.798  35.975  1.00  0.00    -0.237 OA
ATOM     96  O   UNL A   1      46.155  23.036  35.107  1.00  0.00    -0.744 OA
ENDBRANCH  89  93
ENDBRANCH  63  86
ENDBRANCH  37  38
ENDBRANCH  30  32
ENDBRANCH  29  30
ENDBRANCH  28  29
ENDBRANCH  27  28
ENDBRANCH  26  27
ENDBRANCH   1  26
TORSDOF 21
ENDMDL
MODEL 3
REMARK VINA RESULT:      -9.2      1.761      2.087
REMARK SMILES Cc1c(Cl)cc2c(c1C)O[C@@H](C(F)(F)F)C(C(=O)OCCOCCOCCOC(=O)c1ccc(-c3c4nc(c(-c5cc(S(=O)(=O)[O-])ccc5F)c5ccc([nH]5)c(-c5cc(S(=O)(=O)[O-])ccc5F)c5nc(c(-c6cc(S(=O)(=O)[O-])ccc6F)c6ccc3[nH]6)C=C5)C=C4)cc1)=C2
REMARK SMILES IDX 24 1 23 2 22 3 21 4 20 5 19 6 17 7 18 8 16 9 1 10 2 11 3 12
REMARK SMILES IDX 8 13 4 14 5 15 7 16 9 17 6 18 10 19 94 20 11 21 12 22 13 23
REMARK SMILES IDX 14 24 15 25 25 26 26 27 27 28 28 29 29 30 30 31 31 32 32 33
REMARK SMILES IDX 93 34 33 35 92 36 34 37 35 38 36 39 86 40 37 41 91 42 85 43
REMARK SMILES IDX 87 44 38 45 90 46 84 47 83 48 39 50 71 51 51 52 70 53 52 54
REMARK SMILES IDX 55 55 69 56 88 57 53 58 54 59 68 61 89 62 56 63 40 64 41 65
REMARK SMILES IDX 49 66 42 67 48 68 50 69 47 70 43 71 44 72 45 73 46 74 72 75
REMARK SMILES IDX 73 76 81 77 74 78 80 79 82 80 79 81 75 82 76 83 77 84 78 85
REMARK SMILES IDX 57 86 58 87 66 88 59 89 65 90 67 91 64 92 60 93 61 94 62 95
REMARK SMILES IDX 63 96
REMARK H PARENT 87 49 55 60
REMARK Flexibility Score: inf
ROOT
ATOM      1  C   UNL A   1      33.219  35.972  28.398  1.00  0.00     0.188 C 
ENDROOT
BRANCH   1   2
ATOM      2  C   UNL A   1      33.619  37.198  29.237  1.00  0.00     0.188 C 
BRANCH   2   3
ATOM      3  O   UNL A   1      32.894  37.513  30.422  1.00  0.00    -0.376 OA
BRANCH   3   4
ATOM      4  C   UNL A   1      33.418  37.147  31.691  1.00  0.00     0.202 C 
BRANCH   4   5
ATOM      5  C   UNL A   1      33.218  35.705  32.183  1.00  0.00     0.261 C 
BRANCH   5   6
ATOM      6  O   UNL A   1      34.401  34.884  32.143  1.00  0.00    -0.460 OA
BRANCH   6   7
ATOM      7  C   UNL A   1      34.494  33.939  33.106  1.00  0.00     0.338 C 
ATOM      8  O   UNL A   1      33.618  33.153  33.428  1.00  0.00    -0.246 OA
BRANCH   7   9
ATOM      9  C   UNL A   1      35.855  33.886  33.674  1.00  0.00     0.087 C 
ATOM     10  C   UNL A   1      40.890  34.639  37.753  1.00  0.00     0.046 C 
ATOM     11  C   UNL A   1      39.624  34.285  37.011  1.00  0.00    -0.026 A 
ATOM     12  C   UNL A   1      38.570  33.595  37.643  1.00  0.00     0.045 A 
ATOM     13  C   UNL A   1      39.469  34.664  35.651  1.00  0.00    -0.004 A 
ATOM     14  Cl  UNL A   1      38.659  33.069  39.288  1.00  0.00    -0.084 Cl
ATOM     15  C   UNL A   1      37.379  33.319  36.963  1.00  0.00     0.032 A 
ATOM     16  C   UNL A   1      38.253  34.393  34.989  1.00  0.00     0.131 A 
ATOM     17  C   UNL A   1      40.570  35.337  34.869  1.00  0.00     0.049 C 
ATOM     18  C   UNL A   1      37.211  33.731  35.643  1.00  0.00     0.019 A 
ATOM     19  O   UNL A   1      38.110  34.892  33.716  1.00  0.00    -0.475 OA
ATOM     20  C   UNL A   1      35.925  33.580  34.978  1.00  0.00     0.027 C 
ATOM     21  C   UNL A   1      37.050  34.342  32.883  1.00  0.00     0.316 C 
BRANCH  21  22
ATOM     22  C   UNL A   1      37.671  33.302  31.933  1.00  0.00     0.430 C 
ATOM     23  F   UNL A   1      37.230  33.489  30.661  1.00  0.00    -0.167 F 
ATOM     24  F   UNL A   1      39.020  33.368  31.895  1.00  0.00    -0.167 F 
ATOM     25  F   UNL A   1      37.321  32.040  32.267  1.00  0.00    -0.167 F 
ENDBRANCH  21  22
ENDBRANCH   7   9
ENDBRANCH   6   7
ENDBRANCH   5   6
ENDBRANCH   4   5
ENDBRANCH   3   4
ENDBRANCH   2   3
ENDBRANCH   1   2
BRANCH   1  26
ATOM     26  O   UNL A   1      33.962  34.806  28.689  1.00  0.00    -0.376 OA
BRANCH  26  27
ATOM     27  C   UNL A   1      33.574  33.617  28.024  1.00  0.00     0.202 C 
BRANCH  27  28
ATOM     28  C   UNL A   1      34.678  32.580  27.769  1.00  0.00     0.261 C 
BRANCH  28  29
ATOM     29  O   UNL A   1      34.827  31.556  28.767  1.00  0.00    -0.460 OA
BRANCH  29  30
ATOM     30  C   UNL A   1      35.010  30.285  28.335  1.00  0.00     0.338 C 
ATOM     31  O   UNL A   1      34.237  29.626  27.663  1.00  0.00    -0.246 OA
BRANCH  30  32
ATOM     32  C   UNL A   1      36.407  29.918  28.657  1.00  0.00     0.060 A 
ATOM     33  C   UNL A   1      37.430  30.235  27.753  1.00  0.00     0.016 A 
ATOM     34  C   UNL A   1      36.708  29.306  29.876  1.00  0.00     0.016 A 
ATOM     35  C   UNL A   1      38.760  29.945  28.074  1.00  0.00     0.010 A 
ATOM     36  C   UNL A   1      38.036  28.997  30.185  1.00  0.00     0.010 A 
ATOM     37  C   UNL A   1      39.069  29.303  29.281  1.00  0.00    -0.014 A 
BRANCH  37  38
ATOM     38  C   UNL A   1      40.449  28.820  29.540  1.00  0.00     0.031 A 
ATOM     39  C   UNL A   1      41.257  29.492  30.615  1.00  0.00     0.074 A 
ATOM     40  C   UNL A   1      40.971  27.789  28.849  1.00  0.00     0.049 A 
ATOM     41  N   UNL A   1      42.489  29.266  30.989  1.00  0.00    -0.248 NA
ATOM     42  C   UNL A   1      40.583  30.562  31.369  1.00  0.00     0.031 C 
ATOM     43  C   UNL A   1      40.272  27.025  27.816  1.00  0.00     0.029 A 
ATOM     44  N   UNL A   1      42.212  27.203  28.916  1.00  0.00    -0.354 N 
ATOM     45  C   UNL A   1      42.737  30.155  32.029  1.00  0.00     0.074 A 
ATOM     46  C   UNL A   1      41.542  30.954  32.197  1.00  0.00     0.031 C 
ATOM     47  C   UNL A   1      41.093  26.064  27.354  1.00  0.00     0.029 A 
ATOM     48  C   UNL A   1      42.388  26.167  28.028  1.00  0.00     0.049 A 
ATOM     49  H   UNL A   1      42.913  27.499  29.542  1.00  0.00     0.167 HD
ATOM     50  C   UNL A   1      43.852  30.281  32.788  1.00  0.00     0.034 A 
ATOM     51  C   UNL A   1      43.470  25.400  27.779  1.00  0.00     0.034 A 
ATOM     52  C   UNL A   1      45.042  29.491  32.609  1.00  0.00     0.049 A 
ATOM     53  C   UNL A   1      44.741  25.635  28.561  1.00  0.00     0.074 A 
ATOM     54  C   UNL A   1      46.225  29.551  33.324  1.00  0.00     0.029 A 
ATOM     55  N   UNL A   1      45.204  28.505  31.647  1.00  0.00    -0.354 N 
ATOM     56  N   UNL A   1      44.968  26.498  29.523  1.00  0.00    -0.248 NA
ATOM     57  C   UNL A   1      45.901  24.797  28.221  1.00  0.00     0.031 C 
ATOM     58  C   UNL A   1      47.126  28.649  32.752  1.00  0.00     0.029 A 
ATOM     59  C   UNL A   1      46.479  27.970  31.732  1.00  0.00     0.049 A 
ATOM     60  H   UNL A   1      44.517  28.225  31.001  1.00  0.00     0.167 HD
ATOM     61  C   UNL A   1      46.284  26.282  29.926  1.00  0.00     0.074 A 
ATOM     62  C   UNL A   1      46.804  25.213  29.100  1.00  0.00     0.031 C 
ATOM     63  C   UNL A   1      46.991  26.907  30.900  1.00  0.00     0.034 A 
BRANCH  50  64
ATOM     64  C   UNL A   1      43.847  31.332  33.866  1.00  0.00     0.023 A 
ATOM     65  C   UNL A   1      44.322  32.631  33.622  1.00  0.00     0.031 A 
ATOM     66  C   UNL A   1      43.334  31.040  35.140  1.00  0.00     0.131 A 
ATOM     67  C   UNL A   1      44.305  33.583  34.651  1.00  0.00     0.055 A 
ATOM     68  C   UNL A   1      43.262  32.010  36.141  1.00  0.00     0.041 A 
ATOM     69  F   UNL A   1      42.886  29.808  35.431  1.00  0.00    -0.206 F 
ATOM     70  C   UNL A   1      43.754  33.289  35.901  1.00  0.00     0.022 A 
BRANCH  67  71
ATOM     71  S   UNL A   1      45.084  35.195  34.357  1.00  0.00     0.124 S 
ATOM     72  O   UNL A   1      44.319  35.687  33.215  1.00  0.00    -0.237 OA
ATOM     73  O   UNL A   1      44.864  35.889  35.620  1.00  0.00    -0.237 OA
ATOM     74  O   UNL A   1      46.475  34.855  34.068  1.00  0.00    -0.744 OA
ENDBRANCH  67  71
ENDBRANCH  50  64
BRANCH  51  75
ATOM     75  C   UNL A   1      43.412  24.341  26.730  1.00  0.00     0.023 A 
ATOM     76  C   UNL A   1      42.764  23.119  26.971  1.00  0.00     0.031 A 
ATOM     77  C   UNL A   1      44.018  24.532  25.476  1.00  0.00     0.131 A 
ATOM     78  C   UNL A   1      42.754  22.126  25.979  1.00  0.00     0.055 A 
ATOM     79  C   UNL A   1      43.970  23.557  24.478  1.00  0.00     0.041 A 
ATOM     80  F   UNL A   1      44.653  25.682  25.197  1.00  0.00    -0.206 F 
ATOM     81  C   UNL A   1      43.341  22.342  24.729  1.00  0.00     0.022 A 
BRANCH  78  82
ATOM     82  S   UNL A   1      41.994  20.523  26.357  1.00  0.00     0.124 S 
ATOM     83  O   UNL A   1      42.411  20.316  27.740  1.00  0.00    -0.237 OA
ATOM     84  O   UNL A   1      40.578  20.801  26.148  1.00  0.00    -0.237 OA
ATOM     85  O   UNL A   1      42.600  19.621  25.380  1.00  0.00    -0.744 OA
ENDBRANCH  78  82
ENDBRANCH  51  75
BRANCH  63  86
ATOM     86  C   UNL A   1      48.397  26.434  31.172  1.00  0.00     0.023 A 
ATOM     87  C   UNL A   1      48.678  25.496  32.179  1.00  0.00     0.031 A 
ATOM     88  C   UNL A   1      49.454  26.866  30.350  1.00  0.00     0.131 A 
ATOM     89  C   UNL A   1      49.992  25.030  32.349  1.00  0.00     0.055 A 
ATOM     90  C   UNL A   1      50.748  26.366  30.494  1.00  0.00     0.041 A 
ATOM     91  F   UNL A   1      49.234  27.756  29.369  1.00  0.00    -0.206 F 
ATOM     92  C   UNL A   1      51.023  25.444  31.500  1.00  0.00     0.022 A 
BRANCH  89  93
ATOM     93  S   UNL A   1      50.344  23.881  33.707  1.00  0.00     0.124 S 
ATOM     94  O   UNL A   1      51.659  24.331  34.150  1.00  0.00    -0.237 OA
ATOM     95  O   UNL A   1      49.241  24.133  34.629  1.00  0.00    -0.237 OA
ATOM     96  O   UNL A   1      50.321  22.569  33.062  1.00  0.00    -0.744 OA
ENDBRANCH  89  93
ENDBRANCH  63  86
ENDBRANCH  37  38
ENDBRANCH  30  32
ENDBRANCH  29  30
ENDBRANCH  28  29
ENDBRANCH  27  28
ENDBRANCH  26  27
ENDBRANCH   1  26
TORSDOF 21
ENDMDL
