MODEL 1
REMARK VINA RESULT:     -10.1      0.000      0.000
REMARK SMILES N#CCc1nc(-c2ccccc2)c(CC(=O)OCCOCCOCCOC(=O)c2ccc(-c3c4nc(c(-c5cc(S(=O)(=O)[O-])ccc5F)c5ccc([nH]5)c(-c5cc(S(=O)(=O)[O-])ccc5F)c5nc(c(-c6cc(S(=O)(=O)[O-])ccc6F)c6ccc3[nH]6)C=C5)C=C4)cc2)s1
REMARK SMILES IDX 21 1 20 2 19 3 18 4 17 5 15 6 16 7 14 8 13 9 4 10 5 11 92 12
REMARK SMILES IDX 6 13 3 14 2 15 1 16 7 17 8 18 12 19 9 20 11 21 10 22 22 23
REMARK SMILES IDX 23 24 24 25 25 26 26 27 27 28 28 29 29 30 30 31 91 32 31 33
REMARK SMILES IDX 90 34 32 35 33 36 34 37 84 38 35 39 89 40 83 41 85 42 36 43
REMARK SMILES IDX 88 44 82 45 81 46 37 48 69 49 49 50 68 51 50 52 53 53 67 54
REMARK SMILES IDX 86 55 51 56 52 57 66 59 87 60 54 61 38 62 39 63 47 64 40 65
REMARK SMILES IDX 46 66 48 67 45 68 41 69 42 70 43 71 44 72 70 73 71 74 79 75
REMARK SMILES IDX 72 76 78 77 80 78 77 79 73 80 74 81 75 82 76 83 55 84 56 85
REMARK SMILES IDX 64 86 57 87 63 88 65 89 62 90 58 91 59 92 60 93 61 94
REMARK H PARENT 85 47 53 58
REMARK Flexibility Score: inf
ROOT
ATOM      1  C   UNL A   1      32.203  27.374  24.577  1.00  0.00     0.188 C 
ENDROOT
BRANCH   1   2
ATOM      2  O   UNL A   1      32.341  27.062  23.191  1.00  0.00    -0.376 OA
BRANCH   2   3
ATOM      3  C   UNL A   1      31.798  25.833  22.714  1.00  0.00     0.202 C 
BRANCH   3   4
ATOM      4  C   UNL A   1      31.657  24.731  23.769  1.00  0.00     0.261 C 
BRANCH   4   5
ATOM      5  O   UNL A   1      32.760  23.801  23.733  1.00  0.00    -0.463 OA
BRANCH   5   6
ATOM      6  C   UNL A   1      32.543  22.620  23.098  1.00  0.00     0.311 C 
ATOM      7  O   UNL A   1      32.854  22.415  21.929  1.00  0.00    -0.252 OA
BRANCH   6   8
ATOM      8  C   UNL A   1      32.077  21.508  24.028  1.00  0.00     0.171 C 
BRANCH   8   9
ATOM      9  C   UNL A   1      33.007  20.329  24.201  1.00  0.00     0.044 A 
ATOM     10  C   UNL A   1      33.961  18.055  24.292  1.00  0.00     0.108 A 
ATOM     11  N   UNL A   1      34.891  18.957  24.569  1.00  0.00    -0.240 NA
ATOM     12  S   UNL A   1      32.382  18.725  24.131  1.00  0.00    -0.121 S 
ATOM     13  C   UNL A   1      34.334  20.245  24.603  1.00  0.00     0.085 A 
BRANCH  10  14
ATOM     14  C   UNL A   1      34.152  16.543  24.171  1.00  0.00     0.187 C 
BRANCH  14  15
ATOM     15  C   UNL A   1      35.274  16.103  25.097  1.00  0.00     0.069 C 
ATOM     16  N   UNL A   1      36.204  15.738  25.866  1.00  0.00    -0.198 NA
ENDBRANCH  14  15
ENDBRANCH  10  14
BRANCH  13  17
ATOM     17  C   UNL A   1      35.078  21.416  25.055  1.00  0.00     0.001 A 
ATOM     18  C   UNL A   1      36.123  21.927  24.263  1.00  0.00     0.010 A 
ATOM     19  C   UNL A   1      34.815  22.014  26.289  1.00  0.00     0.010 A 
ATOM     20  C   UNL A   1      36.940  22.957  24.729  1.00  0.00     0.001 A 
ATOM     21  C   UNL A   1      35.625  23.059  26.749  1.00  0.00     0.001 A 
ATOM     22  C   UNL A   1      36.697  23.517  25.979  1.00  0.00     0.000 A 
ENDBRANCH  13  17
ENDBRANCH   8   9
ENDBRANCH   6   8
ENDBRANCH   5   6
ENDBRANCH   4   5
ENDBRANCH   3   4
ENDBRANCH   2   3
ENDBRANCH   1   2
BRANCH   1  23
ATOM     23  C   UNL A   1      31.290  28.535  24.958  1.00  0.00     0.188 C 
BRANCH  23  24
ATOM     24  O   UNL A   1      31.822  29.240  26.070  1.00  0.00    -0.376 OA
BRANCH  24  25
ATOM     25  C   UNL A   1      31.651  30.641  25.963  1.00  0.00     0.202 C 
BRANCH  25  26
ATOM     26  C   UNL A   1      32.662  31.328  26.880  1.00  0.00     0.261 C 
BRANCH  26  27
ATOM     27  O   UNL A   1      32.567  32.771  26.875  1.00  0.00    -0.460 OA
BRANCH  27  28
ATOM     28  C   UNL A   1      33.204  33.417  27.870  1.00  0.00     0.338 C 
ATOM     29  O   UNL A   1      32.762  34.328  28.565  1.00  0.00    -0.246 OA
BRANCH  28  30
ATOM     30  C   UNL A   1      34.472  32.740  28.183  1.00  0.00     0.060 A 
ATOM     31  C   UNL A   1      34.408  31.485  28.803  1.00  0.00     0.016 A 
ATOM     32  C   UNL A   1      35.705  33.350  27.952  1.00  0.00     0.016 A 
ATOM     33  C   UNL A   1      35.563  30.854  29.244  1.00  0.00     0.010 A 
ATOM     34  C   UNL A   1      36.867  32.730  28.420  1.00  0.00     0.010 A 
ATOM     35  C   UNL A   1      36.792  31.504  29.109  1.00  0.00    -0.014 A 
BRANCH  35  36
ATOM     36  C   UNL A   1      37.939  31.026  29.915  1.00  0.00     0.031 A 
ATOM     37  C   UNL A   1      38.856  30.006  29.300  1.00  0.00     0.074 A 
ATOM     38  C   UNL A   1      38.189  31.525  31.136  1.00  0.00     0.049 A 
ATOM     39  N   UNL A   1      39.894  29.399  29.812  1.00  0.00    -0.248 NA
ATOM     40  C   UNL A   1      38.550  29.616  27.915  1.00  0.00     0.031 C 
ATOM     41  C   UNL A   1      37.399  32.557  31.804  1.00  0.00     0.029 A 
ATOM     42  N   UNL A   1      39.178  31.218  32.035  1.00  0.00    -0.354 N 
ATOM     43  C   UNL A   1      40.355  28.541  28.818  1.00  0.00     0.074 A 
ATOM     44  C   UNL A   1      39.457  28.681  27.692  1.00  0.00     0.031 C 
ATOM     45  C   UNL A   1      37.921  32.780  33.023  1.00  0.00     0.029 A 
ATOM     46  C   UNL A   1      39.054  31.881  33.232  1.00  0.00     0.049 A 
ATOM     47  H   UNL A   1      39.905  30.583  31.842  1.00  0.00     0.167 HD
ATOM     48  C   UNL A   1      41.433  27.718  28.842  1.00  0.00     0.034 A 
ATOM     49  C   UNL A   1      39.756  31.747  34.375  1.00  0.00     0.034 A 
ATOM     50  C   UNL A   1      42.302  27.583  29.986  1.00  0.00     0.049 A 
ATOM     51  C   UNL A   1      40.909  30.775  34.413  1.00  0.00     0.074 A 
ATOM     52  C   UNL A   1      43.425  26.788  30.130  1.00  0.00     0.029 A 
ATOM     53  N   UNL A   1      42.133  28.251  31.194  1.00  0.00    -0.354 N 
ATOM     54  N   UNL A   1      41.344  29.969  33.470  1.00  0.00    -0.248 NA
ATOM     55  C   UNL A   1      41.675  30.708  35.663  1.00  0.00     0.031 C 
ATOM     56  C   UNL A   1      43.888  26.918  31.445  1.00  0.00     0.029 A 
ATOM     57  C   UNL A   1      43.109  27.861  32.098  1.00  0.00     0.049 A 
ATOM     58  H   UNL A   1      41.422  28.906  31.380  1.00  0.00     0.167 HD
ATOM     59  C   UNL A   1      42.450  29.314  34.008  1.00  0.00     0.074 A 
ATOM     60  C   UNL A   1      42.622  29.836  35.350  1.00  0.00     0.031 C 
ATOM     61  C   UNL A   1      43.255  28.375  33.444  1.00  0.00     0.034 A 
BRANCH  48  62
ATOM     62  C   UNL A   1      41.666  26.859  27.620  1.00  0.00     0.023 A 
ATOM     63  C   UNL A   1      41.279  25.507  27.577  1.00  0.00     0.031 A 
ATOM     64  C   UNL A   1      42.368  27.374  26.516  1.00  0.00     0.131 A 
ATOM     65  C   UNL A   1      41.688  24.693  26.509  1.00  0.00     0.055 A 
ATOM     66  C   UNL A   1      42.688  26.582  25.411  1.00  0.00     0.041 A 
ATOM     67  F   UNL A   1      42.787  28.648  26.505  1.00  0.00    -0.206 F 
ATOM     68  C   UNL A   1      42.367  25.227  25.412  1.00  0.00     0.022 A 
BRANCH  65  69
ATOM     69  S   UNL A   1      41.493  22.895  26.667  1.00  0.00     0.124 S 
ATOM     70  O   UNL A   1      41.910  22.673  28.051  1.00  0.00    -0.237 OA
ATOM     71  O   UNL A   1      40.074  22.707  26.391  1.00  0.00    -0.237 OA
ATOM     72  O   UNL A   1      42.405  22.361  25.658  1.00  0.00    -0.744 OA
ENDBRANCH  65  69
ENDBRANCH  48  62
BRANCH  49  73
ATOM     73  C   UNL A   1      39.350  32.513  35.586  1.00  0.00     0.023 A 
ATOM     74  C   UNL A   1      39.783  33.829  35.806  1.00  0.00     0.031 A 
ATOM     75  C   UNL A   1      38.518  31.920  36.555  1.00  0.00     0.131 A 
ATOM     76  C   UNL A   1      39.403  34.501  36.979  1.00  0.00     0.055 A 
ATOM     77  C   UNL A   1      38.107  32.608  37.697  1.00  0.00     0.041 A 
ATOM     78  F   UNL A   1      38.076  30.663  36.390  1.00  0.00    -0.206 F 
ATOM     79  C   UNL A   1      38.557  33.905  37.918  1.00  0.00     0.022 A 
BRANCH  76  80
ATOM     80  S   UNL A   1      40.068  36.161  37.286  1.00  0.00     0.124 S 
ATOM     81  O   UNL A   1      39.933  36.783  35.974  1.00  0.00    -0.237 OA
ATOM     82  O   UNL A   1      39.174  36.658  38.326  1.00  0.00    -0.237 OA
ATOM     83  O   UNL A   1      41.440  35.904  37.719  1.00  0.00    -0.744 OA
ENDBRANCH  76  80
ENDBRANCH  49  73
BRANCH  61  84
ATOM     84  C   UNL A   1      44.422  27.885  34.270  1.00  0.00     0.023 A 
ATOM     85  C   UNL A   1      44.294  26.822  35.180  1.00  0.00     0.031 A 
ATOM     86  C   UNL A   1      45.678  28.507  34.155  1.00  0.00     0.131 A 
ATOM     87  C   UNL A   1      45.383  26.455  35.984  1.00  0.00     0.055 A 
ATOM     88  C   UNL A   1      46.777  28.093  34.909  1.00  0.00     0.041 A 
ATOM     89  F   UNL A   1      45.860  29.531  33.305  1.00  0.00    -0.206 F 
ATOM     90  C   UNL A   1      46.629  27.072  35.842  1.00  0.00     0.022 A 
BRANCH  87  91
ATOM     91  S   UNL A   1      45.122  25.236  37.303  1.00  0.00     0.124 S 
ATOM     92  O   UNL A   1      44.266  24.256  36.644  1.00  0.00    -0.237 OA
ATOM     93  O   UNL A   1      46.484  24.800  37.598  1.00  0.00    -0.237 OA
ATOM     94  O   UNL A   1      44.476  26.009  38.362  1.00  0.00    -0.744 OA
ENDBRANCH  87  91
ENDBRANCH  61  84
ENDBRANCH  35  36
ENDBRANCH  28  30
ENDBRANCH  27  28
ENDBRANCH  26  27
ENDBRANCH  25  26
ENDBRANCH  24  25
ENDBRANCH  23  24
ENDBRANCH   1  23
TORSDOF 24
ENDMDL
MODEL 2
REMARK VINA RESULT:      -9.6      1.903      2.899
REMARK SMILES N#CCc1nc(-c2ccccc2)c(CC(=O)OCCOCCOCCOC(=O)c2ccc(-c3c4nc(c(-c5cc(S(=O)(=O)[O-])ccc5F)c5ccc([nH]5)c(-c5cc(S(=O)(=O)[O-])ccc5F)c5nc(c(-c6cc(S(=O)(=O)[O-])ccc6F)c6ccc3[nH]6)C=C5)C=C4)cc2)s1
REMARK SMILES IDX 21 1 20 2 19 3 18 4 17 5 15 6 16 7 14 8 13 9 4 10 5 11 92 12
REMARK SMILES IDX 6 13 3 14 2 15 1 16 7 17 8 18 12 19 9 20 11 21 10 22 22 23
REMARK SMILES IDX 23 24 24 25 25 26 26 27 27 28 28 29 29 30 30 31 91 32 31 33
REMARK SMILES IDX 90 34 32 35 33 36 34 37 84 38 35 39 89 40 83 41 85 42 36 43
REMARK SMILES IDX 88 44 82 45 81 46 37 48 69 49 49 50 68 51 50 52 53 53 67 54
REMARK SMILES IDX 86 55 51 56 52 57 66 59 87 60 54 61 38 62 39 63 47 64 40 65
REMARK SMILES IDX 46 66 48 67 45 68 41 69 42 70 43 71 44 72 70 73 71 74 79 75
REMARK SMILES IDX 72 76 78 77 80 78 77 79 73 80 74 81 75 82 76 83 55 84 56 85
REMARK SMILES IDX 64 86 57 87 63 88 65 89 62 90 58 91 59 92 60 93 61 94
REMARK H PARENT 85 47 53 58
REMARK Flexibility Score: inf
ROOT
ATOM      1  C   UNL A   1      32.464  28.280  26.021  1.00  0.00     0.188 C 
ENDROOT
BRANCH   1   2
ATOM      2  O   UNL A   1      31.417  28.070  26.968  1.00  0.00    -0.376 OA
BRANCH   2   3
ATOM      3  C   UNL A   1      31.022  26.730  27.258  1.00  0.00     0.202 C 
BRANCH   3   4
ATOM      4  C   UNL A   1      31.526  25.675  26.268  1.00  0.00     0.261 C 
BRANCH   4   5
ATOM      5  O   UNL A   1      32.185  24.577  26.934  1.00  0.00    -0.463 OA
BRANCH   5   6
ATOM      6  C   UNL A   1      31.612  23.353  26.808  1.00  0.00     0.311 C 
ATOM      7  O   UNL A   1      30.637  22.993  27.461  1.00  0.00    -0.252 OA
BRANCH   6   8
ATOM      8  C   UNL A   1      32.152  22.549  25.633  1.00  0.00     0.171 C 
BRANCH   8   9
ATOM      9  C   UNL A   1      32.688  23.334  24.458  1.00  0.00     0.044 A 
ATOM     10  C   UNL A   1      32.892  24.765  22.457  1.00  0.00     0.108 A 
ATOM     11  N   UNL A   1      34.090  24.380  22.875  1.00  0.00    -0.240 NA
ATOM     12  S   UNL A   1      31.597  24.022  23.315  1.00  0.00    -0.121 S 
ATOM     13  C   UNL A   1      33.974  23.498  23.961  1.00  0.00     0.085 A 
BRANCH  10  14
ATOM     14  C   UNL A   1      32.582  25.712  21.299  1.00  0.00     0.187 C 
BRANCH  14  15
ATOM     15  C   UNL A   1      32.340  27.110  21.845  1.00  0.00     0.069 C 
ATOM     16  N   UNL A   1      32.140  28.270  22.298  1.00  0.00    -0.198 NA
ENDBRANCH  14  15
ENDBRANCH  10  14
BRANCH  13  17
ATOM     17  C   UNL A   1      35.113  22.776  24.517  1.00  0.00     0.001 A 
ATOM     18  C   UNL A   1      36.251  23.487  24.941  1.00  0.00     0.010 A 
ATOM     19  C   UNL A   1      35.126  21.381  24.588  1.00  0.00     0.010 A 
ATOM     20  C   UNL A   1      37.406  22.819  25.348  1.00  0.00     0.001 A 
ATOM     21  C   UNL A   1      36.280  20.711  25.013  1.00  0.00     0.001 A 
ATOM     22  C   UNL A   1      37.423  21.428  25.374  1.00  0.00     0.000 A 
ENDBRANCH  13  17
ENDBRANCH   8   9
ENDBRANCH   6   8
ENDBRANCH   5   6
ENDBRANCH   4   5
ENDBRANCH   3   4
ENDBRANCH   2   3
ENDBRANCH   1   2
BRANCH   1  23
ATOM     23  C   UNL A   1      32.889  29.716  25.736  1.00  0.00     0.188 C 
BRANCH  23  24
ATOM     24  O   UNL A   1      32.692  30.529  26.883  1.00  0.00    -0.376 OA
BRANCH  24  25
ATOM     25  C   UNL A   1      31.662  31.484  26.708  1.00  0.00     0.202 C 
BRANCH  25  26
ATOM     26  C   UNL A   1      32.285  32.878  26.689  1.00  0.00     0.261 C 
BRANCH  26  27
ATOM     27  O   UNL A   1      32.252  33.550  27.969  1.00  0.00    -0.460 OA
BRANCH  27  28
ATOM     28  C   UNL A   1      33.310  34.328  28.266  1.00  0.00     0.338 C 
ATOM     29  O   UNL A   1      33.313  35.544  28.430  1.00  0.00    -0.246 OA
BRANCH  28  30
ATOM     30  C   UNL A   1      34.478  33.493  28.589  1.00  0.00     0.060 A 
ATOM     31  C   UNL A   1      34.277  32.382  29.418  1.00  0.00     0.016 A 
ATOM     32  C   UNL A   1      35.761  33.829  28.159  1.00  0.00     0.016 A 
ATOM     33  C   UNL A   1      35.355  31.631  29.869  1.00  0.00     0.010 A 
ATOM     34  C   UNL A   1      36.850  33.093  28.633  1.00  0.00     0.010 A 
ATOM     35  C   UNL A   1      36.652  32.023  29.526  1.00  0.00    -0.014 A 
BRANCH  35  36
ATOM     36  C   UNL A   1      37.785  31.479  30.309  1.00  0.00     0.031 A 
ATOM     37  C   UNL A   1      38.642  30.423  29.669  1.00  0.00     0.074 A 
ATOM     38  C   UNL A   1      38.079  31.952  31.531  1.00  0.00     0.049 A 
ATOM     39  N   UNL A   1      39.656  29.759  30.158  1.00  0.00    -0.248 NA
ATOM     40  C   UNL A   1      38.296  30.064  28.285  1.00  0.00     0.031 C 
ATOM     41  C   UNL A   1      37.351  33.014  32.223  1.00  0.00     0.029 A 
ATOM     42  N   UNL A   1      39.065  31.586  32.411  1.00  0.00    -0.354 N 
ATOM     43  C   UNL A   1      40.059  28.891  29.147  1.00  0.00     0.074 A 
ATOM     44  C   UNL A   1      39.152  29.088  28.037  1.00  0.00     0.031 C 
ATOM     45  C   UNL A   1      37.902  33.197  33.435  1.00  0.00     0.029 A 
ATOM     46  C   UNL A   1      38.993  32.241  33.617  1.00  0.00     0.049 A 
ATOM     47  H   UNL A   1      39.757  30.918  32.199  1.00  0.00     0.167 HD
ATOM     48  C   UNL A   1      41.095  28.015  29.146  1.00  0.00     0.034 A 
ATOM     49  C   UNL A   1      39.704  32.059  34.747  1.00  0.00     0.034 A 
ATOM     50  C   UNL A   1      41.974  27.824  30.275  1.00  0.00     0.049 A 
ATOM     51  C   UNL A   1      40.808  31.031  34.757  1.00  0.00     0.074 A 
ATOM     52  C   UNL A   1      43.058  26.974  30.392  1.00  0.00     0.029 A 
ATOM     53  N   UNL A   1      41.857  28.487  31.492  1.00  0.00    -0.354 N 
ATOM     54  N   UNL A   1      41.188  30.216  33.799  1.00  0.00    -0.248 NA
ATOM     55  C   UNL A   1      41.589  30.912  35.993  1.00  0.00     0.031 C 
ATOM     56  C   UNL A   1      43.547  27.066  31.701  1.00  0.00     0.029 A 
ATOM     57  C   UNL A   1      42.826  28.039  32.376  1.00  0.00     0.049 A 
ATOM     58  H   UNL A   1      41.182  29.174  31.696  1.00  0.00     0.167 HD
ATOM     59  C   UNL A   1      42.269  29.501  34.311  1.00  0.00     0.074 A 
ATOM     60  C   UNL A   1      42.487  29.998  35.656  1.00  0.00     0.031 C 
ATOM     61  C   UNL A   1      43.018  28.530  33.725  1.00  0.00     0.034 A 
BRANCH  48  62
ATOM     62  C   UNL A   1      41.266  27.160  27.911  1.00  0.00     0.023 A 
ATOM     63  C   UNL A   1      41.013  25.776  27.924  1.00  0.00     0.031 A 
ATOM     64  C   UNL A   1      41.779  27.719  26.728  1.00  0.00     0.131 A 
ATOM     65  C   UNL A   1      41.371  24.986  26.821  1.00  0.00     0.055 A 
ATOM     66  C   UNL A   1      42.044  26.942  25.598  1.00  0.00     0.041 A 
ATOM     67  F   UNL A   1      42.067  29.028  26.658  1.00  0.00    -0.206 F 
ATOM     68  C   UNL A   1      41.861  25.563  25.648  1.00  0.00     0.022 A 
BRANCH  65  69
ATOM     69  S   UNL A   1      41.375  23.181  27.015  1.00  0.00     0.124 S 
ATOM     70  O   UNL A   1      40.076  22.949  27.645  1.00  0.00    -0.237 OA
ATOM     71  O   UNL A   1      41.507  22.717  25.639  1.00  0.00    -0.237 OA
ATOM     72  O   UNL A   1      42.529  22.930  27.875  1.00  0.00    -0.744 OA
ENDBRANCH  65  69
ENDBRANCH  48  62
BRANCH  49  73
ATOM     73  C   UNL A   1      39.355  32.830  35.973  1.00  0.00     0.023 A 
ATOM     74  C   UNL A   1      39.900  34.098  36.226  1.00  0.00     0.031 A 
ATOM     75  C   UNL A   1      38.465  32.291  36.921  1.00  0.00     0.131 A 
ATOM     76  C   UNL A   1      39.569  34.775  37.411  1.00  0.00     0.055 A 
ATOM     77  C   UNL A   1      38.105  32.987  38.075  1.00  0.00     0.041 A 
ATOM     78  F   UNL A   1      37.916  31.082  36.723  1.00  0.00    -0.206 F 
ATOM     79  C   UNL A   1      38.665  34.233  38.330  1.00  0.00     0.022 A 
BRANCH  76  80
ATOM     80  S   UNL A   1      40.374  36.362  37.763  1.00  0.00     0.124 S 
ATOM     81  O   UNL A   1      39.362  37.037  38.568  1.00  0.00    -0.237 OA
ATOM     82  O   UNL A   1      41.579  35.941  38.469  1.00  0.00    -0.237 OA
ATOM     83  O   UNL A   1      40.600  36.931  36.436  1.00  0.00    -0.744 OA
ENDBRANCH  76  80
ENDBRANCH  49  73
BRANCH  61  84
ATOM     84  C   UNL A   1      44.171  27.974  34.527  1.00  0.00     0.023 A 
ATOM     85  C   UNL A   1      44.079  26.748  35.210  1.00  0.00     0.031 A 
ATOM     86  C   UNL A   1      45.376  28.693  34.623  1.00  0.00     0.131 A 
ATOM     87  C   UNL A   1      45.147  26.311  36.008  1.00  0.00     0.055 A 
ATOM     88  C   UNL A   1      46.459  28.220  35.363  1.00  0.00     0.041 A 
ATOM     89  F   UNL A   1      45.521  29.872  33.996  1.00  0.00    -0.206 F 
ATOM     90  C   UNL A   1      46.343  27.030  36.075  1.00  0.00     0.022 A 
BRANCH  87  91
ATOM     91  S   UNL A   1      44.912  24.845  37.052  1.00  0.00     0.124 S 
ATOM     92  O   UNL A   1      46.288  24.460  37.347  1.00  0.00    -0.237 OA
ATOM     93  O   UNL A   1      44.144  25.381  38.172  1.00  0.00    -0.237 OA
ATOM     94  O   UNL A   1      44.182  23.921  36.186  1.00  0.00    -0.744 OA
ENDBRANCH  87  91
ENDBRANCH  61  84
ENDBRANCH  35  36
ENDBRANCH  28  30
ENDBRANCH  27  28
ENDBRANCH  26  27
ENDBRANCH  25  26
ENDBRANCH  24  25
ENDBRANCH  23  24
ENDBRANCH   1  23
TORSDOF 24
ENDMDL
MODEL 3
REMARK VINA RESULT:      -9.4      2.563      3.486
REMARK SMILES N#CCc1nc(-c2ccccc2)c(CC(=O)OCCOCCOCCOC(=O)c2ccc(-c3c4nc(c(-c5cc(S(=O)(=O)[O-])ccc5F)c5ccc([nH]5)c(-c5cc(S(=O)(=O)[O-])ccc5F)c5nc(c(-c6cc(S(=O)(=O)[O-])ccc6F)c6ccc3[nH]6)C=C5)C=C4)cc2)s1
REMARK SMILES IDX 21 1 20 2 19 3 18 4 17 5 15 6 16 7 14 8 13 9 4 10 5 11 92 12
REMARK SMILES IDX 6 13 3 14 2 15 1 16 7 17 8 18 12 19 9 20 11 21 10 22 22 23
REMARK SMILES IDX 23 24 24 25 25 26 26 27 27 28 28 29 29 30 30 31 91 32 31 33
REMARK SMILES IDX 90 34 32 35 33 36 34 37 84 38 35 39 89 40 83 41 85 42 36 43
REMARK SMILES IDX 88 44 82 45 81 46 37 48 69 49 49 50 68 51 50 52 53 53 67 54
REMARK SMILES IDX 86 55 51 56 52 57 66 59 87 60 54 61 38 62 39 63 47 64 40 65
REMARK SMILES IDX 46 66 48 67 45 68 41 69 42 70 43 71 44 72 70 73 71 74 79 75
REMARK SMILES IDX 72 76 78 77 80 78 77 79 73 80 74 81 75 82 76 83 55 84 56 85
REMARK SMILES IDX 64 86 57 87 63 88 65 89 62 90 58 91 59 92 60 93 61 94
REMARK H PARENT 85 47 53 58
REMARK Flexibility Score: inf
ROOT
ATOM      1  C   UNL A   1      32.514  28.214  26.037  1.00  0.00     0.188 C 
ENDROOT
BRANCH   1   2
ATOM      2  O   UNL A   1      31.505  28.004  27.024  1.00  0.00    -0.376 OA
BRANCH   2   3
ATOM      3  C   UNL A   1      31.074  26.669  27.281  1.00  0.00     0.202 C 
BRANCH   3   4
ATOM      4  C   UNL A   1      31.410  25.654  26.184  1.00  0.00     0.261 C 
BRANCH   4   5
ATOM      5  O   UNL A   1      32.051  24.475  26.714  1.00  0.00    -0.463 OA
BRANCH   5   6
ATOM      6  C   UNL A   1      31.400  23.295  26.542  1.00  0.00     0.311 C 
ATOM      7  O   UNL A   1      30.452  22.941  27.235  1.00  0.00    -0.252 OA
BRANCH   6   8
ATOM      8  C   UNL A   1      31.812  22.554  25.277  1.00  0.00     0.171 C 
BRANCH   8   9
ATOM      9  C   UNL A   1      32.395  23.386  24.158  1.00  0.00     0.044 A 
ATOM     10  C   UNL A   1      32.700  24.992  22.310  1.00  0.00     0.108 A 
ATOM     11  N   UNL A   1      33.849  24.400  22.602  1.00  0.00    -0.240 NA
ATOM     12  S   UNL A   1      31.357  24.345  23.171  1.00  0.00    -0.121 S 
ATOM     13  C   UNL A   1      33.663  23.424  23.594  1.00  0.00     0.085 A 
BRANCH  10  14
ATOM     14  C   UNL A   1      32.471  26.100  21.282  1.00  0.00     0.187 C 
BRANCH  14  15
ATOM     15  C   UNL A   1      33.452  27.233  21.538  1.00  0.00     0.069 C 
ATOM     16  N   UNL A   1      34.265  28.173  21.751  1.00  0.00    -0.198 NA
ENDBRANCH  14  15
ENDBRANCH  10  14
BRANCH  13  17
ATOM     17  C   UNL A   1      34.712  22.492  23.991  1.00  0.00     0.001 A 
ATOM     18  C   UNL A   1      34.372  21.299  24.656  1.00  0.00     0.010 A 
ATOM     19  C   UNL A   1      36.061  22.781  23.776  1.00  0.00     0.010 A 
ATOM     20  C   UNL A   1      35.357  20.456  25.169  1.00  0.00     0.001 A 
ATOM     21  C   UNL A   1      37.051  21.925  24.277  1.00  0.00     0.001 A 
ATOM     22  C   UNL A   1      36.699  20.775  24.988  1.00  0.00     0.000 A 
ENDBRANCH  13  17
ENDBRANCH   8   9
ENDBRANCH   6   8
ENDBRANCH   5   6
ENDBRANCH   4   5
ENDBRANCH   3   4
ENDBRANCH   2   3
ENDBRANCH   1   2
BRANCH   1  23
ATOM     23  C   UNL A   1      32.948  29.649  25.756  1.00  0.00     0.188 C 
BRANCH  23  24
ATOM     24  O   UNL A   1      32.755  30.461  26.905  1.00  0.00    -0.376 OA
BRANCH  24  25
ATOM     25  C   UNL A   1      31.757  31.448  26.716  1.00  0.00     0.202 C 
BRANCH  25  26
ATOM     26  C   UNL A   1      32.416  32.825  26.764  1.00  0.00     0.261 C 
BRANCH  26  27
ATOM     27  O   UNL A   1      32.235  33.514  28.022  1.00  0.00    -0.460 OA
BRANCH  27  28
ATOM     28  C   UNL A   1      33.240  34.321  28.414  1.00  0.00     0.338 C 
ATOM     29  O   UNL A   1      33.169  35.517  28.683  1.00  0.00    -0.246 OA
BRANCH  28  30
ATOM     30  C   UNL A   1      34.446  33.527  28.695  1.00  0.00     0.060 A 
ATOM     31  C   UNL A   1      34.294  32.348  29.436  1.00  0.00     0.016 A 
ATOM     32  C   UNL A   1      35.716  33.963  28.316  1.00  0.00     0.016 A 
ATOM     33  C   UNL A   1      35.404  31.623  29.849  1.00  0.00     0.010 A 
ATOM     34  C   UNL A   1      36.836  33.252  28.754  1.00  0.00     0.010 A 
ATOM     35  C   UNL A   1      36.682  32.108  29.561  1.00  0.00    -0.014 A 
BRANCH  35  36
ATOM     36  C   UNL A   1      37.832  31.568  30.322  1.00  0.00     0.031 A 
ATOM     37  C   UNL A   1      38.674  30.507  29.669  1.00  0.00     0.074 A 
ATOM     38  C   UNL A   1      38.152  32.046  31.536  1.00  0.00     0.049 A 
ATOM     39  N   UNL A   1      39.698  29.845  30.140  1.00  0.00    -0.248 NA
ATOM     40  C   UNL A   1      38.298  30.141  28.295  1.00  0.00     0.031 C 
ATOM     41  C   UNL A   1      37.440  33.112  32.237  1.00  0.00     0.029 A 
ATOM     42  N   UNL A   1      39.157  31.684  32.395  1.00  0.00    -0.354 N 
ATOM     43  C   UNL A   1      40.079  28.972  29.125  1.00  0.00     0.074 A 
ATOM     44  C   UNL A   1      39.149  29.164  28.034  1.00  0.00     0.031 C 
ATOM     45  C   UNL A   1      38.016  33.300  33.437  1.00  0.00     0.029 A 
ATOM     46  C   UNL A   1      39.111  32.345  33.600  1.00  0.00     0.049 A 
ATOM     47  H   UNL A   1      39.843  31.015  32.173  1.00  0.00     0.167 HD
ATOM     48  C   UNL A   1      41.115  28.096  29.106  1.00  0.00     0.034 A 
ATOM     49  C   UNL A   1      39.846  32.168  34.715  1.00  0.00     0.034 A 
ATOM     50  C   UNL A   1      42.017  27.910  30.217  1.00  0.00     0.049 A 
ATOM     51  C   UNL A   1      40.949  31.140  34.707  1.00  0.00     0.074 A 
ATOM     52  C   UNL A   1      43.103  27.059  30.316  1.00  0.00     0.029 A 
ATOM     53  N   UNL A   1      41.926  28.578  31.433  1.00  0.00    -0.354 N 
ATOM     54  N   UNL A   1      41.308  30.319  33.745  1.00  0.00    -0.248 NA
ATOM     55  C   UNL A   1      41.756  31.026  35.926  1.00  0.00     0.031 C 
ATOM     56  C   UNL A   1      43.620  27.158  31.614  1.00  0.00     0.029 A 
ATOM     57  C   UNL A   1      42.914  28.134  32.299  1.00  0.00     0.049 A 
ATOM     58  H   UNL A   1      41.257  29.267  31.648  1.00  0.00     0.167 HD
ATOM     59  C   UNL A   1      42.399  29.607  34.238  1.00  0.00     0.074 A 
ATOM     60  C   UNL A   1      42.646  30.110  35.575  1.00  0.00     0.031 C 
ATOM     61  C   UNL A   1      43.135  28.632  33.641  1.00  0.00     0.034 A 
BRANCH  48  62
ATOM     62  C   UNL A   1      41.259  27.234  27.872  1.00  0.00     0.023 A 
ATOM     63  C   UNL A   1      40.839  25.891  27.850  1.00  0.00     0.031 A 
ATOM     64  C   UNL A   1      41.910  27.734  26.731  1.00  0.00     0.131 A 
ATOM     65  C   UNL A   1      41.169  25.071  26.761  1.00  0.00     0.055 A 
ATOM     66  C   UNL A   1      42.150  26.938  25.610  1.00  0.00     0.041 A 
ATOM     67  F   UNL A   1      42.358  28.999  26.698  1.00  0.00    -0.206 F 
ATOM     68  C   UNL A   1      41.798  25.591  25.628  1.00  0.00     0.022 A 
BRANCH  65  69
ATOM     69  S   UNL A   1      40.941  23.277  26.928  1.00  0.00     0.124 S 
ATOM     70  O   UNL A   1      41.457  23.039  28.276  1.00  0.00    -0.237 OA
ATOM     71  O   UNL A   1      39.501  23.125  26.761  1.00  0.00    -0.237 OA
ATOM     72  O   UNL A   1      41.760  22.725  25.851  1.00  0.00    -0.744 OA
ENDBRANCH  65  69
ENDBRANCH  48  62
BRANCH  49  73
ATOM     73  C   UNL A   1      39.523  32.946  35.944  1.00  0.00     0.023 A 
ATOM     74  C   UNL A   1      38.666  32.440  36.932  1.00  0.00     0.031 A 
ATOM     75  C   UNL A   1      40.071  34.228  36.137  1.00  0.00     0.131 A 
ATOM     76  C   UNL A   1      38.362  33.221  38.059  1.00  0.00     0.055 A 
ATOM     77  C   UNL A   1      39.802  34.982  37.280  1.00  0.00     0.041 A 
ATOM     78  F   UNL A   1      40.898  34.756  35.222  1.00  0.00    -0.206 F 
ATOM     79  C   UNL A   1      38.935  34.482  38.245  1.00  0.00     0.022 A 
BRANCH  76  80
ATOM     80  S   UNL A   1      37.166  32.585  39.265  1.00  0.00     0.124 S 
ATOM     81  O   UNL A   1      37.702  31.257  39.544  1.00  0.00    -0.237 OA
ATOM     82  O   UNL A   1      37.275  33.560  40.344  1.00  0.00    -0.237 OA
ATOM     83  O   UNL A   1      35.900  32.607  38.534  1.00  0.00    -0.744 OA
ENDBRANCH  76  80
ENDBRANCH  49  73
BRANCH  61  84
ATOM     84  C   UNL A   1      44.305  28.079  34.421  1.00  0.00     0.023 A 
ATOM     85  C   UNL A   1      45.587  28.649  34.341  1.00  0.00     0.031 A 
ATOM     86  C   UNL A   1      44.134  26.951  35.244  1.00  0.00     0.131 A 
ATOM     87  C   UNL A   1      46.661  28.052  35.020  1.00  0.00     0.055 A 
ATOM     88  C   UNL A   1      45.192  26.403  35.970  1.00  0.00     0.041 A 
ATOM     89  F   UNL A   1      42.933  26.362  35.356  1.00  0.00    -0.206 F 
ATOM     90  C   UNL A   1      46.468  26.943  35.847  1.00  0.00     0.022 A 
BRANCH  87  91
ATOM     91  S   UNL A   1      48.338  28.674  34.716  1.00  0.00     0.124 S 
ATOM     92  O   UNL A   1      49.162  27.596  35.252  1.00  0.00    -0.237 OA
ATOM     93  O   UNL A   1      48.354  28.830  33.265  1.00  0.00    -0.237 OA
ATOM     94  O   UNL A   1      48.383  29.923  35.474  1.00  0.00    -0.744 OA
ENDBRANCH  87  91
ENDBRANCH  61  84
ENDBRANCH  35  36
ENDBRANCH  28  30
ENDBRANCH  27  28
ENDBRANCH  26  27
ENDBRANCH  25  26
ENDBRANCH  24  25
ENDBRANCH  23  24
ENDBRANCH   1  23
TORSDOF 24
ENDMDL
