MODEL 1
REMARK VINA RESULT:      -9.8      0.000      0.000
REMARK SMILES Cc1nc(NC(=O)[C@@H]2CCC[C@@H](C(=O)OCCOCCOCCOC(=O)c3ccc(-c4c5nc(c(-c6cc(S(=O)(=O)[O-])ccc6F)c6ccc([nH]6)c(-c6cc(S(=O)(=O)[O-])ccc6F)c6nc(c(-c7cc(S(=O)(=O)[O-])ccc7F)c7ccc4[nH]7)C=C6)C=C5)cc3)C2)ccc1Br
REMARK SMILES IDX 20 1 19 2 18 3 17 4 16 5 15 6 13 7 14 8 12 9 8 10 9 11 90 12
REMARK SMILES IDX 10 13 11 14 6 15 5 16 7 18 4 19 1 20 2 21 3 22 93 23 92 24
REMARK SMILES IDX 94 25 91 26 21 27 22 28 23 29 24 30 25 31 26 32 27 33 28 34
REMARK SMILES IDX 89 35 29 36 88 37 30 38 31 39 32 40 82 41 33 42 87 43 81 44
REMARK SMILES IDX 83 45 34 46 86 47 80 48 79 49 35 51 67 52 47 53 66 54 48 55
REMARK SMILES IDX 51 56 65 57 84 58 49 59 50 60 64 62 85 63 52 64 36 65 37 66
REMARK SMILES IDX 45 67 38 68 44 69 46 70 43 71 39 72 40 73 41 74 42 75 68 76
REMARK SMILES IDX 69 77 77 78 70 79 76 80 78 81 75 82 71 83 72 84 73 85 74 86
REMARK SMILES IDX 53 87 54 88 62 89 55 90 61 91 63 92 60 93 56 94 57 95 58 96
REMARK SMILES IDX 59 97
REMARK H PARENT 5 17 83 50 51 61
REMARK Flexibility Score: inf
ROOT
ATOM      1  C   UNL A   1      43.821  18.565  25.332  1.00  0.00     0.188 C 
ENDROOT
BRANCH   1   2
ATOM      2  C   UNL A   1      45.007  19.174  24.559  1.00  0.00     0.188 C 
BRANCH   2   3
ATOM      3  O   UNL A   1      44.792  20.302  23.726  1.00  0.00    -0.376 OA
BRANCH   3   4
ATOM      4  C   UNL A   1      44.747  21.582  24.329  1.00  0.00     0.202 C 
BRANCH   4   5
ATOM      5  C   UNL A   1      46.105  22.202  24.641  1.00  0.00     0.261 C 
BRANCH   5   6
ATOM      6  O   UNL A   1      46.309  22.412  26.052  1.00  0.00    -0.463 OA
BRANCH   6   7
ATOM      7  C   UNL A   1      45.983  23.644  26.519  1.00  0.00     0.309 C 
ATOM      8  O   UNL A   1      45.708  23.888  27.689  1.00  0.00    -0.252 OA
BRANCH   7   9
ATOM      9  C   UNL A   1      45.963  24.732  25.444  1.00  0.00     0.100 C 
ATOM     10  C   UNL A   1      44.587  26.906  25.782  1.00  0.00     0.080 C 
ATOM     11  C   UNL A   1      45.646  27.568  24.910  1.00  0.00     0.013 C 
ATOM     12  C   UNL A   1      44.571  25.418  25.394  1.00  0.00     0.028 C 
ATOM     13  C   UNL A   1      46.989  27.151  25.481  1.00  0.00     0.002 C 
ATOM     14  C   UNL A   1      47.211  25.646  25.355  1.00  0.00     0.015 C 
BRANCH  10  15
ATOM     15  C   UNL A   1      43.252  27.613  25.626  1.00  0.00     0.228 C 
ATOM     16  N   UNL A   1      43.054  28.876  26.104  1.00  0.00    -0.310 N 
ATOM     17  H   UNL A   1      42.123  29.171  25.969  1.00  0.00     0.171 HD
ATOM     18  O   UNL A   1      42.303  27.035  25.091  1.00  0.00    -0.274 OA
BRANCH  16  19
ATOM     19  C   UNL A   1      43.822  29.869  26.738  1.00  0.00     0.132 A 
ATOM     20  C   UNL A   1      44.140  33.510  26.043  1.00  0.00     0.068 C 
ATOM     21  C   UNL A   1      44.392  32.171  26.683  1.00  0.00     0.054 A 
ATOM     22  N   UNL A   1      43.761  31.082  26.151  1.00  0.00    -0.235 NA
ATOM     23  C   UNL A   1      45.208  32.047  27.790  1.00  0.00     0.039 A 
ATOM     24  C   UNL A   1      45.295  30.799  28.389  1.00  0.00     0.021 A 
ATOM     25  Br  UNL A   1      46.196  33.480  28.524  1.00  0.00    -0.049 Br
ATOM     26  C   UNL A   1      44.576  29.716  27.876  1.00  0.00     0.048 A 
ENDBRANCH  16  19
ENDBRANCH  10  15
ENDBRANCH   7   9
ENDBRANCH   6   7
ENDBRANCH   5   6
ENDBRANCH   4   5
ENDBRANCH   3   4
ENDBRANCH   2   3
ENDBRANCH   1   2
BRANCH   1  27
ATOM     27  O   UNL A   1      42.544  19.178  25.196  1.00  0.00    -0.376 OA
BRANCH  27  28
ATOM     28  C   UNL A   1      42.035  19.870  26.335  1.00  0.00     0.202 C 
BRANCH  28  29
ATOM     29  C   UNL A   1      40.515  20.027  26.347  1.00  0.00     0.261 C 
BRANCH  29  30
ATOM     30  O   UNL A   1      40.113  21.119  27.200  1.00  0.00    -0.460 OA
BRANCH  30  31
ATOM     31  C   UNL A   1      39.503  22.133  26.548  1.00  0.00     0.338 C 
ATOM     32  O   UNL A   1      38.604  21.989  25.718  1.00  0.00    -0.246 OA
BRANCH  31  33
ATOM     33  C   UNL A   1      40.007  23.474  26.946  1.00  0.00     0.060 A 
ATOM     34  C   UNL A   1      41.346  23.712  27.257  1.00  0.00     0.016 A 
ATOM     35  C   UNL A   1      39.075  24.490  27.183  1.00  0.00     0.016 A 
ATOM     36  C   UNL A   1      41.720  24.907  27.896  1.00  0.00     0.010 A 
ATOM     37  C   UNL A   1      39.455  25.681  27.829  1.00  0.00     0.010 A 
ATOM     38  C   UNL A   1      40.772  25.879  28.261  1.00  0.00    -0.014 A 
BRANCH  38  39
ATOM     39  C   UNL A   1      41.148  27.069  29.079  1.00  0.00     0.031 A 
ATOM     40  C   UNL A   1      40.210  28.211  29.357  1.00  0.00     0.074 A 
ATOM     41  C   UNL A   1      42.296  27.124  29.765  1.00  0.00     0.049 A 
ATOM     42  N   UNL A   1      40.331  29.494  29.161  1.00  0.00    -0.248 NA
ATOM     43  C   UNL A   1      38.957  27.860  30.008  1.00  0.00     0.031 C 
ATOM     44  C   UNL A   1      43.276  26.054  29.877  1.00  0.00     0.029 A 
ATOM     45  N   UNL A   1      42.801  28.149  30.517  1.00  0.00    -0.354 N 
ATOM     46  C   UNL A   1      39.064  30.034  29.421  1.00  0.00     0.074 A 
ATOM     47  C   UNL A   1      38.218  28.947  29.838  1.00  0.00     0.031 C 
ATOM     48  C   UNL A   1      44.271  26.473  30.671  1.00  0.00     0.029 A 
ATOM     49  C   UNL A   1      44.054  27.882  30.996  1.00  0.00     0.049 A 
ATOM     50  H   UNL A   1      42.317  28.988  30.695  1.00  0.00     0.167 HD
ATOM     51  C   UNL A   1      38.698  31.336  29.491  1.00  0.00     0.034 A 
ATOM     52  C   UNL A   1      44.953  28.717  31.544  1.00  0.00     0.034 A 
ATOM     53  C   UNL A   1      39.663  32.334  29.876  1.00  0.00     0.049 A 
ATOM     54  C   UNL A   1      44.575  30.163  31.726  1.00  0.00     0.074 A 
ATOM     55  C   UNL A   1      39.483  33.690  30.067  1.00  0.00     0.029 A 
ATOM     56  N   UNL A   1      40.930  32.022  30.352  1.00  0.00    -0.354 N 
ATOM     57  N   UNL A   1      43.464  30.776  31.380  1.00  0.00    -0.248 NA
ATOM     58  C   UNL A   1      45.567  31.035  32.362  1.00  0.00     0.031 C 
ATOM     59  C   UNL A   1      40.615  34.181  30.727  1.00  0.00     0.029 A 
ATOM     60  C   UNL A   1      41.502  33.132  30.935  1.00  0.00     0.049 A 
ATOM     61  H   UNL A   1      41.358  31.137  30.284  1.00  0.00     0.167 HD
ATOM     62  C   UNL A   1      43.618  32.103  31.769  1.00  0.00     0.074 A 
ATOM     63  C   UNL A   1      44.923  32.196  32.394  1.00  0.00     0.031 C 
ATOM     64  C   UNL A   1      42.775  33.155  31.612  1.00  0.00     0.034 A 
BRANCH  51  65
ATOM     65  C   UNL A   1      37.263  31.772  29.275  1.00  0.00     0.023 A 
ATOM     66  C   UNL A   1      36.665  32.562  30.285  1.00  0.00     0.031 A 
ATOM     67  C   UNL A   1      36.441  31.357  28.216  1.00  0.00     0.131 A 
ATOM     68  C   UNL A   1      35.302  32.894  30.221  1.00  0.00     0.055 A 
ATOM     69  C   UNL A   1      35.100  31.750  28.121  1.00  0.00     0.041 A 
ATOM     70  F   UNL A   1      36.905  30.536  27.261  1.00  0.00    -0.206 F 
ATOM     71  C   UNL A   1      34.523  32.512  29.131  1.00  0.00     0.022 A 
BRANCH  68  72
ATOM     72  S   UNL A   1      34.484  33.762  31.595  1.00  0.00     0.124 S 
ATOM     73  O   UNL A   1      33.886  32.648  32.338  1.00  0.00    -0.237 OA
ATOM     74  O   UNL A   1      35.621  34.402  32.264  1.00  0.00    -0.237 OA
ATOM     75  O   UNL A   1      33.551  34.651  30.950  1.00  0.00    -0.744 OA
ENDBRANCH  68  72
ENDBRANCH  51  65
BRANCH  52  76
ATOM     76  C   UNL A   1      46.282  28.157  31.897  1.00  0.00     0.023 A 
ATOM     77  C   UNL A   1      46.523  27.686  33.202  1.00  0.00     0.031 A 
ATOM     78  C   UNL A   1      47.370  28.284  31.022  1.00  0.00     0.131 A 
ATOM     79  C   UNL A   1      47.835  27.463  33.629  1.00  0.00     0.055 A 
ATOM     80  C   UNL A   1      48.671  27.985  31.430  1.00  0.00     0.041 A 
ATOM     81  F   UNL A   1      47.186  28.745  29.775  1.00  0.00    -0.206 F 
ATOM     82  C   UNL A   1      48.911  27.597  32.746  1.00  0.00     0.022 A 
BRANCH  79  83
ATOM     83  S   UNL A   1      48.198  27.167  35.383  1.00  0.00     0.124 S 
ATOM     84  O   UNL A   1      48.619  28.489  35.833  1.00  0.00    -0.237 OA
ATOM     85  O   UNL A   1      46.903  26.712  35.882  1.00  0.00    -0.237 OA
ATOM     86  O   UNL A   1      49.243  26.148  35.352  1.00  0.00    -0.744 OA
ENDBRANCH  79  83
ENDBRANCH  52  76
BRANCH  64  87
ATOM     87  C   UNL A   1      43.193  34.491  32.159  1.00  0.00     0.023 A 
ATOM     88  C   UNL A   1      42.921  34.816  33.500  1.00  0.00     0.031 A 
ATOM     89  C   UNL A   1      43.675  35.491  31.302  1.00  0.00     0.131 A 
ATOM     90  C   UNL A   1      43.096  36.135  33.936  1.00  0.00     0.055 A 
ATOM     91  C   UNL A   1      43.878  36.794  31.750  1.00  0.00     0.041 A 
ATOM     92  F   UNL A   1      43.929  35.216  30.012  1.00  0.00    -0.206 F 
ATOM     93  C   UNL A   1      43.577  37.123  33.070  1.00  0.00     0.022 A 
BRANCH  90  94
ATOM     94  S   UNL A   1      42.637  36.633  35.618  1.00  0.00     0.124 S 
ATOM     95  O   UNL A   1      41.181  36.717  35.522  1.00  0.00    -0.237 OA
ATOM     96  O   UNL A   1      43.147  35.522  36.416  1.00  0.00    -0.237 OA
ATOM     97  O   UNL A   1      43.319  37.909  35.807  1.00  0.00    -0.744 OA
ENDBRANCH  90  94
ENDBRANCH  64  87
ENDBRANCH  38  39
ENDBRANCH  31  33
ENDBRANCH  30  31
ENDBRANCH  29  30
ENDBRANCH  28  29
ENDBRANCH  27  28
ENDBRANCH   1  27
TORSDOF 22
ENDMDL
MODEL 2
REMARK VINA RESULT:      -9.4      2.968      8.019
REMARK SMILES Cc1nc(NC(=O)[C@@H]2CCC[C@@H](C(=O)OCCOCCOCCOC(=O)c3ccc(-c4c5nc(c(-c6cc(S(=O)(=O)[O-])ccc6F)c6ccc([nH]6)c(-c6cc(S(=O)(=O)[O-])ccc6F)c6nc(c(-c7cc(S(=O)(=O)[O-])ccc7F)c7ccc4[nH]7)C=C6)C=C5)cc3)C2)ccc1Br
REMARK SMILES IDX 20 1 19 2 18 3 17 4 16 5 15 6 13 7 14 8 12 9 8 10 9 11 90 12
REMARK SMILES IDX 10 13 11 14 6 15 5 16 7 18 4 19 1 20 2 21 3 22 93 23 92 24
REMARK SMILES IDX 94 25 91 26 21 27 22 28 23 29 24 30 25 31 26 32 27 33 28 34
REMARK SMILES IDX 89 35 29 36 88 37 30 38 31 39 32 40 82 41 33 42 87 43 81 44
REMARK SMILES IDX 83 45 34 46 86 47 80 48 79 49 35 51 67 52 47 53 66 54 48 55
REMARK SMILES IDX 51 56 65 57 84 58 49 59 50 60 64 62 85 63 52 64 36 65 37 66
REMARK SMILES IDX 45 67 38 68 44 69 46 70 43 71 39 72 40 73 41 74 42 75 68 76
REMARK SMILES IDX 69 77 77 78 70 79 76 80 78 81 75 82 71 83 72 84 73 85 74 86
REMARK SMILES IDX 53 87 54 88 62 89 55 90 61 91 63 92 60 93 56 94 57 95 58 96
REMARK SMILES IDX 59 97
REMARK H PARENT 5 17 83 50 51 61
REMARK Flexibility Score: inf
ROOT
ATOM      1  C   UNL A   1      42.588  19.170  26.562  1.00  0.00     0.188 C 
ENDROOT
BRANCH   1   2
ATOM      2  C   UNL A   1      43.448  17.977  26.100  1.00  0.00     0.188 C 
BRANCH   2   3
ATOM      3  O   UNL A   1      44.631  18.216  25.354  1.00  0.00    -0.376 OA
BRANCH   3   4
ATOM      4  C   UNL A   1      44.559  19.100  24.251  1.00  0.00     0.202 C 
BRANCH   4   5
ATOM      5  C   UNL A   1      45.330  20.406  24.411  1.00  0.00     0.261 C 
BRANCH   5   6
ATOM      6  O   UNL A   1      44.589  21.403  25.141  1.00  0.00    -0.463 OA
BRANCH   6   7
ATOM      7  C   UNL A   1      44.700  22.676  24.682  1.00  0.00     0.309 C 
ATOM      8  O   UNL A   1      45.085  22.972  23.556  1.00  0.00    -0.252 OA
BRANCH   7   9
ATOM      9  C   UNL A   1      44.319  23.743  25.708  1.00  0.00     0.100 C 
ATOM     10  C   UNL A   1      46.143  25.170  26.879  1.00  0.00     0.080 C 
ATOM     11  C   UNL A   1      45.078  26.257  26.948  1.00  0.00     0.013 C 
ATOM     12  C   UNL A   1      45.393  23.828  26.826  1.00  0.00     0.028 C 
ATOM     13  C   UNL A   1      44.486  26.361  25.553  1.00  0.00     0.002 C 
ATOM     14  C   UNL A   1      43.764  25.078  25.152  1.00  0.00     0.015 C 
BRANCH  10  15
ATOM     15  C   UNL A   1      47.115  25.303  28.038  1.00  0.00     0.228 C 
ATOM     16  N   UNL A   1      48.412  25.679  27.842  1.00  0.00    -0.310 N 
ATOM     17  H   UNL A   1      48.922  25.669  28.685  1.00  0.00     0.171 HD
ATOM     18  O   UNL A   1      46.751  25.035  29.187  1.00  0.00    -0.274 OA
BRANCH  16  19
ATOM     19  C   UNL A   1      49.216  26.076  26.758  1.00  0.00     0.132 A 
ATOM     20  C   UNL A   1      52.562  24.884  25.653  1.00  0.00     0.068 C 
ATOM     21  C   UNL A   1      51.302  25.706  25.690  1.00  0.00     0.054 A 
ATOM     22  N   UNL A   1      50.428  25.484  26.717  1.00  0.00    -0.235 NA
ATOM     23  C   UNL A   1      51.018  26.633  24.706  1.00  0.00     0.039 A 
ATOM     24  C   UNL A   1      49.784  27.263  24.751  1.00  0.00     0.021 A 
ATOM     25  Br  UNL A   1      52.216  27.072  23.312  1.00  0.00    -0.049 Br
ATOM     26  C   UNL A   1      48.872  26.960  25.766  1.00  0.00     0.048 A 
ENDBRANCH  16  19
ENDBRANCH  10  15
ENDBRANCH   7   9
ENDBRANCH   6   7
ENDBRANCH   5   6
ENDBRANCH   4   5
ENDBRANCH   3   4
ENDBRANCH   2   3
ENDBRANCH   1   2
BRANCH   1  27
ATOM     27  O   UNL A   1      41.380  19.440  25.860  1.00  0.00    -0.376 OA
BRANCH  27  28
ATOM     28  C   UNL A   1      40.416  20.257  26.523  1.00  0.00     0.202 C 
BRANCH  28  29
ATOM     29  C   UNL A   1      41.017  21.333  27.424  1.00  0.00     0.261 C 
BRANCH  29  30
ATOM     30  O   UNL A   1      41.033  22.615  26.761  1.00  0.00    -0.460 OA
BRANCH  30  31
ATOM     31  C   UNL A   1      39.807  23.147  26.560  1.00  0.00     0.338 C 
ATOM     32  O   UNL A   1      38.839  22.525  26.117  1.00  0.00    -0.246 OA
BRANCH  31  33
ATOM     33  C   UNL A   1      39.717  24.578  26.951  1.00  0.00     0.060 A 
ATOM     34  C   UNL A   1      40.293  25.601  26.197  1.00  0.00     0.016 A 
ATOM     35  C   UNL A   1      39.184  24.892  28.206  1.00  0.00     0.016 A 
ATOM     36  C   UNL A   1      40.429  26.889  26.744  1.00  0.00     0.010 A 
ATOM     37  C   UNL A   1      39.330  26.181  28.750  1.00  0.00     0.010 A 
ATOM     38  C   UNL A   1      40.019  27.183  28.057  1.00  0.00    -0.014 A 
BRANCH  38  39
ATOM     39  C   UNL A   1      40.310  28.502  28.689  1.00  0.00     0.031 A 
ATOM     40  C   UNL A   1      41.697  29.057  28.846  1.00  0.00     0.074 A 
ATOM     41  C   UNL A   1      39.336  29.363  29.012  1.00  0.00     0.049 A 
ATOM     42  N   UNL A   1      42.345  29.482  29.895  1.00  0.00    -0.248 NA
ATOM     43  C   UNL A   1      42.463  29.209  27.618  1.00  0.00     0.031 C 
ATOM     44  C   UNL A   1      37.917  29.189  28.740  1.00  0.00     0.029 A 
ATOM     45  N   UNL A   1      39.433  30.579  29.632  1.00  0.00    -0.354 N 
ATOM     46  C   UNL A   1      43.662  29.686  29.466  1.00  0.00     0.074 A 
ATOM     47  C   UNL A   1      43.700  29.391  28.059  1.00  0.00     0.031 C 
ATOM     48  C   UNL A   1      37.265  30.274  29.181  1.00  0.00     0.029 A 
ATOM     49  C   UNL A   1      38.210  31.138  29.886  1.00  0.00     0.049 A 
ATOM     50  H   UNL A   1      40.287  31.006  29.869  1.00  0.00     0.167 HD
ATOM     51  C   UNL A   1      44.693  30.250  30.141  1.00  0.00     0.034 A 
ATOM     52  C   UNL A   1      37.896  32.174  30.683  1.00  0.00     0.034 A 
ATOM     53  C   UNL A   1      44.433  31.229  31.164  1.00  0.00     0.049 A 
ATOM     54  C   UNL A   1      39.008  32.896  31.396  1.00  0.00     0.074 A 
ATOM     55  C   UNL A   1      45.330  31.961  31.917  1.00  0.00     0.029 A 
ATOM     56  N   UNL A   1      43.173  31.769  31.396  1.00  0.00    -0.354 N 
ATOM     57  N   UNL A   1      40.297  32.636  31.393  1.00  0.00    -0.248 NA
ATOM     58  C   UNL A   1      38.630  34.044  32.226  1.00  0.00     0.031 C 
ATOM     59  C   UNL A   1      44.620  32.990  32.545  1.00  0.00     0.029 A 
ATOM     60  C   UNL A   1      43.280  32.889  32.192  1.00  0.00     0.049 A 
ATOM     61  H   UNL A   1      42.328  31.404  31.044  1.00  0.00     0.167 HD
ATOM     62  C   UNL A   1      40.886  33.597  32.209  1.00  0.00     0.074 A 
ATOM     63  C   UNL A   1      39.811  34.454  32.671  1.00  0.00     0.031 C 
ATOM     64  C   UNL A   1      42.187  33.753  32.564  1.00  0.00     0.034 A 
BRANCH  51  65
ATOM     65  C   UNL A   1      46.135  29.957  29.779  1.00  0.00     0.023 A 
ATOM     66  C   UNL A   1      46.774  30.847  28.883  1.00  0.00     0.031 A 
ATOM     67  C   UNL A   1      46.850  28.812  30.163  1.00  0.00     0.131 A 
ATOM     68  C   UNL A   1      48.062  30.573  28.398  1.00  0.00     0.055 A 
ATOM     69  C   UNL A   1      48.163  28.579  29.730  1.00  0.00     0.041 A 
ATOM     70  F   UNL A   1      46.288  27.874  30.941  1.00  0.00    -0.206 F 
ATOM     71  C   UNL A   1      48.769  29.455  28.837  1.00  0.00     0.022 A 
BRANCH  68  72
ATOM     72  S   UNL A   1      48.825  31.617  27.118  1.00  0.00     0.124 S 
ATOM     73  O   UNL A   1      49.512  32.628  27.928  1.00  0.00    -0.237 OA
ATOM     74  O   UNL A   1      49.715  30.665  26.447  1.00  0.00    -0.237 OA
ATOM     75  O   UNL A   1      47.711  32.095  26.338  1.00  0.00    -0.744 OA
ENDBRANCH  68  72
ENDBRANCH  51  65
BRANCH  52  76
ATOM     76  C   UNL A   1      36.457  32.508  30.836  1.00  0.00     0.023 A 
ATOM     77  C   UNL A   1      35.802  33.265  29.845  1.00  0.00     0.031 A 
ATOM     78  C   UNL A   1      35.790  32.272  32.046  1.00  0.00     0.131 A 
ATOM     79  C   UNL A   1      34.564  33.850  30.124  1.00  0.00     0.055 A 
ATOM     80  C   UNL A   1      34.519  32.795  32.291  1.00  0.00     0.041 A 
ATOM     81  F   UNL A   1      36.386  31.570  33.022  1.00  0.00    -0.206 F 
ATOM     82  C   UNL A   1      33.912  33.609  31.336  1.00  0.00     0.022 A 
BRANCH  79  83
ATOM     83  S   UNL A   1      33.849  35.080  28.997  1.00  0.00     0.124 S 
ATOM     84  O   UNL A   1      33.719  36.247  29.864  1.00  0.00    -0.237 OA
ATOM     85  O   UNL A   1      34.879  35.172  27.965  1.00  0.00    -0.237 OA
ATOM     86  O   UNL A   1      32.595  34.470  28.568  1.00  0.00    -0.744 OA
ENDBRANCH  79  83
ENDBRANCH  52  76
BRANCH  64  87
ATOM     87  C   UNL A   1      42.550  34.910  33.450  1.00  0.00     0.023 A 
ATOM     88  C   UNL A   1      42.196  34.890  34.812  1.00  0.00     0.031 A 
ATOM     89  C   UNL A   1      43.065  36.093  32.900  1.00  0.00     0.131 A 
ATOM     90  C   UNL A   1      42.323  36.059  35.572  1.00  0.00     0.055 A 
ATOM     91  C   UNL A   1      43.220  37.244  33.670  1.00  0.00     0.041 A 
ATOM     92  F   UNL A   1      43.398  36.150  31.601  1.00  0.00    -0.206 F 
ATOM     93  C   UNL A   1      42.837  37.233  35.010  1.00  0.00     0.022 A 
BRANCH  90  94
ATOM     94  S   UNL A   1      41.759  36.120  37.294  1.00  0.00     0.124 S 
ATOM     95  O   UNL A   1      41.698  34.703  37.644  1.00  0.00    -0.237 OA
ATOM     96  O   UNL A   1      42.828  36.877  37.939  1.00  0.00    -0.237 OA
ATOM     97  O   UNL A   1      40.468  36.795  37.218  1.00  0.00    -0.744 OA
ENDBRANCH  90  94
ENDBRANCH  64  87
ENDBRANCH  38  39
ENDBRANCH  31  33
ENDBRANCH  30  31
ENDBRANCH  29  30
ENDBRANCH  28  29
ENDBRANCH  27  28
ENDBRANCH   1  27
TORSDOF 22
ENDMDL
MODEL 3
REMARK VINA RESULT:      -9.3      5.951     11.540
REMARK SMILES Cc1nc(NC(=O)[C@@H]2CCC[C@@H](C(=O)OCCOCCOCCOC(=O)c3ccc(-c4c5nc(c(-c6cc(S(=O)(=O)[O-])ccc6F)c6ccc([nH]6)c(-c6cc(S(=O)(=O)[O-])ccc6F)c6nc(c(-c7cc(S(=O)(=O)[O-])ccc7F)c7ccc4[nH]7)C=C6)C=C5)cc3)C2)ccc1Br
REMARK SMILES IDX 20 1 19 2 18 3 17 4 16 5 15 6 13 7 14 8 12 9 8 10 9 11 90 12
REMARK SMILES IDX 10 13 11 14 6 15 5 16 7 18 4 19 1 20 2 21 3 22 93 23 92 24
REMARK SMILES IDX 94 25 91 26 21 27 22 28 23 29 24 30 25 31 26 32 27 33 28 34
REMARK SMILES IDX 89 35 29 36 88 37 30 38 31 39 32 40 82 41 33 42 87 43 81 44
REMARK SMILES IDX 83 45 34 46 86 47 80 48 79 49 35 51 67 52 47 53 66 54 48 55
REMARK SMILES IDX 51 56 65 57 84 58 49 59 50 60 64 62 85 63 52 64 36 65 37 66
REMARK SMILES IDX 45 67 38 68 44 69 46 70 43 71 39 72 40 73 41 74 42 75 68 76
REMARK SMILES IDX 69 77 77 78 70 79 76 80 78 81 75 82 71 83 72 84 73 85 74 86
REMARK SMILES IDX 53 87 54 88 62 89 55 90 61 91 63 92 60 93 56 94 57 95 58 96
REMARK SMILES IDX 59 97
REMARK H PARENT 5 17 83 50 51 61
REMARK Flexibility Score: inf
ROOT
ATOM      1  C   UNL A   1      39.519  21.187  26.362  1.00  0.00     0.188 C 
ENDROOT
BRANCH   1   2
ATOM      2  C   UNL A   1      38.518  21.753  25.337  1.00  0.00     0.188 C 
BRANCH   2   3
ATOM      3  O   UNL A   1      37.669  22.828  25.711  1.00  0.00    -0.376 OA
BRANCH   3   4
ATOM      4  C   UNL A   1      36.346  22.527  26.111  1.00  0.00     0.202 C 
BRANCH   4   5
ATOM      5  C   UNL A   1      35.760  21.250  25.519  1.00  0.00     0.261 C 
BRANCH   5   6
ATOM      6  O   UNL A   1      34.349  21.113  25.777  1.00  0.00    -0.463 OA
BRANCH   6   7
ATOM      7  C   UNL A   1      33.662  20.332  24.905  1.00  0.00     0.309 C 
ATOM      8  O   UNL A   1      33.999  19.199  24.581  1.00  0.00    -0.252 OA
BRANCH   7   9
ATOM      9  C   UNL A   1      32.412  20.997  24.327  1.00  0.00     0.100 C 
ATOM     10  C   UNL A   1      31.416  23.128  25.422  1.00  0.00     0.080 C 
ATOM     11  C   UNL A   1      30.946  23.484  24.017  1.00  0.00     0.013 C 
ATOM     12  C   UNL A   1      31.542  21.596  25.464  1.00  0.00     0.028 C 
ATOM     13  C   UNL A   1      32.150  23.311  23.109  1.00  0.00     0.002 C 
ATOM     14  C   UNL A   1      32.607  21.856  23.052  1.00  0.00     0.015 C 
BRANCH  10  15
ATOM     15  C   UNL A   1      30.475  23.712  26.461  1.00  0.00     0.228 C 
ATOM     16  N   UNL A   1      29.936  24.958  26.316  1.00  0.00    -0.310 N 
ATOM     17  H   UNL A   1      29.391  25.209  27.097  1.00  0.00     0.171 HD
ATOM     18  O   UNL A   1      30.209  23.076  27.485  1.00  0.00    -0.274 OA
BRANCH  16  19
ATOM     19  C   UNL A   1      29.953  25.980  25.350  1.00  0.00     0.132 A 
ATOM     20  C   UNL A   1      32.478  28.621  24.650  1.00  0.00     0.068 C 
ATOM     21  C   UNL A   1      31.201  27.830  24.545  1.00  0.00     0.054 A 
ATOM     22  N   UNL A   1      31.000  26.825  25.450  1.00  0.00    -0.235 NA
ATOM     23  C   UNL A   1      30.276  28.086  23.552  1.00  0.00     0.039 A 
ATOM     24  C   UNL A   1      29.185  27.236  23.455  1.00  0.00     0.021 A 
ATOM     25  Br  UNL A   1      30.429  29.517  22.329  1.00  0.00    -0.049 Br
ATOM     26  C   UNL A   1      29.041  26.165  24.340  1.00  0.00     0.048 A 
ENDBRANCH  16  19
ENDBRANCH  10  15
ENDBRANCH   7   9
ENDBRANCH   6   7
ENDBRANCH   5   6
ENDBRANCH   4   5
ENDBRANCH   3   4
ENDBRANCH   2   3
ENDBRANCH   1   2
BRANCH   1  27
ATOM     27  O   UNL A   1      40.909  21.386  26.126  1.00  0.00    -0.376 OA
BRANCH  27  28
ATOM     28  C   UNL A   1      41.815  20.583  26.881  1.00  0.00     0.202 C 
BRANCH  28  29
ATOM     29  C   UNL A   1      42.095  19.210  26.272  1.00  0.00     0.261 C 
BRANCH  29  30
ATOM     30  O   UNL A   1      42.673  19.336  24.955  1.00  0.00    -0.460 OA
BRANCH  30  31
ATOM     31  C   UNL A   1      44.023  19.278  24.937  1.00  0.00     0.338 C 
ATOM     32  O   UNL A   1      44.677  18.234  24.880  1.00  0.00    -0.246 OA
BRANCH  31  33
ATOM     33  C   UNL A   1      44.668  20.617  24.971  1.00  0.00     0.060 A 
ATOM     34  C   UNL A   1      45.501  21.024  26.014  1.00  0.00     0.016 A 
ATOM     35  C   UNL A   1      44.289  21.560  24.011  1.00  0.00     0.016 A 
ATOM     36  C   UNL A   1      45.852  22.378  26.147  1.00  0.00     0.010 A 
ATOM     37  C   UNL A   1      44.639  22.916  24.154  1.00  0.00     0.010 A 
ATOM     38  C   UNL A   1      45.367  23.360  25.265  1.00  0.00    -0.014 A 
BRANCH  38  39
ATOM     39  C   UNL A   1      45.610  24.813  25.500  1.00  0.00     0.031 A 
ATOM     40  C   UNL A   1      46.923  25.488  25.221  1.00  0.00     0.074 A 
ATOM     41  C   UNL A   1      44.619  25.654  25.820  1.00  0.00     0.049 A 
ATOM     42  N   UNL A   1      47.703  26.206  25.979  1.00  0.00    -0.248 NA
ATOM     43  C   UNL A   1      47.413  25.383  23.854  1.00  0.00     0.031 C 
ATOM     44  C   UNL A   1      43.206  25.316  25.910  1.00  0.00     0.029 A 
ATOM     45  N   UNL A   1      44.683  26.990  26.109  1.00  0.00    -0.354 N 
ATOM     46  C   UNL A   1      48.879  26.391  25.240  1.00  0.00     0.074 A 
ATOM     47  C   UNL A   1      48.681  25.758  23.963  1.00  0.00     0.031 C 
ATOM     48  C   UNL A   1      42.523  26.426  26.221  1.00  0.00     0.029 A 
ATOM     49  C   UNL A   1      43.474  27.505  26.487  1.00  0.00     0.049 A 
ATOM     50  H   UNL A   1      45.509  27.524  26.051  1.00  0.00     0.167 HD
ATOM     51  C   UNL A   1      49.943  27.178  25.528  1.00  0.00     0.034 A 
ATOM     52  C   UNL A   1      43.194  28.682  27.074  1.00  0.00     0.034 A 
ATOM     53  C   UNL A   1      49.767  28.360  26.331  1.00  0.00     0.049 A 
ATOM     54  C   UNL A   1      44.326  29.637  27.344  1.00  0.00     0.074 A 
ATOM     55  C   UNL A   1      50.696  29.320  26.683  1.00  0.00     0.029 A 
ATOM     56  N   UNL A   1      48.520  28.849  26.700  1.00  0.00    -0.354 N 
ATOM     57  N   UNL A   1      45.612  29.478  27.122  1.00  0.00    -0.248 NA
ATOM     58  C   UNL A   1      43.977  30.926  27.952  1.00  0.00     0.031 C 
ATOM     59  C   UNL A   1      50.000  30.419  27.197  1.00  0.00     0.029 A 
ATOM     60  C   UNL A   1      48.640  30.137  27.176  1.00  0.00     0.049 A 
ATOM     61  H   UNL A   1      47.674  28.348  26.633  1.00  0.00     0.167 HD
ATOM     62  C   UNL A   1      46.226  30.652  27.549  1.00  0.00     0.074 A 
ATOM     63  C   UNL A   1      45.164  31.518  28.024  1.00  0.00     0.031 C 
ATOM     64  C   UNL A   1      47.542  30.985  27.568  1.00  0.00     0.034 A 
BRANCH  51  65
ATOM     65  C   UNL A   1      51.313  26.909  24.939  1.00  0.00     0.023 A 
ATOM     66  C   UNL A   1      51.603  27.481  23.677  1.00  0.00     0.031 A 
ATOM     67  C   UNL A   1      52.273  26.042  25.484  1.00  0.00     0.131 A 
ATOM     68  C   UNL A   1      52.797  27.172  23.007  1.00  0.00     0.055 A 
ATOM     69  C   UNL A   1      53.494  25.792  24.843  1.00  0.00     0.041 A 
ATOM     70  F   UNL A   1      52.043  25.390  26.634  1.00  0.00    -0.206 F 
ATOM     71  C   UNL A   1      53.755  26.349  23.596  1.00  0.00     0.022 A 
BRANCH  68  72
ATOM     72  S   UNL A   1      53.103  27.765  21.314  1.00  0.00     0.124 S 
ATOM     73  O   UNL A   1      53.200  26.505  20.570  1.00  0.00    -0.237 OA
ATOM     74  O   UNL A   1      51.888  28.540  21.046  1.00  0.00    -0.237 OA
ATOM     75  O   UNL A   1      54.324  28.522  21.417  1.00  0.00    -0.744 OA
ENDBRANCH  68  72
ENDBRANCH  51  65
BRANCH  52  76
ATOM     76  C   UNL A   1      41.783  28.939  27.455  1.00  0.00     0.023 A 
ATOM     77  C   UNL A   1      41.377  28.781  28.795  1.00  0.00     0.031 A 
ATOM     78  C   UNL A   1      40.797  29.126  26.476  1.00  0.00     0.131 A 
ATOM     79  C   UNL A   1      40.015  28.704  29.103  1.00  0.00     0.055 A 
ATOM     80  C   UNL A   1      39.440  29.126  26.801  1.00  0.00     0.041 A 
ATOM     81  F   UNL A   1      41.142  29.263  25.186  1.00  0.00    -0.206 F 
ATOM     82  C   UNL A   1      39.043  28.889  28.116  1.00  0.00     0.022 A 
BRANCH  79  83
ATOM     83  S   UNL A   1      39.470  28.187  30.755  1.00  0.00     0.124 S 
ATOM     84  O   UNL A   1      40.727  28.167  31.497  1.00  0.00    -0.237 OA
ATOM     85  O   UNL A   1      38.543  29.259  31.112  1.00  0.00    -0.237 OA
ATOM     86  O   UNL A   1      38.852  26.885  30.525  1.00  0.00    -0.744 OA
ENDBRANCH  79  83
ENDBRANCH  52  76
BRANCH  64  87
ATOM     87  C   UNL A   1      47.924  32.350  28.066  1.00  0.00     0.023 A 
ATOM     88  C   UNL A   1      48.041  33.421  27.160  1.00  0.00     0.031 A 
ATOM     89  C   UNL A   1      48.355  32.529  29.388  1.00  0.00     0.131 A 
ATOM     90  C   UNL A   1      48.621  34.621  27.587  1.00  0.00     0.055 A 
ATOM     91  C   UNL A   1      48.903  33.737  29.815  1.00  0.00     0.041 A 
ATOM     92  F   UNL A   1      48.272  31.522  30.272  1.00  0.00    -0.206 F 
ATOM     93  C   UNL A   1      49.049  34.785  28.909  1.00  0.00     0.022 A 
BRANCH  90  94
ATOM     94  S   UNL A   1      48.913  35.983  26.427  1.00  0.00     0.124 S 
ATOM     95  O   UNL A   1      47.632  36.687  26.459  1.00  0.00    -0.237 OA
ATOM     96  O   UNL A   1      50.027  36.686  27.055  1.00  0.00    -0.237 OA
ATOM     97  O   UNL A   1      49.219  35.314  25.167  1.00  0.00    -0.744 OA
ENDBRANCH  90  94
ENDBRANCH  64  87
ENDBRANCH  38  39
ENDBRANCH  31  33
ENDBRANCH  30  31
ENDBRANCH  29  30
ENDBRANCH  28  29
ENDBRANCH  27  28
ENDBRANCH   1  27
TORSDOF 22
ENDMDL
