MODEL 1
REMARK VINA RESULT:     -10.8      0.000      0.000
REMARK SMILES O=C(OCCOCCOCCOC(=O)c1ccc(-c2c3nc(c(-c4cc(S(=O)(=O)[O-])ccc4F)c4ccc([nH]4)c(-c4cc(S(=O)(=O)[O-])ccc4F)c4nc(c(-c5cc(S(=O)(=O)[O-])ccc5F)c5ccc2[nH]5)C=C4)C=C3)cc1)C1=Cc2cc(Cl)cc(Cl)c2O[C@@H]1C(F)(F)F
REMARK SMILES IDX 8 1 7 2 6 3 5 4 4 5 3 6 2 7 1 8 78 9 79 10 89 11 80 12 88 13
REMARK SMILES IDX 81 14 87 15 82 16 85 17 83 18 84 19 86 20 90 21 91 22 92 23
REMARK SMILES IDX 93 24 9 25 10 26 11 27 12 28 13 29 14 30 15 31 16 32 77 33
REMARK SMILES IDX 17 34 76 35 18 36 19 37 20 38 70 39 21 40 75 41 69 42 71 43
REMARK SMILES IDX 22 44 74 45 68 46 67 47 23 49 55 50 35 51 54 52 36 53 39 54
REMARK SMILES IDX 53 55 72 56 37 57 38 58 52 60 73 61 40 62 24 63 25 64 33 65
REMARK SMILES IDX 26 66 32 67 34 68 31 69 27 70 28 71 29 72 30 73 56 74 57 75
REMARK SMILES IDX 65 76 58 77 64 78 66 79 63 80 59 81 60 82 61 83 62 84 41 85
REMARK SMILES IDX 42 86 50 87 43 88 49 89 51 90 48 91 44 92 45 93 46 94 47 95
REMARK H PARENT 71 48 39 59
REMARK Flexibility Score: inf
ROOT
ATOM      1  C   UNL A   1      32.015  29.399  25.030  1.00  0.00     0.188 C 
ENDROOT
BRANCH   1   2
ATOM      2  C   UNL A   1      30.814  29.225  24.104  1.00  0.00     0.188 C 
BRANCH   2   3
ATOM      3  O   UNL A   1      30.372  27.876  24.026  1.00  0.00    -0.376 OA
BRANCH   3   4
ATOM      4  C   UNL A   1      30.764  27.031  25.105  1.00  0.00     0.202 C 
BRANCH   4   5
ATOM      5  C   UNL A   1      29.785  25.892  25.414  1.00  0.00     0.261 C 
BRANCH   5   6
ATOM      6  O   UNL A   1      30.400  24.598  25.225  1.00  0.00    -0.460 OA
BRANCH   6   7
ATOM      7  C   UNL A   1      31.253  24.141  26.167  1.00  0.00     0.338 C 
ATOM      8  O   UNL A   1      30.953  24.087  27.351  1.00  0.00    -0.246 OA
BRANCH   7   9
ATOM      9  C   UNL A   1      32.634  23.876  25.675  1.00  0.00     0.087 C 
ATOM     10  C   UNL A   1      33.236  22.806  26.231  1.00  0.00     0.027 C 
ATOM     11  C   UNL A   1      32.953  24.207  24.241  1.00  0.00     0.316 C 
ATOM     12  C   UNL A   1      33.071  21.620  25.360  1.00  0.00     0.020 A 
ATOM     13  O   UNL A   1      32.936  23.021  23.389  1.00  0.00    -0.474 OA
ATOM     14  C   UNL A   1      33.110  20.337  25.914  1.00  0.00     0.032 A 
ATOM     15  C   UNL A   1      32.802  21.791  23.994  1.00  0.00     0.146 A 
ATOM     16  C   UNL A   1      32.757  19.240  25.131  1.00  0.00     0.043 A 
ATOM     17  C   UNL A   1      32.387  20.685  23.237  1.00  0.00     0.085 A 
ATOM     18  Cl  UNL A   1      32.819  17.656  25.799  1.00  0.00    -0.084 Cl
ATOM     19  C   UNL A   1      32.336  19.414  23.815  1.00  0.00     0.045 A 
ATOM     20  Cl  UNL A   1      31.852  20.838  21.602  1.00  0.00    -0.080 Cl
BRANCH  11  21
ATOM     21  C   UNL A   1      34.220  25.045  24.062  1.00  0.00     0.430 C 
ATOM     22  F   UNL A   1      35.245  24.539  24.787  1.00  0.00    -0.167 F 
ATOM     23  F   UNL A   1      34.615  25.052  22.767  1.00  0.00    -0.167 F 
ATOM     24  F   UNL A   1      34.035  26.327  24.444  1.00  0.00    -0.167 F 
ENDBRANCH  11  21
ENDBRANCH   7   9
ENDBRANCH   6   7
ENDBRANCH   5   6
ENDBRANCH   4   5
ENDBRANCH   3   4
ENDBRANCH   2   3
ENDBRANCH   1   2
BRANCH   1  25
ATOM     25  O   UNL A   1      31.817  30.490  25.922  1.00  0.00    -0.376 OA
BRANCH  25  26
ATOM     26  C   UNL A   1      32.484  30.363  27.179  1.00  0.00     0.202 C 
BRANCH  26  27
ATOM     27  C   UNL A   1      33.487  31.455  27.623  1.00  0.00     0.261 C 
BRANCH  27  28
ATOM     28  O   UNL A   1      33.205  32.819  27.267  1.00  0.00    -0.460 OA
BRANCH  28  29
ATOM     29  C   UNL A   1      33.272  33.742  28.249  1.00  0.00     0.338 C 
ATOM     30  O   UNL A   1      32.453  34.607  28.486  1.00  0.00    -0.246 OA
BRANCH  29  31
ATOM     31  C   UNL A   1      34.464  33.462  29.085  1.00  0.00     0.060 A 
ATOM     32  C   UNL A   1      35.732  33.743  28.569  1.00  0.00     0.016 A 
ATOM     33  C   UNL A   1      34.336  32.834  30.328  1.00  0.00     0.016 A 
ATOM     34  C   UNL A   1      36.877  33.373  29.278  1.00  0.00     0.010 A 
ATOM     35  C   UNL A   1      35.488  32.444  31.030  1.00  0.00     0.010 A 
ATOM     36  C   UNL A   1      36.766  32.680  30.492  1.00  0.00    -0.014 A 
BRANCH  36  37
ATOM     37  C   UNL A   1      37.984  32.044  31.064  1.00  0.00     0.031 A 
ATOM     38  C   UNL A   1      38.518  32.560  32.376  1.00  0.00     0.074 A 
ATOM     39  C   UNL A   1      38.553  30.970  30.483  1.00  0.00     0.049 A 
ATOM     40  N   UNL A   1      39.519  32.126  33.099  1.00  0.00    -0.248 NA
ATOM     41  C   UNL A   1      37.819  33.720  32.952  1.00  0.00     0.031 C 
ATOM     42  C   UNL A   1      38.105  30.348  29.238  1.00  0.00     0.029 A 
ATOM     43  N   UNL A   1      39.629  30.207  30.870  1.00  0.00    -0.354 N 
ATOM     44  C   UNL A   1      39.553  32.939  34.227  1.00  0.00     0.074 A 
ATOM     45  C   UNL A   1      38.507  33.926  34.065  1.00  0.00     0.031 C 
ATOM     46  C   UNL A   1      38.904  29.301  28.962  1.00  0.00     0.029 A 
ATOM     47  C   UNL A   1      39.937  29.194  29.991  1.00  0.00     0.049 A 
ATOM     48  H   UNL A   1      40.134  30.371  31.700  1.00  0.00     0.167 HD
ATOM     49  C   UNL A   1      40.369  32.861  35.308  1.00  0.00     0.034 A 
ATOM     50  C   UNL A   1      40.946  28.297  30.009  1.00  0.00     0.034 A 
ATOM     51  C   UNL A   1      41.434  31.897  35.446  1.00  0.00     0.049 A 
ATOM     52  C   UNL A   1      41.912  28.300  31.175  1.00  0.00     0.074 A 
ATOM     53  C   UNL A   1      42.329  31.745  36.490  1.00  0.00     0.029 A 
ATOM     54  N   UNL A   1      41.757  30.927  34.506  1.00  0.00    -0.354 N 
ATOM     55  N   UNL A   1      41.919  29.065  32.243  1.00  0.00    -0.248 NA
ATOM     56  C   UNL A   1      42.991  27.305  31.145  1.00  0.00     0.031 C 
ATOM     57  C   UNL A   1      43.238  30.738  36.149  1.00  0.00     0.029 A 
ATOM     58  C   UNL A   1      42.857  30.197  34.932  1.00  0.00     0.049 A 
ATOM     59  H   UNL A   1      41.275  30.780  33.660  1.00  0.00     0.167 HD
ATOM     60  C   UNL A   1      42.986  28.618  33.023  1.00  0.00     0.074 A 
ATOM     61  C   UNL A   1      43.572  27.498  32.319  1.00  0.00     0.031 C 
ATOM     62  C   UNL A   1      43.444  29.090  34.213  1.00  0.00     0.034 A 
BRANCH  49  63
ATOM     63  C   UNL A   1      40.165  33.877  36.407  1.00  0.00     0.023 A 
ATOM     64  C   UNL A   1      39.642  33.511  37.660  1.00  0.00     0.031 A 
ATOM     65  C   UNL A   1      40.493  35.228  36.199  1.00  0.00     0.131 A 
ATOM     66  C   UNL A   1      39.410  34.493  38.636  1.00  0.00     0.055 A 
ATOM     67  C   UNL A   1      40.331  36.188  37.201  1.00  0.00     0.041 A 
ATOM     68  F   UNL A   1      40.972  35.641  35.015  1.00  0.00    -0.206 F 
ATOM     69  C   UNL A   1      39.777  35.824  38.424  1.00  0.00     0.022 A 
BRANCH  66  70
ATOM     70  S   UNL A   1      38.511  34.028  40.141  1.00  0.00     0.124 S 
ATOM     71  O   UNL A   1      39.453  33.111  40.776  1.00  0.00    -0.237 OA
ATOM     72  O   UNL A   1      38.321  35.313  40.806  1.00  0.00    -0.237 OA
ATOM     73  O   UNL A   1      37.291  33.403  39.632  1.00  0.00    -0.744 OA
ENDBRANCH  66  70
ENDBRANCH  49  63
BRANCH  50  74
ATOM     74  C   UNL A   1      41.147  27.345  28.871  1.00  0.00     0.023 A 
ATOM     75  C   UNL A   1      42.142  27.554  27.902  1.00  0.00     0.031 A 
ATOM     76  C   UNL A   1      40.268  26.262  28.683  1.00  0.00     0.131 A 
ATOM     77  C   UNL A   1      42.190  26.738  26.758  1.00  0.00     0.055 A 
ATOM     78  C   UNL A   1      40.364  25.412  27.580  1.00  0.00     0.041 A 
ATOM     79  F   UNL A   1      39.289  26.019  29.569  1.00  0.00    -0.206 F 
ATOM     80  C   UNL A   1      41.318  25.660  26.599  1.00  0.00     0.022 A 
BRANCH  77  81
ATOM     81  S   UNL A   1      43.323  27.189  25.412  1.00  0.00     0.124 S 
ATOM     82  O   UNL A   1      42.450  27.961  24.536  1.00  0.00    -0.237 OA
ATOM     83  O   UNL A   1      44.350  27.944  26.122  1.00  0.00    -0.237 OA
ATOM     84  O   UNL A   1      43.754  25.897  24.883  1.00  0.00    -0.744 OA
ENDBRANCH  77  81
ENDBRANCH  50  74
BRANCH  62  85
ATOM     85  C   UNL A   1      44.615  28.362  34.837  1.00  0.00     0.023 A 
ATOM     86  C   UNL A   1      44.482  27.067  35.371  1.00  0.00     0.031 A 
ATOM     87  C   UNL A   1      45.872  28.986  34.936  1.00  0.00     0.131 A 
ATOM     88  C   UNL A   1      45.555  26.477  36.055  1.00  0.00     0.055 A 
ATOM     89  C   UNL A   1      46.960  28.360  35.548  1.00  0.00     0.041 A 
ATOM     90  F   UNL A   1      46.063  30.222  34.447  1.00  0.00    -0.206 F 
ATOM     91  C   UNL A   1      46.800  27.107  36.131  1.00  0.00     0.022 A 
BRANCH  88  92
ATOM     92  S   UNL A   1      45.261  24.937  36.968  1.00  0.00     0.124 S 
ATOM     93  O   UNL A   1      45.904  25.216  38.248  1.00  0.00    -0.237 OA
ATOM     94  O   UNL A   1      43.804  24.860  36.990  1.00  0.00    -0.237 OA
ATOM     95  O   UNL A   1      45.922  23.922  36.150  1.00  0.00    -0.744 OA
ENDBRANCH  88  92
ENDBRANCH  62  85
ENDBRANCH  36  37
ENDBRANCH  29  31
ENDBRANCH  28  29
ENDBRANCH  27  28
ENDBRANCH  26  27
ENDBRANCH  25  26
ENDBRANCH   1  25
TORSDOF 21
ENDMDL
MODEL 2
REMARK VINA RESULT:     -10.8      3.366      4.324
REMARK SMILES O=C(OCCOCCOCCOC(=O)c1ccc(-c2c3nc(c(-c4cc(S(=O)(=O)[O-])ccc4F)c4ccc([nH]4)c(-c4cc(S(=O)(=O)[O-])ccc4F)c4nc(c(-c5cc(S(=O)(=O)[O-])ccc5F)c5ccc2[nH]5)C=C4)C=C3)cc1)C1=Cc2cc(Cl)cc(Cl)c2O[C@@H]1C(F)(F)F
REMARK SMILES IDX 8 1 7 2 6 3 5 4 4 5 3 6 2 7 1 8 78 9 79 10 89 11 80 12 88 13
REMARK SMILES IDX 81 14 87 15 82 16 85 17 83 18 84 19 86 20 90 21 91 22 92 23
REMARK SMILES IDX 93 24 9 25 10 26 11 27 12 28 13 29 14 30 15 31 16 32 77 33
REMARK SMILES IDX 17 34 76 35 18 36 19 37 20 38 70 39 21 40 75 41 69 42 71 43
REMARK SMILES IDX 22 44 74 45 68 46 67 47 23 49 55 50 35 51 54 52 36 53 39 54
REMARK SMILES IDX 53 55 72 56 37 57 38 58 52 60 73 61 40 62 24 63 25 64 33 65
REMARK SMILES IDX 26 66 32 67 34 68 31 69 27 70 28 71 29 72 30 73 56 74 57 75
REMARK SMILES IDX 65 76 58 77 64 78 66 79 63 80 59 81 60 82 61 83 62 84 41 85
REMARK SMILES IDX 42 86 50 87 43 88 49 89 51 90 48 91 44 92 45 93 46 94 47 95
REMARK H PARENT 71 48 39 59
REMARK Flexibility Score: inf
ROOT
ATOM      1  C   UNL A   1      33.539  28.132  24.786  1.00  0.00     0.188 C 
ENDROOT
BRANCH   1   2
ATOM      2  C   UNL A   1      33.300  28.792  23.430  1.00  0.00     0.188 C 
BRANCH   2   3
ATOM      3  O   UNL A   1      32.919  27.862  22.425  1.00  0.00    -0.376 OA
BRANCH   3   4
ATOM      4  C   UNL A   1      32.692  26.527  22.870  1.00  0.00     0.202 C 
BRANCH   4   5
ATOM      5  C   UNL A   1      32.190  25.566  21.784  1.00  0.00     0.261 C 
BRANCH   5   6
ATOM      6  O   UNL A   1      32.118  24.208  22.270  1.00  0.00    -0.460 OA
BRANCH   6   7
ATOM      7  C   UNL A   1      33.223  23.654  22.815  1.00  0.00     0.338 C 
ATOM      8  O   UNL A   1      34.222  23.403  22.155  1.00  0.00    -0.246 OA
BRANCH   7   9
ATOM      9  C   UNL A   1      33.064  23.218  24.229  1.00  0.00     0.087 C 
ATOM     10  C   UNL A   1      33.397  21.933  24.465  1.00  0.00     0.027 C 
ATOM     11  C   UNL A   1      33.312  24.228  25.317  1.00  0.00     0.316 C 
ATOM     12  C   UNL A   1      34.790  21.852  24.962  1.00  0.00     0.020 A 
ATOM     13  O   UNL A   1      34.633  24.071  25.919  1.00  0.00    -0.474 OA
ATOM     14  C   UNL A   1      35.531  20.683  24.770  1.00  0.00     0.032 A 
ATOM     15  C   UNL A   1      35.384  22.976  25.556  1.00  0.00     0.146 A 
ATOM     16  C   UNL A   1      36.895  20.679  25.056  1.00  0.00     0.043 A 
ATOM     17  C   UNL A   1      36.769  22.976  25.778  1.00  0.00     0.085 A 
ATOM     18  Cl  UNL A   1      37.812  19.240  24.841  1.00  0.00    -0.084 Cl
ATOM     19  C   UNL A   1      37.529  21.838  25.500  1.00  0.00     0.045 A 
ATOM     20  Cl  UNL A   1      37.612  24.382  26.325  1.00  0.00    -0.080 Cl
BRANCH  11  21
ATOM     21  C   UNL A   1      32.195  24.311  26.358  1.00  0.00     0.430 C 
ATOM     22  F   UNL A   1      32.448  23.499  27.410  1.00  0.00    -0.167 F 
ATOM     23  F   UNL A   1      32.081  25.570  26.846  1.00  0.00    -0.167 F 
ATOM     24  F   UNL A   1      30.997  23.960  25.842  1.00  0.00    -0.167 F 
ENDBRANCH  11  21
ENDBRANCH   7   9
ENDBRANCH   6   7
ENDBRANCH   5   6
ENDBRANCH   4   5
ENDBRANCH   3   4
ENDBRANCH   2   3
ENDBRANCH   1   2
BRANCH   1  25
ATOM     25  O   UNL A   1      32.473  28.413  25.686  1.00  0.00    -0.376 OA
BRANCH  25  26
ATOM     26  C   UNL A   1      32.161  29.800  25.828  1.00  0.00     0.202 C 
BRANCH  26  27
ATOM     27  C   UNL A   1      32.785  30.605  26.994  1.00  0.00     0.261 C 
BRANCH  27  28
ATOM     28  O   UNL A   1      34.191  30.450  27.248  1.00  0.00    -0.460 OA
BRANCH  28  29
ATOM     29  C   UNL A   1      34.851  31.516  27.746  1.00  0.00     0.338 C 
ATOM     30  O   UNL A   1      34.508  32.679  27.670  1.00  0.00    -0.246 OA
BRANCH  29  31
ATOM     31  C   UNL A   1      36.023  31.035  28.516  1.00  0.00     0.060 A 
ATOM     32  C   UNL A   1      37.226  31.741  28.426  1.00  0.00     0.016 A 
ATOM     33  C   UNL A   1      35.963  29.840  29.240  1.00  0.00     0.016 A 
ATOM     34  C   UNL A   1      38.380  31.242  29.035  1.00  0.00     0.010 A 
ATOM     35  C   UNL A   1      37.129  29.330  29.834  1.00  0.00     0.010 A 
ATOM     36  C   UNL A   1      38.352  30.010  29.705  1.00  0.00    -0.014 A 
BRANCH  36  37
ATOM     37  C   UNL A   1      39.645  29.372  30.076  1.00  0.00     0.031 A 
ATOM     38  C   UNL A   1      40.384  29.893  31.282  1.00  0.00     0.074 A 
ATOM     39  C   UNL A   1      40.110  28.294  29.416  1.00  0.00     0.049 A 
ATOM     40  N   UNL A   1      41.487  29.458  31.837  1.00  0.00    -0.248 NA
ATOM     41  C   UNL A   1      39.791  31.057  31.958  1.00  0.00     0.031 C 
ATOM     42  C   UNL A   1      39.465  27.668  28.263  1.00  0.00     0.029 A 
ATOM     43  N   UNL A   1      41.232  27.529  29.629  1.00  0.00    -0.354 N 
ATOM     44  C   UNL A   1      41.705  30.276  32.941  1.00  0.00     0.074 A 
ATOM     45  C   UNL A   1      40.649  31.266  32.944  1.00  0.00     0.031 C 
ATOM     46  C   UNL A   1      40.207  26.617  27.867  1.00  0.00     0.029 A 
ATOM     47  C   UNL A   1      41.391  26.510  28.718  1.00  0.00     0.049 A 
ATOM     48  H   UNL A   1      41.864  27.694  30.367  1.00  0.00     0.167 HD
ATOM     49  C   UNL A   1      42.683  30.200  33.877  1.00  0.00     0.034 A 
ATOM     50  C   UNL A   1      42.388  25.609  28.577  1.00  0.00     0.034 A 
ATOM     51  C   UNL A   1      43.754  29.232  33.847  1.00  0.00     0.049 A 
ATOM     52  C   UNL A   1      43.528  25.614  29.573  1.00  0.00     0.074 A 
ATOM     53  C   UNL A   1      44.805  29.082  34.735  1.00  0.00     0.029 A 
ATOM     54  N   UNL A   1      43.919  28.258  32.872  1.00  0.00    -0.354 N 
ATOM     55  N   UNL A   1      43.710  26.385  30.622  1.00  0.00    -0.248 NA
ATOM     56  C   UNL A   1      44.586  24.615  29.375  1.00  0.00     0.031 C 
ATOM     57  C   UNL A   1      45.645  28.070  34.256  1.00  0.00     0.029 A 
ATOM     58  C   UNL A   1      45.071  27.525  33.119  1.00  0.00     0.049 A 
ATOM     59  H   UNL A   1      43.307  28.108  32.115  1.00  0.00     0.167 HD
ATOM     60  C   UNL A   1      44.887  25.937  31.223  1.00  0.00     0.074 A 
ATOM     61  C   UNL A   1      45.349  24.812  30.439  1.00  0.00     0.031 C 
ATOM     62  C   UNL A   1      45.531  26.413  32.321  1.00  0.00     0.034 A 
BRANCH  49  63
ATOM     63  C   UNL A   1      42.662  31.221  34.989  1.00  0.00     0.023 A 
ATOM     64  C   UNL A   1      43.347  32.445  34.879  1.00  0.00     0.031 A 
ATOM     65  C   UNL A   1      41.954  30.969  36.177  1.00  0.00     0.131 A 
ATOM     66  C   UNL A   1      43.355  33.344  35.957  1.00  0.00     0.055 A 
ATOM     67  C   UNL A   1      41.903  31.900  37.216  1.00  0.00     0.041 A 
ATOM     68  F   UNL A   1      41.303  29.808  36.351  1.00  0.00    -0.206 F 
ATOM     69  C   UNL A   1      42.614  33.091  37.114  1.00  0.00     0.022 A 
BRANCH  66  70
ATOM     70  S   UNL A   1      44.443  34.792  35.874  1.00  0.00     0.124 S 
ATOM     71  O   UNL A   1      44.446  35.078  34.442  1.00  0.00    -0.237 OA
ATOM     72  O   UNL A   1      43.748  35.759  36.717  1.00  0.00    -0.237 OA
ATOM     73  O   UNL A   1      45.712  34.298  36.406  1.00  0.00    -0.744 OA
ENDBRANCH  66  70
ENDBRANCH  49  63
BRANCH  50  74
ATOM     74  C   UNL A   1      42.400  24.652  27.427  1.00  0.00     0.023 A 
ATOM     75  C   UNL A   1      41.892  23.348  27.546  1.00  0.00     0.031 A 
ATOM     76  C   UNL A   1      43.023  25.003  26.214  1.00  0.00     0.131 A 
ATOM     77  C   UNL A   1      42.077  22.425  26.503  1.00  0.00     0.055 A 
ATOM     78  C   UNL A   1      43.142  24.102  25.154  1.00  0.00     0.041 A 
ATOM     79  F   UNL A   1      43.540  26.231  26.045  1.00  0.00    -0.206 F 
ATOM     80  C   UNL A   1      42.683  22.798  25.302  1.00  0.00     0.022 A 
BRANCH  77  81
ATOM     81  S   UNL A   1      41.632  20.687  26.788  1.00  0.00     0.124 S 
ATOM     82  O   UNL A   1      42.007  20.074  25.520  1.00  0.00    -0.237 OA
ATOM     83  O   UNL A   1      42.463  20.347  27.937  1.00  0.00    -0.237 OA
ATOM     84  O   UNL A   1      40.196  20.743  27.053  1.00  0.00    -0.744 OA
ENDBRANCH  77  81
ENDBRANCH  50  74
BRANCH  62  85
ATOM     85  C   UNL A   1      46.786  25.683  32.752  1.00  0.00     0.023 A 
ATOM     86  C   UNL A   1      46.753  24.668  33.726  1.00  0.00     0.031 A 
ATOM     87  C   UNL A   1      48.036  26.035  32.213  1.00  0.00     0.131 A 
ATOM     88  C   UNL A   1      47.951  24.105  34.192  1.00  0.00     0.055 A 
ATOM     89  C   UNL A   1      49.218  25.414  32.623  1.00  0.00     0.041 A 
ATOM     90  F   UNL A   1      48.134  26.997  31.281  1.00  0.00    -0.206 F 
ATOM     91  C   UNL A   1      49.182  24.457  33.633  1.00  0.00     0.022 A 
BRANCH  88  92
ATOM     92  S   UNL A   1      47.891  23.010  35.637  1.00  0.00     0.124 S 
ATOM     93  O   UNL A   1      46.858  23.642  36.452  1.00  0.00    -0.237 OA
ATOM     94  O   UNL A   1      47.536  21.726  35.041  1.00  0.00    -0.237 OA
ATOM     95  O   UNL A   1      49.245  23.085  36.182  1.00  0.00    -0.744 OA
ENDBRANCH  88  92
ENDBRANCH  62  85
ENDBRANCH  36  37
ENDBRANCH  29  31
ENDBRANCH  28  29
ENDBRANCH  27  28
ENDBRANCH  26  27
ENDBRANCH  25  26
ENDBRANCH   1  25
TORSDOF 21
ENDMDL
MODEL 3
REMARK VINA RESULT:     -10.8      3.300      8.403
REMARK SMILES O=C(OCCOCCOCCOC(=O)c1ccc(-c2c3nc(c(-c4cc(S(=O)(=O)[O-])ccc4F)c4ccc([nH]4)c(-c4cc(S(=O)(=O)[O-])ccc4F)c4nc(c(-c5cc(S(=O)(=O)[O-])ccc5F)c5ccc2[nH]5)C=C4)C=C3)cc1)C1=Cc2cc(Cl)cc(Cl)c2O[C@@H]1C(F)(F)F
REMARK SMILES IDX 8 1 7 2 6 3 5 4 4 5 3 6 2 7 1 8 78 9 79 10 89 11 80 12 88 13
REMARK SMILES IDX 81 14 87 15 82 16 85 17 83 18 84 19 86 20 90 21 91 22 92 23
REMARK SMILES IDX 93 24 9 25 10 26 11 27 12 28 13 29 14 30 15 31 16 32 77 33
REMARK SMILES IDX 17 34 76 35 18 36 19 37 20 38 70 39 21 40 75 41 69 42 71 43
REMARK SMILES IDX 22 44 74 45 68 46 67 47 23 49 55 50 35 51 54 52 36 53 39 54
REMARK SMILES IDX 53 55 72 56 37 57 38 58 52 60 73 61 40 62 24 63 25 64 33 65
REMARK SMILES IDX 26 66 32 67 34 68 31 69 27 70 28 71 29 72 30 73 56 74 57 75
REMARK SMILES IDX 65 76 58 77 64 78 66 79 63 80 59 81 60 82 61 83 62 84 41 85
REMARK SMILES IDX 42 86 50 87 43 88 49 89 51 90 48 91 44 92 45 93 46 94 47 95
REMARK H PARENT 71 48 39 59
REMARK Flexibility Score: inf
ROOT
ATOM      1  C   UNL A   1      32.660  28.241  24.886  1.00  0.00     0.188 C 
ENDROOT
BRANCH   1   2
ATOM      2  C   UNL A   1      31.546  27.496  24.154  1.00  0.00     0.188 C 
BRANCH   2   3
ATOM      3  O   UNL A   1      32.006  26.315  23.511  1.00  0.00    -0.376 OA
BRANCH   3   4
ATOM      4  C   UNL A   1      32.559  26.492  22.209  1.00  0.00     0.202 C 
BRANCH   4   5
ATOM      5  C   UNL A   1      32.949  25.191  21.496  1.00  0.00     0.261 C 
BRANCH   5   6
ATOM      6  O   UNL A   1      33.661  24.296  22.378  1.00  0.00    -0.460 OA
BRANCH   6   7
ATOM      7  C   UNL A   1      33.120  23.088  22.651  1.00  0.00     0.338 C 
ATOM      8  O   UNL A   1      32.648  22.371  21.780  1.00  0.00    -0.246 OA
BRANCH   7   9
ATOM      9  C   UNL A   1      32.988  22.784  24.102  1.00  0.00     0.087 C 
ATOM     10  C   UNL A   1      33.335  21.528  24.449  1.00  0.00     0.027 C 
ATOM     11  C   UNL A   1      33.248  23.891  25.088  1.00  0.00     0.316 C 
ATOM     12  C   UNL A   1      34.737  21.501  24.926  1.00  0.00     0.020 A 
ATOM     13  O   UNL A   1      34.580  23.798  25.678  1.00  0.00    -0.474 OA
ATOM     14  C   UNL A   1      35.484  20.323  24.829  1.00  0.00     0.032 A 
ATOM     15  C   UNL A   1      35.333  22.678  25.403  1.00  0.00     0.146 A 
ATOM     16  C   UNL A   1      36.852  20.354  25.090  1.00  0.00     0.043 A 
ATOM     17  C   UNL A   1      36.722  22.707  25.599  1.00  0.00     0.085 A 
ATOM     18  Cl  UNL A   1      37.775  18.906  24.991  1.00  0.00    -0.084 Cl
ATOM     19  C   UNL A   1      37.485  21.552  25.413  1.00  0.00     0.045 A 
ATOM     20  Cl  UNL A   1      37.564  24.162  25.998  1.00  0.00    -0.080 Cl
BRANCH  11  21
ATOM     21  C   UNL A   1      32.148  24.063  26.136  1.00  0.00     0.430 C 
ATOM     22  F   UNL A   1      32.239  23.115  27.097  1.00  0.00    -0.167 F 
ATOM     23  F   UNL A   1      32.253  25.264  26.753  1.00  0.00    -0.167 F 
ATOM     24  F   UNL A   1      30.915  23.986  25.592  1.00  0.00    -0.167 F 
ENDBRANCH  11  21
ENDBRANCH   7   9
ENDBRANCH   6   7
ENDBRANCH   5   6
ENDBRANCH   4   5
ENDBRANCH   3   4
ENDBRANCH   2   3
ENDBRANCH   1   2
BRANCH   1  25
ATOM     25  O   UNL A   1      32.496  29.649  24.769  1.00  0.00    -0.376 OA
BRANCH  25  26
ATOM     26  C   UNL A   1      31.900  30.279  25.904  1.00  0.00     0.202 C 
BRANCH  26  27
ATOM     27  C   UNL A   1      32.702  30.385  27.224  1.00  0.00     0.261 C 
BRANCH  27  28
ATOM     28  O   UNL A   1      34.121  30.602  27.139  1.00  0.00    -0.460 OA
BRANCH  28  29
ATOM     29  C   UNL A   1      34.728  31.151  28.213  1.00  0.00     0.338 C 
ATOM     30  O   UNL A   1      34.291  32.043  28.913  1.00  0.00    -0.246 OA
BRANCH  29  31
ATOM     31  C   UNL A   1      35.980  30.406  28.485  1.00  0.00     0.060 A 
ATOM     32  C   UNL A   1      36.119  29.740  29.706  1.00  0.00     0.016 A 
ATOM     33  C   UNL A   1      37.049  30.450  27.584  1.00  0.00     0.016 A 
ATOM     34  C   UNL A   1      37.333  29.139  30.043  1.00  0.00     0.010 A 
ATOM     35  C   UNL A   1      38.276  29.863  27.934  1.00  0.00     0.010 A 
ATOM     36  C   UNL A   1      38.436  29.234  29.182  1.00  0.00    -0.014 A 
BRANCH  36  37
ATOM     37  C   UNL A   1      39.778  28.851  29.698  1.00  0.00     0.031 A 
ATOM     38  C   UNL A   1      40.470  27.658  29.087  1.00  0.00     0.074 A 
ATOM     39  C   UNL A   1      40.414  29.596  30.622  1.00  0.00     0.049 A 
ATOM     40  N   UNL A   1      41.664  27.175  29.322  1.00  0.00    -0.248 NA
ATOM     41  C   UNL A   1      39.713  26.917  28.066  1.00  0.00     0.031 C 
ATOM     42  C   UNL A   1      39.872  30.796  31.256  1.00  0.00     0.029 A 
ATOM     43  N   UNL A   1      41.662  29.456  31.182  1.00  0.00    -0.354 N 
ATOM     44  C   UNL A   1      41.812  26.093  28.460  1.00  0.00     0.074 A 
ATOM     45  C   UNL A   1      40.565  25.959  27.738  1.00  0.00     0.031 C 
ATOM     46  C   UNL A   1      40.781  31.280  32.123  1.00  0.00     0.029 A 
ATOM     47  C   UNL A   1      41.957  30.411  32.128  1.00  0.00     0.049 A 
ATOM     48  H   UNL A   1      42.287  28.737  30.930  1.00  0.00     0.167 HD
ATOM     49  C   UNL A   1      42.892  25.294  28.274  1.00  0.00     0.034 A 
ATOM     50  C   UNL A   1      43.043  30.555  32.917  1.00  0.00     0.034 A 
ATOM     51  C   UNL A   1      44.119  25.412  29.024  1.00  0.00     0.049 A 
ATOM     52  C   UNL A   1      44.194  29.583  32.767  1.00  0.00     0.074 A 
ATOM     53  C   UNL A   1      45.265  24.641  28.927  1.00  0.00     0.029 A 
ATOM     54  N   UNL A   1      44.358  26.350  30.020  1.00  0.00    -0.354 N 
ATOM     55  N   UNL A   1      44.325  28.574  31.934  1.00  0.00    -0.248 NA
ATOM     56  C   UNL A   1      45.351  29.782  33.649  1.00  0.00     0.031 C 
ATOM     57  C   UNL A   1      46.164  25.064  29.913  1.00  0.00     0.029 A 
ATOM     58  C   UNL A   1      45.618  26.157  30.566  1.00  0.00     0.049 A 
ATOM     59  H   UNL A   1      43.724  27.051  30.297  1.00  0.00     0.167 HD
ATOM     60  C   UNL A   1      45.592  28.044  32.176  1.00  0.00     0.074 A 
ATOM     61  C   UNL A   1      46.194  28.864  33.204  1.00  0.00     0.031 C 
ATOM     62  C   UNL A   1      46.204  26.973  31.603  1.00  0.00     0.034 A 
BRANCH  49  63
ATOM     63  C   UNL A   1      42.775  24.195  27.245  1.00  0.00     0.023 A 
ATOM     64  C   UNL A   1      42.102  22.992  27.526  1.00  0.00     0.031 A 
ATOM     65  C   UNL A   1      43.346  24.348  25.970  1.00  0.00     0.131 A 
ATOM     66  C   UNL A   1      42.066  21.969  26.566  1.00  0.00     0.055 A 
ATOM     67  C   UNL A   1      43.240  23.356  24.992  1.00  0.00     0.041 A 
ATOM     68  F   UNL A   1      44.022  25.463  25.652  1.00  0.00    -0.206 F 
ATOM     69  C   UNL A   1      42.606  22.154  25.291  1.00  0.00     0.022 A 
BRANCH  66  70
ATOM     70  S   UNL A   1      41.408  20.349  27.046  1.00  0.00     0.124 S 
ATOM     71  O   UNL A   1      40.666  20.679  28.260  1.00  0.00    -0.237 OA
ATOM     72  O   UNL A   1      40.604  19.977  25.887  1.00  0.00    -0.237 OA
ATOM     73  O   UNL A   1      42.607  19.541  27.258  1.00  0.00    -0.744 OA
ENDBRANCH  66  70
ENDBRANCH  49  63
BRANCH  50  74
ATOM     74  C   UNL A   1      43.095  31.622  33.965  1.00  0.00     0.023 A 
ATOM     75  C   UNL A   1      42.441  31.477  35.200  1.00  0.00     0.031 A 
ATOM     76  C   UNL A   1      43.719  32.855  33.697  1.00  0.00     0.131 A 
ATOM     77  C   UNL A   1      42.367  32.564  36.087  1.00  0.00     0.055 A 
ATOM     78  C   UNL A   1      43.702  33.909  34.612  1.00  0.00     0.041 A 
ATOM     79  F   UNL A   1      44.350  33.058  32.528  1.00  0.00    -0.206 F 
ATOM     80  C   UNL A   1      43.007  33.773  35.808  1.00  0.00     0.022 A 
BRANCH  77  81
ATOM     81  S   UNL A   1      41.307  32.421  37.554  1.00  0.00     0.124 S 
ATOM     82  O   UNL A   1      41.087  33.820  37.898  1.00  0.00    -0.237 OA
ATOM     83  O   UNL A   1      40.153  31.701  37.025  1.00  0.00    -0.237 OA
ATOM     84  O   UNL A   1      42.131  31.668  38.497  1.00  0.00    -0.744 OA
ENDBRANCH  77  81
ENDBRANCH  50  74
BRANCH  62  85
ATOM     85  C   UNL A   1      47.614  26.663  32.059  1.00  0.00     0.023 A 
ATOM     86  C   UNL A   1      47.874  25.728  33.078  1.00  0.00     0.031 A 
ATOM     87  C   UNL A   1      48.711  27.339  31.494  1.00  0.00     0.131 A 
ATOM     88  C   UNL A   1      49.181  25.563  33.561  1.00  0.00     0.055 A 
ATOM     89  C   UNL A   1      50.019  27.110  31.924  1.00  0.00     0.041 A 
ATOM     90  F   UNL A   1      48.529  28.244  30.518  1.00  0.00    -0.206 F 
ATOM     91  C   UNL A   1      50.258  26.233  32.978  1.00  0.00     0.022 A 
BRANCH  88  92
ATOM     92  S   UNL A   1      49.434  24.566  35.055  1.00  0.00     0.124 S 
ATOM     93  O   UNL A   1      49.213  25.546  36.114  1.00  0.00    -0.237 OA
ATOM     94  O   UNL A   1      48.413  23.533  34.919  1.00  0.00    -0.237 OA
ATOM     95  O   UNL A   1      50.811  24.095  34.924  1.00  0.00    -0.744 OA
ENDBRANCH  88  92
ENDBRANCH  62  85
ENDBRANCH  36  37
ENDBRANCH  29  31
ENDBRANCH  28  29
ENDBRANCH  27  28
ENDBRANCH  26  27
ENDBRANCH  25  26
ENDBRANCH   1  25
TORSDOF 21
ENDMDL
