MODEL 1
REMARK VINA RESULT:      -9.3      0.000      0.000
REMARK SMILES CC[C@@](C)(NC(=O)N(C)[C@@H](C)C(C)C)C(=O)OCCOCCOCCOC(=O)c1ccc(-c2c3nc(c(-c4cc(S(=O)(=O)[O-])ccc4F)c4ccc([nH]4)c(-c4cc(S(=O)(=O)[O-])ccc4F)c4nc(c(-c5cc(S(=O)(=O)[O-])ccc5F)c5ccc2[nH]5)C=C4)C=C3)cc1
REMARK SMILES IDX 21 1 20 2 19 3 18 4 17 5 15 6 16 7 3 8 4 9 2 10 1 11 5 12
REMARK SMILES IDX 6 13 7 15 8 16 9 17 10 18 11 19 12 20 13 21 14 22 22 23
REMARK SMILES IDX 23 24 24 25 25 26 26 27 27 28 28 29 29 30 30 31 91 32 31 33
REMARK SMILES IDX 90 34 32 35 33 36 34 37 84 38 35 39 89 40 83 41 85 42 36 43
REMARK SMILES IDX 88 44 82 45 81 46 37 48 69 49 49 50 68 51 50 52 53 53 67 54
REMARK SMILES IDX 86 55 51 56 52 57 66 59 87 60 54 61 38 62 39 63 47 64 40 65
REMARK SMILES IDX 46 66 48 67 45 68 41 69 42 70 43 71 44 72 70 73 71 74 79 75
REMARK SMILES IDX 72 76 78 77 80 78 77 79 73 80 74 81 75 82 76 83 55 84 56 85
REMARK SMILES IDX 64 86 57 87 63 88 65 89 62 90 58 91 59 92 60 93 61 94
REMARK H PARENT 5 14 85 47 53 58
REMARK Flexibility Score: inf
ROOT
ATOM      1  C   UNL A   1      35.098  31.687  28.630  1.00  0.00     0.188 C 
ENDROOT
BRANCH   1   2
ATOM      2  O   UNL A   1      34.355  30.940  27.668  1.00  0.00    -0.376 OA
BRANCH   2   3
ATOM      3  C   UNL A   1      33.121  31.442  27.176  1.00  0.00     0.202 C 
BRANCH   3   4
ATOM      4  C   UNL A   1      32.157  30.396  26.627  1.00  0.00     0.261 C 
BRANCH   4   5
ATOM      5  O   UNL A   1      32.457  30.099  25.250  1.00  0.00    -0.462 OA
BRANCH   5   6
ATOM      6  C   UNL A   1      31.787  29.079  24.683  1.00  0.00     0.331 C 
ATOM      7  O   UNL A   1      30.665  29.214  24.203  1.00  0.00    -0.249 OA
BRANCH   6   8
ATOM      8  C   UNL A   1      32.551  27.713  24.701  1.00  0.00     0.136 C 
ATOM      9  C   UNL A   1      34.039  28.161  24.658  1.00  0.00     0.047 C 
BRANCH   8  10
ATOM     10  C   UNL A   1      32.251  26.999  26.056  1.00  0.00     0.037 C 
ATOM     11  C   UNL A   1      30.979  26.143  26.119  1.00  0.00     0.007 C 
ENDBRANCH   8  10
BRANCH   8  12
ATOM     12  N   UNL A   1      32.475  26.699  23.556  1.00  0.00    -0.322 N 
ATOM     13  C   UNL A   1      33.395  25.937  22.893  1.00  0.00     0.318 C 
ATOM     14  H   UNL A   1      31.558  26.567  23.224  1.00  0.00     0.166 HD
ATOM     15  O   UNL A   1      33.819  26.388  21.831  1.00  0.00    -0.249 OA
BRANCH  13  16
ATOM     16  N   UNL A   1      33.569  24.626  23.293  1.00  0.00    -0.325 N 
ATOM     17  C   UNL A   1      32.804  23.541  22.693  1.00  0.00     0.149 C 
BRANCH  16  18
ATOM     18  C   UNL A   1      34.643  24.150  24.222  1.00  0.00     0.086 C 
ATOM     19  C   UNL A   1      34.078  24.099  25.664  1.00  0.00     0.031 C 
BRANCH  18  20
ATOM     20  C   UNL A   1      35.430  22.821  23.972  1.00  0.00     0.005 C 
ATOM     21  C   UNL A   1      36.681  22.938  23.112  1.00  0.00     0.009 C 
ATOM     22  C   UNL A   1      35.895  22.220  25.323  1.00  0.00     0.009 C 
ENDBRANCH  18  20
ENDBRANCH  16  18
ENDBRANCH  13  16
ENDBRANCH   8  12
ENDBRANCH   6   8
ENDBRANCH   5   6
ENDBRANCH   4   5
ENDBRANCH   3   4
ENDBRANCH   2   3
ENDBRANCH   1   2
BRANCH   1  23
ATOM     23  C   UNL A   1      34.424  32.848  29.373  1.00  0.00     0.188 C 
BRANCH  23  24
ATOM     24  O   UNL A   1      34.830  34.176  29.047  1.00  0.00    -0.376 OA
BRANCH  24  25
ATOM     25  C   UNL A   1      33.845  35.032  28.479  1.00  0.00     0.202 C 
BRANCH  25  26
ATOM     26  C   UNL A   1      32.888  35.632  29.503  1.00  0.00     0.261 C 
BRANCH  26  27
ATOM     27  O   UNL A   1      33.634  36.431  30.424  1.00  0.00    -0.460 OA
BRANCH  27  28
ATOM     28  C   UNL A   1      33.288  36.332  31.725  1.00  0.00     0.338 C 
ATOM     29  O   UNL A   1      32.481  36.995  32.355  1.00  0.00    -0.246 OA
BRANCH  28  30
ATOM     30  C   UNL A   1      34.113  35.257  32.271  1.00  0.00     0.060 A 
ATOM     31  C   UNL A   1      33.538  34.096  32.805  1.00  0.00     0.016 A 
ATOM     32  C   UNL A   1      35.493  35.424  32.192  1.00  0.00     0.016 A 
ATOM     33  C   UNL A   1      34.368  33.078  33.273  1.00  0.00     0.010 A 
ATOM     34  C   UNL A   1      36.313  34.415  32.660  1.00  0.00     0.010 A 
ATOM     35  C   UNL A   1      35.756  33.249  33.215  1.00  0.00    -0.014 A 
BRANCH  35  36
ATOM     36  C   UNL A   1      36.716  32.319  33.837  1.00  0.00     0.031 A 
ATOM     37  C   UNL A   1      37.334  32.753  35.130  1.00  0.00     0.074 A 
ATOM     38  C   UNL A   1      37.196  31.296  33.112  1.00  0.00     0.049 A 
ATOM     39  N   UNL A   1      38.477  32.424  35.659  1.00  0.00    -0.248 NA
ATOM     40  C   UNL A   1      36.572  33.758  35.889  1.00  0.00     0.031 C 
ATOM     41  C   UNL A   1      36.638  30.833  31.841  1.00  0.00     0.029 A 
ATOM     42  N   UNL A   1      38.315  30.527  33.295  1.00  0.00    -0.354 N 
ATOM     43  C   UNL A   1      38.602  33.218  36.795  1.00  0.00     0.074 A 
ATOM     44  C   UNL A   1      37.422  34.054  36.860  1.00  0.00     0.031 C 
ATOM     45  C   UNL A   1      37.460  29.909  31.318  1.00  0.00     0.029 A 
ATOM     46  C   UNL A   1      38.621  29.763  32.191  1.00  0.00     0.049 A 
ATOM     47  H   UNL A   1      38.843  30.521  34.126  1.00  0.00     0.167 HD
ATOM     48  C   UNL A   1      39.626  33.248  37.683  1.00  0.00     0.034 A 
ATOM     49  C   UNL A   1      39.749  29.088  31.895  1.00  0.00     0.034 A 
ATOM     50  C   UNL A   1      40.792  32.410  37.542  1.00  0.00     0.049 A 
ATOM     51  C   UNL A   1      40.880  29.127  32.889  1.00  0.00     0.074 A 
ATOM     52  C   UNL A   1      41.888  32.293  38.377  1.00  0.00     0.029 A 
ATOM     53  N   UNL A   1      41.016  31.551  36.468  1.00  0.00    -0.354 N 
ATOM     54  N   UNL A   1      40.985  29.841  33.988  1.00  0.00    -0.248 NA
ATOM     55  C   UNL A   1      42.034  28.265  32.615  1.00  0.00     0.031 C 
ATOM     56  C   UNL A   1      42.797  31.410  37.780  1.00  0.00     0.029 A 
ATOM     57  C   UNL A   1      42.239  30.918  36.608  1.00  0.00     0.049 A 
ATOM     58  H   UNL A   1      40.394  31.414  35.718  1.00  0.00     0.167 HD
ATOM     59  C   UNL A   1      42.208  29.492  34.554  1.00  0.00     0.074 A 
ATOM     60  C   UNL A   1      42.799  28.503  33.672  1.00  0.00     0.031 C 
ATOM     61  C   UNL A   1      42.789  29.937  35.699  1.00  0.00     0.034 A 
BRANCH  48  62
ATOM     62  C   UNL A   1      39.539  34.254  38.808  1.00  0.00     0.023 A 
ATOM     63  C   UNL A   1      38.989  33.920  40.061  1.00  0.00     0.031 A 
ATOM     64  C   UNL A   1      39.933  35.589  38.607  1.00  0.00     0.131 A 
ATOM     65  C   UNL A   1      38.750  34.921  41.015  1.00  0.00     0.055 A 
ATOM     66  C   UNL A   1      39.779  36.563  39.597  1.00  0.00     0.041 A 
ATOM     67  F   UNL A   1      40.445  35.981  37.430  1.00  0.00    -0.206 F 
ATOM     68  C   UNL A   1      39.163  36.237  40.802  1.00  0.00     0.022 A 
BRANCH  65  69
ATOM     69  S   UNL A   1      37.733  34.512  42.462  1.00  0.00     0.124 S 
ATOM     70  O   UNL A   1      38.408  33.320  42.968  1.00  0.00    -0.237 OA
ATOM     71  O   UNL A   1      37.854  35.711  43.283  1.00  0.00    -0.237 OA
ATOM     72  O   UNL A   1      36.408  34.275  41.893  1.00  0.00    -0.744 OA
ENDBRANCH  65  69
ENDBRANCH  48  62
BRANCH  49  73
ATOM     73  C   UNL A   1      39.864  28.367  30.597  1.00  0.00     0.023 A 
ATOM     74  C   UNL A   1      40.739  28.817  29.597  1.00  0.00     0.031 A 
ATOM     75  C   UNL A   1      39.130  27.191  30.351  1.00  0.00     0.131 A 
ATOM     76  C   UNL A   1      40.850  28.106  28.391  1.00  0.00     0.055 A 
ATOM     77  C   UNL A   1      39.270  26.468  29.164  1.00  0.00     0.041 A 
ATOM     78  F   UNL A   1      38.288  26.710  31.280  1.00  0.00    -0.206 F 
ATOM     79  C   UNL A   1      40.131  26.928  28.174  1.00  0.00     0.022 A 
BRANCH  76  80
ATOM     80  S   UNL A   1      41.930  28.764  27.092  1.00  0.00     0.124 S 
ATOM     81  O   UNL A   1      42.577  29.877  27.776  1.00  0.00    -0.237 OA
ATOM     82  O   UNL A   1      42.778  27.614  26.792  1.00  0.00    -0.237 OA
ATOM     83  O   UNL A   1      40.998  29.140  26.030  1.00  0.00    -0.744 OA
ENDBRANCH  76  80
ENDBRANCH  49  73
BRANCH  61  84
ATOM     84  C   UNL A   1      44.098  29.301  36.083  1.00  0.00     0.023 A 
ATOM     85  C   UNL A   1      45.330  29.887  35.751  1.00  0.00     0.031 A 
ATOM     86  C   UNL A   1      44.102  28.098  36.811  1.00  0.00     0.131 A 
ATOM     87  C   UNL A   1      46.522  29.244  36.115  1.00  0.00     0.055 A 
ATOM     88  C   UNL A   1      45.291  27.492  37.216  1.00  0.00     0.041 A 
ATOM     89  F   UNL A   1      42.947  27.502  37.151  1.00  0.00    -0.206 F 
ATOM     90  C   UNL A   1      46.510  28.061  36.860  1.00  0.00     0.022 A 
BRANCH  87  91
ATOM     91  S   UNL A   1      48.096  29.944  35.549  1.00  0.00     0.124 S 
ATOM     92  O   UNL A   1      48.926  29.825  36.744  1.00  0.00    -0.237 OA
ATOM     93  O   UNL A   1      48.449  29.065  34.439  1.00  0.00    -0.237 OA
ATOM     94  O   UNL A   1      47.747  31.311  35.169  1.00  0.00    -0.744 OA
ENDBRANCH  87  91
ENDBRANCH  61  84
ENDBRANCH  35  36
ENDBRANCH  28  30
ENDBRANCH  27  28
ENDBRANCH  26  27
ENDBRANCH  25  26
ENDBRANCH  24  25
ENDBRANCH  23  24
ENDBRANCH   1  23
TORSDOF 25
ENDMDL
MODEL 2
REMARK VINA RESULT:      -9.2      1.695      2.240
REMARK SMILES CC[C@@](C)(NC(=O)N(C)[C@@H](C)C(C)C)C(=O)OCCOCCOCCOC(=O)c1ccc(-c2c3nc(c(-c4cc(S(=O)(=O)[O-])ccc4F)c4ccc([nH]4)c(-c4cc(S(=O)(=O)[O-])ccc4F)c4nc(c(-c5cc(S(=O)(=O)[O-])ccc5F)c5ccc2[nH]5)C=C4)C=C3)cc1
REMARK SMILES IDX 21 1 20 2 19 3 18 4 17 5 15 6 16 7 3 8 4 9 2 10 1 11 5 12
REMARK SMILES IDX 6 13 7 15 8 16 9 17 10 18 11 19 12 20 13 21 14 22 22 23
REMARK SMILES IDX 23 24 24 25 25 26 26 27 27 28 28 29 29 30 30 31 91 32 31 33
REMARK SMILES IDX 90 34 32 35 33 36 34 37 84 38 35 39 89 40 83 41 85 42 36 43
REMARK SMILES IDX 88 44 82 45 81 46 37 48 69 49 49 50 68 51 50 52 53 53 67 54
REMARK SMILES IDX 86 55 51 56 52 57 66 59 87 60 54 61 38 62 39 63 47 64 40 65
REMARK SMILES IDX 46 66 48 67 45 68 41 69 42 70 43 71 44 72 70 73 71 74 79 75
REMARK SMILES IDX 72 76 78 77 80 78 77 79 73 80 74 81 75 82 76 83 55 84 56 85
REMARK SMILES IDX 64 86 57 87 63 88 65 89 62 90 58 91 59 92 60 93 61 94
REMARK H PARENT 5 14 85 47 53 58
REMARK Flexibility Score: inf
ROOT
ATOM      1  C   UNL A   1      35.349  31.357  28.002  1.00  0.00     0.188 C 
ENDROOT
BRANCH   1   2
ATOM      2  O   UNL A   1      34.587  30.642  27.031  1.00  0.00    -0.376 OA
BRANCH   2   3
ATOM      3  C   UNL A   1      33.195  30.890  26.895  1.00  0.00     0.202 C 
BRANCH   3   4
ATOM      4  C   UNL A   1      32.277  29.779  27.391  1.00  0.00     0.261 C 
BRANCH   4   5
ATOM      5  O   UNL A   1      32.382  28.616  26.548  1.00  0.00    -0.462 OA
BRANCH   5   6
ATOM      6  C   UNL A   1      31.469  27.644  26.729  1.00  0.00     0.331 C 
ATOM      7  O   UNL A   1      30.764  27.581  27.733  1.00  0.00    -0.249 OA
BRANCH   6   8
ATOM      8  C   UNL A   1      31.393  26.600  25.564  1.00  0.00     0.136 C 
ATOM      9  C   UNL A   1      30.458  25.507  26.155  1.00  0.00     0.047 C 
BRANCH   8  10
ATOM     10  C   UNL A   1      30.706  27.280  24.339  1.00  0.00     0.037 C 
ATOM     11  C   UNL A   1      29.377  26.675  23.868  1.00  0.00     0.007 C 
ENDBRANCH   8  10
BRANCH   8  12
ATOM     12  N   UNL A   1      32.601  25.787  25.093  1.00  0.00    -0.322 N 
ATOM     13  C   UNL A   1      32.855  24.452  24.943  1.00  0.00     0.318 C 
ATOM     14  H   UNL A   1      33.368  26.352  24.842  1.00  0.00     0.166 HD
ATOM     15  O   UNL A   1      33.443  23.898  25.869  1.00  0.00    -0.249 OA
BRANCH  13  16
ATOM     16  N   UNL A   1      32.699  23.893  23.689  1.00  0.00    -0.325 N 
ATOM     17  C   UNL A   1      31.802  22.767  23.467  1.00  0.00     0.149 C 
BRANCH  16  18
ATOM     18  C   UNL A   1      33.265  24.458  22.423  1.00  0.00     0.086 C 
ATOM     19  C   UNL A   1      33.267  23.356  21.334  1.00  0.00     0.031 C 
BRANCH  18  20
ATOM     20  C   UNL A   1      32.708  25.768  21.774  1.00  0.00     0.005 C 
ATOM     21  C   UNL A   1      33.568  27.014  21.940  1.00  0.00     0.009 C 
ATOM     22  C   UNL A   1      32.534  25.568  20.247  1.00  0.00     0.009 C 
ENDBRANCH  18  20
ENDBRANCH  16  18
ENDBRANCH  13  16
ENDBRANCH   8  12
ENDBRANCH   6   8
ENDBRANCH   5   6
ENDBRANCH   4   5
ENDBRANCH   3   4
ENDBRANCH   2   3
ENDBRANCH   1   2
BRANCH   1  23
ATOM     23  C   UNL A   1      34.717  32.549  28.734  1.00  0.00     0.188 C 
BRANCH  23  24
ATOM     24  O   UNL A   1      35.174  33.857  28.397  1.00  0.00    -0.376 OA
BRANCH  24  25
ATOM     25  C   UNL A   1      34.184  34.813  28.033  1.00  0.00     0.202 C 
BRANCH  25  26
ATOM     26  C   UNL A   1      33.150  35.074  29.122  1.00  0.00     0.261 C 
BRANCH  26  27
ATOM     27  O   UNL A   1      33.604  36.150  29.946  1.00  0.00    -0.460 OA
BRANCH  27  28
ATOM     28  C   UNL A   1      33.226  36.119  31.241  1.00  0.00     0.338 C 
ATOM     29  O   UNL A   1      32.403  36.814  31.815  1.00  0.00    -0.246 OA
BRANCH  28  30
ATOM     30  C   UNL A   1      34.036  35.074  31.863  1.00  0.00     0.060 A 
ATOM     31  C   UNL A   1      33.455  34.083  32.668  1.00  0.00     0.016 A 
ATOM     32  C   UNL A   1      35.399  35.086  31.580  1.00  0.00     0.016 A 
ATOM     33  C   UNL A   1      34.264  33.081  33.203  1.00  0.00     0.010 A 
ATOM     34  C   UNL A   1      36.197  34.093  32.115  1.00  0.00     0.010 A 
ATOM     35  C   UNL A   1      35.638  33.099  32.938  1.00  0.00    -0.014 A 
BRANCH  35  36
ATOM     36  C   UNL A   1      36.603  32.196  33.591  1.00  0.00     0.031 A 
ATOM     37  C   UNL A   1      37.196  32.665  34.883  1.00  0.00     0.074 A 
ATOM     38  C   UNL A   1      37.108  31.167  32.893  1.00  0.00     0.049 A 
ATOM     39  N   UNL A   1      38.337  32.362  35.435  1.00  0.00    -0.248 NA
ATOM     40  C   UNL A   1      36.410  33.672  35.612  1.00  0.00     0.031 C 
ATOM     41  C   UNL A   1      36.575  30.672  31.623  1.00  0.00     0.029 A 
ATOM     42  N   UNL A   1      38.236  30.419  33.106  1.00  0.00    -0.354 N 
ATOM     43  C   UNL A   1      38.434  33.180  36.557  1.00  0.00     0.074 A 
ATOM     44  C   UNL A   1      37.241  33.999  36.589  1.00  0.00     0.031 C 
ATOM     45  C   UNL A   1      37.418  29.750  31.129  1.00  0.00     0.029 A 
ATOM     46  C   UNL A   1      38.569  29.638  32.021  1.00  0.00     0.049 A 
ATOM     47  H   UNL A   1      38.752  30.437  33.943  1.00  0.00     0.167 HD
ATOM     48  C   UNL A   1      39.446  33.242  37.457  1.00  0.00     0.034 A 
ATOM     49  C   UNL A   1      39.710  28.975  31.753  1.00  0.00     0.034 A 
ATOM     50  C   UNL A   1      40.626  32.420  37.348  1.00  0.00     0.049 A 
ATOM     51  C   UNL A   1      40.827  29.050  32.761  1.00  0.00     0.074 A 
ATOM     52  C   UNL A   1      41.712  32.336  38.200  1.00  0.00     0.029 A 
ATOM     53  N   UNL A   1      40.878  31.544  36.294  1.00  0.00    -0.354 N 
ATOM     54  N   UNL A   1      40.907  29.787  33.848  1.00  0.00    -0.248 NA
ATOM     55  C   UNL A   1      41.998  28.202  32.519  1.00  0.00     0.031 C 
ATOM     56  C   UNL A   1      42.642  31.456  37.632  1.00  0.00     0.029 A 
ATOM     57  C   UNL A   1      42.108  30.933  36.462  1.00  0.00     0.049 A 
ATOM     58  H   UNL A   1      40.268  31.384  35.538  1.00  0.00     0.167 HD
ATOM     59  C   UNL A   1      42.126  29.468  34.436  1.00  0.00     0.074 A 
ATOM     60  C   UNL A   1      42.744  28.471  33.581  1.00  0.00     0.031 C 
ATOM     61  C   UNL A   1      42.685  29.943  35.580  1.00  0.00     0.034 A 
BRANCH  48  62
ATOM     62  C   UNL A   1      39.328  34.269  38.562  1.00  0.00     0.023 A 
ATOM     63  C   UNL A   1      38.856  33.927  39.844  1.00  0.00     0.031 A 
ATOM     64  C   UNL A   1      39.610  35.624  38.312  1.00  0.00     0.131 A 
ATOM     65  C   UNL A   1      38.581  34.932  40.784  1.00  0.00     0.055 A 
ATOM     66  C   UNL A   1      39.423  36.610  39.286  1.00  0.00     0.041 A 
ATOM     67  F   UNL A   1      40.042  36.022  37.106  1.00  0.00    -0.206 F 
ATOM     68  C   UNL A   1      38.884  36.270  40.523  1.00  0.00     0.022 A 
BRANCH  65  69
ATOM     69  S   UNL A   1      37.659  34.486  42.282  1.00  0.00     0.124 S 
ATOM     70  O   UNL A   1      37.787  35.702  43.080  1.00  0.00    -0.237 OA
ATOM     71  O   UNL A   1      36.327  34.202  41.760  1.00  0.00    -0.237 OA
ATOM     72  O   UNL A   1      38.385  33.328  42.800  1.00  0.00    -0.744 OA
ENDBRANCH  65  69
ENDBRANCH  48  62
BRANCH  49  73
ATOM     73  C   UNL A   1      39.854  28.231  30.470  1.00  0.00     0.023 A 
ATOM     74  C   UNL A   1      40.743  28.670  29.478  1.00  0.00     0.031 A 
ATOM     75  C   UNL A   1      39.134  27.045  30.234  1.00  0.00     0.131 A 
ATOM     76  C   UNL A   1      40.880  27.938  28.287  1.00  0.00     0.055 A 
ATOM     77  C   UNL A   1      39.301  26.301  29.064  1.00  0.00     0.041 A 
ATOM     78  F   UNL A   1      38.281  26.574  31.157  1.00  0.00    -0.206 F 
ATOM     79  C   UNL A   1      40.175  26.750  28.080  1.00  0.00     0.022 A 
BRANCH  76  80
ATOM     80  S   UNL A   1      41.978  28.581  26.995  1.00  0.00     0.124 S 
ATOM     81  O   UNL A   1      41.028  28.954  25.954  1.00  0.00    -0.237 OA
ATOM     82  O   UNL A   1      42.642  29.684  27.683  1.00  0.00    -0.237 OA
ATOM     83  O   UNL A   1      42.836  27.442  26.678  1.00  0.00    -0.744 OA
ENDBRANCH  76  80
ENDBRANCH  49  73
BRANCH  61  84
ATOM     84  C   UNL A   1      43.998  29.335  35.995  1.00  0.00     0.023 A 
ATOM     85  C   UNL A   1      44.062  28.245  36.878  1.00  0.00     0.031 A 
ATOM     86  C   UNL A   1      45.199  29.848  35.476  1.00  0.00     0.131 A 
ATOM     87  C   UNL A   1      45.311  27.728  37.248  1.00  0.00     0.055 A 
ATOM     88  C   UNL A   1      46.435  29.295  35.806  1.00  0.00     0.041 A 
ATOM     89  F   UNL A   1      45.185  30.890  34.628  1.00  0.00    -0.206 F 
ATOM     90  C   UNL A   1      46.496  28.234  36.705  1.00  0.00     0.022 A 
BRANCH  87  91
ATOM     91  S   UNL A   1      45.375  26.418  38.501  1.00  0.00     0.124 S 
ATOM     92  O   UNL A   1      44.070  26.548  39.140  1.00  0.00    -0.237 OA
ATOM     93  O   UNL A   1      45.572  25.219  37.692  1.00  0.00    -0.237 OA
ATOM     94  O   UNL A   1      46.515  26.795  39.334  1.00  0.00    -0.744 OA
ENDBRANCH  87  91
ENDBRANCH  61  84
ENDBRANCH  35  36
ENDBRANCH  28  30
ENDBRANCH  27  28
ENDBRANCH  26  27
ENDBRANCH  25  26
ENDBRANCH  24  25
ENDBRANCH  23  24
ENDBRANCH   1  23
TORSDOF 25
ENDMDL
MODEL 3
REMARK VINA RESULT:      -9.1      3.211      9.510
REMARK SMILES CC[C@@](C)(NC(=O)N(C)[C@@H](C)C(C)C)C(=O)OCCOCCOCCOC(=O)c1ccc(-c2c3nc(c(-c4cc(S(=O)(=O)[O-])ccc4F)c4ccc([nH]4)c(-c4cc(S(=O)(=O)[O-])ccc4F)c4nc(c(-c5cc(S(=O)(=O)[O-])ccc5F)c5ccc2[nH]5)C=C4)C=C3)cc1
REMARK SMILES IDX 21 1 20 2 19 3 18 4 17 5 15 6 16 7 3 8 4 9 2 10 1 11 5 12
REMARK SMILES IDX 6 13 7 15 8 16 9 17 10 18 11 19 12 20 13 21 14 22 22 23
REMARK SMILES IDX 23 24 24 25 25 26 26 27 27 28 28 29 29 30 30 31 91 32 31 33
REMARK SMILES IDX 90 34 32 35 33 36 34 37 84 38 35 39 89 40 83 41 85 42 36 43
REMARK SMILES IDX 88 44 82 45 81 46 37 48 69 49 49 50 68 51 50 52 53 53 67 54
REMARK SMILES IDX 86 55 51 56 52 57 66 59 87 60 54 61 38 62 39 63 47 64 40 65
REMARK SMILES IDX 46 66 48 67 45 68 41 69 42 70 43 71 44 72 70 73 71 74 79 75
REMARK SMILES IDX 72 76 78 77 80 78 77 79 73 80 74 81 75 82 76 83 55 84 56 85
REMARK SMILES IDX 64 86 57 87 63 88 65 89 62 90 58 91 59 92 60 93 61 94
REMARK H PARENT 5 14 85 47 53 58
REMARK Flexibility Score: inf
ROOT
ATOM      1  C   UNL A   1      38.214  21.294  25.402  1.00  0.00     0.188 C 
ENDROOT
BRANCH   1   2
ATOM      2  O   UNL A   1      36.943  21.760  24.951  1.00  0.00    -0.376 OA
BRANCH   2   3
ATOM      3  C   UNL A   1      36.125  22.540  25.810  1.00  0.00     0.202 C 
BRANCH   3   4
ATOM      4  C   UNL A   1      34.723  22.838  25.293  1.00  0.00     0.261 C 
BRANCH   4   5
ATOM      5  O   UNL A   1      34.778  23.430  23.981  1.00  0.00    -0.462 OA
BRANCH   5   6
ATOM      6  C   UNL A   1      34.048  24.542  23.780  1.00  0.00     0.331 C 
ATOM      7  O   UNL A   1      34.326  25.617  24.304  1.00  0.00    -0.249 OA
BRANCH   6   8
ATOM      8  C   UNL A   1      32.814  24.345  22.836  1.00  0.00     0.136 C 
ATOM      9  C   UNL A   1      32.987  25.503  21.813  1.00  0.00     0.047 C 
BRANCH   8  10
ATOM     10  C   UNL A   1      32.963  22.970  22.112  1.00  0.00     0.037 C 
ATOM     11  C   UNL A   1      32.077  21.824  22.617  1.00  0.00     0.007 C 
ENDBRANCH   8  10
BRANCH   8  12
ATOM     12  N   UNL A   1      31.367  24.527  23.304  1.00  0.00    -0.322 N 
ATOM     13  C   UNL A   1      30.759  25.311  24.244  1.00  0.00     0.318 C 
ATOM     14  H   UNL A   1      30.734  23.950  22.820  1.00  0.00     0.166 HD
ATOM     15  O   UNL A   1      30.546  24.791  25.338  1.00  0.00    -0.249 OA
BRANCH  13  16
ATOM     16  N   UNL A   1      30.183  26.497  23.833  1.00  0.00    -0.325 N 
ATOM     17  C   UNL A   1      28.737  26.673  23.820  1.00  0.00     0.149 C 
BRANCH  16  18
ATOM     18  C   UNL A   1      30.935  27.757  23.534  1.00  0.00     0.086 C 
ATOM     19  C   UNL A   1      29.925  28.912  23.325  1.00  0.00     0.031 C 
BRANCH  18  20
ATOM     20  C   UNL A   1      32.077  28.284  24.465  1.00  0.00     0.005 C 
ATOM     21  C   UNL A   1      33.259  28.942  23.766  1.00  0.00     0.009 C 
ATOM     22  C   UNL A   1      31.512  29.347  25.442  1.00  0.00     0.009 C 
ENDBRANCH  18  20
ENDBRANCH  16  18
ENDBRANCH  13  16
ENDBRANCH   8  12
ENDBRANCH   6   8
ENDBRANCH   5   6
ENDBRANCH   4   5
ENDBRANCH   3   4
ENDBRANCH   2   3
ENDBRANCH   1   2
BRANCH   1  23
ATOM     23  C   UNL A   1      39.036  22.153  26.371  1.00  0.00     0.188 C 
BRANCH  23  24
ATOM     24  O   UNL A   1      40.039  21.507  27.151  1.00  0.00    -0.376 OA
BRANCH  24  25
ATOM     25  C   UNL A   1      40.973  20.690  26.454  1.00  0.00     0.202 C 
BRANCH  25  26
ATOM     26  C   UNL A   1      42.211  21.442  25.975  1.00  0.00     0.261 C 
BRANCH  26  27
ATOM     27  O   UNL A   1      41.838  22.777  25.627  1.00  0.00    -0.460 OA
BRANCH  27  28
ATOM     28  C   UNL A   1      42.841  23.613  25.286  1.00  0.00     0.338 C 
ATOM     29  O   UNL A   1      43.787  23.410  24.543  1.00  0.00    -0.246 OA
BRANCH  28  30
ATOM     30  C   UNL A   1      42.591  24.850  26.022  1.00  0.00     0.060 A 
ATOM     31  C   UNL A   1      42.968  26.097  25.502  1.00  0.00     0.016 A 
ATOM     32  C   UNL A   1      41.922  24.732  27.237  1.00  0.00     0.016 A 
ATOM     33  C   UNL A   1      42.667  27.253  26.221  1.00  0.00     0.010 A 
ATOM     34  C   UNL A   1      41.629  25.880  27.948  1.00  0.00     0.010 A 
ATOM     35  C   UNL A   1      42.012  27.139  27.453  1.00  0.00    -0.014 A 
BRANCH  35  36
ATOM     36  C   UNL A   1      41.804  28.275  28.370  1.00  0.00     0.031 A 
ATOM     37  C   UNL A   1      42.719  28.362  29.553  1.00  0.00     0.074 A 
ATOM     38  C   UNL A   1      40.673  28.991  28.274  1.00  0.00     0.049 A 
ATOM     39  N   UNL A   1      42.525  28.913  30.717  1.00  0.00    -0.248 NA
ATOM     40  C   UNL A   1      44.005  27.661  29.411  1.00  0.00     0.031 C 
ATOM     41  C   UNL A   1      39.741  28.941  27.148  1.00  0.00     0.029 A 
ATOM     42  N   UNL A   1      40.073  29.826  29.179  1.00  0.00    -0.354 N 
ATOM     43  C   UNL A   1      43.647  28.586  31.473  1.00  0.00     0.074 A 
ATOM     44  C   UNL A   1      44.501  27.773  30.632  1.00  0.00     0.031 C 
ATOM     45  C   UNL A   1      38.646  29.654  27.459  1.00  0.00     0.029 A 
ATOM     46  C   UNL A   1      38.785  30.158  28.823  1.00  0.00     0.049 A 
ATOM     47  H   UNL A   1      40.515  30.154  29.995  1.00  0.00     0.167 HD
ATOM     48  C   UNL A   1      43.913  28.924  32.758  1.00  0.00     0.034 A 
ATOM     49  C   UNL A   1      37.809  30.734  29.552  1.00  0.00     0.034 A 
ATOM     50  C   UNL A   1      43.001  29.709  33.553  1.00  0.00     0.049 A 
ATOM     51  C   UNL A   1      38.117  31.108  30.979  1.00  0.00     0.074 A 
ATOM     52  C   UNL A   1      43.147  30.169  34.848  1.00  0.00     0.029 A 
ATOM     53  N   UNL A   1      41.748  30.136  33.117  1.00  0.00    -0.354 N 
ATOM     54  N   UNL A   1      39.193  30.841  31.685  1.00  0.00    -0.248 NA
ATOM     55  C   UNL A   1      37.092  31.867  31.701  1.00  0.00     0.031 C 
ATOM     56  C   UNL A   1      41.962  30.821  35.213  1.00  0.00     0.029 A 
ATOM     57  C   UNL A   1      41.103  30.834  34.123  1.00  0.00     0.049 A 
ATOM     58  H   UNL A   1      41.375  29.965  32.222  1.00  0.00     0.167 HD
ATOM     59  C   UNL A   1      38.987  31.426  32.930  1.00  0.00     0.074 A 
ATOM     60  C   UNL A   1      37.683  32.060  32.872  1.00  0.00     0.031 C 
ATOM     61  C   UNL A   1      39.799  31.449  34.020  1.00  0.00     0.034 A 
BRANCH  48  62
ATOM     62  C   UNL A   1      45.188  28.385  33.366  1.00  0.00     0.023 A 
ATOM     63  C   UNL A   1      46.409  29.081  33.269  1.00  0.00     0.031 A 
ATOM     64  C   UNL A   1      45.209  27.120  33.981  1.00  0.00     0.131 A 
ATOM     65  C   UNL A   1      47.604  28.468  33.677  1.00  0.00     0.055 A 
ATOM     66  C   UNL A   1      46.390  26.554  34.470  1.00  0.00     0.041 A 
ATOM     67  F   UNL A   1      44.087  26.392  34.087  1.00  0.00    -0.206 F 
ATOM     68  C   UNL A   1      47.601  27.219  34.299  1.00  0.00     0.022 A 
BRANCH  65  69
ATOM     69  S   UNL A   1      49.176  29.251  33.220  1.00  0.00     0.124 S 
ATOM     70  O   UNL A   1      49.214  29.017  31.779  1.00  0.00    -0.237 OA
ATOM     71  O   UNL A   1      48.974  30.634  33.636  1.00  0.00    -0.237 OA
ATOM     72  O   UNL A   1      50.169  28.506  33.992  1.00  0.00    -0.744 OA
ENDBRANCH  65  69
ENDBRANCH  48  62
BRANCH  49  73
ATOM     73  C   UNL A   1      36.461  30.947  28.954  1.00  0.00     0.023 A 
ATOM     74  C   UNL A   1      35.857  32.212  28.969  1.00  0.00     0.031 A 
ATOM     75  C   UNL A   1      35.773  29.894  28.322  1.00  0.00     0.131 A 
ATOM     76  C   UNL A   1      34.596  32.394  28.377  1.00  0.00     0.055 A 
ATOM     77  C   UNL A   1      34.536  30.088  27.703  1.00  0.00     0.041 A 
ATOM     78  F   UNL A   1      36.313  28.666  28.267  1.00  0.00    -0.206 F 
ATOM     79  C   UNL A   1      33.939  31.343  27.733  1.00  0.00     0.022 A 
BRANCH  76  80
ATOM     80  S   UNL A   1      33.812  34.024  28.489  1.00  0.00     0.124 S 
ATOM     81  O   UNL A   1      33.714  34.212  29.931  1.00  0.00    -0.237 OA
ATOM     82  O   UNL A   1      34.777  34.872  27.795  1.00  0.00    -0.237 OA
ATOM     83  O   UNL A   1      32.539  33.840  27.795  1.00  0.00    -0.744 OA
ENDBRANCH  76  80
ENDBRANCH  49  73
BRANCH  61  84
ATOM     84  C   UNL A   1      39.316  32.241  35.205  1.00  0.00     0.023 A 
ATOM     85  C   UNL A   1      39.765  33.548  35.453  1.00  0.00     0.031 A 
ATOM     86  C   UNL A   1      38.377  31.677  36.086  1.00  0.00     0.131 A 
ATOM     87  C   UNL A   1      39.299  34.237  36.582  1.00  0.00     0.055 A 
ATOM     88  C   UNL A   1      37.878  32.387  37.177  1.00  0.00     0.041 A 
ATOM     89  F   UNL A   1      37.920  30.430  35.887  1.00  0.00    -0.206 F 
ATOM     90  C   UNL A   1      38.347  33.672  37.435  1.00  0.00     0.022 A 
BRANCH  87  91
ATOM     91  S   UNL A   1      40.002  35.866  36.960  1.00  0.00     0.124 S 
ATOM     92  O   UNL A   1      39.663  36.626  35.762  1.00  0.00    -0.237 OA
ATOM     93  O   UNL A   1      39.288  36.241  38.177  1.00  0.00    -0.237 OA
ATOM     94  O   UNL A   1      41.427  35.591  37.140  1.00  0.00    -0.744 OA
ENDBRANCH  87  91
ENDBRANCH  61  84
ENDBRANCH  35  36
ENDBRANCH  28  30
ENDBRANCH  27  28
ENDBRANCH  26  27
ENDBRANCH  25  26
ENDBRANCH  24  25
ENDBRANCH  23  24
ENDBRANCH   1  23
TORSDOF 25
ENDMDL
