MODEL 1
REMARK VINA RESULT:     -10.1      0.000      0.000
REMARK SMILES CCc1cc(OCCC(=O)OCCOCCOCCOC(=O)c2ccc(-c3c4nc(c(-c5cc(S(=O)(=O)[O-])ccc5F)c5ccc([nH]5)c(-c5cc(S(=O)(=O)[O-])ccc5F)c5nc(c(-c6cc(S(=O)(=O)[O-])ccc6F)c6ccc3[nH]6)C=C5)C=C4)cc2)nc(-c2cnccn2)n1
REMARK SMILES IDX 15 1 14 2 13 3 12 4 11 5 9 6 10 7 8 8 7 9 6 10 5 11 3 12
REMARK SMILES IDX 4 13 94 14 87 15 86 16 2 17 1 18 88 19 89 20 93 21 90 22
REMARK SMILES IDX 92 23 91 24 16 25 17 26 18 27 19 28 20 29 21 30 22 31 23 32
REMARK SMILES IDX 24 33 85 34 25 35 84 36 26 37 27 38 28 39 78 40 29 41 83 42
REMARK SMILES IDX 77 43 79 44 30 45 82 46 76 47 75 48 31 50 63 51 43 52 62 53
REMARK SMILES IDX 44 54 47 55 61 56 80 57 45 58 46 59 60 61 81 62 48 63 32 64
REMARK SMILES IDX 33 65 41 66 34 67 40 68 42 69 39 70 35 71 36 72 37 73 38 74
REMARK SMILES IDX 64 75 65 76 73 77 66 78 72 79 74 80 71 81 67 82 68 83 69 84
REMARK SMILES IDX 70 85 49 86 50 87 58 88 51 89 57 90 59 91 56 92 52 93 53 94
REMARK SMILES IDX 54 95 55 96
REMARK H PARENT 79 49 47 60
REMARK Flexibility Score: inf
ROOT
ATOM      1  C   UNL A   1      33.516  28.398  25.508  1.00  0.00     0.188 C 
ENDROOT
BRANCH   1   2
ATOM      2  O   UNL A   1      33.557  27.055  25.047  1.00  0.00    -0.376 OA
BRANCH   2   3
ATOM      3  C   UNL A   1      34.136  26.118  25.944  1.00  0.00     0.202 C 
BRANCH   3   4
ATOM      4  C   UNL A   1      34.377  24.722  25.343  1.00  0.00     0.261 C 
BRANCH   4   5
ATOM      5  O   UNL A   1      34.142  23.662  26.301  1.00  0.00    -0.463 OA
BRANCH   5   6
ATOM      6  C   UNL A   1      33.144  22.786  26.047  1.00  0.00     0.309 C 
ATOM      7  O   UNL A   1      33.302  21.687  25.531  1.00  0.00    -0.252 OA
BRANCH   6   8
ATOM      8  C   UNL A   1      31.780  23.305  26.465  1.00  0.00     0.164 C 
BRANCH   8   9
ATOM      9  C   UNL A   1      30.731  23.552  25.373  1.00  0.00     0.243 C 
BRANCH   9  10
ATOM     10  O   UNL A   1      30.248  24.900  25.366  1.00  0.00    -0.477 OA
BRANCH  10  11
ATOM     11  C   UNL A   1      30.545  25.705  24.299  1.00  0.00     0.217 A 
ATOM     12  C   UNL A   1      31.420  26.104  22.132  1.00  0.00     0.048 A 
ATOM     13  C   UNL A   1      31.401  25.347  23.286  1.00  0.00     0.092 A 
ATOM     14  N   UNL A   1      30.711  27.230  22.042  1.00  0.00    -0.231 NA
ATOM     15  C   UNL A   1      29.934  27.543  23.099  1.00  0.00     0.183 A 
ATOM     16  N   UNL A   1      29.812  26.826  24.236  1.00  0.00    -0.192 NA
BRANCH  12  17
ATOM     17  C   UNL A   1      32.213  25.637  20.936  1.00  0.00     0.053 C 
ATOM     18  C   UNL A   1      33.229  24.540  21.210  1.00  0.00     0.011 C 
ENDBRANCH  12  17
BRANCH  15  19
ATOM     19  C   UNL A   1      29.132  28.749  22.947  1.00  0.00     0.126 A 
ATOM     20  C   UNL A   1      27.754  28.740  23.128  1.00  0.00     0.143 A 
ATOM     21  N   UNL A   1      29.808  29.916  22.722  1.00  0.00    -0.250 NA
ATOM     22  N   UNL A   1      27.001  29.870  23.105  1.00  0.00    -0.261 NA
ATOM     23  C   UNL A   1      29.061  31.035  22.697  1.00  0.00     0.132 A 
ATOM     24  C   UNL A   1      27.691  31.014  22.890  1.00  0.00     0.131 A 
ENDBRANCH  15  19
ENDBRANCH  10  11
ENDBRANCH   9  10
ENDBRANCH   8   9
ENDBRANCH   6   8
ENDBRANCH   5   6
ENDBRANCH   4   5
ENDBRANCH   3   4
ENDBRANCH   2   3
ENDBRANCH   1   2
BRANCH   1  25
ATOM     25  C   UNL A   1      32.692  29.366  24.658  1.00  0.00     0.188 C 
BRANCH  25  26
ATOM     26  O   UNL A   1      31.778  30.229  25.334  1.00  0.00    -0.376 OA
BRANCH  26  27
ATOM     27  C   UNL A   1      32.281  30.713  26.598  1.00  0.00     0.202 C 
BRANCH  27  28
ATOM     28  C   UNL A   1      31.906  32.157  26.998  1.00  0.00     0.261 C 
BRANCH  28  29
ATOM     29  O   UNL A   1      32.965  33.118  26.867  1.00  0.00    -0.460 OA
BRANCH  29  30
ATOM     30  C   UNL A   1      33.392  33.727  28.003  1.00  0.00     0.338 C 
ATOM     31  O   UNL A   1      32.747  34.498  28.686  1.00  0.00    -0.246 OA
BRANCH  30  32
ATOM     32  C   UNL A   1      34.623  33.008  28.447  1.00  0.00     0.060 A 
ATOM     33  C   UNL A   1      34.501  31.656  28.803  1.00  0.00     0.016 A 
ATOM     34  C   UNL A   1      35.892  33.589  28.336  1.00  0.00     0.016 A 
ATOM     35  C   UNL A   1      35.639  30.890  29.060  1.00  0.00     0.010 A 
ATOM     36  C   UNL A   1      37.031  32.830  28.618  1.00  0.00     0.010 A 
ATOM     37  C   UNL A   1      36.906  31.488  29.013  1.00  0.00    -0.014 A 
BRANCH  37  38
ATOM     38  C   UNL A   1      38.041  30.823  29.696  1.00  0.00     0.031 A 
ATOM     39  C   UNL A   1      38.294  31.231  31.123  1.00  0.00     0.074 A 
ATOM     40  C   UNL A   1      38.806  29.894  29.097  1.00  0.00     0.049 A 
ATOM     41  N   UNL A   1      39.237  30.860  31.946  1.00  0.00    -0.248 NA
ATOM     42  C   UNL A   1      37.345  32.203  31.691  1.00  0.00     0.031 C 
ATOM     43  C   UNL A   1      38.619  29.385  27.740  1.00  0.00     0.029 A 
ATOM     44  N   UNL A   1      39.907  29.218  29.562  1.00  0.00    -0.354 N 
ATOM     45  C   UNL A   1      38.992  31.551  33.127  1.00  0.00     0.074 A 
ATOM     46  C   UNL A   1      37.840  32.393  32.901  1.00  0.00     0.031 C 
ATOM     47  C   UNL A   1      39.585  28.484  27.478  1.00  0.00     0.029 A 
ATOM     48  C   UNL A   1      40.479  28.383  28.631  1.00  0.00     0.049 A 
ATOM     49  H   UNL A   1      40.254  29.321  30.478  1.00  0.00     0.167 HD
ATOM     50  C   UNL A   1      39.666  31.487  34.300  1.00  0.00     0.034 A 
ATOM     51  C   UNL A   1      41.610  27.649  28.701  1.00  0.00     0.034 A 
ATOM     52  C   UNL A   1      40.838  30.674  34.491  1.00  0.00     0.049 A 
ATOM     53  C   UNL A   1      42.413  27.674  29.984  1.00  0.00     0.074 A 
ATOM     54  C   UNL A   1      41.611  30.530  35.627  1.00  0.00     0.029 A 
ATOM     55  N   UNL A   1      41.418  29.881  33.508  1.00  0.00    -0.354 N 
ATOM     56  N   UNL A   1      42.171  28.322  31.102  1.00  0.00    -0.248 NA
ATOM     57  C   UNL A   1      43.639  26.864  30.016  1.00  0.00     0.031 C 
ATOM     58  C   UNL A   1      42.706  29.720  35.306  1.00  0.00     0.029 A 
ATOM     59  C   UNL A   1      42.565  29.278  34.000  1.00  0.00     0.049 A 
ATOM     60  H   UNL A   1      41.067  29.765  32.596  1.00  0.00     0.167 HD
ATOM     61  C   UNL A   1      43.196  27.970  31.979  1.00  0.00     0.074 A 
ATOM     62  C   UNL A   1      44.051  27.046  31.263  1.00  0.00     0.031 C 
ATOM     63  C   UNL A   1      43.409  28.367  33.262  1.00  0.00     0.034 A 
BRANCH  50  64
ATOM     64  C   UNL A   1      39.185  32.383  35.416  1.00  0.00     0.023 A 
ATOM     65  C   UNL A   1      39.610  33.719  35.531  1.00  0.00     0.031 A 
ATOM     66  C   UNL A   1      38.350  31.870  36.424  1.00  0.00     0.131 A 
ATOM     67  C   UNL A   1      39.272  34.466  36.669  1.00  0.00     0.055 A 
ATOM     68  C   UNL A   1      37.942  32.649  37.509  1.00  0.00     0.041 A 
ATOM     69  F   UNL A   1      37.941  30.593  36.388  1.00  0.00    -0.206 F 
ATOM     70  C   UNL A   1      38.417  33.949  37.646  1.00  0.00     0.022 A 
BRANCH  67  71
ATOM     71  S   UNL A   1      40.105  36.055  36.944  1.00  0.00     0.124 S 
ATOM     72  O   UNL A   1      41.494  35.633  37.113  1.00  0.00    -0.237 OA
ATOM     73  O   UNL A   1      39.805  36.785  35.717  1.00  0.00    -0.237 OA
ATOM     74  O   UNL A   1      39.467  36.573  38.153  1.00  0.00    -0.744 OA
ENDBRANCH  67  71
ENDBRANCH  50  64
BRANCH  51  75
ATOM     75  C   UNL A   1      42.086  26.869  27.519  1.00  0.00     0.023 A 
ATOM     76  C   UNL A   1      41.843  25.491  27.401  1.00  0.00     0.031 A 
ATOM     77  C   UNL A   1      42.847  27.489  26.510  1.00  0.00     0.131 A 
ATOM     78  C   UNL A   1      42.386  24.771  26.322  1.00  0.00     0.055 A 
ATOM     79  C   UNL A   1      43.338  26.780  25.410  1.00  0.00     0.041 A 
ATOM     80  F   UNL A   1      43.122  28.801  26.576  1.00  0.00    -0.206 F 
ATOM     81  C   UNL A   1      43.117  25.411  25.318  1.00  0.00     0.022 A 
BRANCH  78  82
ATOM     82  S   UNL A   1      42.194  22.967  26.289  1.00  0.00     0.124 S 
ATOM     83  O   UNL A   1      42.758  22.632  24.987  1.00  0.00    -0.237 OA
ATOM     84  O   UNL A   1      42.975  22.557  27.451  1.00  0.00    -0.237 OA
ATOM     85  O   UNL A   1      40.751  22.775  26.413  1.00  0.00    -0.744 OA
ENDBRANCH  78  82
ENDBRANCH  51  75
BRANCH  63  86
ATOM     86  C   UNL A   1      44.588  27.760  33.986  1.00  0.00     0.023 A 
ATOM     87  C   UNL A   1      44.479  26.563  34.715  1.00  0.00     0.031 A 
ATOM     88  C   UNL A   1      45.845  28.392  33.938  1.00  0.00     0.131 A 
ATOM     89  C   UNL A   1      45.591  26.065  35.409  1.00  0.00     0.055 A 
ATOM     90  C   UNL A   1      46.965  27.855  34.573  1.00  0.00     0.041 A 
ATOM     91  F   UNL A   1      46.007  29.539  33.258  1.00  0.00    -0.206 F 
ATOM     92  C   UNL A   1      46.838  26.692  35.326  1.00  0.00     0.022 A 
BRANCH  89  93
ATOM     93  S   UNL A   1      45.367  24.640  36.507  1.00  0.00     0.124 S 
ATOM     94  O   UNL A   1      44.006  24.220  36.184  1.00  0.00    -0.237 OA
ATOM     95  O   UNL A   1      46.431  23.740  36.075  1.00  0.00    -0.237 OA
ATOM     96  O   UNL A   1      45.539  25.204  37.845  1.00  0.00    -0.744 OA
ENDBRANCH  89  93
ENDBRANCH  63  86
ENDBRANCH  37  38
ENDBRANCH  30  32
ENDBRANCH  29  30
ENDBRANCH  28  29
ENDBRANCH  27  28
ENDBRANCH  26  27
ENDBRANCH  25  26
ENDBRANCH   1  25
TORSDOF 25
ENDMDL
MODEL 2
REMARK VINA RESULT:      -9.9      2.874      4.625
REMARK SMILES CCc1cc(OCCC(=O)OCCOCCOCCOC(=O)c2ccc(-c3c4nc(c(-c5cc(S(=O)(=O)[O-])ccc5F)c5ccc([nH]5)c(-c5cc(S(=O)(=O)[O-])ccc5F)c5nc(c(-c6cc(S(=O)(=O)[O-])ccc6F)c6ccc3[nH]6)C=C5)C=C4)cc2)nc(-c2cnccn2)n1
REMARK SMILES IDX 15 1 14 2 13 3 12 4 11 5 9 6 10 7 8 8 7 9 6 10 5 11 3 12
REMARK SMILES IDX 4 13 94 14 87 15 86 16 2 17 1 18 88 19 89 20 93 21 90 22
REMARK SMILES IDX 92 23 91 24 16 25 17 26 18 27 19 28 20 29 21 30 22 31 23 32
REMARK SMILES IDX 24 33 85 34 25 35 84 36 26 37 27 38 28 39 78 40 29 41 83 42
REMARK SMILES IDX 77 43 79 44 30 45 82 46 76 47 75 48 31 50 63 51 43 52 62 53
REMARK SMILES IDX 44 54 47 55 61 56 80 57 45 58 46 59 60 61 81 62 48 63 32 64
REMARK SMILES IDX 33 65 41 66 34 67 40 68 42 69 39 70 35 71 36 72 37 73 38 74
REMARK SMILES IDX 64 75 65 76 73 77 66 78 72 79 74 80 71 81 67 82 68 83 69 84
REMARK SMILES IDX 70 85 49 86 50 87 58 88 51 89 57 90 59 91 56 92 52 93 53 94
REMARK SMILES IDX 54 95 55 96
REMARK H PARENT 79 49 47 60
REMARK Flexibility Score: inf
ROOT
ATOM      1  C   UNL A   1      31.568  29.452  24.750  1.00  0.00     0.188 C 
ENDROOT
BRANCH   1   2
ATOM      2  O   UNL A   1      30.438  29.130  23.953  1.00  0.00    -0.376 OA
BRANCH   2   3
ATOM      3  C   UNL A   1      30.364  27.781  23.513  1.00  0.00     0.202 C 
BRANCH   3   4
ATOM      4  C   UNL A   1      31.563  27.316  22.668  1.00  0.00     0.261 C 
BRANCH   4   5
ATOM      5  O   UNL A   1      32.054  26.017  23.076  1.00  0.00    -0.463 OA
BRANCH   5   6
ATOM      6  C   UNL A   1      32.743  25.286  22.171  1.00  0.00     0.309 C 
ATOM      7  O   UNL A   1      33.427  25.759  21.274  1.00  0.00    -0.252 OA
BRANCH   6   8
ATOM      8  C   UNL A   1      32.580  23.790  22.374  1.00  0.00     0.164 C 
BRANCH   8   9
ATOM      9  C   UNL A   1      31.487  23.302  23.334  1.00  0.00     0.243 C 
BRANCH   9  10
ATOM     10  O   UNL A   1      32.011  22.876  24.597  1.00  0.00    -0.477 OA
BRANCH  10  11
ATOM     11  C   UNL A   1      33.094  22.037  24.615  1.00  0.00     0.217 A 
ATOM     12  C   UNL A   1      35.346  21.507  25.127  1.00  0.00     0.048 A 
ATOM     13  C   UNL A   1      34.379  22.454  24.859  1.00  0.00     0.092 A 
ATOM     14  N   UNL A   1      35.071  20.204  25.035  1.00  0.00    -0.231 NA
ATOM     15  C   UNL A   1      33.797  19.874  24.741  1.00  0.00     0.183 A 
ATOM     16  N   UNL A   1      32.782  20.736  24.526  1.00  0.00    -0.192 NA
BRANCH  12  17
ATOM     17  C   UNL A   1      36.722  21.937  25.573  1.00  0.00     0.053 C 
ATOM     18  C   UNL A   1      37.501  22.782  24.577  1.00  0.00     0.011 C 
ENDBRANCH  12  17
BRANCH  15  19
ATOM     19  C   UNL A   1      33.518  18.445  24.701  1.00  0.00     0.126 A 
ATOM     20  C   UNL A   1      34.383  17.547  24.086  1.00  0.00     0.143 A 
ATOM     21  N   UNL A   1      32.419  18.011  25.388  1.00  0.00    -0.250 NA
ATOM     22  N   UNL A   1      34.204  16.202  24.135  1.00  0.00    -0.261 NA
ATOM     23  C   UNL A   1      32.240  16.677  25.434  1.00  0.00     0.132 A 
ATOM     24  C   UNL A   1      33.115  15.793  24.828  1.00  0.00     0.131 A 
ENDBRANCH  15  19
ENDBRANCH  10  11
ENDBRANCH   9  10
ENDBRANCH   8   9
ENDBRANCH   6   8
ENDBRANCH   5   6
ENDBRANCH   4   5
ENDBRANCH   3   4
ENDBRANCH   2   3
ENDBRANCH   1   2
BRANCH   1  25
ATOM     25  C   UNL A   1      31.683  28.698  26.075  1.00  0.00     0.188 C 
BRANCH  25  26
ATOM     26  O   UNL A   1      32.398  29.329  27.137  1.00  0.00    -0.376 OA
BRANCH  26  27
ATOM     27  C   UNL A   1      33.124  30.505  26.715  1.00  0.00     0.202 C 
BRANCH  27  28
ATOM     28  C   UNL A   1      32.695  31.854  27.330  1.00  0.00     0.261 C 
BRANCH  28  29
ATOM     29  O   UNL A   1      33.718  32.862  27.358  1.00  0.00    -0.460 OA
BRANCH  29  30
ATOM     30  C   UNL A   1      34.129  33.293  28.578  1.00  0.00     0.338 C 
ATOM     31  O   UNL A   1      33.474  33.953  29.361  1.00  0.00    -0.246 OA
BRANCH  30  32
ATOM     32  C   UNL A   1      35.356  32.515  28.924  1.00  0.00     0.060 A 
ATOM     33  C   UNL A   1      35.188  31.216  29.429  1.00  0.00     0.016 A 
ATOM     34  C   UNL A   1      36.635  32.972  28.587  1.00  0.00     0.016 A 
ATOM     35  C   UNL A   1      36.293  30.382  29.609  1.00  0.00     0.010 A 
ATOM     36  C   UNL A   1      37.745  32.148  28.790  1.00  0.00     0.010 A 
ATOM     37  C   UNL A   1      37.580  30.863  29.333  1.00  0.00    -0.014 A 
BRANCH  37  38
ATOM     38  C   UNL A   1      38.749  30.169  29.922  1.00  0.00     0.031 A 
ATOM     39  C   UNL A   1      39.167  30.613  31.299  1.00  0.00     0.074 A 
ATOM     40  C   UNL A   1      39.407  29.184  29.285  1.00  0.00     0.049 A 
ATOM     41  N   UNL A   1      40.172  30.226  32.036  1.00  0.00    -0.248 NA
ATOM     42  C   UNL A   1      38.325  31.648  31.922  1.00  0.00     0.031 C 
ATOM     43  C   UNL A   1      39.057  28.637  27.976  1.00  0.00     0.029 A 
ATOM     44  N   UNL A   1      40.519  28.472  29.663  1.00  0.00    -0.354 N 
ATOM     45  C   UNL A   1      40.082  30.969  33.208  1.00  0.00     0.074 A 
ATOM     46  C   UNL A   1      38.951  31.857  33.066  1.00  0.00     0.031 C 
ATOM     47  C   UNL A   1      39.950  27.683  27.653  1.00  0.00     0.029 A 
ATOM     48  C   UNL A   1      40.953  27.578  28.712  1.00  0.00     0.049 A 
ATOM     49  H   UNL A   1      40.962  28.590  30.534  1.00  0.00     0.167 HD
ATOM     50  C   UNL A   1      40.870  30.913  34.307  1.00  0.00     0.034 A 
ATOM     51  C   UNL A   1      42.052  26.794  28.695  1.00  0.00     0.034 A 
ATOM     52  C   UNL A   1      42.018  30.052  34.410  1.00  0.00     0.049 A 
ATOM     53  C   UNL A   1      42.984  26.825  29.888  1.00  0.00     0.074 A 
ATOM     54  C   UNL A   1      42.898  29.911  35.466  1.00  0.00     0.029 A 
ATOM     55  N   UNL A   1      42.458  29.198  33.405  1.00  0.00    -0.354 N 
ATOM     56  N   UNL A   1      42.888  27.523  30.998  1.00  0.00    -0.248 NA
ATOM     57  C   UNL A   1      44.169  25.959  29.827  1.00  0.00     0.031 C 
ATOM     58  C   UNL A   1      43.916  29.038  35.068  1.00  0.00     0.029 A 
ATOM     59  C   UNL A   1      43.622  28.558  33.801  1.00  0.00     0.049 A 
ATOM     60  H   UNL A   1      42.010  29.067  32.539  1.00  0.00     0.167 HD
ATOM     61  C   UNL A   1      43.981  27.152  31.779  1.00  0.00     0.074 A 
ATOM     62  C   UNL A   1      44.716  26.163  31.017  1.00  0.00     0.031 C 
ATOM     63  C   UNL A   1      44.344  27.582  33.017  1.00  0.00     0.034 A 
BRANCH  50  64
ATOM     64  C   UNL A   1      40.547  31.869  35.430  1.00  0.00     0.023 A 
ATOM     65  C   UNL A   1      39.507  31.619  36.343  1.00  0.00     0.031 A 
ATOM     66  C   UNL A   1      41.241  33.087  35.542  1.00  0.00     0.131 A 
ATOM     67  C   UNL A   1      39.133  32.605  37.268  1.00  0.00     0.055 A 
ATOM     68  C   UNL A   1      40.923  34.027  36.525  1.00  0.00     0.041 A 
ATOM     69  F   UNL A   1      42.219  33.399  34.679  1.00  0.00    -0.206 F 
ATOM     70  C   UNL A   1      39.853  33.797  37.384  1.00  0.00     0.022 A 
BRANCH  67  71
ATOM     71  S   UNL A   1      37.588  32.386  38.194  1.00  0.00     0.124 S 
ATOM     72  O   UNL A   1      36.664  33.219  37.425  1.00  0.00    -0.237 OA
ATOM     73  O   UNL A   1      37.370  30.947  38.109  1.00  0.00    -0.237 OA
ATOM     74  O   UNL A   1      37.911  32.894  39.526  1.00  0.00    -0.744 OA
ENDBRANCH  67  71
ENDBRANCH  50  64
BRANCH  51  75
ATOM     75  C   UNL A   1      42.368  25.952  27.503  1.00  0.00     0.023 A 
ATOM     76  C   UNL A   1      41.967  24.608  27.424  1.00  0.00     0.031 A 
ATOM     77  C   UNL A   1      43.134  26.470  26.441  1.00  0.00     0.131 A 
ATOM     78  C   UNL A   1      42.362  23.819  26.329  1.00  0.00     0.055 A 
ATOM     79  C   UNL A   1      43.477  25.698  25.328  1.00  0.00     0.041 A 
ATOM     80  F   UNL A   1      43.557  27.743  26.467  1.00  0.00    -0.206 F 
ATOM     81  C   UNL A   1      43.100  24.361  25.274  1.00  0.00     0.022 A 
BRANCH  78  82
ATOM     82  S   UNL A   1      41.968  22.048  26.340  1.00  0.00     0.124 S 
ATOM     83  O   UNL A   1      42.739  21.566  25.200  1.00  0.00    -0.237 OA
ATOM     84  O   UNL A   1      42.447  21.639  27.656  1.00  0.00    -0.237 OA
ATOM     85  O   UNL A   1      40.517  22.019  26.171  1.00  0.00    -0.744 OA
ENDBRANCH  78  82
ENDBRANCH  51  75
BRANCH  63  86
ATOM     86  C   UNL A   1      45.563  26.945  33.642  1.00  0.00     0.023 A 
ATOM     87  C   UNL A   1      45.489  25.737  34.356  1.00  0.00     0.031 A 
ATOM     88  C   UNL A   1      46.823  27.559  33.510  1.00  0.00     0.131 A 
ATOM     89  C   UNL A   1      46.642  25.211  34.957  1.00  0.00     0.055 A 
ATOM     90  C   UNL A   1      47.978  26.994  34.050  1.00  0.00     0.041 A 
ATOM     91  F   UNL A   1      46.953  28.715  32.838  1.00  0.00    -0.206 F 
ATOM     92  C   UNL A   1      47.889  25.820  34.791  1.00  0.00     0.022 A 
BRANCH  89  93
ATOM     93  S   UNL A   1      46.477  23.769  36.045  1.00  0.00     0.124 S 
ATOM     94  O   UNL A   1      46.890  24.314  37.335  1.00  0.00    -0.237 OA
ATOM     95  O   UNL A   1      45.061  23.440  35.917  1.00  0.00    -0.237 OA
ATOM     96  O   UNL A   1      47.395  22.791  35.463  1.00  0.00    -0.744 OA
ENDBRANCH  89  93
ENDBRANCH  63  86
ENDBRANCH  37  38
ENDBRANCH  30  32
ENDBRANCH  29  30
ENDBRANCH  28  29
ENDBRANCH  27  28
ENDBRANCH  26  27
ENDBRANCH  25  26
ENDBRANCH   1  25
TORSDOF 25
ENDMDL
MODEL 3
REMARK VINA RESULT:      -9.7      4.479      7.644
REMARK SMILES CCc1cc(OCCC(=O)OCCOCCOCCOC(=O)c2ccc(-c3c4nc(c(-c5cc(S(=O)(=O)[O-])ccc5F)c5ccc([nH]5)c(-c5cc(S(=O)(=O)[O-])ccc5F)c5nc(c(-c6cc(S(=O)(=O)[O-])ccc6F)c6ccc3[nH]6)C=C5)C=C4)cc2)nc(-c2cnccn2)n1
REMARK SMILES IDX 15 1 14 2 13 3 12 4 11 5 9 6 10 7 8 8 7 9 6 10 5 11 3 12
REMARK SMILES IDX 4 13 94 14 87 15 86 16 2 17 1 18 88 19 89 20 93 21 90 22
REMARK SMILES IDX 92 23 91 24 16 25 17 26 18 27 19 28 20 29 21 30 22 31 23 32
REMARK SMILES IDX 24 33 85 34 25 35 84 36 26 37 27 38 28 39 78 40 29 41 83 42
REMARK SMILES IDX 77 43 79 44 30 45 82 46 76 47 75 48 31 50 63 51 43 52 62 53
REMARK SMILES IDX 44 54 47 55 61 56 80 57 45 58 46 59 60 61 81 62 48 63 32 64
REMARK SMILES IDX 33 65 41 66 34 67 40 68 42 69 39 70 35 71 36 72 37 73 38 74
REMARK SMILES IDX 64 75 65 76 73 77 66 78 72 79 74 80 71 81 67 82 68 83 69 84
REMARK SMILES IDX 70 85 49 86 50 87 58 88 51 89 57 90 59 91 56 92 52 93 53 94
REMARK SMILES IDX 54 95 55 96
REMARK H PARENT 79 49 47 60
REMARK Flexibility Score: inf
ROOT
ATOM      1  C   UNL A   1      34.179  23.538  25.755  1.00  0.00     0.188 C 
ENDROOT
BRANCH   1   2
ATOM      2  O   UNL A   1      34.707  24.103  24.564  1.00  0.00    -0.376 OA
BRANCH   2   3
ATOM      3  C   UNL A   1      34.640  23.276  23.412  1.00  0.00     0.202 C 
BRANCH   3   4
ATOM      4  C   UNL A   1      33.597  23.713  22.369  1.00  0.00     0.261 C 
BRANCH   4   5
ATOM      5  O   UNL A   1      33.794  25.078  21.930  1.00  0.00    -0.463 OA
BRANCH   5   6
ATOM      6  C   UNL A   1      32.823  25.653  21.185  1.00  0.00     0.309 C 
ATOM      7  O   UNL A   1      32.693  25.498  19.978  1.00  0.00    -0.252 OA
BRANCH   6   8
ATOM      8  C   UNL A   1      31.891  26.530  22.002  1.00  0.00     0.164 C 
BRANCH   8   9
ATOM      9  C   UNL A   1      30.571  25.923  22.497  1.00  0.00     0.243 C 
BRANCH   9  10
ATOM     10  O   UNL A   1      30.211  26.377  23.806  1.00  0.00    -0.477 OA
BRANCH  10  11
ATOM     11  C   UNL A   1      30.304  27.714  24.092  1.00  0.00     0.217 A 
ATOM     12  C   UNL A   1      31.361  29.596  25.071  1.00  0.00     0.048 A 
ATOM     13  C   UNL A   1      31.140  28.234  25.050  1.00  0.00     0.092 A 
ATOM     14  N   UNL A   1      30.687  30.411  24.257  1.00  0.00    -0.231 NA
ATOM     15  C   UNL A   1      29.844  29.828  23.379  1.00  0.00     0.183 A 
ATOM     16  N   UNL A   1      29.619  28.504  23.253  1.00  0.00    -0.192 NA
BRANCH  12  17
ATOM     17  C   UNL A   1      32.407  30.177  25.990  1.00  0.00     0.053 C 
ATOM     18  C   UNL A   1      31.881  31.073  27.100  1.00  0.00     0.011 C 
ENDBRANCH  12  17
BRANCH  15  19
ATOM     19  C   UNL A   1      29.166  30.740  22.469  1.00  0.00     0.126 A 
ATOM     20  C   UNL A   1      28.495  30.283  21.341  1.00  0.00     0.143 A 
ATOM     21  N   UNL A   1      29.126  32.058  22.830  1.00  0.00    -0.250 NA
ATOM     22  N   UNL A   1      27.759  31.098  20.541  1.00  0.00    -0.261 NA
ATOM     23  C   UNL A   1      28.399  32.866  22.036  1.00  0.00     0.132 A 
ATOM     24  C   UNL A   1      27.726  32.397  20.921  1.00  0.00     0.131 A 
ENDBRANCH  15  19
ENDBRANCH  10  11
ENDBRANCH   9  10
ENDBRANCH   8   9
ENDBRANCH   6   8
ENDBRANCH   5   6
ENDBRANCH   4   5
ENDBRANCH   3   4
ENDBRANCH   2   3
ENDBRANCH   1   2
BRANCH   1  25
ATOM     25  C   UNL A   1      35.094  22.556  26.487  1.00  0.00     0.188 C 
BRANCH  25  26
ATOM     26  O   UNL A   1      34.846  21.163  26.312  1.00  0.00    -0.376 OA
BRANCH  26  27
ATOM     27  C   UNL A   1      35.378  20.640  25.075  1.00  0.00     0.202 C 
BRANCH  27  28
ATOM     28  C   UNL A   1      36.880  20.282  25.053  1.00  0.00     0.261 C 
BRANCH  28  29
ATOM     29  O   UNL A   1      37.760  21.321  25.508  1.00  0.00    -0.460 OA
BRANCH  29  30
ATOM     30  C   UNL A   1      38.948  20.937  26.041  1.00  0.00     0.338 C 
ATOM     31  O   UNL A   1      39.487  19.859  25.883  1.00  0.00    -0.246 OA
BRANCH  30  32
ATOM     32  C   UNL A   1      39.625  22.174  26.532  1.00  0.00     0.060 A 
ATOM     33  C   UNL A   1      39.002  23.407  26.283  1.00  0.00     0.016 A 
ATOM     34  C   UNL A   1      40.741  22.115  27.376  1.00  0.00     0.016 A 
ATOM     35  C   UNL A   1      39.496  24.576  26.862  1.00  0.00     0.010 A 
ATOM     36  C   UNL A   1      41.252  23.288  27.936  1.00  0.00     0.010 A 
ATOM     37  C   UNL A   1      40.651  24.526  27.654  1.00  0.00    -0.014 A 
BRANCH  37  38
ATOM     38  C   UNL A   1      41.413  25.774  27.896  1.00  0.00     0.031 A 
ATOM     39  C   UNL A   1      40.691  26.864  28.642  1.00  0.00     0.074 A 
ATOM     40  C   UNL A   1      42.685  25.939  27.492  1.00  0.00     0.049 A 
ATOM     41  N   UNL A   1      41.083  28.070  28.951  1.00  0.00    -0.248 NA
ATOM     42  C   UNL A   1      39.329  26.537  29.095  1.00  0.00     0.031 C 
ATOM     43  C   UNL A   1      43.498  24.933  26.811  1.00  0.00     0.029 A 
ATOM     44  N   UNL A   1      43.513  27.030  27.595  1.00  0.00    -0.354 N 
ATOM     45  C   UNL A   1      40.017  28.644  29.635  1.00  0.00     0.074 A 
ATOM     46  C   UNL A   1      38.949  27.671  29.659  1.00  0.00     0.031 C 
ATOM     47  C   UNL A   1      44.707  25.462  26.544  1.00  0.00     0.029 A 
ATOM     48  C   UNL A   1      44.740  26.851  26.999  1.00  0.00     0.049 A 
ATOM     49  H   UNL A   1      43.253  27.861  28.054  1.00  0.00     0.167 HD
ATOM     50  C   UNL A   1      39.936  29.873  30.197  1.00  0.00     0.034 A 
ATOM     51  C   UNL A   1      45.754  27.725  26.821  1.00  0.00     0.034 A 
ATOM     52  C   UNL A   1      40.996  30.843  30.125  1.00  0.00     0.049 A 
ATOM     53  C   UNL A   1      45.603  29.132  27.361  1.00  0.00     0.074 A 
ATOM     54  C   UNL A   1      41.031  32.122  30.646  1.00  0.00     0.029 A 
ATOM     55  N   UNL A   1      42.205  30.646  29.466  1.00  0.00    -0.354 N 
ATOM     56  N   UNL A   1      44.596  29.665  28.016  1.00  0.00    -0.248 NA
ATOM     57  C   UNL A   1      46.729  30.051  27.141  1.00  0.00     0.031 C 
ATOM     58  C   UNL A   1      42.222  32.727  30.231  1.00  0.00     0.029 A 
ATOM     59  C   UNL A   1      42.975  31.795  29.533  1.00  0.00     0.049 A 
ATOM     60  H   UNL A   1      42.474  29.812  29.018  1.00  0.00     0.167 HD
ATOM     61  C   UNL A   1      44.983  30.971  28.315  1.00  0.00     0.074 A 
ATOM     62  C   UNL A   1      46.317  31.138  27.778  1.00  0.00     0.031 C 
ATOM     63  C   UNL A   1      44.302  31.942  28.979  1.00  0.00     0.034 A 
BRANCH  50  64
ATOM     64  C   UNL A   1      38.629  30.239  30.858  1.00  0.00     0.023 A 
ATOM     65  C   UNL A   1      37.601  30.896  30.157  1.00  0.00     0.031 A 
ATOM     66  C   UNL A   1      38.438  29.997  32.229  1.00  0.00     0.131 A 
ATOM     67  C   UNL A   1      36.472  31.364  30.845  1.00  0.00     0.055 A 
ATOM     68  C   UNL A   1      37.270  30.385  32.889  1.00  0.00     0.041 A 
ATOM     69  F   UNL A   1      39.396  29.406  32.959  1.00  0.00    -0.206 F 
ATOM     70  C   UNL A   1      36.287  31.088  32.202  1.00  0.00     0.022 A 
BRANCH  67  71
ATOM     71  S   UNL A   1      35.336  32.489  29.985  1.00  0.00     0.124 S 
ATOM     72  O   UNL A   1      34.282  32.662  30.984  1.00  0.00    -0.237 OA
ATOM     73  O   UNL A   1      36.175  33.655  29.736  1.00  0.00    -0.237 OA
ATOM     74  O   UNL A   1      34.941  31.735  28.797  1.00  0.00    -0.744 OA
ENDBRANCH  67  71
ENDBRANCH  50  64
BRANCH  51  75
ATOM     75  C   UNL A   1      46.978  27.327  26.061  1.00  0.00     0.023 A 
ATOM     76  C   UNL A   1      48.102  26.789  26.709  1.00  0.00     0.031 A 
ATOM     77  C   UNL A   1      47.058  27.535  24.672  1.00  0.00     0.131 A 
ATOM     78  C   UNL A   1      49.270  26.513  25.976  1.00  0.00     0.055 A 
ATOM     79  C   UNL A   1      48.202  27.208  23.938  1.00  0.00     0.041 A 
ATOM     80  F   UNL A   1      46.020  28.058  24.001  1.00  0.00    -0.206 F 
ATOM     81  C   UNL A   1      49.320  26.703  24.593  1.00  0.00     0.022 A 
BRANCH  78  82
ATOM     82  S   UNL A   1      50.756  25.978  26.868  1.00  0.00     0.124 S 
ATOM     83  O   UNL A   1      50.484  24.560  27.075  1.00  0.00    -0.237 OA
ATOM     84  O   UNL A   1      51.814  26.295  25.915  1.00  0.00    -0.237 OA
ATOM     85  O   UNL A   1      50.743  26.799  28.077  1.00  0.00    -0.744 OA
ENDBRANCH  78  82
ENDBRANCH  51  75
BRANCH  63  86
ATOM     86  C   UNL A   1      45.014  33.255  29.205  1.00  0.00     0.023 A 
ATOM     87  C   UNL A   1      44.815  34.365  28.365  1.00  0.00     0.031 A 
ATOM     88  C   UNL A   1      45.902  33.397  30.288  1.00  0.00     0.131 A 
ATOM     89  C   UNL A   1      45.535  35.548  28.589  1.00  0.00     0.055 A 
ATOM     90  C   UNL A   1      46.562  34.598  30.547  1.00  0.00     0.041 A 
ATOM     91  F   UNL A   1      46.131  32.370  31.123  1.00  0.00    -0.206 F 
ATOM     92  C   UNL A   1      46.392  35.678  29.687  1.00  0.00     0.022 A 
BRANCH  89  93
ATOM     93  S   UNL A   1      45.416  36.885  27.370  1.00  0.00     0.124 S 
ATOM     94  O   UNL A   1      45.574  38.072  28.207  1.00  0.00    -0.237 OA
ATOM     95  O   UNL A   1      46.525  36.588  26.470  1.00  0.00    -0.237 OA
ATOM     96  O   UNL A   1      44.085  36.707  26.793  1.00  0.00    -0.744 OA
ENDBRANCH  89  93
ENDBRANCH  63  86
ENDBRANCH  37  38
ENDBRANCH  30  32
ENDBRANCH  29  30
ENDBRANCH  28  29
ENDBRANCH  27  28
ENDBRANCH  26  27
ENDBRANCH  25  26
ENDBRANCH   1  25
TORSDOF 25
ENDMDL
