MODEL 1
REMARK VINA RESULT:     -10.6      0.000      0.000
REMARK SMILES O=C(OCCOCCOCCOC(=O)c1ccccc1Nc1cccc(C(F)(F)F)c1)c1ccc(-c2c3nc(c(-c4cc(S(=O)(=O)[O-])ccc4F)c4ccc([nH]4)c(-c4cc(S(=O)(=O)[O-])ccc4F)c4nc(c(-c5cc(S(=O)(=O)[O-])ccc5F)c5ccc2[nH]5)C=C4)C=C3)cc1
REMARK SMILES IDX 7 1 6 2 5 3 4 4 3 5 2 6 1 7 32 8 33 9 94 10 34 11 93 12
REMARK SMILES IDX 35 13 36 14 37 15 87 16 38 17 92 18 86 19 88 20 39 21 91 22
REMARK SMILES IDX 85 23 84 24 40 26 72 27 52 28 71 29 53 30 56 31 70 32 89 33
REMARK SMILES IDX 54 34 55 35 69 37 90 38 57 39 41 40 42 41 50 42 43 43 49 44
REMARK SMILES IDX 51 45 48 46 44 47 45 48 46 49 47 50 73 51 74 52 82 53 75 54
REMARK SMILES IDX 81 55 83 56 80 57 76 58 77 59 78 60 79 61 58 62 59 63 67 64
REMARK SMILES IDX 60 65 66 66 68 67 65 68 61 69 62 70 63 71 64 72 8 73 9 74
REMARK SMILES IDX 10 75 11 76 12 77 13 78 14 79 15 80 16 81 20 82 17 83 19 84
REMARK SMILES IDX 18 85 21 86 22 88 23 89 31 90 24 91 26 92 25 93 27 94 28 95
REMARK SMILES IDX 29 96 30 97
REMARK H PARENT 88 25 56 36 21 87
REMARK Flexibility Score: inf
ROOT
ATOM      1  C   UNL A   1      41.234  20.766  27.536  1.00  0.00     0.188 C 
ENDROOT
BRANCH   1   2
ATOM      2  O   UNL A   1      42.077  19.608  27.493  1.00  0.00    -0.376 OA
BRANCH   2   3
ATOM      3  C   UNL A   1      42.053  18.927  26.235  1.00  0.00     0.202 C 
BRANCH   3   4
ATOM      4  C   UNL A   1      43.375  18.249  25.847  1.00  0.00     0.261 C 
BRANCH   4   5
ATOM      5  O   UNL A   1      43.916  18.770  24.622  1.00  0.00    -0.460 OA
BRANCH   5   6
ATOM      6  C   UNL A   1      44.882  19.713  24.483  1.00  0.00     0.338 C 
ATOM      7  O   UNL A   1      45.925  19.409  23.906  1.00  0.00    -0.246 OA
BRANCH   6   8
ATOM      8  C   UNL A   1      44.722  21.125  24.941  1.00  0.00     0.060 A 
ATOM      9  C   UNL A   1      44.337  22.194  24.130  1.00  0.00     0.016 A 
ATOM     10  C   UNL A   1      44.929  21.375  26.308  1.00  0.00     0.016 A 
ATOM     11  C   UNL A   1      44.313  23.499  24.619  1.00  0.00     0.010 A 
ATOM     12  C   UNL A   1      44.840  22.672  26.822  1.00  0.00     0.010 A 
ATOM     13  C   UNL A   1      44.592  23.750  25.961  1.00  0.00    -0.014 A 
BRANCH  13  14
ATOM     14  C   UNL A   1      44.778  25.150  26.413  1.00  0.00     0.031 A 
ATOM     15  C   UNL A   1      46.137  25.770  26.238  1.00  0.00     0.074 A 
ATOM     16  C   UNL A   1      43.739  25.850  26.905  1.00  0.00     0.049 A 
ATOM     17  N   UNL A   1      46.558  26.959  26.574  1.00  0.00    -0.248 NA
ATOM     18  C   UNL A   1      47.164  24.929  25.599  1.00  0.00     0.031 C 
ATOM     19  C   UNL A   1      42.376  25.336  27.036  1.00  0.00     0.029 A 
ATOM     20  N   UNL A   1      43.650  27.137  27.371  1.00  0.00    -0.354 N 
ATOM     21  C   UNL A   1      47.906  26.993  26.230  1.00  0.00     0.074 A 
ATOM     22  C   UNL A   1      48.234  25.703  25.668  1.00  0.00     0.031 C 
ATOM     23  C   UNL A   1      41.588  26.298  27.541  1.00  0.00     0.029 A 
ATOM     24  C   UNL A   1      42.390  27.485  27.813  1.00  0.00     0.049 A 
ATOM     25  H   UNL A   1      44.416  27.755  27.390  1.00  0.00     0.167 HD
ATOM     26  C   UNL A   1      48.784  28.014  26.383  1.00  0.00     0.034 A 
ATOM     27  C   UNL A   1      41.948  28.630  28.373  1.00  0.00     0.034 A 
ATOM     28  C   UNL A   1      48.407  29.291  26.933  1.00  0.00     0.049 A 
ATOM     29  C   UNL A   1      42.946  29.758  28.491  1.00  0.00     0.074 A 
ATOM     30  C   UNL A   1      49.193  30.402  27.171  1.00  0.00     0.029 A 
ATOM     31  N   UNL A   1      47.114  29.624  27.329  1.00  0.00    -0.354 N 
ATOM     32  N   UNL A   1      44.213  29.780  28.135  1.00  0.00    -0.248 NA
ATOM     33  C   UNL A   1      42.456  31.017  29.057  1.00  0.00     0.031 C 
ATOM     34  C   UNL A   1      48.389  31.385  27.761  1.00  0.00     0.029 A 
ATOM     35  C   UNL A   1      47.088  30.912  27.835  1.00  0.00     0.049 A 
ATOM     36  H   UNL A   1      46.333  29.030  27.258  1.00  0.00     0.167 HD
ATOM     37  C   UNL A   1      44.664  31.065  28.419  1.00  0.00     0.074 A 
ATOM     38  C   UNL A   1      43.515  31.799  28.914  1.00  0.00     0.031 C 
ATOM     39  C   UNL A   1      45.912  31.594  28.320  1.00  0.00     0.034 A 
BRANCH  26  40
ATOM     40  C   UNL A   1      50.229  27.737  26.043  1.00  0.00     0.023 A 
ATOM     41  C   UNL A   1      50.717  27.796  24.724  1.00  0.00     0.031 A 
ATOM     42  C   UNL A   1      51.117  27.326  27.053  1.00  0.00     0.131 A 
ATOM     43  C   UNL A   1      52.028  27.376  24.444  1.00  0.00     0.055 A 
ATOM     44  C   UNL A   1      52.443  26.985  26.779  1.00  0.00     0.041 A 
ATOM     45  F   UNL A   1      50.701  27.220  28.326  1.00  0.00    -0.206 F 
ATOM     46  C   UNL A   1      52.901  26.992  25.465  1.00  0.00     0.022 A 
BRANCH  43  47
ATOM     47  S   UNL A   1      52.533  27.193  22.710  1.00  0.00     0.124 S 
ATOM     48  O   UNL A   1      53.311  25.957  22.757  1.00  0.00    -0.237 OA
ATOM     49  O   UNL A   1      51.254  27.116  22.014  1.00  0.00    -0.237 OA
ATOM     50  O   UNL A   1      53.312  28.403  22.450  1.00  0.00    -0.744 OA
ENDBRANCH  43  47
ENDBRANCH  26  40
BRANCH  27  51
ATOM     51  C   UNL A   1      40.523  28.785  28.823  1.00  0.00     0.023 A 
ATOM     52  C   UNL A   1      40.160  28.623  30.173  1.00  0.00     0.031 A 
ATOM     53  C   UNL A   1      39.495  29.124  27.925  1.00  0.00     0.131 A 
ATOM     54  C   UNL A   1      38.838  28.840  30.595  1.00  0.00     0.055 A 
ATOM     55  C   UNL A   1      38.179  29.344  28.346  1.00  0.00     0.041 A 
ATOM     56  F   UNL A   1      39.759  29.289  26.619  1.00  0.00    -0.206 F 
ATOM     57  C   UNL A   1      37.843  29.202  29.688  1.00  0.00     0.022 A 
BRANCH  54  58
ATOM     58  S   UNL A   1      38.433  28.661  32.356  1.00  0.00     0.124 S 
ATOM     59  O   UNL A   1      39.485  29.437  33.000  1.00  0.00    -0.237 OA
ATOM     60  O   UNL A   1      37.087  29.228  32.410  1.00  0.00    -0.237 OA
ATOM     61  O   UNL A   1      38.504  27.217  32.572  1.00  0.00    -0.744 OA
ENDBRANCH  54  58
ENDBRANCH  27  51
BRANCH  39  62
ATOM     62  C   UNL A   1      46.057  33.025  28.767  1.00  0.00     0.023 A 
ATOM     63  C   UNL A   1      45.860  34.083  27.863  1.00  0.00     0.031 A 
ATOM     64  C   UNL A   1      46.444  33.333  30.082  1.00  0.00     0.131 A 
ATOM     65  C   UNL A   1      46.148  35.394  28.255  1.00  0.00     0.055 A 
ATOM     66  C   UNL A   1      46.655  34.651  30.488  1.00  0.00     0.041 A 
ATOM     67  F   UNL A   1      46.637  32.360  30.985  1.00  0.00    -0.206 F 
ATOM     68  C   UNL A   1      46.527  35.689  29.567  1.00  0.00     0.022 A 
BRANCH  65  69
ATOM     69  S   UNL A   1      46.143  36.689  26.987  1.00  0.00     0.124 S 
ATOM     70  O   UNL A   1      47.058  37.672  27.560  1.00  0.00    -0.237 OA
ATOM     71  O   UNL A   1      46.631  35.977  25.809  1.00  0.00    -0.237 OA
ATOM     72  O   UNL A   1      44.744  37.103  26.926  1.00  0.00    -0.744 OA
ENDBRANCH  65  69
ENDBRANCH  39  62
ENDBRANCH  13  14
ENDBRANCH   6   8
ENDBRANCH   5   6
ENDBRANCH   4   5
ENDBRANCH   3   4
ENDBRANCH   2   3
ENDBRANCH   1   2
BRANCH   1  73
ATOM     73  C   UNL A   1      41.149  21.449  26.170  1.00  0.00     0.188 C 
BRANCH  73  74
ATOM     74  O   UNL A   1      39.834  21.612  25.638  1.00  0.00    -0.376 OA
BRANCH  74  75
ATOM     75  C   UNL A   1      39.029  22.644  26.203  1.00  0.00     0.202 C 
BRANCH  75  76
ATOM     76  C   UNL A   1      37.530  22.612  25.890  1.00  0.00     0.261 C 
BRANCH  76  77
ATOM     77  O   UNL A   1      37.039  23.721  25.125  1.00  0.00    -0.460 OA
BRANCH  77  78
ATOM     78  C   UNL A   1      35.991  23.433  24.319  1.00  0.00     0.340 C 
ATOM     79  O   UNL A   1      36.029  22.996  23.173  1.00  0.00    -0.246 OA
BRANCH  78  80
ATOM     80  C   UNL A   1      34.741  23.860  24.951  1.00  0.00     0.083 A 
ATOM     81  C   UNL A   1      34.464  25.228  25.071  1.00  0.00     0.018 A 
ATOM     82  C   UNL A   1      33.912  22.877  25.524  1.00  0.00     0.053 A 
ATOM     83  C   UNL A   1      33.334  25.635  25.776  1.00  0.00     0.001 A 
ATOM     84  C   UNL A   1      32.771  23.314  26.206  1.00  0.00     0.027 A 
ATOM     85  C   UNL A   1      32.494  24.680  26.349  1.00  0.00     0.002 A 
BRANCH  82  86
ATOM     86  N   UNL A   1      34.223  21.511  25.401  1.00  0.00    -0.355 N 
ATOM     87  H   UNL A   1      34.959  21.210  25.982  1.00  0.00     0.167 HD
BRANCH  86  88
ATOM     88  C   UNL A   1      33.674  20.499  24.601  1.00  0.00     0.039 A 
ATOM     89  C   UNL A   1      32.621  20.822  23.738  1.00  0.00     0.026 A 
ATOM     90  C   UNL A   1      34.145  19.184  24.626  1.00  0.00     0.039 A 
ATOM     91  C   UNL A   1      32.058  19.857  22.902  1.00  0.00     0.003 A 
ATOM     92  C   UNL A   1      33.535  18.185  23.845  1.00  0.00     0.058 A 
ATOM     93  C   UNL A   1      32.518  18.543  22.950  1.00  0.00     0.013 A 
BRANCH  92  94
ATOM     94  C   UNL A   1      33.954  16.743  23.999  1.00  0.00     0.416 C 
ATOM     95  F   UNL A   1      34.923  16.553  24.933  1.00  0.00    -0.166 F 
ATOM     96  F   UNL A   1      32.931  15.919  24.301  1.00  0.00    -0.166 F 
ATOM     97  F   UNL A   1      34.482  16.249  22.838  1.00  0.00    -0.166 F 
ENDBRANCH  92  94
ENDBRANCH  86  88
ENDBRANCH  82  86
ENDBRANCH  78  80
ENDBRANCH  77  78
ENDBRANCH  76  77
ENDBRANCH  75  76
ENDBRANCH  74  75
ENDBRANCH  73  74
ENDBRANCH   1  73
TORSDOF 23
ENDMDL
MODEL 2
REMARK VINA RESULT:     -10.5      5.866      9.457
REMARK SMILES O=C(OCCOCCOCCOC(=O)c1ccccc1Nc1cccc(C(F)(F)F)c1)c1ccc(-c2c3nc(c(-c4cc(S(=O)(=O)[O-])ccc4F)c4ccc([nH]4)c(-c4cc(S(=O)(=O)[O-])ccc4F)c4nc(c(-c5cc(S(=O)(=O)[O-])ccc5F)c5ccc2[nH]5)C=C4)C=C3)cc1
REMARK SMILES IDX 7 1 6 2 5 3 4 4 3 5 2 6 1 7 32 8 33 9 94 10 34 11 93 12
REMARK SMILES IDX 35 13 36 14 37 15 87 16 38 17 92 18 86 19 88 20 39 21 91 22
REMARK SMILES IDX 85 23 84 24 40 26 72 27 52 28 71 29 53 30 56 31 70 32 89 33
REMARK SMILES IDX 54 34 55 35 69 37 90 38 57 39 41 40 42 41 50 42 43 43 49 44
REMARK SMILES IDX 51 45 48 46 44 47 45 48 46 49 47 50 73 51 74 52 82 53 75 54
REMARK SMILES IDX 81 55 83 56 80 57 76 58 77 59 78 60 79 61 58 62 59 63 67 64
REMARK SMILES IDX 60 65 66 66 68 67 65 68 61 69 62 70 63 71 64 72 8 73 9 74
REMARK SMILES IDX 10 75 11 76 12 77 13 78 14 79 15 80 16 81 20 82 17 83 19 84
REMARK SMILES IDX 18 85 21 86 22 88 23 89 31 90 24 91 26 92 25 93 27 94 28 95
REMARK SMILES IDX 29 96 30 97
REMARK H PARENT 88 25 56 36 21 87
REMARK Flexibility Score: inf
ROOT
ATOM      1  C   UNL A   1      30.136  29.540  23.529  1.00  0.00     0.188 C 
ENDROOT
BRANCH   1   2
ATOM      2  O   UNL A   1      31.303  29.848  24.301  1.00  0.00    -0.376 OA
BRANCH   2   3
ATOM      3  C   UNL A   1      31.425  29.069  25.495  1.00  0.00     0.202 C 
BRANCH   3   4
ATOM      4  C   UNL A   1      31.752  29.877  26.758  1.00  0.00     0.261 C 
BRANCH   4   5
ATOM      5  O   UNL A   1      32.337  31.153  26.452  1.00  0.00    -0.460 OA
BRANCH   5   6
ATOM      6  C   UNL A   1      33.171  31.886  27.233  1.00  0.00     0.338 C 
ATOM      7  O   UNL A   1      32.843  33.032  27.534  1.00  0.00    -0.246 OA
BRANCH   6   8
ATOM      8  C   UNL A   1      34.446  31.352  27.797  1.00  0.00     0.060 A 
ATOM      9  C   UNL A   1      34.731  30.000  28.000  1.00  0.00     0.016 A 
ATOM     10  C   UNL A   1      35.448  32.289  28.097  1.00  0.00     0.016 A 
ATOM     11  C   UNL A   1      35.907  29.596  28.629  1.00  0.00     0.010 A 
ATOM     12  C   UNL A   1      36.661  31.886  28.666  1.00  0.00     0.010 A 
ATOM     13  C   UNL A   1      36.867  30.539  28.992  1.00  0.00    -0.014 A 
BRANCH  13  14
ATOM     14  C   UNL A   1      38.002  30.123  29.850  1.00  0.00     0.031 A 
ATOM     15  C   UNL A   1      39.047  29.225  29.248  1.00  0.00     0.074 A 
ATOM     16  C   UNL A   1      38.113  30.593  31.107  1.00  0.00     0.049 A 
ATOM     17  N   UNL A   1      40.112  28.705  29.794  1.00  0.00    -0.248 NA
ATOM     18  C   UNL A   1      38.859  28.859  27.833  1.00  0.00     0.031 C 
ATOM     19  C   UNL A   1      37.177  31.526  31.733  1.00  0.00     0.029 A 
ATOM     20  N   UNL A   1      39.056  30.374  32.079  1.00  0.00    -0.354 N 
ATOM     21  C   UNL A   1      40.695  27.917  28.807  1.00  0.00     0.074 A 
ATOM     22  C   UNL A   1      39.861  28.019  27.632  1.00  0.00     0.031 C 
ATOM     23  C   UNL A   1      37.594  31.802  32.978  1.00  0.00     0.029 A 
ATOM     24  C   UNL A   1      38.803  31.038  33.261  1.00  0.00     0.049 A 
ATOM     25  H   UNL A   1      39.840  29.794  31.944  1.00  0.00     0.167 HD
ATOM     26  C   UNL A   1      41.823  27.170  28.888  1.00  0.00     0.034 A 
ATOM     27  C   UNL A   1      39.474  31.020  34.433  1.00  0.00     0.034 A 
ATOM     28  C   UNL A   1      42.636  27.113  30.077  1.00  0.00     0.049 A 
ATOM     29  C   UNL A   1      40.748  30.208  34.472  1.00  0.00     0.074 A 
ATOM     30  C   UNL A   1      43.784  26.381  30.311  1.00  0.00     0.029 A 
ATOM     31  N   UNL A   1      42.376  27.831  31.241  1.00  0.00    -0.354 N 
ATOM     32  N   UNL A   1      41.299  29.488  33.518  1.00  0.00    -0.248 NA
ATOM     33  C   UNL A   1      41.502  30.225  35.728  1.00  0.00     0.031 C 
ATOM     34  C   UNL A   1      44.186  26.614  31.633  1.00  0.00     0.029 A 
ATOM     35  C   UNL A   1      43.325  27.537  32.204  1.00  0.00     0.049 A 
ATOM     36  H   UNL A   1      41.625  28.457  31.361  1.00  0.00     0.167 HD
ATOM     37  C   UNL A   1      42.477  28.982  34.058  1.00  0.00     0.074 A 
ATOM     38  C   UNL A   1      42.581  29.533  35.396  1.00  0.00     0.031 C 
ATOM     39  C   UNL A   1      43.378  28.115  33.526  1.00  0.00     0.034 A 
BRANCH  26  40
ATOM     40  C   UNL A   1      42.163  26.301  27.701  1.00  0.00     0.023 A 
ATOM     41  C   UNL A   1      41.691  24.982  27.572  1.00  0.00     0.031 A 
ATOM     42  C   UNL A   1      43.046  26.781  26.716  1.00  0.00     0.131 A 
ATOM     43  C   UNL A   1      42.164  24.168  26.530  1.00  0.00     0.055 A 
ATOM     44  C   UNL A   1      43.452  25.991  25.639  1.00  0.00     0.041 A 
ATOM     45  F   UNL A   1      43.555  28.021  26.802  1.00  0.00    -0.206 F 
ATOM     46  C   UNL A   1      43.024  24.670  25.550  1.00  0.00     0.022 A 
BRANCH  43  47
ATOM     47  S   UNL A   1      41.761  22.398  26.555  1.00  0.00     0.124 S 
ATOM     48  O   UNL A   1      40.302  22.427  26.468  1.00  0.00    -0.237 OA
ATOM     49  O   UNL A   1      42.461  21.897  25.378  1.00  0.00    -0.237 OA
ATOM     50  O   UNL A   1      42.292  21.943  27.839  1.00  0.00    -0.744 OA
ENDBRANCH  43  47
ENDBRANCH  26  40
BRANCH  27  51
ATOM     51  C   UNL A   1      38.996  31.799  35.624  1.00  0.00     0.023 A 
ATOM     52  C   UNL A   1      38.211  31.198  36.625  1.00  0.00     0.031 A 
ATOM     53  C   UNL A   1      39.332  33.153  35.807  1.00  0.00     0.131 A 
ATOM     54  C   UNL A   1      37.829  31.916  37.770  1.00  0.00     0.055 A 
ATOM     55  C   UNL A   1      38.953  33.868  36.950  1.00  0.00     0.041 A 
ATOM     56  F   UNL A   1      40.071  33.802  34.893  1.00  0.00    -0.206 F 
ATOM     57  C   UNL A   1      38.197  33.250  37.940  1.00  0.00     0.022 A 
BRANCH  54  58
ATOM     58  S   UNL A   1      36.853  31.079  39.052  1.00  0.00     0.124 S 
ATOM     59  O   UNL A   1      37.735  31.145  40.210  1.00  0.00    -0.237 OA
ATOM     60  O   UNL A   1      35.654  31.913  39.105  1.00  0.00    -0.237 OA
ATOM     61  O   UNL A   1      36.649  29.741  38.500  1.00  0.00    -0.744 OA
ENDBRANCH  54  58
ENDBRANCH  27  51
BRANCH  39  62
ATOM     62  C   UNL A   1      44.530  27.734  34.420  1.00  0.00     0.023 A 
ATOM     63  C   UNL A   1      44.449  26.604  35.251  1.00  0.00     0.031 A 
ATOM     64  C   UNL A   1      45.687  28.529  34.482  1.00  0.00     0.131 A 
ATOM     65  C   UNL A   1      45.461  26.354  36.184  1.00  0.00     0.055 A 
ATOM     66  C   UNL A   1      46.728  28.228  35.361  1.00  0.00     0.041 A 
ATOM     67  F   UNL A   1      45.816  29.614  33.704  1.00  0.00    -0.206 F 
ATOM     68  C   UNL A   1      46.610  27.148  36.233  1.00  0.00     0.022 A 
BRANCH  65  69
ATOM     69  S   UNL A   1      45.190  25.052  37.415  1.00  0.00     0.124 S 
ATOM     70  O   UNL A   1      46.139  25.426  38.459  1.00  0.00    -0.237 OA
ATOM     71  O   UNL A   1      43.779  25.223  37.747  1.00  0.00    -0.237 OA
ATOM     72  O   UNL A   1      45.512  23.825  36.691  1.00  0.00    -0.744 OA
ENDBRANCH  65  69
ENDBRANCH  39  62
ENDBRANCH  13  14
ENDBRANCH   6   8
ENDBRANCH   5   6
ENDBRANCH   4   5
ENDBRANCH   3   4
ENDBRANCH   2   3
ENDBRANCH   1   2
BRANCH   1  73
ATOM     73  C   UNL A   1      29.991  28.034  23.309  1.00  0.00     0.188 C 
BRANCH  73  74
ATOM     74  O   UNL A   1      31.039  27.411  22.563  1.00  0.00    -0.376 OA
BRANCH  74  75
ATOM     75  C   UNL A   1      31.240  26.015  22.771  1.00  0.00     0.202 C 
BRANCH  75  76
ATOM     76  C   UNL A   1      32.687  25.514  22.807  1.00  0.00     0.261 C 
BRANCH  76  77
ATOM     77  O   UNL A   1      32.942  24.438  23.720  1.00  0.00    -0.460 OA
BRANCH  77  78
ATOM     78  C   UNL A   1      33.626  23.397  23.190  1.00  0.00     0.340 C 
ATOM     79  O   UNL A   1      33.338  22.747  22.190  1.00  0.00    -0.246 OA
BRANCH  78  80
ATOM     80  C   UNL A   1      34.729  23.020  24.075  1.00  0.00     0.083 A 
ATOM     81  C   UNL A   1      35.908  23.778  24.065  1.00  0.00     0.018 A 
ATOM     82  C   UNL A   1      34.612  21.833  24.823  1.00  0.00     0.053 A 
ATOM     83  C   UNL A   1      36.999  23.352  24.817  1.00  0.00     0.001 A 
ATOM     84  C   UNL A   1      35.716  21.442  25.589  1.00  0.00     0.027 A 
ATOM     85  C   UNL A   1      36.906  22.181  25.571  1.00  0.00     0.002 A 
BRANCH  82  86
ATOM     86  N   UNL A   1      33.422  21.084  24.803  1.00  0.00    -0.355 N 
ATOM     87  H   UNL A   1      32.654  21.533  25.226  1.00  0.00     0.167 HD
BRANCH  86  88
ATOM     88  C   UNL A   1      33.130  19.813  24.287  1.00  0.00     0.039 A 
ATOM     89  C   UNL A   1      32.524  19.722  23.029  1.00  0.00     0.026 A 
ATOM     90  C   UNL A   1      33.429  18.637  24.978  1.00  0.00     0.039 A 
ATOM     91  C   UNL A   1      32.237  18.480  22.461  1.00  0.00     0.003 A 
ATOM     92  C   UNL A   1      33.074  17.381  24.450  1.00  0.00     0.058 A 
ATOM     93  C   UNL A   1      32.518  17.312  23.166  1.00  0.00     0.013 A 
BRANCH  92  94
ATOM     94  C   UNL A   1      33.264  16.132  25.275  1.00  0.00     0.416 C 
ATOM     95  F   UNL A   1      32.604  16.158  26.464  1.00  0.00    -0.166 F 
ATOM     96  F   UNL A   1      32.898  15.005  24.632  1.00  0.00    -0.166 F 
ATOM     97  F   UNL A   1      34.578  15.946  25.607  1.00  0.00    -0.166 F 
ENDBRANCH  92  94
ENDBRANCH  86  88
ENDBRANCH  82  86
ENDBRANCH  78  80
ENDBRANCH  77  78
ENDBRANCH  76  77
ENDBRANCH  75  76
ENDBRANCH  74  75
ENDBRANCH  73  74
ENDBRANCH   1  73
TORSDOF 23
ENDMDL
MODEL 3
REMARK VINA RESULT:     -10.4      5.147     10.085
REMARK SMILES O=C(OCCOCCOCCOC(=O)c1ccccc1Nc1cccc(C(F)(F)F)c1)c1ccc(-c2c3nc(c(-c4cc(S(=O)(=O)[O-])ccc4F)c4ccc([nH]4)c(-c4cc(S(=O)(=O)[O-])ccc4F)c4nc(c(-c5cc(S(=O)(=O)[O-])ccc5F)c5ccc2[nH]5)C=C4)C=C3)cc1
REMARK SMILES IDX 7 1 6 2 5 3 4 4 3 5 2 6 1 7 32 8 33 9 94 10 34 11 93 12
REMARK SMILES IDX 35 13 36 14 37 15 87 16 38 17 92 18 86 19 88 20 39 21 91 22
REMARK SMILES IDX 85 23 84 24 40 26 72 27 52 28 71 29 53 30 56 31 70 32 89 33
REMARK SMILES IDX 54 34 55 35 69 37 90 38 57 39 41 40 42 41 50 42 43 43 49 44
REMARK SMILES IDX 51 45 48 46 44 47 45 48 46 49 47 50 73 51 74 52 82 53 75 54
REMARK SMILES IDX 81 55 83 56 80 57 76 58 77 59 78 60 79 61 58 62 59 63 67 64
REMARK SMILES IDX 60 65 66 66 68 67 65 68 61 69 62 70 63 71 64 72 8 73 9 74
REMARK SMILES IDX 10 75 11 76 12 77 13 78 14 79 15 80 16 81 20 82 17 83 19 84
REMARK SMILES IDX 18 85 21 86 22 88 23 89 31 90 24 91 26 92 25 93 27 94 28 95
REMARK SMILES IDX 29 96 30 97
REMARK H PARENT 88 25 56 36 21 87
REMARK Flexibility Score: inf
ROOT
ATOM      1  C   UNL A   1      32.322  28.107  23.533  1.00  0.00     0.188 C 
ENDROOT
BRANCH   1   2
ATOM      2  O   UNL A   1      32.165  29.271  24.354  1.00  0.00    -0.376 OA
BRANCH   2   3
ATOM      3  C   UNL A   1      31.703  28.984  25.678  1.00  0.00     0.202 C 
BRANCH   3   4
ATOM      4  C   UNL A   1      32.801  28.553  26.660  1.00  0.00     0.261 C 
BRANCH   4   5
ATOM      5  O   UNL A   1      34.038  29.248  26.436  1.00  0.00    -0.460 OA
BRANCH   5   6
ATOM      6  C   UNL A   1      34.645  30.137  27.263  1.00  0.00     0.338 C 
ATOM      7  O   UNL A   1      34.040  31.162  27.574  1.00  0.00    -0.246 OA
BRANCH   6   8
ATOM      8  C   UNL A   1      35.993  29.909  27.865  1.00  0.00     0.060 A 
ATOM      9  C   UNL A   1      37.210  30.122  27.214  1.00  0.00     0.016 A 
ATOM     10  C   UNL A   1      36.025  29.495  29.207  1.00  0.00     0.016 A 
ATOM     11  C   UNL A   1      38.420  29.783  27.818  1.00  0.00     0.010 A 
ATOM     12  C   UNL A   1      37.239  29.219  29.844  1.00  0.00     0.010 A 
ATOM     13  C   UNL A   1      38.440  29.303  29.126  1.00  0.00    -0.014 A 
BRANCH  13  14
ATOM     14  C   UNL A   1      39.699  28.744  29.673  1.00  0.00     0.031 A 
ATOM     15  C   UNL A   1      40.297  29.409  30.883  1.00  0.00     0.074 A 
ATOM     16  C   UNL A   1      40.245  27.639  29.132  1.00  0.00     0.049 A 
ATOM     17  N   UNL A   1      41.396  29.129  31.527  1.00  0.00    -0.248 NA
ATOM     18  C   UNL A   1      39.550  30.552  31.438  1.00  0.00     0.031 C 
ATOM     19  C   UNL A   1      39.681  26.899  28.004  1.00  0.00     0.029 A 
ATOM     20  N   UNL A   1      41.376  26.933  29.454  1.00  0.00    -0.354 N 
ATOM     21  C   UNL A   1      41.497  30.086  32.533  1.00  0.00     0.074 A 
ATOM     22  C   UNL A   1      40.353  30.959  32.407  1.00  0.00     0.031 C 
ATOM     23  C   UNL A   1      40.464  25.842  27.733  1.00  0.00     0.029 A 
ATOM     24  C   UNL A   1      41.609  25.848  28.635  1.00  0.00     0.049 A 
ATOM     25  H   UNL A   1      41.968  27.180  30.201  1.00  0.00     0.167 HD
ATOM     26  C   UNL A   1      42.470  30.219  33.468  1.00  0.00     0.034 A 
ATOM     27  C   UNL A   1      42.634  24.968  28.622  1.00  0.00     0.034 A 
ATOM     28  C   UNL A   1      43.585  29.313  33.568  1.00  0.00     0.049 A 
ATOM     29  C   UNL A   1      43.677  25.126  29.704  1.00  0.00     0.074 A 
ATOM     30  C   UNL A   1      44.654  29.342  34.442  1.00  0.00     0.029 A 
ATOM     31  N   UNL A   1      43.767  28.199  32.752  1.00  0.00    -0.354 N 
ATOM     32  N   UNL A   1      43.742  26.023  30.665  1.00  0.00    -0.248 NA
ATOM     33  C   UNL A   1      44.765  24.145  29.720  1.00  0.00     0.031 C 
ATOM     34  C   UNL A   1      45.508  28.280  34.120  1.00  0.00     0.029 A 
ATOM     35  C   UNL A   1      44.944  27.552  33.085  1.00  0.00     0.049 A 
ATOM     36  H   UNL A   1      43.148  27.914  32.041  1.00  0.00     0.167 HD
ATOM     37  C   UNL A   1      44.871  25.700  31.410  1.00  0.00     0.074 A 
ATOM     38  C   UNL A   1      45.413  24.489  30.821  1.00  0.00     0.031 C 
ATOM     39  C   UNL A   1      45.439  26.348  32.460  1.00  0.00     0.034 A 
BRANCH  26  40
ATOM     40  C   UNL A   1      42.402  31.432  34.365  1.00  0.00     0.023 A 
ATOM     41  C   UNL A   1      41.611  31.466  35.528  1.00  0.00     0.031 A 
ATOM     42  C   UNL A   1      43.082  32.608  34.000  1.00  0.00     0.131 A 
ATOM     43  C   UNL A   1      41.460  32.669  36.237  1.00  0.00     0.055 A 
ATOM     44  C   UNL A   1      42.991  33.779  34.754  1.00  0.00     0.041 A 
ATOM     45  F   UNL A   1      43.828  32.646  32.884  1.00  0.00    -0.206 F 
ATOM     46  C   UNL A   1      42.163  33.820  35.872  1.00  0.00     0.022 A 
BRANCH  43  47
ATOM     47  S   UNL A   1      40.217  32.753  37.558  1.00  0.00     0.124 S 
ATOM     48  O   UNL A   1      39.272  31.719  37.139  1.00  0.00    -0.237 OA
ATOM     49  O   UNL A   1      41.002  32.455  38.751  1.00  0.00    -0.237 OA
ATOM     50  O   UNL A   1      39.713  34.122  37.468  1.00  0.00    -0.744 OA
ENDBRANCH  43  47
ENDBRANCH  26  40
BRANCH  27  51
ATOM     51  C   UNL A   1      42.710  23.867  27.604  1.00  0.00     0.023 A 
ATOM     52  C   UNL A   1      43.681  23.878  26.585  1.00  0.00     0.031 A 
ATOM     53  C   UNL A   1      41.837  22.764  27.638  1.00  0.00     0.131 A 
ATOM     54  C   UNL A   1      43.790  22.809  25.681  1.00  0.00     0.055 A 
ATOM     55  C   UNL A   1      41.948  21.697  26.739  1.00  0.00     0.041 A 
ATOM     56  F   UNL A   1      40.879  22.683  28.574  1.00  0.00    -0.206 F 
ATOM     57  C   UNL A   1      42.928  21.715  25.753  1.00  0.00     0.022 A 
BRANCH  54  58
ATOM     58  S   UNL A   1      45.088  22.853  24.414  1.00  0.00     0.124 S 
ATOM     59  O   UNL A   1      45.393  24.276  24.327  1.00  0.00    -0.237 OA
ATOM     60  O   UNL A   1      46.119  22.009  25.013  1.00  0.00    -0.237 OA
ATOM     61  O   UNL A   1      44.432  22.285  23.238  1.00  0.00    -0.744 OA
ENDBRANCH  54  58
ENDBRANCH  27  51
BRANCH  39  62
ATOM     62  C   UNL A   1      46.705  25.738  33.003  1.00  0.00     0.023 A 
ATOM     63  C   UNL A   1      47.944  25.997  32.394  1.00  0.00     0.031 A 
ATOM     64  C   UNL A   1      46.668  24.854  34.094  1.00  0.00     0.131 A 
ATOM     65  C   UNL A   1      49.084  25.303  32.815  1.00  0.00     0.055 A 
ATOM     66  C   UNL A   1      47.823  24.224  34.558  1.00  0.00     0.041 A 
ATOM     67  F   UNL A   1      45.510  24.579  34.714  1.00  0.00    -0.206 F 
ATOM     68  C   UNL A   1      49.036  24.431  33.905  1.00  0.00     0.022 A 
BRANCH  65  69
ATOM     69  S   UNL A   1      50.597  25.463  31.831  1.00  0.00     0.124 S 
ATOM     70  O   UNL A   1      50.775  24.103  31.332  1.00  0.00    -0.237 OA
ATOM     71  O   UNL A   1      50.220  26.462  30.835  1.00  0.00    -0.237 OA
ATOM     72  O   UNL A   1      51.593  25.904  32.805  1.00  0.00    -0.744 OA
ENDBRANCH  65  69
ENDBRANCH  39  62
ENDBRANCH  13  14
ENDBRANCH   6   8
ENDBRANCH   5   6
ENDBRANCH   4   5
ENDBRANCH   3   4
ENDBRANCH   2   3
ENDBRANCH   1   2
BRANCH   1  73
ATOM     73  C   UNL A   1      31.028  27.765  22.793  1.00  0.00     0.188 C 
BRANCH  73  74
ATOM     74  O   UNL A   1      30.045  27.059  23.552  1.00  0.00    -0.376 OA
BRANCH  74  75
ATOM     75  C   UNL A   1      30.254  25.662  23.744  1.00  0.00     0.202 C 
BRANCH  75  76
ATOM     76  C   UNL A   1      30.270  25.149  25.187  1.00  0.00     0.261 C 
BRANCH  76  77
ATOM     77  O   UNL A   1      30.730  23.800  25.354  1.00  0.00    -0.460 OA
BRANCH  77  78
ATOM     78  C   UNL A   1      31.652  23.633  26.330  1.00  0.00     0.340 C 
ATOM     79  O   UNL A   1      31.464  23.647  27.543  1.00  0.00    -0.246 OA
BRANCH  78  80
ATOM     80  C   UNL A   1      32.994  23.574  25.748  1.00  0.00     0.083 A 
ATOM     81  C   UNL A   1      33.851  24.674  25.885  1.00  0.00     0.018 A 
ATOM     82  C   UNL A   1      33.335  22.454  24.966  1.00  0.00     0.053 A 
ATOM     83  C   UNL A   1      35.081  24.664  25.231  1.00  0.00     0.001 A 
ATOM     84  C   UNL A   1      34.586  22.461  24.341  1.00  0.00     0.027 A 
ATOM     85  C   UNL A   1      35.444  23.563  24.454  1.00  0.00     0.002 A 
BRANCH  82  86
ATOM     86  N   UNL A   1      32.447  21.371  24.835  1.00  0.00    -0.355 N 
ATOM     87  H   UNL A   1      31.567  21.516  25.252  1.00  0.00     0.167 HD
BRANCH  86  88
ATOM     88  C   UNL A   1      32.588  20.121  24.215  1.00  0.00     0.039 A 
ATOM     89  C   UNL A   1      32.174  19.979  22.886  1.00  0.00     0.026 A 
ATOM     90  C   UNL A   1      33.135  19.016  24.872  1.00  0.00     0.039 A 
ATOM     91  C   UNL A   1      32.318  18.763  22.217  1.00  0.00     0.003 A 
ATOM     92  C   UNL A   1      33.213  17.764  24.233  1.00  0.00     0.058 A 
ATOM     93  C   UNL A   1      32.842  17.660  22.887  1.00  0.00     0.013 A 
BRANCH  92  94
ATOM     94  C   UNL A   1      33.661  16.547  25.006  1.00  0.00     0.416 C 
ATOM     95  F   UNL A   1      33.171  15.378  24.515  1.00  0.00    -0.166 F 
ATOM     96  F   UNL A   1      35.002  16.426  25.081  1.00  0.00    -0.166 F 
ATOM     97  F   UNL A   1      33.231  16.592  26.304  1.00  0.00    -0.166 F 
ENDBRANCH  92  94
ENDBRANCH  86  88
ENDBRANCH  82  86
ENDBRANCH  78  80
ENDBRANCH  77  78
ENDBRANCH  76  77
ENDBRANCH  75  76
ENDBRANCH  74  75
ENDBRANCH  73  74
ENDBRANCH   1  73
TORSDOF 23
ENDMDL
