MODEL 1
REMARK VINA RESULT:     -11.0      0.000      0.000
REMARK SMILES CC(=O)NS(=O)(=O)c1cc(-c2ccn(C(F)F)c(=O)c2)ccc1C(=O)OCCOCCOCCOC(=O)c1ccc(-c2c3nc(c(-c4cc(S(=O)(=O)[O-])ccc4F)c4ccc([nH]4)c(-c4cc(S(=O)(=O)[O-])ccc4F)c4nc(c(-c5cc(S(=O)(=O)[O-])ccc5F)c5ccc2[nH]5)C=C4)C=C3)cc1
REMARK SMILES IDX 31 1 30 2 29 3 28 4 27 5 26 6 24 7 25 8 23 9 8 10 9 11 10 12
REMARK SMILES IDX 22 13 21 14 5 15 6 16 7 17 4 18 1 19 2 20 3 21 11 23 12 24
REMARK SMILES IDX 20 25 13 26 18 27 14 28 19 29 15 30 16 31 17 32 32 33 33 34
REMARK SMILES IDX 34 35 35 36 36 37 37 38 38 39 39 40 100 41 40 42 99 43 41 44
REMARK SMILES IDX 42 45 43 46 93 47 44 48 98 49 92 50 94 51 45 52 97 53 91 54
REMARK SMILES IDX 90 55 46 57 78 58 58 59 77 60 59 61 62 62 76 63 95 64 60 65
REMARK SMILES IDX 61 66 75 68 96 69 63 70 47 71 48 72 56 73 49 74 55 75 57 76
REMARK SMILES IDX 54 77 50 78 51 79 52 80 53 81 79 82 80 83 88 84 81 85 87 86
REMARK SMILES IDX 89 87 86 88 82 89 83 90 84 91 85 92 64 93 65 94 73 95 66 96
REMARK SMILES IDX 72 97 74 98 71 99 67 100 68 101 69 102 70 103
REMARK H PARENT 4 22 94 56 62 67
REMARK Flexibility Score: inf
ROOT
ATOM      1  C   UNL A   1      33.619  20.754  25.690  1.00  0.00     0.188 C 
ENDROOT
BRANCH   1   2
ATOM      2  C   UNL A   1      32.839  21.227  24.446  1.00  0.00     0.188 C 
BRANCH   2   3
ATOM      3  O   UNL A   1      32.130  22.447  24.628  1.00  0.00    -0.376 OA
BRANCH   3   4
ATOM      4  C   UNL A   1      31.080  22.406  25.582  1.00  0.00     0.202 C 
BRANCH   4   5
ATOM      5  C   UNL A   1      30.827  23.774  26.210  1.00  0.00     0.261 C 
BRANCH   5   6
ATOM      6  O   UNL A   1      31.312  24.891  25.442  1.00  0.00    -0.460 OA
BRANCH   6   7
ATOM      7  C   UNL A   1      30.513  25.968  25.332  1.00  0.00     0.339 C 
ATOM      8  O   UNL A   1      29.333  25.985  25.021  1.00  0.00    -0.246 OA
BRANCH   7   9
ATOM      9  C   UNL A   1      31.270  27.178  25.694  1.00  0.00     0.080 A 
ATOM     10  C   UNL A   1      31.505  28.237  24.817  1.00  0.00     0.103 A 
ATOM     11  C   UNL A   1      32.228  29.363  25.255  1.00  0.00     0.032 A 
ATOM     12  C   UNL A   1      32.678  29.464  26.578  1.00  0.00    -0.017 A 
ATOM     13  C   UNL A   1      31.719  27.271  27.020  1.00  0.00     0.018 A 
ATOM     14  C   UNL A   1      32.416  28.403  27.456  1.00  0.00     0.010 A 
BRANCH  10  15
ATOM     15  S   UNL A   1      30.806  28.335  23.195  1.00  0.00     0.264 S 
ATOM     16  O   UNL A   1      31.568  29.316  22.466  1.00  0.00    -0.201 OA
ATOM     17  O   UNL A   1      29.370  28.483  23.360  1.00  0.00    -0.201 OA
BRANCH  15  18
ATOM     18  N   UNL A   1      31.043  26.892  22.438  1.00  0.00    -0.249 N 
ATOM     19  C   UNL A   1      33.545  26.824  22.319  1.00  0.00     0.115 C 
ATOM     20  C   UNL A   1      32.205  26.170  22.145  1.00  0.00     0.230 C 
ATOM     21  O   UNL A   1      32.081  25.052  21.666  1.00  0.00    -0.274 OA
ATOM     22  H   UNL A   1      30.214  26.457  22.136  1.00  0.00     0.183 HD
ENDBRANCH  15  18
ENDBRANCH  10  15
BRANCH  12  23
ATOM     23  C   UNL A   1      33.356  30.685  27.075  1.00  0.00    -0.011 A 
ATOM     24  C   UNL A   1      34.744  30.705  27.505  1.00  0.00     0.027 A 
ATOM     25  C   UNL A   1      32.631  31.812  27.201  1.00  0.00     0.080 A 
ATOM     26  C   UNL A   1      35.272  31.801  28.065  1.00  0.00     0.095 A 
ATOM     27  C   UNL A   1      33.217  33.053  27.780  1.00  0.00     0.255 A 
ATOM     28  N   UNL A   1      34.524  32.953  28.221  1.00  0.00    -0.258 N 
ATOM     29  O   UNL A   1      32.515  34.058  27.837  1.00  0.00    -0.269 OA
BRANCH  28  30
ATOM     30  C   UNL A   1      35.090  34.111  28.863  1.00  0.00     0.451 C 
ATOM     31  F   UNL A   1      34.836  34.102  30.196  1.00  0.00    -0.185 F 
ATOM     32  F   UNL A   1      36.435  34.151  28.699  1.00  0.00    -0.185 F 
ENDBRANCH  28  30
ENDBRANCH  12  23
ENDBRANCH   7   9
ENDBRANCH   6   7
ENDBRANCH   5   6
ENDBRANCH   4   5
ENDBRANCH   3   4
ENDBRANCH   2   3
ENDBRANCH   1   2
BRANCH   1  33
ATOM     33  O   UNL A   1      34.722  21.499  26.187  1.00  0.00    -0.376 OA
BRANCH  33  34
ATOM     34  C   UNL A   1      35.986  21.375  25.558  1.00  0.00     0.202 C 
BRANCH  34  35
ATOM     35  C   UNL A   1      36.992  22.514  25.764  1.00  0.00     0.261 C 
BRANCH  35  36
ATOM     36  O   UNL A   1      38.316  22.214  25.296  1.00  0.00    -0.460 OA
BRANCH  36  37
ATOM     37  C   UNL A   1      39.205  21.850  26.255  1.00  0.00     0.338 C 
ATOM     38  O   UNL A   1      39.604  20.724  26.494  1.00  0.00    -0.246 OA
BRANCH  37  39
ATOM     39  C   UNL A   1      39.805  23.063  26.859  1.00  0.00     0.060 A 
ATOM     40  C   UNL A   1      39.398  24.315  26.370  1.00  0.00     0.016 A 
ATOM     41  C   UNL A   1      40.766  22.984  27.869  1.00  0.00     0.016 A 
ATOM     42  C   UNL A   1      39.972  25.488  26.862  1.00  0.00     0.010 A 
ATOM     43  C   UNL A   1      41.367  24.156  28.337  1.00  0.00     0.010 A 
ATOM     44  C   UNL A   1      40.999  25.410  27.811  1.00  0.00    -0.014 A 
BRANCH  44  45
ATOM     45  C   UNL A   1      41.877  26.582  28.052  1.00  0.00     0.031 A 
ATOM     46  C   UNL A   1      41.305  27.725  28.848  1.00  0.00     0.074 A 
ATOM     47  C   UNL A   1      43.131  26.651  27.573  1.00  0.00     0.049 A 
ATOM     48  N   UNL A   1      41.791  28.919  29.061  1.00  0.00    -0.248 NA
ATOM     49  C   UNL A   1      40.001  27.479  29.483  1.00  0.00     0.031 C 
ATOM     50  C   UNL A   1      43.826  25.585  26.856  1.00  0.00     0.029 A 
ATOM     51  N   UNL A   1      44.037  27.684  27.602  1.00  0.00    -0.354 N 
ATOM     52  C   UNL A   1      40.844  29.575  29.841  1.00  0.00     0.074 A 
ATOM     53  C   UNL A   1      39.751  28.650  30.047  1.00  0.00     0.031 C 
ATOM     54  C   UNL A   1      45.041  26.030  26.486  1.00  0.00     0.029 A 
ATOM     55  C   UNL A   1      45.188  27.428  26.894  1.00  0.00     0.049 A 
ATOM     56  H   UNL A   1      43.877  28.527  28.084  1.00  0.00     0.167 HD
ATOM     57  C   UNL A   1      40.879  30.836  30.335  1.00  0.00     0.034 A 
ATOM     58  C   UNL A   1      46.215  28.245  26.573  1.00  0.00     0.034 A 
ATOM     59  C   UNL A   1      41.958  31.758  30.096  1.00  0.00     0.049 A 
ATOM     60  C   UNL A   1      46.183  29.686  27.036  1.00  0.00     0.074 A 
ATOM     61  C   UNL A   1      42.088  33.066  30.527  1.00  0.00     0.029 A 
ATOM     62  N   UNL A   1      43.090  31.473  29.343  1.00  0.00    -0.354 N 
ATOM     63  N   UNL A   1      45.271  30.306  27.749  1.00  0.00    -0.248 NA
ATOM     64  C   UNL A   1      47.317  30.536  26.645  1.00  0.00     0.031 C 
ATOM     65  C   UNL A   1      43.265  33.591  29.984  1.00  0.00     0.029 A 
ATOM     66  C   UNL A   1      43.910  32.588  29.277  1.00  0.00     0.049 A 
ATOM     67  H   UNL A   1      43.282  30.606  28.919  1.00  0.00     0.167 HD
ATOM     68  C   UNL A   1      45.744  31.606  27.924  1.00  0.00     0.074 A 
ATOM     69  C   UNL A   1      47.018  31.681  27.242  1.00  0.00     0.031 C 
ATOM     70  C   UNL A   1      45.182  32.642  28.598  1.00  0.00     0.034 A 
BRANCH  57  71
ATOM     71  C   UNL A   1      39.675  31.298  31.116  1.00  0.00     0.023 A 
ATOM     72  C   UNL A   1      39.673  31.319  32.522  1.00  0.00     0.031 A 
ATOM     73  C   UNL A   1      38.495  31.666  30.447  1.00  0.00     0.131 A 
ATOM     74  C   UNL A   1      38.491  31.627  33.213  1.00  0.00     0.055 A 
ATOM     75  C   UNL A   1      37.346  32.050  31.140  1.00  0.00     0.041 A 
ATOM     76  F   UNL A   1      38.433  31.636  29.106  1.00  0.00    -0.206 F 
ATOM     77  C   UNL A   1      37.335  32.016  32.532  1.00  0.00     0.022 A 
BRANCH  74  78
ATOM     78  S   UNL A   1      38.445  31.362  35.006  1.00  0.00     0.124 S 
ATOM     79  O   UNL A   1      37.242  32.102  35.384  1.00  0.00    -0.237 OA
ATOM     80  O   UNL A   1      38.357  29.909  35.107  1.00  0.00    -0.237 OA
ATOM     81  O   UNL A   1      39.700  31.946  35.472  1.00  0.00    -0.744 OA
ENDBRANCH  74  78
ENDBRANCH  57  71
BRANCH  58  82
ATOM     82  C   UNL A   1      47.333  27.757  25.713  1.00  0.00     0.023 A 
ATOM     83  C   UNL A   1      47.377  28.051  24.341  1.00  0.00     0.031 A 
ATOM     84  C   UNL A   1      48.338  26.927  26.241  1.00  0.00     0.131 A 
ATOM     85  C   UNL A   1      48.376  27.483  23.535  1.00  0.00     0.055 A 
ATOM     86  C   UNL A   1      49.360  26.407  25.446  1.00  0.00     0.041 A 
ATOM     87  F   UNL A   1      48.342  26.609  27.546  1.00  0.00    -0.206 F 
ATOM     88  C   UNL A   1      49.376  26.673  24.080  1.00  0.00     0.022 A 
BRANCH  85  89
ATOM     89  S   UNL A   1      48.302  27.747  21.742  1.00  0.00     0.124 S 
ATOM     90  O   UNL A   1      46.965  28.306  21.581  1.00  0.00    -0.237 OA
ATOM     91  O   UNL A   1      49.414  28.668  21.527  1.00  0.00    -0.237 OA
ATOM     92  O   UNL A   1      48.490  26.407  21.192  1.00  0.00    -0.744 OA
ENDBRANCH  85  89
ENDBRANCH  58  82
BRANCH  70  93
ATOM     93  C   UNL A   1      45.975  33.923  28.697  1.00  0.00     0.023 A 
ATOM     94  C   UNL A   1      45.603  35.088  28.006  1.00  0.00     0.031 A 
ATOM     95  C   UNL A   1      47.108  33.977  29.528  1.00  0.00     0.131 A 
ATOM     96  C   UNL A   1      46.382  36.249  28.130  1.00  0.00     0.055 A 
ATOM     97  C   UNL A   1      47.850  35.148  29.687  1.00  0.00     0.041 A 
ATOM     98  F   UNL A   1      47.505  32.891  30.213  1.00  0.00    -0.206 F 
ATOM     99  C   UNL A   1      47.492  36.290  28.978  1.00  0.00     0.022 A 
BRANCH  96 100
ATOM    100  S   UNL A   1      45.960  37.698  27.122  1.00  0.00     0.124 S 
ATOM    101  O   UNL A   1      44.619  37.362  26.653  1.00  0.00    -0.237 OA
ATOM    102  O   UNL A   1      46.045  38.787  28.089  1.00  0.00    -0.237 OA
ATOM    103  O   UNL A   1      46.994  37.709  26.087  1.00  0.00    -0.744 OA
ENDBRANCH  96 100
ENDBRANCH  70  93
ENDBRANCH  44  45
ENDBRANCH  37  39
ENDBRANCH  36  37
ENDBRANCH  35  36
ENDBRANCH  34  35
ENDBRANCH  33  34
ENDBRANCH   1  33
TORSDOF 24
ENDMDL
MODEL 2
REMARK VINA RESULT:     -10.7      2.955      7.747
REMARK SMILES CC(=O)NS(=O)(=O)c1cc(-c2ccn(C(F)F)c(=O)c2)ccc1C(=O)OCCOCCOCCOC(=O)c1ccc(-c2c3nc(c(-c4cc(S(=O)(=O)[O-])ccc4F)c4ccc([nH]4)c(-c4cc(S(=O)(=O)[O-])ccc4F)c4nc(c(-c5cc(S(=O)(=O)[O-])ccc5F)c5ccc2[nH]5)C=C4)C=C3)cc1
REMARK SMILES IDX 31 1 30 2 29 3 28 4 27 5 26 6 24 7 25 8 23 9 8 10 9 11 10 12
REMARK SMILES IDX 22 13 21 14 5 15 6 16 7 17 4 18 1 19 2 20 3 21 11 23 12 24
REMARK SMILES IDX 20 25 13 26 18 27 14 28 19 29 15 30 16 31 17 32 32 33 33 34
REMARK SMILES IDX 34 35 35 36 36 37 37 38 38 39 39 40 100 41 40 42 99 43 41 44
REMARK SMILES IDX 42 45 43 46 93 47 44 48 98 49 92 50 94 51 45 52 97 53 91 54
REMARK SMILES IDX 90 55 46 57 78 58 58 59 77 60 59 61 62 62 76 63 95 64 60 65
REMARK SMILES IDX 61 66 75 68 96 69 63 70 47 71 48 72 56 73 49 74 55 75 57 76
REMARK SMILES IDX 54 77 50 78 51 79 52 80 53 81 79 82 80 83 88 84 81 85 87 86
REMARK SMILES IDX 89 87 86 88 82 89 83 90 84 91 85 92 64 93 65 94 73 95 66 96
REMARK SMILES IDX 72 97 74 98 71 99 67 100 68 101 69 102 70 103
REMARK H PARENT 4 22 94 56 62 67
REMARK Flexibility Score: inf
ROOT
ATOM      1  C   UNL A   1      36.019  22.058  25.575  1.00  0.00     0.188 C 
ENDROOT
BRANCH   1   2
ATOM      2  C   UNL A   1      34.983  22.578  26.595  1.00  0.00     0.188 C 
BRANCH   2   3
ATOM      3  O   UNL A   1      33.925  21.669  26.870  1.00  0.00    -0.376 OA
BRANCH   3   4
ATOM      4  C   UNL A   1      32.679  21.981  26.267  1.00  0.00     0.202 C 
BRANCH   4   5
ATOM      5  C   UNL A   1      31.795  22.820  27.187  1.00  0.00     0.261 C 
BRANCH   5   6
ATOM      6  O   UNL A   1      31.220  23.988  26.573  1.00  0.00    -0.460 OA
BRANCH   6   7
ATOM      7  C   UNL A   1      31.063  23.978  25.237  1.00  0.00     0.339 C 
ATOM      8  O   UNL A   1      31.135  23.014  24.491  1.00  0.00    -0.246 OA
BRANCH   7   9
ATOM      9  C   UNL A   1      30.738  25.336  24.771  1.00  0.00     0.080 A 
ATOM     10  C   UNL A   1      31.688  26.337  24.575  1.00  0.00     0.103 A 
ATOM     11  C   UNL A   1      31.287  27.605  24.112  1.00  0.00     0.032 A 
ATOM     12  C   UNL A   1      29.947  27.868  23.797  1.00  0.00    -0.017 A 
ATOM     13  C   UNL A   1      29.394  25.592  24.459  1.00  0.00     0.018 A 
ATOM     14  C   UNL A   1      29.004  26.847  23.978  1.00  0.00     0.010 A 
BRANCH  10  15
ATOM     15  S   UNL A   1      33.432  26.072  24.722  1.00  0.00     0.264 S 
ATOM     16  O   UNL A   1      33.704  25.821  26.113  1.00  0.00    -0.201 OA
ATOM     17  O   UNL A   1      34.087  27.162  24.021  1.00  0.00    -0.201 OA
BRANCH  15  18
ATOM     18  N   UNL A   1      33.818  24.694  23.907  1.00  0.00    -0.249 N 
ATOM     19  C   UNL A   1      32.809  25.170  21.663  1.00  0.00     0.115 C 
ATOM     20  C   UNL A   1      33.657  24.324  22.567  1.00  0.00     0.230 C 
ATOM     21  O   UNL A   1      34.144  23.263  22.201  1.00  0.00    -0.274 OA
ATOM     22  H   UNL A   1      34.239  24.002  24.466  1.00  0.00     0.183 HD
ENDBRANCH  15  18
ENDBRANCH  10  15
BRANCH  12  23
ATOM     23  C   UNL A   1      29.528  29.167  23.219  1.00  0.00    -0.011 A 
ATOM     24  C   UNL A   1      29.798  30.445  23.856  1.00  0.00     0.027 A 
ATOM     25  C   UNL A   1      28.802  29.159  22.086  1.00  0.00     0.080 A 
ATOM     26  C   UNL A   1      29.288  31.580  23.360  1.00  0.00     0.095 A 
ATOM     27  C   UNL A   1      28.265  30.418  21.496  1.00  0.00     0.255 A 
ATOM     28  N   UNL A   1      28.519  31.574  22.212  1.00  0.00    -0.258 N 
ATOM     29  O   UNL A   1      27.638  30.347  20.443  1.00  0.00    -0.269 OA
BRANCH  28  30
ATOM     30  C   UNL A   1      27.940  32.794  21.712  1.00  0.00     0.451 C 
ATOM     31  F   UNL A   1      28.261  33.847  22.505  1.00  0.00    -0.185 F 
ATOM     32  F   UNL A   1      28.386  33.067  20.460  1.00  0.00    -0.185 F 
ENDBRANCH  28  30
ENDBRANCH  12  23
ENDBRANCH   7   9
ENDBRANCH   6   7
ENDBRANCH   5   6
ENDBRANCH   4   5
ENDBRANCH   3   4
ENDBRANCH   2   3
ENDBRANCH   1   2
BRANCH   1  33
ATOM     33  O   UNL A   1      36.275  20.668  25.440  1.00  0.00    -0.376 OA
BRANCH  33  34
ATOM     34  C   UNL A   1      37.404  20.236  24.700  1.00  0.00     0.202 C 
BRANCH  34  35
ATOM     35  C   UNL A   1      38.550  19.579  25.478  1.00  0.00     0.261 C 
BRANCH  35  36
ATOM     36  O   UNL A   1      39.750  20.367  25.523  1.00  0.00    -0.460 OA
BRANCH  36  37
ATOM     37  C   UNL A   1      40.411  20.355  26.709  1.00  0.00     0.338 C 
ATOM     38  O   UNL A   1      40.952  19.399  27.236  1.00  0.00    -0.246 OA
BRANCH  37  39
ATOM     39  C   UNL A   1      40.574  21.745  27.197  1.00  0.00     0.060 A 
ATOM     40  C   UNL A   1      39.766  22.743  26.631  1.00  0.00     0.016 A 
ATOM     41  C   UNL A   1      41.517  22.075  28.173  1.00  0.00     0.016 A 
ATOM     42  C   UNL A   1      39.918  24.077  27.012  1.00  0.00     0.010 A 
ATOM     43  C   UNL A   1      41.694  23.416  28.529  1.00  0.00     0.010 A 
ATOM     44  C   UNL A   1      40.921  24.426  27.924  1.00  0.00    -0.014 A 
BRANCH  44  45
ATOM     45  C   UNL A   1      41.356  25.840  28.044  1.00  0.00     0.031 A 
ATOM     46  C   UNL A   1      42.729  26.188  27.532  1.00  0.00     0.074 A 
ATOM     47  C   UNL A   1      40.580  26.787  28.599  1.00  0.00     0.049 A 
ATOM     48  N   UNL A   1      43.411  27.295  27.660  1.00  0.00    -0.248 NA
ATOM     49  C   UNL A   1      43.423  25.132  26.778  1.00  0.00     0.031 C 
ATOM     50  C   UNL A   1      39.207  26.596  29.061  1.00  0.00     0.029 A 
ATOM     51  N   UNL A   1      40.854  28.102  28.889  1.00  0.00    -0.354 N 
ATOM     52  C   UNL A   1      44.623  27.065  27.018  1.00  0.00     0.074 A 
ATOM     53  C   UNL A   1      44.585  25.708  26.517  1.00  0.00     0.031 C 
ATOM     54  C   UNL A   1      38.769  27.746  29.605  1.00  0.00     0.029 A 
ATOM     55  C   UNL A   1      39.846  28.736  29.576  1.00  0.00     0.049 A 
ATOM     56  H   UNL A   1      41.692  28.547  28.629  1.00  0.00     0.167 HD
ATOM     57  C   UNL A   1      45.675  27.905  26.865  1.00  0.00     0.034 A 
ATOM     58  C   UNL A   1      39.819  29.956  30.156  1.00  0.00     0.034 A 
ATOM     59  C   UNL A   1      45.713  29.243  27.396  1.00  0.00     0.049 A 
ATOM     60  C   UNL A   1      41.045  30.838  30.074  1.00  0.00     0.074 A 
ATOM     61  C   UNL A   1      46.734  30.173  27.320  1.00  0.00     0.029 A 
ATOM     62  N   UNL A   1      44.685  29.836  28.117  1.00  0.00    -0.354 N 
ATOM     63  N   UNL A   1      42.197  30.602  29.489  1.00  0.00    -0.248 NA
ATOM     64  C   UNL A   1      40.968  32.149  30.737  1.00  0.00     0.031 C 
ATOM     65  C   UNL A   1      46.350  31.303  28.050  1.00  0.00     0.029 A 
ATOM     66  C   UNL A   1      45.059  31.110  28.515  1.00  0.00     0.049 A 
ATOM     67  H   UNL A   1      43.819  29.414  28.318  1.00  0.00     0.167 HD
ATOM     68  C   UNL A   1      42.964  31.752  29.680  1.00  0.00     0.074 A 
ATOM     69  C   UNL A   1      42.146  32.677  30.435  1.00  0.00     0.031 C 
ATOM     70  C   UNL A   1      44.226  32.023  29.261  1.00  0.00     0.034 A 
BRANCH  57  71
ATOM     71  C   UNL A   1      46.888  27.360  26.156  1.00  0.00     0.023 A 
ATOM     72  C   UNL A   1      47.932  26.732  26.857  1.00  0.00     0.031 A 
ATOM     73  C   UNL A   1      47.029  27.523  24.767  1.00  0.00     0.131 A 
ATOM     74  C   UNL A   1      49.103  26.359  26.180  1.00  0.00     0.055 A 
ATOM     75  C   UNL A   1      48.162  27.075  24.085  1.00  0.00     0.041 A 
ATOM     76  F   UNL A   1      46.076  28.140  24.051  1.00  0.00    -0.206 F 
ATOM     77  C   UNL A   1      49.215  26.504  24.795  1.00  0.00     0.022 A 
BRANCH  74  78
ATOM     78  S   UNL A   1      50.534  25.825  27.157  1.00  0.00     0.124 S 
ATOM     79  O   UNL A   1      50.414  26.670  28.344  1.00  0.00    -0.237 OA
ATOM     80  O   UNL A   1      50.267  24.405  27.356  1.00  0.00    -0.237 OA
ATOM     81  O   UNL A   1      51.673  26.132  26.295  1.00  0.00    -0.744 OA
ENDBRANCH  74  78
ENDBRANCH  57  71
BRANCH  58  82
ATOM     82  C   UNL A   1      38.622  30.403  30.929  1.00  0.00     0.023 A 
ATOM     83  C   UNL A   1      37.575  31.100  30.307  1.00  0.00     0.031 A 
ATOM     84  C   UNL A   1      38.546  30.202  32.319  1.00  0.00     0.131 A 
ATOM     85  C   UNL A   1      36.519  31.611  31.079  1.00  0.00     0.055 A 
ATOM     86  C   UNL A   1      37.468  30.666  33.074  1.00  0.00     0.041 A 
ATOM     87  F   UNL A   1      39.523  29.547  32.966  1.00  0.00    -0.206 F 
ATOM     88  C   UNL A   1      36.452  31.387  32.457  1.00  0.00     0.022 A 
BRANCH  85  89
ATOM     89  S   UNL A   1      35.272  32.650  30.268  1.00  0.00     0.124 S 
ATOM     90  O   UNL A   1      36.059  33.822  29.901  1.00  0.00    -0.237 OA
ATOM     91  O   UNL A   1      34.838  31.796  29.167  1.00  0.00    -0.237 OA
ATOM     92  O   UNL A   1      34.277  32.868  31.315  1.00  0.00    -0.744 OA
ENDBRANCH  85  89
ENDBRANCH  58  82
BRANCH  70  93
ATOM     93  C   UNL A   1      44.773  33.401  29.539  1.00  0.00     0.023 A 
ATOM     94  C   UNL A   1      44.474  34.504  28.722  1.00  0.00     0.031 A 
ATOM     95  C   UNL A   1      45.586  33.613  30.669  1.00  0.00     0.131 A 
ATOM     96  C   UNL A   1      45.017  35.763  29.025  1.00  0.00     0.055 A 
ATOM     97  C   UNL A   1      46.081  34.876  30.993  1.00  0.00     0.041 A 
ATOM     98  F   UNL A   1      45.900  32.593  31.484  1.00  0.00    -0.206 F 
ATOM     99  C   UNL A   1      45.804  35.958  30.164  1.00  0.00     0.022 A 
BRANCH  96 100
ATOM    100  S   UNL A   1      44.728  37.139  27.879  1.00  0.00     0.124 S 
ATOM    101  O   UNL A   1      43.891  36.515  26.859  1.00  0.00    -0.237 OA
ATOM    102  O   UNL A   1      44.069  38.123  28.731  1.00  0.00    -0.237 OA
ATOM    103  O   UNL A   1      46.073  37.507  27.437  1.00  0.00    -0.744 OA
ENDBRANCH  96 100
ENDBRANCH  70  93
ENDBRANCH  44  45
ENDBRANCH  37  39
ENDBRANCH  36  37
ENDBRANCH  35  36
ENDBRANCH  34  35
ENDBRANCH  33  34
ENDBRANCH   1  33
TORSDOF 24
ENDMDL
MODEL 3
REMARK VINA RESULT:     -10.6      1.906      7.435
REMARK SMILES CC(=O)NS(=O)(=O)c1cc(-c2ccn(C(F)F)c(=O)c2)ccc1C(=O)OCCOCCOCCOC(=O)c1ccc(-c2c3nc(c(-c4cc(S(=O)(=O)[O-])ccc4F)c4ccc([nH]4)c(-c4cc(S(=O)(=O)[O-])ccc4F)c4nc(c(-c5cc(S(=O)(=O)[O-])ccc5F)c5ccc2[nH]5)C=C4)C=C3)cc1
REMARK SMILES IDX 31 1 30 2 29 3 28 4 27 5 26 6 24 7 25 8 23 9 8 10 9 11 10 12
REMARK SMILES IDX 22 13 21 14 5 15 6 16 7 17 4 18 1 19 2 20 3 21 11 23 12 24
REMARK SMILES IDX 20 25 13 26 18 27 14 28 19 29 15 30 16 31 17 32 32 33 33 34
REMARK SMILES IDX 34 35 35 36 36 37 37 38 38 39 39 40 100 41 40 42 99 43 41 44
REMARK SMILES IDX 42 45 43 46 93 47 44 48 98 49 92 50 94 51 45 52 97 53 91 54
REMARK SMILES IDX 90 55 46 57 78 58 58 59 77 60 59 61 62 62 76 63 95 64 60 65
REMARK SMILES IDX 61 66 75 68 96 69 63 70 47 71 48 72 56 73 49 74 55 75 57 76
REMARK SMILES IDX 54 77 50 78 51 79 52 80 53 81 79 82 80 83 88 84 81 85 87 86
REMARK SMILES IDX 89 87 86 88 82 89 83 90 84 91 85 92 64 93 65 94 73 95 66 96
REMARK SMILES IDX 72 97 74 98 71 99 67 100 68 101 69 102 70 103
REMARK H PARENT 4 22 94 56 62 67
REMARK Flexibility Score: inf
ROOT
ATOM      1  C   UNL A   1      35.706  21.797  25.297  1.00  0.00     0.188 C 
ENDROOT
BRANCH   1   2
ATOM      2  C   UNL A   1      34.351  22.054  25.989  1.00  0.00     0.188 C 
BRANCH   2   3
ATOM      3  O   UNL A   1      33.217  21.772  25.179  1.00  0.00    -0.376 OA
BRANCH   3   4
ATOM      4  C   UNL A   1      32.838  22.802  24.280  1.00  0.00     0.202 C 
BRANCH   4   5
ATOM      5  C   UNL A   1      31.334  23.062  24.311  1.00  0.00     0.261 C 
BRANCH   5   6
ATOM      6  O   UNL A   1      30.962  24.448  24.424  1.00  0.00    -0.460 OA
BRANCH   6   7
ATOM      7  C   UNL A   1      31.524  25.317  23.563  1.00  0.00     0.339 C 
ATOM      8  O   UNL A   1      31.537  25.246  22.344  1.00  0.00    -0.246 OA
BRANCH   7   9
ATOM      9  C   UNL A   1      32.112  26.439  24.313  1.00  0.00     0.080 A 
ATOM     10  C   UNL A   1      31.672  27.758  24.206  1.00  0.00     0.103 A 
ATOM     11  C   UNL A   1      32.286  28.767  24.974  1.00  0.00     0.032 A 
ATOM     12  C   UNL A   1      33.305  28.461  25.886  1.00  0.00    -0.017 A 
ATOM     13  C   UNL A   1      33.134  26.126  25.222  1.00  0.00     0.018 A 
ATOM     14  C   UNL A   1      33.723  27.128  26.000  1.00  0.00     0.010 A 
BRANCH  10  15
ATOM     15  S   UNL A   1      30.255  28.243  23.264  1.00  0.00     0.264 S 
ATOM     16  O   UNL A   1      29.140  27.474  23.754  1.00  0.00    -0.201 OA
ATOM     17  O   UNL A   1      30.638  28.187  21.864  1.00  0.00    -0.201 OA
BRANCH  15  18
ATOM     18  N   UNL A   1      29.926  29.822  23.595  1.00  0.00    -0.249 N 
ATOM     19  C   UNL A   1      27.709  30.094  22.460  1.00  0.00     0.115 C 
ATOM     20  C   UNL A   1      28.796  30.612  23.355  1.00  0.00     0.230 C 
ATOM     21  O   UNL A   1      28.779  31.745  23.815  1.00  0.00    -0.274 OA
ATOM     22  H   UNL A   1      30.660  30.299  24.045  1.00  0.00     0.183 HD
ENDBRANCH  15  18
ENDBRANCH  10  15
BRANCH  12  23
ATOM     23  C   UNL A   1      33.892  29.498  26.768  1.00  0.00    -0.011 A 
ATOM     24  C   UNL A   1      33.207  30.734  27.107  1.00  0.00     0.027 A 
ATOM     25  C   UNL A   1      35.148  29.318  27.219  1.00  0.00     0.080 A 
ATOM     26  C   UNL A   1      33.831  31.694  27.803  1.00  0.00     0.095 A 
ATOM     27  C   UNL A   1      35.839  30.358  28.031  1.00  0.00     0.255 A 
ATOM     28  N   UNL A   1      35.130  31.526  28.245  1.00  0.00    -0.258 N 
ATOM     29  O   UNL A   1      36.972  30.121  28.441  1.00  0.00    -0.269 OA
BRANCH  28  30
ATOM     30  C   UNL A   1      35.804  32.582  28.954  1.00  0.00     0.451 C 
ATOM     31  F   UNL A   1      36.130  33.600  28.118  1.00  0.00    -0.185 F 
ATOM     32  F   UNL A   1      35.018  33.089  29.936  1.00  0.00    -0.185 F 
ENDBRANCH  28  30
ENDBRANCH  12  23
ENDBRANCH   7   9
ENDBRANCH   6   7
ENDBRANCH   5   6
ENDBRANCH   4   5
ENDBRANCH   3   4
ENDBRANCH   2   3
ENDBRANCH   1   2
BRANCH   1  33
ATOM     33  O   UNL A   1      36.453  20.619  25.568  1.00  0.00    -0.376 OA
BRANCH  33  34
ATOM     34  C   UNL A   1      37.627  20.350  24.822  1.00  0.00     0.202 C 
BRANCH  34  35
ATOM     35  C   UNL A   1      38.951  20.277  25.591  1.00  0.00     0.261 C 
BRANCH  35  36
ATOM     36  O   UNL A   1      39.258  21.466  26.337  1.00  0.00    -0.460 OA
BRANCH  36  37
ATOM     37  C   UNL A   1      40.382  21.405  27.095  1.00  0.00     0.338 C 
ATOM     38  O   UNL A   1      41.106  20.437  27.255  1.00  0.00    -0.246 OA
BRANCH  37  39
ATOM     39  C   UNL A   1      40.744  22.767  27.553  1.00  0.00     0.060 A 
ATOM     40  C   UNL A   1      40.015  23.852  27.041  1.00  0.00     0.016 A 
ATOM     41  C   UNL A   1      41.792  22.987  28.449  1.00  0.00     0.016 A 
ATOM     42  C   UNL A   1      40.350  25.160  27.395  1.00  0.00     0.010 A 
ATOM     43  C   UNL A   1      42.151  24.298  28.776  1.00  0.00     0.010 A 
ATOM     44  C   UNL A   1      41.455  25.390  28.222  1.00  0.00    -0.014 A 
BRANCH  44  45
ATOM     45  C   UNL A   1      42.060  26.744  28.292  1.00  0.00     0.031 A 
ATOM     46  C   UNL A   1      43.407  26.936  27.646  1.00  0.00     0.074 A 
ATOM     47  C   UNL A   1      41.457  27.770  28.917  1.00  0.00     0.049 A 
ATOM     48  N   UNL A   1      44.221  27.956  27.701  1.00  0.00    -0.248 NA
ATOM     49  C   UNL A   1      43.897  25.813  26.832  1.00  0.00     0.031 C 
ATOM     50  C   UNL A   1      40.123  27.736  29.512  1.00  0.00     0.029 A 
ATOM     51  N   UNL A   1      41.907  29.043  29.172  1.00  0.00    -0.354 N 
ATOM     52  C   UNL A   1      45.329  27.593  26.943  1.00  0.00     0.074 A 
ATOM     53  C   UNL A   1      45.087  26.253  26.454  1.00  0.00     0.031 C 
ATOM     54  C   UNL A   1      39.875  28.924  30.092  1.00  0.00     0.029 A 
ATOM     55  C   UNL A   1      41.051  29.785  29.953  1.00  0.00     0.049 A 
ATOM     56  H   UNL A   1      42.761  29.391  28.828  1.00  0.00     0.167 HD
ATOM     57  C   UNL A   1      46.451  28.308  26.683  1.00  0.00     0.034 A 
ATOM     58  C   UNL A   1      41.222  30.995  30.527  1.00  0.00     0.034 A 
ATOM     59  C   UNL A   1      46.694  29.629  27.202  1.00  0.00     0.049 A 
ATOM     60  C   UNL A   1      42.528  31.731  30.321  1.00  0.00     0.074 A 
ATOM     61  C   UNL A   1      47.803  30.436  27.022  1.00  0.00     0.029 A 
ATOM     62  N   UNL A   1      45.818  30.331  28.019  1.00  0.00    -0.354 N 
ATOM     63  N   UNL A   1      43.582  31.369  29.626  1.00  0.00    -0.248 NA
ATOM     64  C   UNL A   1      42.668  33.038  30.981  1.00  0.00     0.031 C 
ATOM     65  C   UNL A   1      47.626  31.598  27.781  1.00  0.00     0.029 A 
ATOM     66  C   UNL A   1      46.373  31.551  28.371  1.00  0.00     0.049 A 
ATOM     67  H   UNL A   1      44.933  30.010  28.305  1.00  0.00     0.167 HD
ATOM     68  C   UNL A   1      44.490  32.421  29.735  1.00  0.00     0.074 A 
ATOM     69  C   UNL A   1      43.863  33.429  30.562  1.00  0.00     0.031 C 
ATOM     70  C   UNL A   1      45.728  32.548  29.192  1.00  0.00     0.034 A 
BRANCH  57  71
ATOM     71  C   UNL A   1      47.517  27.632  25.861  1.00  0.00     0.023 A 
ATOM     72  C   UNL A   1      48.595  26.957  26.461  1.00  0.00     0.031 A 
ATOM     73  C   UNL A   1      47.488  27.714  24.458  1.00  0.00     0.131 A 
ATOM     74  C   UNL A   1      49.636  26.457  25.665  1.00  0.00     0.055 A 
ATOM     75  C   UNL A   1      48.487  27.144  23.666  1.00  0.00     0.041 A 
ATOM     76  F   UNL A   1      46.498  28.371  23.833  1.00  0.00    -0.206 F 
ATOM     77  C   UNL A   1      49.577  26.525  24.271  1.00  0.00     0.022 A 
BRANCH  74  78
ATOM     78  S   UNL A   1      51.139  25.857  26.484  1.00  0.00     0.124 S 
ATOM     79  O   UNL A   1      51.493  26.999  27.325  1.00  0.00    -0.237 OA
ATOM     80  O   UNL A   1      50.662  24.671  27.187  1.00  0.00    -0.237 OA
ATOM     81  O   UNL A   1      52.055  25.600  25.375  1.00  0.00    -0.744 OA
ENDBRANCH  74  78
ENDBRANCH  57  71
BRANCH  58  82
ATOM     82  C   UNL A   1      40.167  31.571  31.412  1.00  0.00     0.023 A 
ATOM     83  C   UNL A   1      40.154  31.313  32.791  1.00  0.00     0.031 A 
ATOM     84  C   UNL A   1      39.112  32.332  30.875  1.00  0.00     0.131 A 
ATOM     85  C   UNL A   1      39.086  31.770  33.580  1.00  0.00     0.055 A 
ATOM     86  C   UNL A   1      38.080  32.829  31.671  1.00  0.00     0.041 A 
ATOM     87  F   UNL A   1      39.071  32.604  29.561  1.00  0.00    -0.206 F 
ATOM     88  C   UNL A   1      38.055  32.538  33.031  1.00  0.00     0.022 A 
BRANCH  85  89
ATOM     89  S   UNL A   1      39.016  31.273  35.323  1.00  0.00     0.124 S 
ATOM     90  O   UNL A   1      39.224  29.833  35.227  1.00  0.00    -0.237 OA
ATOM     91  O   UNL A   1      40.114  32.044  35.899  1.00  0.00    -0.237 OA
ATOM     92  O   UNL A   1      37.679  31.687  35.741  1.00  0.00    -0.744 OA
ENDBRANCH  85  89
ENDBRANCH  58  82
BRANCH  70  93
ATOM     93  C   UNL A   1      46.455  33.853  29.409  1.00  0.00     0.023 A 
ATOM     94  C   UNL A   1      46.332  34.935  28.521  1.00  0.00     0.031 A 
ATOM     95  C   UNL A   1      47.262  34.019  30.550  1.00  0.00     0.131 A 
ATOM     96  C   UNL A   1      47.036  36.123  28.769  1.00  0.00     0.055 A 
ATOM     97  C   UNL A   1      47.920  35.220  30.817  1.00  0.00     0.041 A 
ATOM     98  F   UNL A   1      47.411  33.017  31.432  1.00  0.00    -0.206 F 
ATOM     99  C   UNL A   1      47.816  36.277  29.920  1.00  0.00     0.022 A 
BRANCH  96 100
ATOM    100  S   UNL A   1      46.970  37.454  27.538  1.00  0.00     0.124 S 
ATOM    101  O   UNL A   1      48.282  37.350  26.907  1.00  0.00    -0.237 OA
ATOM    102  O   UNL A   1      45.833  37.059  26.713  1.00  0.00    -0.237 OA
ATOM    103  O   UNL A   1      46.762  38.657  28.343  1.00  0.00    -0.744 OA
ENDBRANCH  96 100
ENDBRANCH  70  93
ENDBRANCH  44  45
ENDBRANCH  37  39
ENDBRANCH  36  37
ENDBRANCH  35  36
ENDBRANCH  34  35
ENDBRANCH  33  34
ENDBRANCH   1  33
TORSDOF 24
ENDMDL
