MODEL 1
REMARK VINA RESULT:      -9.6      0.000      0.000
REMARK SMILES O=C1C[C@@H]([N@@H+]2CCO[C@@H](CC(=O)OCCOCCOCCOC(=O)c3ccc(-c4c5nc(c(-c6cc(S(=O)(=O)[O-])ccc6F)c6ccc([nH]6)c(-c6cc(S(=O)(=O)[O-])ccc6F)c6nc(c(-c7cc(S(=O)(=O)[O-])ccc7F)c7ccc4[nH]7)C=C6)C=C5)cc3)C2)C(=O)N1
REMARK SMILES IDX 18 1 17 2 16 3 15 4 14 5 13 6 11 7 12 8 10 9 9 10 5 11 6 12
REMARK SMILES IDX 88 13 7 15 8 16 4 17 1 18 2 19 3 20 91 21 89 22 90 24 19 25
REMARK SMILES IDX 20 26 21 27 22 28 23 29 24 30 25 31 26 32 87 33 27 34 86 35
REMARK SMILES IDX 28 36 29 37 30 38 80 39 31 40 85 41 79 42 81 43 32 44 84 45
REMARK SMILES IDX 78 46 77 47 33 49 65 50 45 51 64 52 46 53 49 54 63 55 82 56
REMARK SMILES IDX 47 57 48 58 62 60 83 61 50 62 34 63 35 64 43 65 36 66 42 67
REMARK SMILES IDX 44 68 41 69 37 70 38 71 39 72 40 73 66 74 67 75 75 76 68 77
REMARK SMILES IDX 74 78 76 79 73 80 69 81 70 82 71 83 72 84 51 85 52 86 60 87
REMARK SMILES IDX 53 88 59 89 61 90 58 91 54 92 55 93 56 94 57 95
REMARK H PARENT 5 14 91 23 81 48 49 59
REMARK Flexibility Score: inf
ROOT
ATOM      1  C   UNL A   1      39.050  21.716  26.105  1.00  0.00     0.188 C 
ENDROOT
BRANCH   1   2
ATOM      2  C   UNL A   1      37.724  22.460  25.897  1.00  0.00     0.188 C 
BRANCH   2   3
ATOM      3  O   UNL A   1      37.559  23.254  24.732  1.00  0.00    -0.376 OA
BRANCH   3   4
ATOM      4  C   UNL A   1      36.487  22.962  23.847  1.00  0.00     0.202 C 
BRANCH   4   5
ATOM      5  C   UNL A   1      35.043  23.189  24.327  1.00  0.00     0.261 C 
BRANCH   5   6
ATOM      6  O   UNL A   1      34.086  22.146  24.008  1.00  0.00    -0.463 OA
BRANCH   6   7
ATOM      7  C   UNL A   1      33.118  22.488  23.125  1.00  0.00     0.308 C 
ATOM      8  O   UNL A   1      32.231  21.719  22.761  1.00  0.00    -0.252 OA
BRANCH   7   9
ATOM      9  C   UNL A   1      33.203  23.879  22.531  1.00  0.00     0.160 C 
BRANCH   9  10
ATOM     10  C   UNL A   1      32.467  25.119  23.050  1.00  0.00     0.184 C 
ATOM     11  N   UNL A   1      30.730  26.936  22.608  1.00  0.00    -0.320 N 
ATOM     12  C   UNL A   1      30.021  26.443  23.796  1.00  0.00     0.291 C 
ATOM     13  C   UNL A   1      31.585  25.873  22.028  1.00  0.00     0.295 C 
ATOM     14  H   UNL A   1      30.002  27.145  21.925  1.00  0.00     0.348 HD
ATOM     15  C   UNL A   1      30.888  25.647  24.779  1.00  0.00     0.222 C 
ATOM     16  O   UNL A   1      31.625  24.616  24.121  1.00  0.00    -0.366 OA
BRANCH  11  17
ATOM     17  C   UNL A   1      31.345  28.276  22.699  1.00  0.00     0.284 C 
ATOM     18  O   UNL A   1      31.394  30.120  25.754  1.00  0.00    -0.274 OA
ATOM     19  C   UNL A   1      31.252  29.706  24.617  1.00  0.00     0.233 C 
ATOM     20  C   UNL A   1      32.110  28.672  23.958  1.00  0.00     0.176 C 
ATOM     21  N   UNL A   1      30.305  30.112  23.742  1.00  0.00    -0.291 N 
ATOM     22  C   UNL A   1      30.291  29.385  22.593  1.00  0.00     0.285 C 
ATOM     23  H   UNL A   1      29.689  30.859  23.918  1.00  0.00     0.173 HD
ATOM     24  O   UNL A   1      29.532  29.589  21.658  1.00  0.00    -0.268 OA
ENDBRANCH  11  17
ENDBRANCH   9  10
ENDBRANCH   7   9
ENDBRANCH   6   7
ENDBRANCH   5   6
ENDBRANCH   4   5
ENDBRANCH   3   4
ENDBRANCH   2   3
ENDBRANCH   1   2
BRANCH   1  25
ATOM     25  O   UNL A   1      39.219  20.550  25.328  1.00  0.00    -0.376 OA
BRANCH  25  26
ATOM     26  C   UNL A   1      39.940  19.469  25.892  1.00  0.00     0.202 C 
BRANCH  26  27
ATOM     27  C   UNL A   1      40.789  19.745  27.142  1.00  0.00     0.261 C 
BRANCH  27  28
ATOM     28  O   UNL A   1      42.200  19.499  27.014  1.00  0.00    -0.460 OA
BRANCH  28  29
ATOM     29  C   UNL A   1      42.868  20.201  26.067  1.00  0.00     0.338 C 
ATOM     30  O   UNL A   1      43.280  19.766  25.003  1.00  0.00    -0.246 OA
BRANCH  29  31
ATOM     31  C   UNL A   1      42.789  21.636  26.434  1.00  0.00     0.060 A 
ATOM     32  C   UNL A   1      42.640  22.603  25.428  1.00  0.00     0.016 A 
ATOM     33  C   UNL A   1      42.840  22.022  27.772  1.00  0.00     0.016 A 
ATOM     34  C   UNL A   1      42.549  23.958  25.756  1.00  0.00     0.010 A 
ATOM     35  C   UNL A   1      42.778  23.381  28.098  1.00  0.00     0.010 A 
ATOM     36  C   UNL A   1      42.653  24.358  27.092  1.00  0.00    -0.014 A 
BRANCH  36  37
ATOM     37  C   UNL A   1      42.816  25.794  27.438  1.00  0.00     0.031 A 
ATOM     38  C   UNL A   1      44.196  26.390  27.363  1.00  0.00     0.074 A 
ATOM     39  C   UNL A   1      41.772  26.554  27.816  1.00  0.00     0.049 A 
ATOM     40  N   UNL A   1      44.620  27.564  27.751  1.00  0.00    -0.248 NA
ATOM     41  C   UNL A   1      45.241  25.534  26.777  1.00  0.00     0.031 C 
ATOM     42  C   UNL A   1      40.379  26.116  27.862  1.00  0.00     0.029 A 
ATOM     43  N   UNL A   1      41.729  27.856  28.254  1.00  0.00    -0.354 N 
ATOM     44  C   UNL A   1      45.983  27.583  27.476  1.00  0.00     0.074 A 
ATOM     45  C   UNL A   1      46.317  26.291  26.914  1.00  0.00     0.031 C 
ATOM     46  C   UNL A   1      39.620  27.127  28.323  1.00  0.00     0.029 A 
ATOM     47  C   UNL A   1      40.478  28.263  28.657  1.00  0.00     0.049 A 
ATOM     48  H   UNL A   1      42.520  28.442  28.278  1.00  0.00     0.167 HD
ATOM     49  C   UNL A   1      46.872  28.586  27.674  1.00  0.00     0.034 A 
ATOM     50  C   UNL A   1      40.081  29.402  29.263  1.00  0.00     0.034 A 
ATOM     51  C   UNL A   1      46.523  29.866  28.241  1.00  0.00     0.049 A 
ATOM     52  C   UNL A   1      41.111  30.468  29.572  1.00  0.00     0.074 A 
ATOM     53  C   UNL A   1      47.343  30.956  28.472  1.00  0.00     0.029 A 
ATOM     54  N   UNL A   1      45.254  30.226  28.677  1.00  0.00    -0.354 N 
ATOM     55  N   UNL A   1      42.401  30.474  29.318  1.00  0.00    -0.248 NA
ATOM     56  C   UNL A   1      40.631  31.682  30.246  1.00  0.00     0.031 C 
ATOM     57  C   UNL A   1      46.592  31.940  29.124  1.00  0.00     0.029 A 
ATOM     58  C   UNL A   1      45.280  31.506  29.211  1.00  0.00     0.049 A 
ATOM     59  H   UNL A   1      44.453  29.657  28.615  1.00  0.00     0.167 HD
ATOM     60  C   UNL A   1      42.871  31.708  29.765  1.00  0.00     0.074 A 
ATOM     61  C   UNL A   1      41.728  32.422  30.292  1.00  0.00     0.031 C 
ATOM     62  C   UNL A   1      44.133  32.210  29.736  1.00  0.00     0.034 A 
BRANCH  49  63
ATOM     63  C   UNL A   1      48.317  28.316  27.333  1.00  0.00     0.023 A 
ATOM     64  C   UNL A   1      48.806  28.427  26.020  1.00  0.00     0.031 A 
ATOM     65  C   UNL A   1      49.219  27.928  28.340  1.00  0.00     0.131 A 
ATOM     66  C   UNL A   1      50.140  28.091  25.740  1.00  0.00     0.055 A 
ATOM     67  C   UNL A   1      50.564  27.678  28.069  1.00  0.00     0.041 A 
ATOM     68  F   UNL A   1      48.804  27.778  29.608  1.00  0.00    -0.206 F 
ATOM     69  C   UNL A   1      51.029  27.746  26.760  1.00  0.00     0.022 A 
BRANCH  66  70
ATOM     70  S   UNL A   1      50.661  27.980  24.007  1.00  0.00     0.124 S 
ATOM     71  O   UNL A   1      51.320  29.269  23.814  1.00  0.00    -0.237 OA
ATOM     72  O   UNL A   1      51.532  26.811  24.013  1.00  0.00    -0.237 OA
ATOM     73  O   UNL A   1      49.403  27.819  23.281  1.00  0.00    -0.744 OA
ENDBRANCH  66  70
ENDBRANCH  49  63
BRANCH  50  74
ATOM     74  C   UNL A   1      38.660  29.592  29.680  1.00  0.00     0.023 A 
ATOM     75  C   UNL A   1      37.754  30.299  28.873  1.00  0.00     0.031 A 
ATOM     76  C   UNL A   1      38.205  29.141  30.933  1.00  0.00     0.131 A 
ATOM     77  C   UNL A   1      36.465  30.586  29.350  1.00  0.00     0.055 A 
ATOM     78  C   UNL A   1      36.901  29.370  31.375  1.00  0.00     0.041 A 
ATOM     79  F   UNL A   1      39.029  28.469  31.753  1.00  0.00    -0.206 F 
ATOM     80  C   UNL A   1      36.026  30.112  30.587  1.00  0.00     0.022 A 
BRANCH  77  81
ATOM     81  S   UNL A   1      35.408  31.694  28.377  1.00  0.00     0.124 S 
ATOM     82  O   UNL A   1      36.364  32.700  27.931  1.00  0.00    -0.237 OA
ATOM     83  O   UNL A   1      34.894  30.796  27.348  1.00  0.00    -0.237 OA
ATOM     84  O   UNL A   1      34.418  32.159  29.346  1.00  0.00    -0.744 OA
ENDBRANCH  77  81
ENDBRANCH  50  74
BRANCH  62  85
ATOM     85  C   UNL A   1      44.332  33.625  30.229  1.00  0.00     0.023 A 
ATOM     86  C   UNL A   1      44.130  34.743  29.400  1.00  0.00     0.031 A 
ATOM     87  C   UNL A   1      44.733  33.856  31.558  1.00  0.00     0.131 A 
ATOM     88  C   UNL A   1      44.386  36.033  29.890  1.00  0.00     0.055 A 
ATOM     89  C   UNL A   1      44.918  35.145  32.060  1.00  0.00     0.041 A 
ATOM     90  F   UNL A   1      44.946  32.830  32.397  1.00  0.00    -0.206 F 
ATOM     91  C   UNL A   1      44.759  36.243  31.221  1.00  0.00     0.022 A 
BRANCH  88  92
ATOM     92  S   UNL A   1      44.327  37.432  28.737  1.00  0.00     0.124 S 
ATOM     93  O   UNL A   1      42.890  37.625  28.568  1.00  0.00    -0.237 OA
ATOM     94  O   UNL A   1      45.028  38.477  29.478  1.00  0.00    -0.237 OA
ATOM     95  O   UNL A   1      45.028  36.935  27.555  1.00  0.00    -0.744 OA
ENDBRANCH  88  92
ENDBRANCH  62  85
ENDBRANCH  36  37
ENDBRANCH  29  31
ENDBRANCH  28  29
ENDBRANCH  27  28
ENDBRANCH  26  27
ENDBRANCH  25  26
ENDBRANCH   1  25
TORSDOF 22
ENDMDL
MODEL 2
REMARK VINA RESULT:      -8.9      4.797     12.023
REMARK SMILES O=C1C[C@@H]([N@@H+]2CCO[C@@H](CC(=O)OCCOCCOCCOC(=O)c3ccc(-c4c5nc(c(-c6cc(S(=O)(=O)[O-])ccc6F)c6ccc([nH]6)c(-c6cc(S(=O)(=O)[O-])ccc6F)c6nc(c(-c7cc(S(=O)(=O)[O-])ccc7F)c7ccc4[nH]7)C=C6)C=C5)cc3)C2)C(=O)N1
REMARK SMILES IDX 18 1 17 2 16 3 15 4 14 5 13 6 11 7 12 8 10 9 9 10 5 11 6 12
REMARK SMILES IDX 88 13 7 15 8 16 4 17 1 18 2 19 3 20 91 21 89 22 90 24 19 25
REMARK SMILES IDX 20 26 21 27 22 28 23 29 24 30 25 31 26 32 87 33 27 34 86 35
REMARK SMILES IDX 28 36 29 37 30 38 80 39 31 40 85 41 79 42 81 43 32 44 84 45
REMARK SMILES IDX 78 46 77 47 33 49 65 50 45 51 64 52 46 53 49 54 63 55 82 56
REMARK SMILES IDX 47 57 48 58 62 60 83 61 50 62 34 63 35 64 43 65 36 66 42 67
REMARK SMILES IDX 44 68 41 69 37 70 38 71 39 72 40 73 66 74 67 75 75 76 68 77
REMARK SMILES IDX 74 78 76 79 73 80 69 81 70 82 71 83 72 84 51 85 52 86 60 87
REMARK SMILES IDX 53 88 59 89 61 90 58 91 54 92 55 93 56 94 57 95
REMARK H PARENT 5 14 91 23 81 48 49 59
REMARK Flexibility Score: inf
ROOT
ATOM      1  C   UNL A   1      35.940  32.885  32.963  1.00  0.00     0.188 C 
ENDROOT
BRANCH   1   2
ATOM      2  C   UNL A   1      37.161  33.435  33.713  1.00  0.00     0.188 C 
BRANCH   2   3
ATOM      3  O   UNL A   1      37.807  34.596  33.213  1.00  0.00    -0.376 OA
BRANCH   3   4
ATOM      4  C   UNL A   1      39.143  34.492  32.743  1.00  0.00     0.202 C 
BRANCH   4   5
ATOM      5  C   UNL A   1      39.388  34.076  31.282  1.00  0.00     0.261 C 
BRANCH   5   6
ATOM      6  O   UNL A   1      40.288  34.916  30.515  1.00  0.00    -0.463 OA
BRANCH   6   7
ATOM      7  C   UNL A   1      41.527  34.411  30.304  1.00  0.00     0.308 C 
ATOM      8  O   UNL A   1      42.531  35.109  30.187  1.00  0.00    -0.252 OA
BRANCH   7   9
ATOM      9  C   UNL A   1      41.629  32.908  30.148  1.00  0.00     0.160 C 
BRANCH   9  10
ATOM     10  C   UNL A   1      42.842  32.145  29.604  1.00  0.00     0.184 C 
ATOM     11  N   UNL A   1      45.013  32.226  28.265  1.00  0.00    -0.320 N 
ATOM     12  C   UNL A   1      45.691  31.748  29.477  1.00  0.00     0.291 C 
ATOM     13  C   UNL A   1      43.744  32.911  28.608  1.00  0.00     0.295 C 
ATOM     14  H   UNL A   1      45.636  32.927  27.864  1.00  0.00     0.348 HD
ATOM     15  C   UNL A   1      44.781  31.040  30.487  1.00  0.00     0.222 C 
ATOM     16  O   UNL A   1      43.617  31.813  30.785  1.00  0.00    -0.366 OA
BRANCH  11  17
ATOM     17  C   UNL A   1      44.951  31.297  27.119  1.00  0.00     0.284 C 
ATOM     18  O   UNL A   1      45.490  27.791  27.506  1.00  0.00    -0.274 OA
ATOM     19  C   UNL A   1      45.507  28.970  27.200  1.00  0.00     0.233 C 
ATOM     20  C   UNL A   1      44.346  29.908  27.302  1.00  0.00     0.176 C 
ATOM     21  N   UNL A   1      46.570  29.640  26.701  1.00  0.00    -0.291 N 
ATOM     22  C   UNL A   1      46.350  30.977  26.579  1.00  0.00     0.285 C 
ATOM     23  H   UNL A   1      47.417  29.205  26.452  1.00  0.00     0.173 HD
ATOM     24  O   UNL A   1      47.165  31.771  26.135  1.00  0.00    -0.268 OA
ENDBRANCH  11  17
ENDBRANCH   9  10
ENDBRANCH   7   9
ENDBRANCH   6   7
ENDBRANCH   5   6
ENDBRANCH   4   5
ENDBRANCH   3   4
ENDBRANCH   2   3
ENDBRANCH   1   2
BRANCH   1  25
ATOM     25  O   UNL A   1      35.265  33.814  32.143  1.00  0.00    -0.376 OA
BRANCH  25  26
ATOM     26  C   UNL A   1      35.529  33.792  30.752  1.00  0.00     0.202 C 
BRANCH  26  27
ATOM     27  C   UNL A   1      34.393  33.368  29.810  1.00  0.00     0.261 C 
BRANCH  27  28
ATOM     28  O   UNL A   1      34.781  33.013  28.471  1.00  0.00    -0.460 OA
BRANCH  28  29
ATOM     29  C   UNL A   1      34.554  31.737  28.078  1.00  0.00     0.338 C 
ATOM     30  O   UNL A   1      33.623  31.349  27.389  1.00  0.00    -0.246 OA
BRANCH  29  31
ATOM     31  C   UNL A   1      35.759  30.942  28.417  1.00  0.00     0.060 A 
ATOM     32  C   UNL A   1      35.642  29.824  29.256  1.00  0.00     0.016 A 
ATOM     33  C   UNL A   1      37.001  31.291  27.887  1.00  0.00     0.016 A 
ATOM     34  C   UNL A   1      36.764  29.056  29.574  1.00  0.00     0.010 A 
ATOM     35  C   UNL A   1      38.129  30.537  28.229  1.00  0.00     0.010 A 
ATOM     36  C   UNL A   1      38.022  29.429  29.090  1.00  0.00    -0.014 A 
BRANCH  36  37
ATOM     37  C   UNL A   1      39.253  28.786  29.617  1.00  0.00     0.031 A 
ATOM     38  C   UNL A   1      39.880  29.362  30.858  1.00  0.00     0.074 A 
ATOM     39  C   UNL A   1      39.810  27.720  29.012  1.00  0.00     0.049 A 
ATOM     40  N   UNL A   1      41.023  29.079  31.424  1.00  0.00    -0.248 NA
ATOM     41  C   UNL A   1      39.111  30.412  31.545  1.00  0.00     0.031 C 
ATOM     42  C   UNL A   1      39.264  27.026  27.848  1.00  0.00     0.029 A 
ATOM     43  N   UNL A   1      40.977  27.048  29.287  1.00  0.00    -0.354 N 
ATOM     44  C   UNL A   1      41.122  29.926  32.522  1.00  0.00     0.074 A 
ATOM     45  C   UNL A   1      39.934  30.753  32.523  1.00  0.00     0.031 C 
ATOM     46  C   UNL A   1      40.105  26.038  27.496  1.00  0.00     0.029 A 
ATOM     47  C   UNL A   1      41.276  26.063  28.373  1.00  0.00     0.049 A 
ATOM     48  H   UNL A   1      41.546  27.252  30.064  1.00  0.00     0.167 HD
ATOM     49  C   UNL A   1      42.113  30.006  33.443  1.00  0.00     0.034 A 
ATOM     50  C   UNL A   1      42.382  25.302  28.237  1.00  0.00     0.034 A 
ATOM     51  C   UNL A   1      43.293  29.178  33.424  1.00  0.00     0.049 A 
ATOM     52  C   UNL A   1      43.523  25.481  29.216  1.00  0.00     0.074 A 
ATOM     53  C   UNL A   1      44.351  29.167  34.316  1.00  0.00     0.029 A 
ATOM     54  N   UNL A   1      43.581  28.221  32.458  1.00  0.00    -0.354 N 
ATOM     55  N   UNL A   1      43.613  26.293  30.246  1.00  0.00    -0.248 NA
ATOM     56  C   UNL A   1      44.710  24.640  29.015  1.00  0.00     0.031 C 
ATOM     57  C   UNL A   1      45.314  28.269  33.845  1.00  0.00     0.029 A 
ATOM     58  C   UNL A   1      44.816  27.644  32.713  1.00  0.00     0.049 A 
ATOM     59  H   UNL A   1      42.994  27.986  31.704  1.00  0.00     0.167 HD
ATOM     60  C   UNL A   1      44.848  26.026  30.835  1.00  0.00     0.074 A 
ATOM     61  C   UNL A   1      45.461  24.972  30.054  1.00  0.00     0.031 C 
ATOM     62  C   UNL A   1      45.421  26.594  31.927  1.00  0.00     0.034 A 
BRANCH  49  63
ATOM     63  C   UNL A   1      41.989  31.065  34.512  1.00  0.00     0.023 A 
ATOM     64  C   UNL A   1      42.481  32.369  34.329  1.00  0.00     0.031 A 
ATOM     65  C   UNL A   1      41.379  30.758  35.741  1.00  0.00     0.131 A 
ATOM     66  C   UNL A   1      42.410  33.296  35.381  1.00  0.00     0.055 A 
ATOM     67  C   UNL A   1      41.236  31.709  36.751  1.00  0.00     0.041 A 
ATOM     68  F   UNL A   1      40.915  29.521  35.984  1.00  0.00    -0.206 F 
ATOM     69  C   UNL A   1      41.765  32.984  36.579  1.00  0.00     0.022 A 
BRANCH  66  70
ATOM     70  S   UNL A   1      43.294  34.870  35.210  1.00  0.00     0.124 S 
ATOM     71  O   UNL A   1      42.200  35.834  35.299  1.00  0.00    -0.237 OA
ATOM     72  O   UNL A   1      44.214  34.840  36.340  1.00  0.00    -0.237 OA
ATOM     73  O   UNL A   1      43.919  34.771  33.892  1.00  0.00    -0.744 OA
ENDBRANCH  66  70
ENDBRANCH  49  63
BRANCH  50  74
ATOM     74  C   UNL A   1      42.511  24.335  27.106  1.00  0.00     0.023 A 
ATOM     75  C   UNL A   1      42.008  23.028  27.205  1.00  0.00     0.031 A 
ATOM     76  C   UNL A   1      43.216  24.678  25.936  1.00  0.00     0.131 A 
ATOM     77  C   UNL A   1      42.266  22.097  26.186  1.00  0.00     0.055 A 
ATOM     78  C   UNL A   1      43.412  23.768  24.896  1.00  0.00     0.041 A 
ATOM     79  F   UNL A   1      43.730  25.909  25.790  1.00  0.00    -0.206 F 
ATOM     80  C   UNL A   1      42.950  22.462  25.025  1.00  0.00     0.022 A 
BRANCH  77  81
ATOM     81  S   UNL A   1      41.799  20.365  26.457  1.00  0.00     0.124 S 
ATOM     82  O   UNL A   1      40.396  20.371  26.058  1.00  0.00    -0.237 OA
ATOM     83  O   UNL A   1      42.716  19.661  25.567  1.00  0.00    -0.237 OA
ATOM     84  O   UNL A   1      42.042  20.165  27.883  1.00  0.00    -0.744 OA
ENDBRANCH  77  81
ENDBRANCH  50  74
BRANCH  62  85
ATOM     85  C   UNL A   1      46.753  26.042  32.382  1.00  0.00     0.023 A 
ATOM     86  C   UNL A   1      46.851  25.019  33.343  1.00  0.00     0.031 A 
ATOM     87  C   UNL A   1      47.947  26.552  31.842  1.00  0.00     0.131 A 
ATOM     88  C   UNL A   1      48.113  24.583  33.775  1.00  0.00     0.055 A 
ATOM     89  C   UNL A   1      49.198  26.065  32.223  1.00  0.00     0.041 A 
ATOM     90  F   UNL A   1      47.919  27.532  30.924  1.00  0.00    -0.206 F 
ATOM     91  C   UNL A   1      49.287  25.085  33.206  1.00  0.00     0.022 A 
BRANCH  88  92
ATOM     92  S   UNL A   1      48.207  23.423  35.166  1.00  0.00     0.124 S 
ATOM     93  O   UNL A   1      46.814  23.016  35.317  1.00  0.00    -0.237 OA
ATOM     94  O   UNL A   1      49.118  22.400  34.658  1.00  0.00    -0.237 OA
ATOM     95  O   UNL A   1      48.736  24.237  36.258  1.00  0.00    -0.744 OA
ENDBRANCH  88  92
ENDBRANCH  62  85
ENDBRANCH  36  37
ENDBRANCH  29  31
ENDBRANCH  28  29
ENDBRANCH  27  28
ENDBRANCH  26  27
ENDBRANCH  25  26
ENDBRANCH   1  25
TORSDOF 22
ENDMDL
MODEL 3
REMARK VINA RESULT:      -8.9      4.878     10.311
REMARK SMILES O=C1C[C@@H]([N@@H+]2CCO[C@@H](CC(=O)OCCOCCOCCOC(=O)c3ccc(-c4c5nc(c(-c6cc(S(=O)(=O)[O-])ccc6F)c6ccc([nH]6)c(-c6cc(S(=O)(=O)[O-])ccc6F)c6nc(c(-c7cc(S(=O)(=O)[O-])ccc7F)c7ccc4[nH]7)C=C6)C=C5)cc3)C2)C(=O)N1
REMARK SMILES IDX 18 1 17 2 16 3 15 4 14 5 13 6 11 7 12 8 10 9 9 10 5 11 6 12
REMARK SMILES IDX 88 13 7 15 8 16 4 17 1 18 2 19 3 20 91 21 89 22 90 24 19 25
REMARK SMILES IDX 20 26 21 27 22 28 23 29 24 30 25 31 26 32 87 33 27 34 86 35
REMARK SMILES IDX 28 36 29 37 30 38 80 39 31 40 85 41 79 42 81 43 32 44 84 45
REMARK SMILES IDX 78 46 77 47 33 49 65 50 45 51 64 52 46 53 49 54 63 55 82 56
REMARK SMILES IDX 47 57 48 58 62 60 83 61 50 62 34 63 35 64 43 65 36 66 42 67
REMARK SMILES IDX 44 68 41 69 37 70 38 71 39 72 40 73 66 74 67 75 75 76 68 77
REMARK SMILES IDX 74 78 76 79 73 80 69 81 70 82 71 83 72 84 51 85 52 86 60 87
REMARK SMILES IDX 53 88 59 89 61 90 58 91 54 92 55 93 56 94 57 95
REMARK H PARENT 5 14 91 23 81 48 49 59
REMARK Flexibility Score: inf
ROOT
ATOM      1  C   UNL A   1      33.130  29.954  27.122  1.00  0.00     0.188 C 
ENDROOT
BRANCH   1   2
ATOM      2  C   UNL A   1      33.108  29.530  25.648  1.00  0.00     0.188 C 
BRANCH   2   3
ATOM      3  O   UNL A   1      33.505  28.209  25.308  1.00  0.00    -0.376 OA
BRANCH   3   4
ATOM      4  C   UNL A   1      33.256  27.158  26.231  1.00  0.00     0.202 C 
BRANCH   4   5
ATOM      5  C   UNL A   1      33.319  25.703  25.736  1.00  0.00     0.261 C 
BRANCH   5   6
ATOM      6  O   UNL A   1      32.079  25.134  25.244  1.00  0.00    -0.463 OA
BRANCH   6   7
ATOM      7  C   UNL A   1      31.494  24.215  26.048  1.00  0.00     0.308 C 
ATOM      8  O   UNL A   1      31.326  24.378  27.254  1.00  0.00    -0.252 OA
BRANCH   7   9
ATOM      9  C   UNL A   1      31.095  22.905  25.400  1.00  0.00     0.160 C 
BRANCH   9  10
ATOM     10  C   UNL A   1      31.923  21.615  25.408  1.00  0.00     0.184 C 
ATOM     11  N   UNL A   1      33.251  19.899  24.065  1.00  0.00    -0.320 N 
ATOM     12  C   UNL A   1      34.401  20.234  24.914  1.00  0.00     0.291 C 
ATOM     13  C   UNL A   1      32.281  21.019  24.027  1.00  0.00     0.295 C 
ATOM     14  H   UNL A   1      33.630  19.795  23.124  1.00  0.00     0.348 HD
ATOM     15  C   UNL A   1      34.043  20.877  26.259  1.00  0.00     0.222 C 
ATOM     16  O   UNL A   1      33.148  21.978  26.099  1.00  0.00    -0.366 OA
BRANCH  11  17
ATOM     17  C   UNL A   1      32.669  18.551  24.223  1.00  0.00     0.284 C 
ATOM     18  O   UNL A   1      34.672  15.722  25.069  1.00  0.00    -0.274 OA
ATOM     19  C   UNL A   1      33.921  16.541  24.568  1.00  0.00     0.233 C 
ATOM     20  C   UNL A   1      33.199  17.621  25.310  1.00  0.00     0.176 C 
ATOM     21  N   UNL A   1      33.596  16.615  23.258  1.00  0.00    -0.291 N 
ATOM     22  C   UNL A   1      32.848  17.709  22.954  1.00  0.00     0.285 C 
ATOM     23  H   UNL A   1      33.872  15.944  22.592  1.00  0.00     0.173 HD
ATOM     24  O   UNL A   1      32.427  17.967  21.837  1.00  0.00    -0.268 OA
ENDBRANCH  11  17
ENDBRANCH   9  10
ENDBRANCH   7   9
ENDBRANCH   6   7
ENDBRANCH   5   6
ENDBRANCH   4   5
ENDBRANCH   3   4
ENDBRANCH   2   3
ENDBRANCH   1   2
BRANCH   1  25
ATOM     25  O   UNL A   1      33.734  31.202  27.385  1.00  0.00    -0.376 OA
BRANCH  25  26
ATOM     26  C   UNL A   1      35.120  31.224  27.680  1.00  0.00     0.202 C 
BRANCH  26  27
ATOM     27  C   UNL A   1      35.870  29.885  27.711  1.00  0.00     0.261 C 
BRANCH  27  28
ATOM     28  O   UNL A   1      36.239  29.397  29.013  1.00  0.00    -0.460 OA
BRANCH  28  29
ATOM     29  C   UNL A   1      37.032  30.192  29.770  1.00  0.00     0.338 C 
ATOM     30  O   UNL A   1      36.668  31.145  30.442  1.00  0.00    -0.246 OA
BRANCH  29  31
ATOM     31  C   UNL A   1      38.370  29.555  29.840  1.00  0.00     0.060 A 
ATOM     32  C   UNL A   1      38.531  28.353  30.545  1.00  0.00     0.016 A 
ATOM     33  C   UNL A   1      39.458  30.136  29.189  1.00  0.00     0.016 A 
ATOM     34  C   UNL A   1      39.781  27.732  30.608  1.00  0.00     0.010 A 
ATOM     35  C   UNL A   1      40.715  29.527  29.278  1.00  0.00     0.010 A 
ATOM     36  C   UNL A   1      40.889  28.335  30.004  1.00  0.00    -0.014 A 
BRANCH  36  37
ATOM     37  C   UNL A   1      42.260  27.831  30.274  1.00  0.00     0.031 A 
ATOM     38  C   UNL A   1      42.930  28.247  31.555  1.00  0.00     0.074 A 
ATOM     39  C   UNL A   1      42.904  27.030  29.405  1.00  0.00     0.049 A 
ATOM     40  N   UNL A   1      44.163  28.066  31.949  1.00  0.00    -0.248 NA
ATOM     41  C   UNL A   1      42.090  28.978  32.518  1.00  0.00     0.031 C 
ATOM     42  C   UNL A   1      42.341  26.500  28.165  1.00  0.00     0.029 A 
ATOM     43  N   UNL A   1      44.187  26.538  29.428  1.00  0.00    -0.354 N 
ATOM     44  C   UNL A   1      44.255  28.676  33.196  1.00  0.00     0.074 A 
ATOM     45  C   UNL A   1      42.959  29.256  33.476  1.00  0.00     0.031 C 
ATOM     46  C   UNL A   1      43.281  25.773  27.536  1.00  0.00     0.029 A 
ATOM     47  C   UNL A   1      44.529  25.830  28.298  1.00  0.00     0.049 A 
ATOM     48  H   UNL A   1      44.805  26.679  30.181  1.00  0.00     0.167 HD
ATOM     49  C   UNL A   1      45.323  28.745  34.027  1.00  0.00     0.034 A 
ATOM     50  C   UNL A   1      45.718  25.325  27.907  1.00  0.00     0.034 A 
ATOM     51  C   UNL A   1      46.609  28.165  33.729  1.00  0.00     0.049 A 
ATOM     52  C   UNL A   1      46.924  25.506  28.804  1.00  0.00     0.074 A 
ATOM     53  C   UNL A   1      47.754  28.165  34.507  1.00  0.00     0.029 A 
ATOM     54  N   UNL A   1      46.929  27.493  32.556  1.00  0.00    -0.354 N 
ATOM     55  N   UNL A   1      47.005  26.094  29.977  1.00  0.00    -0.248 NA
ATOM     56  C   UNL A   1      48.198  24.952  28.326  1.00  0.00     0.031 C 
ATOM     57  C   UNL A   1      48.785  27.572  33.772  1.00  0.00     0.029 A 
ATOM     58  C   UNL A   1      48.262  27.110  32.575  1.00  0.00     0.049 A 
ATOM     59  H   UNL A   1      46.302  27.314  31.819  1.00  0.00     0.167 HD
ATOM     60  C   UNL A   1      48.327  25.940  30.389  1.00  0.00     0.074 A 
ATOM     61  C   UNL A   1      49.003  25.197  29.348  1.00  0.00     0.031 C 
ATOM     62  C   UNL A   1      48.929  26.369  31.530  1.00  0.00     0.034 A 
BRANCH  49  63
ATOM     63  C   UNL A   1      45.160  29.524  35.309  1.00  0.00     0.023 A 
ATOM     64  C   UNL A   1      45.386  30.910  35.374  1.00  0.00     0.031 A 
ATOM     65  C   UNL A   1      44.784  28.863  36.492  1.00  0.00     0.131 A 
ATOM     66  C   UNL A   1      45.296  31.576  36.605  1.00  0.00     0.055 A 
ATOM     67  C   UNL A   1      44.614  29.547  37.697  1.00  0.00     0.041 A 
ATOM     68  F   UNL A   1      44.582  27.536  36.500  1.00  0.00    -0.206 F 
ATOM     69  C   UNL A   1      44.882  30.910  37.761  1.00  0.00     0.022 A 
BRANCH  66  70
ATOM     70  S   UNL A   1      45.858  33.297  36.703  1.00  0.00     0.124 S 
ATOM     71  O   UNL A   1      45.699  33.580  38.127  1.00  0.00    -0.237 OA
ATOM     72  O   UNL A   1      47.230  33.210  36.218  1.00  0.00    -0.237 OA
ATOM     73  O   UNL A   1      44.930  34.012  35.828  1.00  0.00    -0.744 OA
ENDBRANCH  66  70
ENDBRANCH  49  63
BRANCH  50  74
ATOM     74  C   UNL A   1      45.864  24.649  26.583  1.00  0.00     0.023 A 
ATOM     75  C   UNL A   1      45.358  23.358  26.368  1.00  0.00     0.031 A 
ATOM     76  C   UNL A   1      46.588  25.251  25.537  1.00  0.00     0.131 A 
ATOM     77  C   UNL A   1      45.631  22.688  25.163  1.00  0.00     0.055 A 
ATOM     78  C   UNL A   1      46.800  24.608  24.317  1.00  0.00     0.041 A 
ATOM     79  F   UNL A   1      47.106  26.481  25.690  1.00  0.00    -0.206 F 
ATOM     80  C   UNL A   1      46.334  23.311  24.130  1.00  0.00     0.022 A 
BRANCH  77  81
ATOM     81  S   UNL A   1      45.158  20.943  25.015  1.00  0.00     0.124 S 
ATOM     82  O   UNL A   1      44.617  20.897  23.661  1.00  0.00    -0.237 OA
ATOM     83  O   UNL A   1      46.433  20.265  25.221  1.00  0.00    -0.237 OA
ATOM     84  O   UNL A   1      44.179  20.764  26.085  1.00  0.00    -0.744 OA
ENDBRANCH  77  81
ENDBRANCH  50  74
BRANCH  62  85
ATOM     85  C   UNL A   1      50.376  25.986  31.741  1.00  0.00     0.023 A 
ATOM     86  C   UNL A   1      50.750  24.757  32.314  1.00  0.00     0.031 A 
ATOM     87  C   UNL A   1      51.400  26.872  31.360  1.00  0.00     0.131 A 
ATOM     88  C   UNL A   1      52.105  24.475  32.543  1.00  0.00     0.055 A 
ATOM     89  C   UNL A   1      52.749  26.556  31.525  1.00  0.00     0.041 A 
ATOM     90  F   UNL A   1      51.107  28.062  30.811  1.00  0.00    -0.206 F 
ATOM     91  C   UNL A   1      53.109  25.358  32.134  1.00  0.00     0.022 A 
BRANCH  88  92
ATOM     92  S   UNL A   1      52.541  22.983  33.479  1.00  0.00     0.124 S 
ATOM     93  O   UNL A   1      53.866  23.321  33.989  1.00  0.00    -0.237 OA
ATOM     94  O   UNL A   1      51.473  22.915  34.473  1.00  0.00    -0.237 OA
ATOM     95  O   UNL A   1      52.517  21.926  32.471  1.00  0.00    -0.744 OA
ENDBRANCH  88  92
ENDBRANCH  62  85
ENDBRANCH  36  37
ENDBRANCH  29  31
ENDBRANCH  28  29
ENDBRANCH  27  28
ENDBRANCH  26  27
ENDBRANCH  25  26
ENDBRANCH   1  25
TORSDOF 22
ENDMDL
