MODEL 1
REMARK VINA RESULT:     -11.6      0.000      0.000
REMARK SMILES CC1(C)[C@H](O)CC[C@]2(C)[C@@H]1CC[C@]1(C)Oc3oc(C(=O)OCCOCCOCCOC(=O)c4ccc(-c5c6nc(c(-c7cc(S(=O)(=O)[O-])ccc7F)c7ccc([nH]7)c(-c7cc(S(=O)(=O)[O-])ccc7F)c7nc(c(-c8cc(S(=O)(=O)[O-])ccc8F)c8ccc5[nH]8)C=C7)C=C6)cc4)cc(=O)c3C[C@H]21
REMARK SMILES IDX 26 1 25 2 24 3 23 4 22 5 21 6 19 7 20 8 18 9 1 10 2 11 3 12
REMARK SMILES IDX 4 13 10 14 6 15 8 16 11 17 7 18 9 19 101 20 12 21 13 22
REMARK SMILES IDX 100 23 14 24 15 25 99 26 16 27 97 28 17 29 96 30 98 31 5 32
REMARK SMILES IDX 27 34 28 35 29 36 30 37 31 38 32 39 33 40 34 41 95 42 35 43
REMARK SMILES IDX 94 44 36 45 37 46 38 47 88 48 39 49 93 50 87 51 89 52 40 53
REMARK SMILES IDX 92 54 86 55 85 56 41 58 73 59 53 60 72 61 54 62 57 63 71 64
REMARK SMILES IDX 90 65 55 66 56 67 70 69 91 70 58 71 42 72 43 73 51 74 44 75
REMARK SMILES IDX 50 76 52 77 49 78 45 79 46 80 47 81 48 82 74 83 75 84 83 85
REMARK SMILES IDX 76 86 82 87 84 88 81 89 77 90 78 91 79 92 80 93 59 94 60 95
REMARK SMILES IDX 68 96 61 97 67 98 69 99 66 100 62 101 63 102 64 103 65 104
REMARK H PARENT 5 33 89 57 57 68
REMARK Flexibility Score: inf
ROOT
ATOM      1  C   UNL A   1      29.750  25.927  25.776  1.00  0.00     0.188 C 
ENDROOT
BRANCH   1   2
ATOM      2  C   UNL A   1      29.197  26.391  24.411  1.00  0.00     0.188 C 
BRANCH   2   3
ATOM      3  O   UNL A   1      28.073  27.242  24.367  1.00  0.00    -0.376 OA
BRANCH   3   4
ATOM      4  C   UNL A   1      27.674  27.855  23.154  1.00  0.00     0.202 C 
BRANCH   4   5
ATOM      5  C   UNL A   1      27.872  29.349  22.861  1.00  0.00     0.261 C 
BRANCH   5   6
ATOM      6  O   UNL A   1      29.197  29.852  23.061  1.00  0.00    -0.457 OA
BRANCH   6   7
ATOM      7  C   UNL A   1      30.059  29.749  22.008  1.00  0.00     0.374 C 
ATOM      8  O   UNL A   1      30.054  30.437  21.001  1.00  0.00    -0.242 OA
BRANCH   7   9
ATOM      9  C   UNL A   1      31.092  28.720  22.308  1.00  0.00     0.219 A 
ATOM     10  C   UNL A   1      36.863  22.051  24.570  1.00  0.00     0.014 C 
ATOM     11  C   UNL A   1      35.412  21.654  24.987  1.00  0.00    -0.006 C 
ATOM     12  C   UNL A   1      35.263  20.159  24.621  1.00  0.00     0.014 C 
ATOM     13  C   UNL A   1      35.365  21.820  26.537  1.00  0.00     0.120 C 
ATOM     14  C   UNL A   1      34.396  22.608  24.207  1.00  0.00     0.004 C 
ATOM     15  C   UNL A   1      35.248  23.270  27.033  1.00  0.00     0.033 C 
ATOM     16  C   UNL A   1      33.551  23.579  25.106  1.00  0.00    -0.022 C 
ATOM     17  C   UNL A   1      33.584  21.999  23.044  1.00  0.00     0.009 C 
ATOM     18  C   UNL A   1      34.577  24.245  26.056  1.00  0.00     0.010 C 
ATOM     19  C   UNL A   1      32.440  22.959  25.997  1.00  0.00     0.012 C 
ATOM     20  C   UNL A   1      32.820  24.632  24.188  1.00  0.00     0.044 C 
ATOM     21  C   UNL A   1      32.863  23.072  22.184  1.00  0.00     0.049 C 
ATOM     22  C   UNL A   1      31.975  24.035  23.011  1.00  0.00     0.113 C 
ATOM     23  C   UNL A   1      33.765  25.703  23.597  1.00  0.00     0.055 C 
ATOM     24  C   UNL A   1      30.717  23.248  23.433  1.00  0.00     0.057 C 
ATOM     25  O   UNL A   1      31.407  25.084  22.163  1.00  0.00    -0.458 OA
ATOM     26  C   UNL A   1      32.909  26.735  22.962  1.00  0.00     0.081 A 
ATOM     27  C   UNL A   1      31.749  26.411  22.378  1.00  0.00     0.292 A 
ATOM     28  C   UNL A   1      33.276  28.151  23.135  1.00  0.00     0.192 A 
ATOM     29  O   UNL A   1      30.823  27.387  22.006  1.00  0.00    -0.418 OA
ATOM     30  C   UNL A   1      32.253  29.145  22.819  1.00  0.00     0.107 A 
ATOM     31  O   UNL A   1      34.372  28.503  23.556  1.00  0.00    -0.289 OA
BRANCH  13  32
ATOM     32  O   UNL A   1      34.358  21.013  27.151  1.00  0.00    -0.393 OA
ATOM     33  H   UNL A   1      34.597  20.076  27.064  1.00  0.00     0.210 HD
ENDBRANCH  13  32
ENDBRANCH   7   9
ENDBRANCH   6   7
ENDBRANCH   5   6
ENDBRANCH   4   5
ENDBRANCH   3   4
ENDBRANCH   2   3
ENDBRANCH   1   2
BRANCH   1  34
ATOM     34  O   UNL A   1      30.804  26.628  26.398  1.00  0.00    -0.376 OA
BRANCH  34  35
ATOM     35  C   UNL A   1      31.090  27.954  25.985  1.00  0.00     0.202 C 
BRANCH  35  36
ATOM     36  C   UNL A   1      31.787  28.995  26.881  1.00  0.00     0.261 C 
BRANCH  36  37
ATOM     37  O   UNL A   1      32.837  29.765  26.284  1.00  0.00    -0.460 OA
BRANCH  37  38
ATOM     38  C   UNL A   1      33.199  30.889  26.954  1.00  0.00     0.338 C 
ATOM     39  O   UNL A   1      32.505  31.870  27.181  1.00  0.00    -0.246 OA
BRANCH  38  40
ATOM     40  C   UNL A   1      34.533  30.685  27.545  1.00  0.00     0.060 A 
ATOM     41  C   UNL A   1      35.030  29.381  27.689  1.00  0.00     0.016 A 
ATOM     42  C   UNL A   1      35.279  31.782  27.976  1.00  0.00     0.016 A 
ATOM     43  C   UNL A   1      36.284  29.170  28.257  1.00  0.00     0.010 A 
ATOM     44  C   UNL A   1      36.516  31.565  28.586  1.00  0.00     0.010 A 
ATOM     45  C   UNL A   1      37.013  30.258  28.748  1.00  0.00    -0.014 A 
BRANCH  45  46
ATOM     46  C   UNL A   1      38.191  30.022  29.611  1.00  0.00     0.031 A 
ATOM     47  C   UNL A   1      39.207  29.011  29.161  1.00  0.00     0.074 A 
ATOM     48  C   UNL A   1      38.353  30.681  30.772  1.00  0.00     0.049 A 
ATOM     49  N   UNL A   1      40.284  28.597  29.769  1.00  0.00    -0.248 NA
ATOM     50  C   UNL A   1      38.975  28.385  27.847  1.00  0.00     0.031 C 
ATOM     51  C   UNL A   1      37.454  31.708  31.290  1.00  0.00     0.029 A 
ATOM     52  N   UNL A   1      39.329  30.568  31.731  1.00  0.00    -0.354 N 
ATOM     53  C   UNL A   1      40.857  27.660  28.920  1.00  0.00     0.074 A 
ATOM     54  C   UNL A   1      39.999  27.548  27.763  1.00  0.00     0.031 C 
ATOM     55  C   UNL A   1      37.905  32.113  32.490  1.00  0.00     0.029 A 
ATOM     56  C   UNL A   1      39.107  31.352  32.837  1.00  0.00     0.049 A 
ATOM     57  H   UNL A   1      40.113  29.980  31.636  1.00  0.00     0.167 HD
ATOM     58  C   UNL A   1      42.002  26.962  29.091  1.00  0.00     0.034 A 
ATOM     59  C   UNL A   1      39.781  31.430  34.005  1.00  0.00     0.034 A 
ATOM     60  C   UNL A   1      42.847  27.077  30.248  1.00  0.00     0.049 A 
ATOM     61  C   UNL A   1      41.026  30.596  34.197  1.00  0.00     0.074 A 
ATOM     62  C   UNL A   1      44.044  26.428  30.494  1.00  0.00     0.029 A 
ATOM     63  N   UNL A   1      42.589  27.877  31.349  1.00  0.00    -0.354 N 
ATOM     64  N   UNL A   1      41.596  29.761  33.360  1.00  0.00    -0.248 NA
ATOM     65  C   UNL A   1      41.726  30.717  35.485  1.00  0.00     0.031 C 
ATOM     66  C   UNL A   1      44.477  26.786  31.770  1.00  0.00     0.029 A 
ATOM     67  C   UNL A   1      43.591  27.716  32.290  1.00  0.00     0.049 A 
ATOM     68  H   UNL A   1      41.810  28.472  31.447  1.00  0.00     0.167 HD
ATOM     69  C   UNL A   1      42.734  29.284  34.006  1.00  0.00     0.074 A 
ATOM     70  C   UNL A   1      42.781  29.934  35.298  1.00  0.00     0.031 C 
ATOM     71  C   UNL A   1      43.653  28.389  33.565  1.00  0.00     0.034 A 
BRANCH  58  72
ATOM     72  C   UNL A   1      42.432  26.007  28.013  1.00  0.00     0.023 A 
ATOM     73  C   UNL A   1      41.842  24.734  27.933  1.00  0.00     0.031 A 
ATOM     74  C   UNL A   1      43.524  26.296  27.176  1.00  0.00     0.131 A 
ATOM     75  C   UNL A   1      42.383  23.773  27.074  1.00  0.00     0.055 A 
ATOM     76  C   UNL A   1      44.033  25.347  26.291  1.00  0.00     0.041 A 
ATOM     77  F   UNL A   1      44.110  27.503  27.213  1.00  0.00    -0.206 F 
ATOM     78  C   UNL A   1      43.473  24.073  26.249  1.00  0.00     0.022 A 
BRANCH  75  79
ATOM     79  S   UNL A   1      41.728  22.083  27.036  1.00  0.00     0.124 S 
ATOM     80  O   UNL A   1      40.380  22.268  27.568  1.00  0.00    -0.237 OA
ATOM     81  O   UNL A   1      41.800  21.763  25.614  1.00  0.00    -0.237 OA
ATOM     82  O   UNL A   1      42.636  21.337  27.901  1.00  0.00    -0.744 OA
ENDBRANCH  75  79
ENDBRANCH  58  72
BRANCH  59  83
ATOM     83  C   UNL A   1      39.294  32.355  35.067  1.00  0.00     0.023 A 
ATOM     84  C   UNL A   1      39.799  33.664  35.172  1.00  0.00     0.031 A 
ATOM     85  C   UNL A   1      38.372  31.923  36.034  1.00  0.00     0.131 A 
ATOM     86  C   UNL A   1      39.423  34.473  36.252  1.00  0.00     0.055 A 
ATOM     87  C   UNL A   1      37.954  32.753  37.076  1.00  0.00     0.041 A 
ATOM     88  F   UNL A   1      37.864  30.682  35.977  1.00  0.00    -0.206 F 
ATOM     89  C   UNL A   1      38.492  34.032  37.195  1.00  0.00     0.022 A 
BRANCH  86  90
ATOM     90  S   UNL A   1      40.197  36.092  36.513  1.00  0.00     0.124 S 
ATOM     91  O   UNL A   1      39.567  36.536  37.753  1.00  0.00    -0.237 OA
ATOM     92  O   UNL A   1      41.608  35.732  36.618  1.00  0.00    -0.237 OA
ATOM     93  O   UNL A   1      39.832  36.847  35.320  1.00  0.00    -0.744 OA
ENDBRANCH  86  90
ENDBRANCH  59  83
BRANCH  71  94
ATOM     94  C   UNL A   1      44.826  28.045  34.449  1.00  0.00     0.023 A 
ATOM     95  C   UNL A   1      44.749  26.932  35.309  1.00  0.00     0.031 A 
ATOM     96  C   UNL A   1      45.927  28.909  34.576  1.00  0.00     0.131 A 
ATOM     97  C   UNL A   1      45.726  26.740  36.292  1.00  0.00     0.055 A 
ATOM     98  C   UNL A   1      46.924  28.686  35.526  1.00  0.00     0.041 A 
ATOM     99  F   UNL A   1      46.039  29.989  33.788  1.00  0.00    -0.206 F 
ATOM    100  C   UNL A   1      46.819  27.607  36.401  1.00  0.00     0.022 A 
BRANCH  97 101
ATOM    101  S   UNL A   1      45.576  25.407  37.514  1.00  0.00     0.124 S 
ATOM    102  O   UNL A   1      45.129  24.287  36.688  1.00  0.00    -0.237 OA
ATOM    103  O   UNL A   1      46.941  25.301  38.022  1.00  0.00    -0.237 OA
ATOM    104  O   UNL A   1      44.588  25.909  38.463  1.00  0.00    -0.744 OA
ENDBRANCH  97 101
ENDBRANCH  71  94
ENDBRANCH  45  46
ENDBRANCH  38  40
ENDBRANCH  37  38
ENDBRANCH  36  37
ENDBRANCH  35  36
ENDBRANCH  34  35
ENDBRANCH   1  34
TORSDOF 21
ENDMDL
MODEL 2
REMARK VINA RESULT:     -11.5      2.215      2.501
REMARK SMILES CC1(C)[C@H](O)CC[C@]2(C)[C@@H]1CC[C@]1(C)Oc3oc(C(=O)OCCOCCOCCOC(=O)c4ccc(-c5c6nc(c(-c7cc(S(=O)(=O)[O-])ccc7F)c7ccc([nH]7)c(-c7cc(S(=O)(=O)[O-])ccc7F)c7nc(c(-c8cc(S(=O)(=O)[O-])ccc8F)c8ccc5[nH]8)C=C7)C=C6)cc4)cc(=O)c3C[C@H]21
REMARK SMILES IDX 26 1 25 2 24 3 23 4 22 5 21 6 19 7 20 8 18 9 1 10 2 11 3 12
REMARK SMILES IDX 4 13 10 14 6 15 8 16 11 17 7 18 9 19 101 20 12 21 13 22
REMARK SMILES IDX 100 23 14 24 15 25 99 26 16 27 97 28 17 29 96 30 98 31 5 32
REMARK SMILES IDX 27 34 28 35 29 36 30 37 31 38 32 39 33 40 34 41 95 42 35 43
REMARK SMILES IDX 94 44 36 45 37 46 38 47 88 48 39 49 93 50 87 51 89 52 40 53
REMARK SMILES IDX 92 54 86 55 85 56 41 58 73 59 53 60 72 61 54 62 57 63 71 64
REMARK SMILES IDX 90 65 55 66 56 67 70 69 91 70 58 71 42 72 43 73 51 74 44 75
REMARK SMILES IDX 50 76 52 77 49 78 45 79 46 80 47 81 48 82 74 83 75 84 83 85
REMARK SMILES IDX 76 86 82 87 84 88 81 89 77 90 78 91 79 92 80 93 59 94 60 95
REMARK SMILES IDX 68 96 61 97 67 98 69 99 66 100 62 101 63 102 64 103 65 104
REMARK H PARENT 5 33 89 57 57 68
REMARK Flexibility Score: inf
ROOT
ATOM      1  C   UNL A   1      29.700  25.822  25.891  1.00  0.00     0.188 C 
ENDROOT
BRANCH   1   2
ATOM      2  C   UNL A   1      29.217  26.262  24.491  1.00  0.00     0.188 C 
BRANCH   2   3
ATOM      3  O   UNL A   1      28.111  27.130  24.376  1.00  0.00    -0.376 OA
BRANCH   3   4
ATOM      4  C   UNL A   1      27.866  27.837  23.174  1.00  0.00     0.202 C 
BRANCH   4   5
ATOM      5  C   UNL A   1      27.949  29.367  23.064  1.00  0.00     0.261 C 
BRANCH   5   6
ATOM      6  O   UNL A   1      29.267  29.924  23.125  1.00  0.00    -0.457 OA
BRANCH   6   7
ATOM      7  C   UNL A   1      30.074  29.712  22.044  1.00  0.00     0.374 C 
ATOM      8  O   UNL A   1      30.037  30.318  20.987  1.00  0.00    -0.242 OA
BRANCH   7   9
ATOM      9  C   UNL A   1      31.095  28.682  22.379  1.00  0.00     0.219 A 
ATOM     10  C   UNL A   1      36.767  21.984  24.799  1.00  0.00     0.014 C 
ATOM     11  C   UNL A   1      35.295  21.561  25.103  1.00  0.00    -0.006 C 
ATOM     12  C   UNL A   1      35.186  20.078  24.678  1.00  0.00     0.014 C 
ATOM     13  C   UNL A   1      35.142  21.673  26.652  1.00  0.00     0.120 C 
ATOM     14  C   UNL A   1      34.325  22.534  24.290  1.00  0.00     0.004 C 
ATOM     15  C   UNL A   1      34.977  23.104  27.187  1.00  0.00     0.033 C 
ATOM     16  C   UNL A   1      33.411  23.466  25.161  1.00  0.00    -0.022 C 
ATOM     17  C   UNL A   1      33.599  21.959  23.054  1.00  0.00     0.009 C 
ATOM     18  C   UNL A   1      34.364  24.107  26.201  1.00  0.00     0.010 C 
ATOM     19  C   UNL A   1      32.249  22.807  25.953  1.00  0.00     0.012 C 
ATOM     20  C   UNL A   1      32.733  24.545  24.232  1.00  0.00     0.044 C 
ATOM     21  C   UNL A   1      32.928  23.055  22.184  1.00  0.00     0.049 C 
ATOM     22  C   UNL A   1      31.975  23.982  22.980  1.00  0.00     0.113 C 
ATOM     23  C   UNL A   1      33.705  25.642  23.744  1.00  0.00     0.055 C 
ATOM     24  C   UNL A   1      30.700  23.171  23.289  1.00  0.00     0.057 C 
ATOM     25  O   UNL A   1      31.456  25.055  22.132  1.00  0.00    -0.458 OA
ATOM     26  C   UNL A   1      32.884  26.689  23.087  1.00  0.00     0.081 A 
ATOM     27  C   UNL A   1      31.769  26.376  22.415  1.00  0.00     0.292 A 
ATOM     28  C   UNL A   1      33.224  28.102  23.333  1.00  0.00     0.192 A 
ATOM     29  O   UNL A   1      30.860  27.358  22.014  1.00  0.00    -0.418 OA
ATOM     30  C   UNL A   1      32.214  29.098  22.982  1.00  0.00     0.107 A 
ATOM     31  O   UNL A   1      34.285  28.447  23.839  1.00  0.00    -0.289 OA
BRANCH  13  32
ATOM     32  O   UNL A   1      34.104  20.837  27.168  1.00  0.00    -0.393 OA
ATOM     33  H   UNL A   1      33.678  21.279  27.921  1.00  0.00     0.210 HD
ENDBRANCH  13  32
ENDBRANCH   7   9
ENDBRANCH   6   7
ENDBRANCH   5   6
ENDBRANCH   4   5
ENDBRANCH   3   4
ENDBRANCH   2   3
ENDBRANCH   1   2
BRANCH   1  34
ATOM     34  O   UNL A   1      30.786  26.473  26.511  1.00  0.00    -0.376 OA
BRANCH  34  35
ATOM     35  C   UNL A   1      31.060  27.826  26.183  1.00  0.00     0.202 C 
BRANCH  35  36
ATOM     36  C   UNL A   1      31.872  28.774  27.084  1.00  0.00     0.261 C 
BRANCH  36  37
ATOM     37  O   UNL A   1      32.944  29.497  26.466  1.00  0.00    -0.460 OA
BRANCH  37  38
ATOM     38  C   UNL A   1      33.256  30.689  27.035  1.00  0.00     0.338 C 
ATOM     39  O   UNL A   1      32.495  31.618  27.268  1.00  0.00    -0.246 OA
BRANCH  38  40
ATOM     40  C   UNL A   1      34.650  30.644  27.509  1.00  0.00     0.060 A 
ATOM     41  C   UNL A   1      35.305  29.407  27.602  1.00  0.00     0.016 A 
ATOM     42  C   UNL A   1      35.297  31.821  27.882  1.00  0.00     0.016 A 
ATOM     43  C   UNL A   1      36.619  29.344  28.060  1.00  0.00     0.010 A 
ATOM     44  C   UNL A   1      36.598  31.751  28.384  1.00  0.00     0.010 A 
ATOM     45  C   UNL A   1      37.255  30.511  28.495  1.00  0.00    -0.014 A 
BRANCH  45  46
ATOM     46  C   UNL A   1      38.522  30.416  29.254  1.00  0.00     0.031 A 
ATOM     47  C   UNL A   1      39.634  29.591  28.673  1.00  0.00     0.074 A 
ATOM     48  C   UNL A   1      38.680  31.040  30.434  1.00  0.00     0.049 A 
ATOM     49  N   UNL A   1      40.807  29.316  29.175  1.00  0.00    -0.248 NA
ATOM     50  C   UNL A   1      39.390  28.996  27.346  1.00  0.00     0.031 C 
ATOM     51  C   UNL A   1      37.686  31.895  31.075  1.00  0.00     0.029 A 
ATOM     52  N   UNL A   1      39.737  31.031  31.310  1.00  0.00    -0.354 N 
ATOM     53  C   UNL A   1      41.439  28.515  28.234  1.00  0.00     0.074 A 
ATOM     54  C   UNL A   1      40.515  28.327  27.140  1.00  0.00     0.031 C 
ATOM     55  C   UNL A   1      38.169  32.308  32.259  1.00  0.00     0.029 A 
ATOM     56  C   UNL A   1      39.494  31.723  32.473  1.00  0.00     0.049 A 
ATOM     57  H   UNL A   1      40.588  30.572  31.125  1.00  0.00     0.167 HD
ATOM     58  C   UNL A   1      42.684  27.990  28.280  1.00  0.00     0.034 A 
ATOM     59  C   UNL A   1      40.242  31.848  33.590  1.00  0.00     0.034 A 
ATOM     60  C   UNL A   1      43.595  28.178  29.376  1.00  0.00     0.049 A 
ATOM     61  C   UNL A   1      41.607  31.203  33.642  1.00  0.00     0.074 A 
ATOM     62  C   UNL A   1      44.889  27.706  29.496  1.00  0.00     0.029 A 
ATOM     63  N   UNL A   1      43.313  28.881  30.537  1.00  0.00    -0.354 N 
ATOM     64  N   UNL A   1      42.223  30.501  32.719  1.00  0.00    -0.248 NA
ATOM     65  C   UNL A   1      42.385  31.370  34.879  1.00  0.00     0.031 C 
ATOM     66  C   UNL A   1      45.368  28.067  30.754  1.00  0.00     0.029 A 
ATOM     67  C   UNL A   1      44.401  28.830  31.390  1.00  0.00     0.049 A 
ATOM     68  H   UNL A   1      42.466  29.346  30.726  1.00  0.00     0.167 HD
ATOM     69  C   UNL A   1      43.467  30.173  33.251  1.00  0.00     0.074 A 
ATOM     70  C   UNL A   1      43.524  30.763  34.571  1.00  0.00     0.031 C 
ATOM     71  C   UNL A   1      44.468  29.446  32.693  1.00  0.00     0.034 A 
BRANCH  58  72
ATOM     72  C   UNL A   1      43.160  27.160  27.121  1.00  0.00     0.023 A 
ATOM     73  C   UNL A   1      42.790  25.806  27.035  1.00  0.00     0.031 A 
ATOM     74  C   UNL A   1      44.096  27.662  26.200  1.00  0.00     0.131 A 
ATOM     75  C   UNL A   1      43.398  24.983  26.082  1.00  0.00     0.055 A 
ATOM     76  C   UNL A   1      44.668  26.845  25.226  1.00  0.00     0.041 A 
ATOM     77  F   UNL A   1      44.468  28.951  26.241  1.00  0.00    -0.206 F 
ATOM     78  C   UNL A   1      44.332  25.495  25.174  1.00  0.00     0.022 A 
BRANCH  75  79
ATOM     79  S   UNL A   1      43.041  23.207  26.023  1.00  0.00     0.124 S 
ATOM     80  O   UNL A   1      43.105  22.932  24.590  1.00  0.00    -0.237 OA
ATOM     81  O   UNL A   1      44.136  22.652  26.814  1.00  0.00    -0.237 OA
ATOM     82  O   UNL A   1      41.713  23.097  26.615  1.00  0.00    -0.744 OA
ENDBRANCH  75  79
ENDBRANCH  58  72
BRANCH  59  83
ATOM     83  C   UNL A   1      39.713  32.641  34.736  1.00  0.00     0.023 A 
ATOM     84  C   UNL A   1      39.119  32.005  35.840  1.00  0.00     0.031 A 
ATOM     85  C   UNL A   1      39.727  34.045  34.710  1.00  0.00     0.131 A 
ATOM     86  C   UNL A   1      38.514  32.771  36.845  1.00  0.00     0.055 A 
ATOM     87  C   UNL A   1      39.176  34.806  35.743  1.00  0.00     0.041 A 
ATOM     88  F   UNL A   1      40.280  34.697  33.676  1.00  0.00    -0.206 F 
ATOM     89  C   UNL A   1      38.553  34.167  36.812  1.00  0.00     0.022 A 
BRANCH  86  90
ATOM     90  S   UNL A   1      37.583  31.978  38.185  1.00  0.00     0.124 S 
ATOM     91  O   UNL A   1      36.350  32.760  38.205  1.00  0.00    -0.237 OA
ATOM     92  O   UNL A   1      37.455  30.611  37.687  1.00  0.00    -0.237 OA
ATOM     93  O   UNL A   1      38.447  32.139  39.349  1.00  0.00    -0.744 OA
ENDBRANCH  86  90
ENDBRANCH  59  83
BRANCH  71  94
ATOM     94  C   UNL A   1      45.748  29.244  33.467  1.00  0.00     0.023 A 
ATOM     95  C   UNL A   1      46.839  30.107  33.248  1.00  0.00     0.031 A 
ATOM     96  C   UNL A   1      45.949  28.107  34.268  1.00  0.00     0.131 A 
ATOM     97  C   UNL A   1      48.095  29.794  33.780  1.00  0.00     0.055 A 
ATOM     98  C   UNL A   1      47.192  27.825  34.836  1.00  0.00     0.041 A 
ATOM     99  F   UNL A   1      44.943  27.248  34.495  1.00  0.00    -0.206 F 
ATOM    100  C   UNL A   1      48.276  28.661  34.581  1.00  0.00     0.022 A 
BRANCH  97 101
ATOM    101  S   UNL A   1      49.554  30.800  33.390  1.00  0.00     0.124 S 
ATOM    102  O   UNL A   1      48.948  32.035  32.897  1.00  0.00    -0.237 OA
ATOM    103  O   UNL A   1      50.211  30.903  34.690  1.00  0.00    -0.237 OA
ATOM    104  O   UNL A   1      50.264  30.015  32.386  1.00  0.00    -0.744 OA
ENDBRANCH  97 101
ENDBRANCH  71  94
ENDBRANCH  45  46
ENDBRANCH  38  40
ENDBRANCH  37  38
ENDBRANCH  36  37
ENDBRANCH  35  36
ENDBRANCH  34  35
ENDBRANCH   1  34
TORSDOF 21
ENDMDL
MODEL 3
REMARK VINA RESULT:     -11.3      2.251      2.685
REMARK SMILES CC1(C)[C@H](O)CC[C@]2(C)[C@@H]1CC[C@]1(C)Oc3oc(C(=O)OCCOCCOCCOC(=O)c4ccc(-c5c6nc(c(-c7cc(S(=O)(=O)[O-])ccc7F)c7ccc([nH]7)c(-c7cc(S(=O)(=O)[O-])ccc7F)c7nc(c(-c8cc(S(=O)(=O)[O-])ccc8F)c8ccc5[nH]8)C=C7)C=C6)cc4)cc(=O)c3C[C@H]21
REMARK SMILES IDX 26 1 25 2 24 3 23 4 22 5 21 6 19 7 20 8 18 9 1 10 2 11 3 12
REMARK SMILES IDX 4 13 10 14 6 15 8 16 11 17 7 18 9 19 101 20 12 21 13 22
REMARK SMILES IDX 100 23 14 24 15 25 99 26 16 27 97 28 17 29 96 30 98 31 5 32
REMARK SMILES IDX 27 34 28 35 29 36 30 37 31 38 32 39 33 40 34 41 95 42 35 43
REMARK SMILES IDX 94 44 36 45 37 46 38 47 88 48 39 49 93 50 87 51 89 52 40 53
REMARK SMILES IDX 92 54 86 55 85 56 41 58 73 59 53 60 72 61 54 62 57 63 71 64
REMARK SMILES IDX 90 65 55 66 56 67 70 69 91 70 58 71 42 72 43 73 51 74 44 75
REMARK SMILES IDX 50 76 52 77 49 78 45 79 46 80 47 81 48 82 74 83 75 84 83 85
REMARK SMILES IDX 76 86 82 87 84 88 81 89 77 90 78 91 79 92 80 93 59 94 60 95
REMARK SMILES IDX 68 96 61 97 67 98 69 99 66 100 62 101 63 102 64 103 65 104
REMARK H PARENT 5 33 89 57 57 68
REMARK Flexibility Score: inf
ROOT
ATOM      1  C   UNL A   1      29.642  26.136  25.660  1.00  0.00     0.188 C 
ENDROOT
BRANCH   1   2
ATOM      2  C   UNL A   1      29.051  26.366  24.251  1.00  0.00     0.188 C 
BRANCH   2   3
ATOM      3  O   UNL A   1      27.942  27.222  24.092  1.00  0.00    -0.376 OA
BRANCH   3   4
ATOM      4  C   UNL A   1      27.934  28.219  23.087  1.00  0.00     0.202 C 
BRANCH   4   5
ATOM      5  C   UNL A   1      28.168  29.709  23.377  1.00  0.00     0.261 C 
BRANCH   5   6
ATOM      6  O   UNL A   1      29.513  30.171  23.210  1.00  0.00    -0.457 OA
BRANCH   6   7
ATOM      7  C   UNL A   1      30.165  29.771  22.079  1.00  0.00     0.374 C 
ATOM      8  O   UNL A   1      30.022  30.235  20.961  1.00  0.00    -0.242 OA
BRANCH   7   9
ATOM      9  C   UNL A   1      31.169  28.729  22.426  1.00  0.00     0.219 A 
ATOM     10  C   UNL A   1      36.730  21.956  24.897  1.00  0.00     0.014 C 
ATOM     11  C   UNL A   1      35.247  21.536  25.148  1.00  0.00    -0.006 C 
ATOM     12  C   UNL A   1      35.144  20.062  24.692  1.00  0.00     0.014 C 
ATOM     13  C   UNL A   1      35.047  21.621  26.693  1.00  0.00     0.120 C 
ATOM     14  C   UNL A   1      34.307  22.529  24.323  1.00  0.00     0.004 C 
ATOM     15  C   UNL A   1      34.873  23.043  27.249  1.00  0.00     0.033 C 
ATOM     16  C   UNL A   1      33.372  23.450  25.182  1.00  0.00    -0.022 C 
ATOM     17  C   UNL A   1      33.617  21.980  23.055  1.00  0.00     0.009 C 
ATOM     18  C   UNL A   1      34.296  24.067  26.263  1.00  0.00     0.010 C 
ATOM     19  C   UNL A   1      32.183  22.784  25.927  1.00  0.00     0.012 C 
ATOM     20  C   UNL A   1      32.728  24.550  24.253  1.00  0.00     0.044 C 
ATOM     21  C   UNL A   1      32.978  23.096  22.185  1.00  0.00     0.049 C 
ATOM     22  C   UNL A   1      32.007  24.014  22.969  1.00  0.00     0.113 C 
ATOM     23  C   UNL A   1      33.720  25.650  23.815  1.00  0.00     0.055 C 
ATOM     24  C   UNL A   1      30.718  23.205  23.223  1.00  0.00     0.057 C 
ATOM     25  O   UNL A   1      31.519  25.105  22.124  1.00  0.00    -0.458 OA
ATOM     26  C   UNL A   1      32.925  26.713  23.153  1.00  0.00     0.081 A 
ATOM     27  C   UNL A   1      31.830  26.419  22.441  1.00  0.00     0.292 A 
ATOM     28  C   UNL A   1      33.265  28.119  23.434  1.00  0.00     0.192 A 
ATOM     29  O   UNL A   1      30.939  27.413  22.031  1.00  0.00    -0.418 OA
ATOM     30  C   UNL A   1      32.271  29.127  23.071  1.00  0.00     0.107 A 
ATOM     31  O   UNL A   1      34.312  28.449  23.978  1.00  0.00    -0.289 OA
BRANCH  13  32
ATOM     32  O   UNL A   1      33.989  20.782  27.162  1.00  0.00    -0.393 OA
ATOM     33  H   UNL A   1      33.136  21.146  26.876  1.00  0.00     0.210 HD
ENDBRANCH  13  32
ENDBRANCH   7   9
ENDBRANCH   6   7
ENDBRANCH   5   6
ENDBRANCH   4   5
ENDBRANCH   3   4
ENDBRANCH   2   3
ENDBRANCH   1   2
BRANCH   1  34
ATOM     34  O   UNL A   1      30.951  26.563  25.965  1.00  0.00    -0.376 OA
BRANCH  34  35
ATOM     35  C   UNL A   1      31.175  27.924  26.295  1.00  0.00     0.202 C 
BRANCH  35  36
ATOM     36  C   UNL A   1      32.094  28.383  27.442  1.00  0.00     0.261 C 
BRANCH  36  37
ATOM     37  O   UNL A   1      33.481  28.561  27.131  1.00  0.00    -0.460 OA
BRANCH  37  38
ATOM     38  C   UNL A   1      33.971  29.813  27.317  1.00  0.00     0.338 C 
ATOM     39  O   UNL A   1      33.383  30.870  27.143  1.00  0.00    -0.246 OA
BRANCH  38  40
ATOM     40  C   UNL A   1      35.300  29.719  27.946  1.00  0.00     0.060 A 
ATOM     41  C   UNL A   1      36.449  29.859  27.153  1.00  0.00     0.016 A 
ATOM     42  C   UNL A   1      35.407  29.469  29.314  1.00  0.00     0.016 A 
ATOM     43  C   UNL A   1      37.713  29.761  27.729  1.00  0.00     0.010 A 
ATOM     44  C   UNL A   1      36.675  29.325  29.881  1.00  0.00     0.010 A 
ATOM     45  C   UNL A   1      37.830  29.449  29.087  1.00  0.00    -0.014 A 
BRANCH  45  46
ATOM     46  C   UNL A   1      39.145  29.050  29.636  1.00  0.00     0.031 A 
ATOM     47  C   UNL A   1      39.854  27.888  29.000  1.00  0.00     0.074 A 
ATOM     48  C   UNL A   1      39.694  29.696  30.679  1.00  0.00     0.049 A 
ATOM     49  N   UNL A   1      40.981  27.324  29.339  1.00  0.00    -0.248 NA
ATOM     50  C   UNL A   1      39.203  27.282  27.825  1.00  0.00     0.031 C 
ATOM     51  C   UNL A   1      39.117  30.856  31.350  1.00  0.00     0.029 A 
ATOM     52  N   UNL A   1      40.858  29.450  31.365  1.00  0.00    -0.354 N 
ATOM     53  C   UNL A   1      41.174  26.296  28.426  1.00  0.00     0.074 A 
ATOM     54  C   UNL A   1      40.039  26.297  27.532  1.00  0.00     0.031 C 
ATOM     55  C   UNL A   1      39.915  31.207  32.373  1.00  0.00     0.029 A 
ATOM     56  C   UNL A   1      41.045  30.278  32.446  1.00  0.00     0.049 A 
ATOM     57  H   UNL A   1      41.499  28.748  31.109  1.00  0.00     0.167 HD
ATOM     58  C   UNL A   1      42.212  25.434  28.340  1.00  0.00     0.034 A 
ATOM     59  C   UNL A   1      42.001  30.272  33.399  1.00  0.00     0.034 A 
ATOM     60  C   UNL A   1      43.335  25.438  29.238  1.00  0.00     0.049 A 
ATOM     61  C   UNL A   1      43.120  29.260  33.317  1.00  0.00     0.074 A 
ATOM     62  C   UNL A   1      44.448  24.617  29.209  1.00  0.00     0.029 A 
ATOM     63  N   UNL A   1      43.488  26.287  30.322  1.00  0.00    -0.354 N 
ATOM     64  N   UNL A   1      43.329  28.333  32.411  1.00  0.00    -0.248 NA
ATOM     65  C   UNL A   1      44.140  29.294  34.377  1.00  0.00     0.031 C 
ATOM     66  C   UNL A   1      45.243  24.926  30.311  1.00  0.00     0.029 A 
ATOM     67  C   UNL A   1      44.665  25.990  30.986  1.00  0.00     0.049 A 
ATOM     68  H   UNL A   1      42.854  26.995  30.581  1.00  0.00     0.167 HD
ATOM     69  C   UNL A   1      44.515  27.699  32.773  1.00  0.00     0.074 A 
ATOM     70  C   UNL A   1      44.987  28.356  33.973  1.00  0.00     0.031 C 
ATOM     71  C   UNL A   1      45.150  26.666  32.165  1.00  0.00     0.034 A 
BRANCH  58  72
ATOM     72  C   UNL A   1      42.208  24.407  27.243  1.00  0.00     0.023 A 
ATOM     73  C   UNL A   1      41.586  23.164  27.455  1.00  0.00     0.031 A 
ATOM     74  C   UNL A   1      42.947  24.597  26.063  1.00  0.00     0.131 A 
ATOM     75  C   UNL A   1      41.761  22.135  26.524  1.00  0.00     0.055 A 
ATOM     76  C   UNL A   1      43.084  23.580  25.119  1.00  0.00     0.041 A 
ATOM     77  F   UNL A   1      43.548  25.772  25.817  1.00  0.00    -0.206 F 
ATOM     78  C   UNL A   1      42.503  22.337  25.355  1.00  0.00     0.022 A 
BRANCH  75  79
ATOM     79  S   UNL A   1      41.080  20.482  26.824  1.00  0.00     0.124 S 
ATOM     80  O   UNL A   1      39.873  20.497  26.001  1.00  0.00    -0.237 OA
ATOM     81  O   UNL A   1      42.155  19.620  26.340  1.00  0.00    -0.237 OA
ATOM     82  O   UNL A   1      40.845  20.456  28.263  1.00  0.00    -0.744 OA
ENDBRANCH  75  79
ENDBRANCH  58  72
BRANCH  59  83
ATOM     83  C   UNL A   1      41.943  31.278  34.497  1.00  0.00     0.023 A 
ATOM     84  C   UNL A   1      42.561  32.534  34.358  1.00  0.00     0.031 A 
ATOM     85  C   UNL A   1      41.333  30.973  35.725  1.00  0.00     0.131 A 
ATOM     86  C   UNL A   1      42.605  33.415  35.446  1.00  0.00     0.055 A 
ATOM     87  C   UNL A   1      41.326  31.878  36.788  1.00  0.00     0.041 A 
ATOM     88  F   UNL A   1      40.732  29.787  35.905  1.00  0.00    -0.206 F 
ATOM     89  C   UNL A   1      41.977  33.102  36.655  1.00  0.00     0.022 A 
BRANCH  86  90
ATOM     90  S   UNL A   1      43.551  34.959  35.355  1.00  0.00     0.124 S 
ATOM     91  O   UNL A   1      44.106  35.059  36.702  1.00  0.00    -0.237 OA
ATOM     92  O   UNL A   1      44.513  34.654  34.299  1.00  0.00    -0.237 OA
ATOM     93  O   UNL A   1      42.547  35.960  35.014  1.00  0.00    -0.744 OA
ENDBRANCH  86  90
ENDBRANCH  59  83
BRANCH  71  94
ATOM     94  C   UNL A   1      46.450  26.162  32.741  1.00  0.00     0.023 A 
ATOM     95  C   UNL A   1      47.667  26.499  32.115  1.00  0.00     0.031 A 
ATOM     96  C   UNL A   1      46.475  25.215  33.778  1.00  0.00     0.131 A 
ATOM     97  C   UNL A   1      48.850  25.856  32.497  1.00  0.00     0.055 A 
ATOM     98  C   UNL A   1      47.665  24.612  34.187  1.00  0.00     0.041 A 
ATOM     99  F   UNL A   1      45.340  24.853  34.396  1.00  0.00    -0.206 F 
ATOM    100  C   UNL A   1      48.857  24.919  33.536  1.00  0.00     0.022 A 
BRANCH  97 101
ATOM    101  S   UNL A   1      50.405  26.151  31.609  1.00  0.00     0.124 S 
ATOM    102  O   UNL A   1      50.371  25.110  30.583  1.00  0.00    -0.237 OA
ATOM    103  O   UNL A   1      50.224  27.515  31.121  1.00  0.00    -0.237 OA
ATOM    104  O   UNL A   1      51.432  25.979  32.631  1.00  0.00    -0.744 OA
ENDBRANCH  97 101
ENDBRANCH  71  94
ENDBRANCH  45  46
ENDBRANCH  38  40
ENDBRANCH  37  38
ENDBRANCH  36  37
ENDBRANCH  35  36
ENDBRANCH  34  35
ENDBRANCH   1  34
TORSDOF 21
ENDMDL
