MODEL 1
REMARK VINA RESULT:     -10.2      0.000      0.000
REMARK SMILES CC(C)[N@@H+]1CC[C@@H]([N@@H+]2CC[C@@H](C(=O)OCCOCCOCCOC(=O)c3ccc(-c4c5nc(c(-c6cc(S(=O)(=O)[O-])ccc6F)c6ccc([nH]6)c(-c6cc(S(=O)(=O)[O-])ccc6F)c6nc(c(-c7cc(S(=O)(=O)[O-])ccc7F)c7ccc4[nH]7)C=C6)C=C5)cc3)[C@H]2C)C1
REMARK SMILES IDX 19 1 18 2 17 3 16 4 15 5 14 6 12 7 13 8 11 9 8 10 9 11 89 12
REMARK SMILES IDX 10 14 90 15 7 16 4 17 5 18 91 19 6 21 2 22 1 23 3 24 20 25
REMARK SMILES IDX 21 26 22 27 23 28 24 29 25 30 26 31 27 32 88 33 28 34 87 35
REMARK SMILES IDX 29 36 30 37 31 38 81 39 32 40 86 41 80 42 82 43 33 44 85 45
REMARK SMILES IDX 79 46 78 47 34 49 66 50 46 51 65 52 47 53 50 54 64 55 83 56
REMARK SMILES IDX 48 57 49 58 63 60 84 61 51 62 35 63 36 64 44 65 37 66 43 67
REMARK SMILES IDX 45 68 42 69 38 70 39 71 40 72 41 73 67 74 68 75 76 76 69 77
REMARK SMILES IDX 75 78 77 79 74 80 70 81 71 82 72 83 73 84 52 85 53 86 61 87
REMARK SMILES IDX 54 88 60 89 62 90 59 91 55 92 56 93 57 94 58 95
REMARK H PARENT 8 13 4 20 82 48 50 59
REMARK Flexibility Score: inf
ROOT
ATOM      1  C   UNL A   1      34.656  20.030  24.862  1.00  0.00     0.188 C 
ENDROOT
BRANCH   1   2
ATOM      2  C   UNL A   1      33.279  19.888  25.522  1.00  0.00     0.188 C 
BRANCH   2   3
ATOM      3  O   UNL A   1      32.702  21.084  26.038  1.00  0.00    -0.376 OA
BRANCH   3   4
ATOM      4  C   UNL A   1      31.536  21.565  25.368  1.00  0.00     0.202 C 
BRANCH   4   5
ATOM      5  C   UNL A   1      31.546  23.045  24.953  1.00  0.00     0.261 C 
BRANCH   5   6
ATOM      6  O   UNL A   1      32.104  23.913  25.959  1.00  0.00    -0.463 OA
BRANCH   6   7
ATOM      7  C   UNL A   1      32.947  24.890  25.520  1.00  0.00     0.315 C 
ATOM      8  O   UNL A   1      34.166  24.839  25.636  1.00  0.00    -0.252 OA
BRANCH   7   9
ATOM      9  C   UNL A   1      32.216  26.105  24.952  1.00  0.00     0.162 C 
ATOM     10  N   UNL A   1      30.938  26.518  22.921  1.00  0.00    -0.325 N 
ATOM     11  C   UNL A   1      30.023  26.017  23.937  1.00  0.00     0.264 C 
ATOM     12  C   UNL A   1      32.314  26.301  23.418  1.00  0.00     0.195 C 
ATOM     13  H   UNL A   1      30.784  25.979  22.069  1.00  0.00     0.348 HD
ATOM     14  C   UNL A   1      30.722  26.218  25.264  1.00  0.00     0.083 C 
ATOM     15  C   UNL A   1      32.906  25.150  22.603  1.00  0.00     0.076 C 
BRANCH  10  16
ATOM     16  C   UNL A   1      30.667  27.863  22.380  1.00  0.00     0.245 C 
ATOM     17  N   UNL A   1      29.483  29.669  23.533  1.00  0.00    -0.328 N 
ATOM     18  C   UNL A   1      30.897  29.724  23.884  1.00  0.00     0.269 C 
ATOM     19  C   UNL A   1      29.269  28.428  22.760  1.00  0.00     0.328 C 
ATOM     20  H   UNL A   1      28.952  29.642  24.403  1.00  0.00     0.348 HD
ATOM     21  C   UNL A   1      31.626  28.979  22.788  1.00  0.00     0.132 C 
BRANCH  17  22
ATOM     22  C   UNL A   1      28.866  30.879  22.964  1.00  0.00     0.177 C 
ATOM     23  C   UNL A   1      28.800  30.825  21.428  1.00  0.00     0.075 C 
ATOM     24  C   UNL A   1      27.482  31.254  23.509  1.00  0.00     0.075 C 
ENDBRANCH  17  22
ENDBRANCH  10  16
ENDBRANCH   7   9
ENDBRANCH   6   7
ENDBRANCH   5   6
ENDBRANCH   4   5
ENDBRANCH   3   4
ENDBRANCH   2   3
ENDBRANCH   1   2
BRANCH   1  25
ATOM     25  O   UNL A   1      34.921  21.325  24.331  1.00  0.00    -0.376 OA
BRANCH  25  26
ATOM     26  C   UNL A   1      36.204  21.880  24.642  1.00  0.00     0.202 C 
BRANCH  26  27
ATOM     27  C   UNL A   1      37.243  20.891  25.206  1.00  0.00     0.261 C 
BRANCH  27  28
ATOM     28  O   UNL A   1      38.602  21.349  25.054  1.00  0.00    -0.460 OA
BRANCH  28  29
ATOM     29  C   UNL A   1      39.447  21.031  26.065  1.00  0.00     0.338 C 
ATOM     30  O   UNL A   1      39.924  19.927  26.273  1.00  0.00    -0.246 OA
BRANCH  29  31
ATOM     31  C   UNL A   1      39.902  22.281  26.726  1.00  0.00     0.060 A 
ATOM     32  C   UNL A   1      39.190  23.455  26.456  1.00  0.00     0.016 A 
ATOM     33  C   UNL A   1      40.975  22.309  27.626  1.00  0.00     0.016 A 
ATOM     34  C   UNL A   1      39.584  24.664  27.031  1.00  0.00     0.010 A 
ATOM     35  C   UNL A   1      41.373  23.524  28.201  1.00  0.00     0.010 A 
ATOM     36  C   UNL A   1      40.704  24.716  27.873  1.00  0.00    -0.014 A 
BRANCH  36  37
ATOM     37  C   UNL A   1      41.309  26.039  28.174  1.00  0.00     0.031 A 
ATOM     38  C   UNL A   1      42.702  26.304  27.666  1.00  0.00     0.074 A 
ATOM     39  C   UNL A   1      40.632  27.019  28.800  1.00  0.00     0.049 A 
ATOM     40  N   UNL A   1      43.422  27.394  27.727  1.00  0.00    -0.248 NA
ATOM     41  C   UNL A   1      43.364  25.178  26.988  1.00  0.00     0.031 C 
ATOM     42  C   UNL A   1      39.258  26.927  29.284  1.00  0.00     0.029 A 
ATOM     43  N   UNL A   1      41.017  28.300  29.117  1.00  0.00    -0.354 N 
ATOM     44  C   UNL A   1      44.609  27.098  27.064  1.00  0.00     0.074 A 
ATOM     45  C   UNL A   1      44.536  25.705  26.676  1.00  0.00     0.031 C 
ATOM     46  C   UNL A   1      38.910  28.106  29.830  1.00  0.00     0.029 A 
ATOM     47  C   UNL A   1      40.044  29.029  29.757  1.00  0.00     0.049 A 
ATOM     48  H   UNL A   1      41.908  28.661  28.905  1.00  0.00     0.167 HD
ATOM     49  C   UNL A   1      45.656  27.912  26.779  1.00  0.00     0.034 A 
ATOM     50  C   UNL A   1      40.068  30.293  30.231  1.00  0.00     0.034 A 
ATOM     51  C   UNL A   1      45.754  29.282  27.214  1.00  0.00     0.049 A 
ATOM     52  C   UNL A   1      41.314  31.133  30.057  1.00  0.00     0.074 A 
ATOM     53  C   UNL A   1      46.787  30.181  27.011  1.00  0.00     0.029 A 
ATOM     54  N   UNL A   1      44.793  29.949  27.964  1.00  0.00    -0.354 N 
ATOM     55  N   UNL A   1      42.431  30.843  29.429  1.00  0.00    -0.248 NA
ATOM     56  C   UNL A   1      41.297  32.476  30.656  1.00  0.00     0.031 C 
ATOM     57  C   UNL A   1      46.486  31.361  27.702  1.00  0.00     0.029 A 
ATOM     58  C   UNL A   1      45.228  31.232  28.266  1.00  0.00     0.049 A 
ATOM     59  H   UNL A   1      43.929  29.566  28.242  1.00  0.00     0.167 HD
ATOM     60  C   UNL A   1      43.228  31.985  29.522  1.00  0.00     0.074 A 
ATOM     61  C   UNL A   1      42.465  32.964  30.265  1.00  0.00     0.031 C 
ATOM     62  C   UNL A   1      44.471  32.205  29.020  1.00  0.00     0.034 A 
BRANCH  49  63
ATOM     63  C   UNL A   1      46.799  27.293  26.011  1.00  0.00     0.023 A 
ATOM     64  C   UNL A   1      47.823  26.585  26.667  1.00  0.00     0.031 A 
ATOM     65  C   UNL A   1      46.918  27.492  24.625  1.00  0.00     0.131 A 
ATOM     66  C   UNL A   1      48.966  26.192  25.956  1.00  0.00     0.055 A 
ATOM     67  C   UNL A   1      48.015  27.015  23.907  1.00  0.00     0.041 A 
ATOM     68  F   UNL A   1      45.985  28.183  23.951  1.00  0.00    -0.206 F 
ATOM     69  C   UNL A   1      49.059  26.380  24.575  1.00  0.00     0.022 A 
BRANCH  66  70
ATOM     70  S   UNL A   1      50.411  25.616  26.892  1.00  0.00     0.124 S 
ATOM     71  O   UNL A   1      51.357  25.314  25.820  1.00  0.00    -0.237 OA
ATOM     72  O   UNL A   1      50.730  26.771  27.722  1.00  0.00    -0.237 OA
ATOM     73  O   UNL A   1      49.907  24.448  27.612  1.00  0.00    -0.744 OA
ENDBRANCH  66  70
ENDBRANCH  49  63
BRANCH  50  74
ATOM     74  C   UNL A   1      38.887  30.857  30.950  1.00  0.00     0.023 A 
ATOM     75  C   UNL A   1      37.882  31.554  30.259  1.00  0.00     0.031 A 
ATOM     76  C   UNL A   1      38.790  30.771  32.348  1.00  0.00     0.131 A 
ATOM     77  C   UNL A   1      36.846  32.177  30.975  1.00  0.00     0.055 A 
ATOM     78  C   UNL A   1      37.731  31.350  33.051  1.00  0.00     0.041 A 
ATOM     79  F   UNL A   1      39.729  30.123  33.057  1.00  0.00    -0.206 F 
ATOM     80  C   UNL A   1      36.757  32.067  32.364  1.00  0.00     0.022 A 
BRANCH  77  81
ATOM     81  S   UNL A   1      35.650  33.197  30.067  1.00  0.00     0.124 S 
ATOM     82  O   UNL A   1      36.248  33.243  28.738  1.00  0.00    -0.237 OA
ATOM     83  O   UNL A   1      34.425  32.416  30.194  1.00  0.00    -0.237 OA
ATOM     84  O   UNL A   1      35.658  34.462  30.800  1.00  0.00    -0.744 OA
ENDBRANCH  77  81
ENDBRANCH  50  74
BRANCH  62  85
ATOM     85  C   UNL A   1      45.067  33.582  29.211  1.00  0.00     0.023 A 
ATOM     86  C   UNL A   1      45.889  33.898  30.307  1.00  0.00     0.031 A 
ATOM     87  C   UNL A   1      44.807  34.596  28.269  1.00  0.00     0.131 A 
ATOM     88  C   UNL A   1      46.383  35.204  30.460  1.00  0.00     0.055 A 
ATOM     89  C   UNL A   1      45.347  35.877  28.396  1.00  0.00     0.041 A 
ATOM     90  F   UNL A   1      44.029  34.355  27.202  1.00  0.00    -0.206 F 
ATOM     91  C   UNL A   1      46.130  36.191  29.502  1.00  0.00     0.022 A 
BRANCH  88  92
ATOM     92  S   UNL A   1      47.297  35.626  31.970  1.00  0.00     0.124 S 
ATOM     93  O   UNL A   1      48.179  36.691  31.505  1.00  0.00    -0.237 OA
ATOM     94  O   UNL A   1      46.229  36.032  32.878  1.00  0.00    -0.237 OA
ATOM     95  O   UNL A   1      47.968  34.377  32.326  1.00  0.00    -0.744 OA
ENDBRANCH  88  92
ENDBRANCH  62  85
ENDBRANCH  36  37
ENDBRANCH  29  31
ENDBRANCH  28  29
ENDBRANCH  27  28
ENDBRANCH  26  27
ENDBRANCH  25  26
ENDBRANCH   1  25
TORSDOF 22
ENDMDL
MODEL 2
REMARK VINA RESULT:     -10.0      5.446     10.889
REMARK SMILES CC(C)[N@@H+]1CC[C@@H]([N@@H+]2CC[C@@H](C(=O)OCCOCCOCCOC(=O)c3ccc(-c4c5nc(c(-c6cc(S(=O)(=O)[O-])ccc6F)c6ccc([nH]6)c(-c6cc(S(=O)(=O)[O-])ccc6F)c6nc(c(-c7cc(S(=O)(=O)[O-])ccc7F)c7ccc4[nH]7)C=C6)C=C5)cc3)[C@H]2C)C1
REMARK SMILES IDX 19 1 18 2 17 3 16 4 15 5 14 6 12 7 13 8 11 9 8 10 9 11 89 12
REMARK SMILES IDX 10 14 90 15 7 16 4 17 5 18 91 19 6 21 2 22 1 23 3 24 20 25
REMARK SMILES IDX 21 26 22 27 23 28 24 29 25 30 26 31 27 32 88 33 28 34 87 35
REMARK SMILES IDX 29 36 30 37 31 38 81 39 32 40 86 41 80 42 82 43 33 44 85 45
REMARK SMILES IDX 79 46 78 47 34 49 66 50 46 51 65 52 47 53 50 54 64 55 83 56
REMARK SMILES IDX 48 57 49 58 63 60 84 61 51 62 35 63 36 64 44 65 37 66 43 67
REMARK SMILES IDX 45 68 42 69 38 70 39 71 40 72 41 73 67 74 68 75 76 76 69 77
REMARK SMILES IDX 75 78 77 79 74 80 70 81 71 82 72 83 73 84 52 85 53 86 61 87
REMARK SMILES IDX 54 88 60 89 62 90 59 91 55 92 56 93 57 94 58 95
REMARK H PARENT 8 13 4 20 82 48 50 59
REMARK Flexibility Score: inf
ROOT
ATOM      1  C   UNL A   1      35.577  33.323  28.119  1.00  0.00     0.188 C 
ENDROOT
BRANCH   1   2
ATOM      2  C   UNL A   1      35.312  31.836  28.390  1.00  0.00     0.188 C 
BRANCH   2   3
ATOM      3  O   UNL A   1      36.287  30.924  27.893  1.00  0.00    -0.376 OA
BRANCH   3   4
ATOM      4  C   UNL A   1      35.791  29.686  27.379  1.00  0.00     0.202 C 
BRANCH   4   5
ATOM      5  C   UNL A   1      34.266  29.573  27.220  1.00  0.00     0.261 C 
BRANCH   5   6
ATOM      6  O   UNL A   1      33.755  28.268  27.555  1.00  0.00    -0.463 OA
BRANCH   6   7
ATOM      7  C   UNL A   1      33.335  27.494  26.514  1.00  0.00     0.315 C 
ATOM      8  O   UNL A   1      34.021  26.621  25.994  1.00  0.00    -0.252 OA
BRANCH   7   9
ATOM      9  C   UNL A   1      31.953  27.887  25.993  1.00  0.00     0.162 C 
ATOM     10  N   UNL A   1      30.915  27.911  23.791  1.00  0.00    -0.325 N 
ATOM     11  C   UNL A   1      30.694  26.598  24.380  1.00  0.00     0.264 C 
ATOM     12  C   UNL A   1      31.923  28.606  24.621  1.00  0.00     0.195 C 
ATOM     13  H   UNL A   1      31.274  27.773  22.846  1.00  0.00     0.348 HD
ATOM     14  C   UNL A   1      30.920  26.765  25.867  1.00  0.00     0.083 C 
ATOM     15  C   UNL A   1      33.223  28.630  23.816  1.00  0.00     0.076 C 
BRANCH  10  16
ATOM     16  C   UNL A   1      29.718  28.705  23.456  1.00  0.00     0.245 C 
ATOM     17  N   UNL A   1      29.688  31.063  22.801  1.00  0.00    -0.328 N 
ATOM     18  C   UNL A   1      29.890  30.240  21.615  1.00  0.00     0.269 C 
ATOM     19  C   UNL A   1      29.764  30.170  23.975  1.00  0.00     0.328 C 
ATOM     20  H   UNL A   1      30.440  31.751  22.827  1.00  0.00     0.348 HD
ATOM     21  C   UNL A   1      29.382  28.862  21.975  1.00  0.00     0.132 C 
BRANCH  17  22
ATOM     22  C   UNL A   1      28.558  32.007  22.800  1.00  0.00     0.177 C 
ATOM     23  C   UNL A   1      27.453  31.585  23.783  1.00  0.00     0.075 C 
ATOM     24  C   UNL A   1      28.907  33.481  23.047  1.00  0.00     0.075 C 
ENDBRANCH  17  22
ENDBRANCH  10  16
ENDBRANCH   7   9
ENDBRANCH   6   7
ENDBRANCH   5   6
ENDBRANCH   4   5
ENDBRANCH   3   4
ENDBRANCH   2   3
ENDBRANCH   1   2
BRANCH   1  25
ATOM     25  O   UNL A   1      34.890  34.210  28.996  1.00  0.00    -0.376 OA
BRANCH  25  26
ATOM     26  C   UNL A   1      33.816  34.959  28.417  1.00  0.00     0.202 C 
BRANCH  26  27
ATOM     27  C   UNL A   1      32.945  35.759  29.406  1.00  0.00     0.261 C 
BRANCH  27  28
ATOM     28  O   UNL A   1      32.588  35.006  30.584  1.00  0.00    -0.460 OA
BRANCH  28  29
ATOM     29  C   UNL A   1      32.867  35.602  31.769  1.00  0.00     0.338 C 
ATOM     30  O   UNL A   1      32.159  36.414  32.341  1.00  0.00    -0.246 OA
BRANCH  29  31
ATOM     31  C   UNL A   1      34.039  34.927  32.385  1.00  0.00     0.060 A 
ATOM     32  C   UNL A   1      35.285  35.555  32.269  1.00  0.00     0.016 A 
ATOM     33  C   UNL A   1      33.927  33.728  33.100  1.00  0.00     0.016 A 
ATOM     34  C   UNL A   1      36.425  34.958  32.809  1.00  0.00     0.010 A 
ATOM     35  C   UNL A   1      35.073  33.128  33.639  1.00  0.00     0.010 A 
ATOM     36  C   UNL A   1      36.335  33.720  33.460  1.00  0.00    -0.014 A 
BRANCH  36  37
ATOM     37  C   UNL A   1      37.582  32.947  33.699  1.00  0.00     0.031 A 
ATOM     38  C   UNL A   1      38.381  33.272  34.934  1.00  0.00     0.074 A 
ATOM     39  C   UNL A   1      37.965  31.929  32.907  1.00  0.00     0.049 A 
ATOM     40  N   UNL A   1      39.456  32.699  35.409  1.00  0.00    -0.248 NA
ATOM     41  C   UNL A   1      37.885  34.395  35.743  1.00  0.00     0.031 C 
ATOM     42  C   UNL A   1      37.254  31.462  31.721  1.00  0.00     0.029 A 
ATOM     43  N   UNL A   1      39.051  31.091  33.003  1.00  0.00    -0.354 N 
ATOM     44  C   UNL A   1      39.746  33.369  36.593  1.00  0.00     0.074 A 
ATOM     45  C   UNL A   1      38.775  34.435  36.721  1.00  0.00     0.031 C 
ATOM     46  C   UNL A   1      37.918  30.412  31.202  1.00  0.00     0.029 A 
ATOM     47  C   UNL A   1      39.114  30.149  32.004  1.00  0.00     0.049 A 
ATOM     48  H   UNL A   1      39.721  31.161  33.721  1.00  0.00     0.167 HD
ATOM     49  C   UNL A   1      40.715  33.111  37.507  1.00  0.00     0.034 A 
ATOM     50  C   UNL A   1      40.033  29.190  31.765  1.00  0.00     0.034 A 
ATOM     51  C   UNL A   1      41.717  32.088  37.353  1.00  0.00     0.049 A 
ATOM     52  C   UNL A   1      41.208  29.028  32.705  1.00  0.00     0.074 A 
ATOM     53  C   UNL A   1      42.763  31.768  38.202  1.00  0.00     0.029 A 
ATOM     54  N   UNL A   1      41.816  31.229  36.266  1.00  0.00    -0.354 N 
ATOM     55  N   UNL A   1      41.473  29.667  33.822  1.00  0.00    -0.248 NA
ATOM     56  C   UNL A   1      42.206  28.010  32.349  1.00  0.00     0.031 C 
ATOM     57  C   UNL A   1      43.537  30.773  37.592  1.00  0.00     0.029 A 
ATOM     58  C   UNL A   1      42.927  30.409  36.403  1.00  0.00     0.049 A 
ATOM     59  H   UNL A   1      41.187  31.205  35.508  1.00  0.00     0.167 HD
ATOM     60  C   UNL A   1      42.643  29.095  34.321  1.00  0.00     0.074 A 
ATOM     61  C   UNL A   1      43.032  28.062  33.384  1.00  0.00     0.031 C 
ATOM     62  C   UNL A   1      43.323  29.387  35.460  1.00  0.00     0.034 A 
BRANCH  49  63
ATOM     63  C   UNL A   1      40.753  34.012  38.719  1.00  0.00     0.023 A 
ATOM     64  C   UNL A   1      40.014  33.710  39.877  1.00  0.00     0.031 A 
ATOM     65  C   UNL A   1      41.456  35.227  38.683  1.00  0.00     0.131 A 
ATOM     66  C   UNL A   1      39.913  34.657  40.907  1.00  0.00     0.055 A 
ATOM     67  C   UNL A   1      41.427  36.124  39.752  1.00  0.00     0.041 A 
ATOM     68  F   UNL A   1      42.156  35.581  37.593  1.00  0.00    -0.206 F 
ATOM     69  C   UNL A   1      40.635  35.852  40.863  1.00  0.00     0.022 A 
BRANCH  66  70
ATOM     70  S   UNL A   1      38.672  34.393  42.206  1.00  0.00     0.124 S 
ATOM     71  O   UNL A   1      39.510  34.283  43.398  1.00  0.00    -0.237 OA
ATOM     72  O   UNL A   1      37.853  35.596  42.108  1.00  0.00    -0.237 OA
ATOM     73  O   UNL A   1      38.014  33.153  41.802  1.00  0.00    -0.744 OA
ENDBRANCH  66  70
ENDBRANCH  49  63
BRANCH  50  74
ATOM     74  C   UNL A   1      39.915  28.307  30.568  1.00  0.00     0.023 A 
ATOM     75  C   UNL A   1      40.578  28.615  29.369  1.00  0.00     0.031 A 
ATOM     76  C   UNL A   1      39.072  27.182  30.586  1.00  0.00     0.131 A 
ATOM     77  C   UNL A   1      40.354  27.833  28.224  1.00  0.00     0.055 A 
ATOM     78  C   UNL A   1      38.890  26.379  29.459  1.00  0.00     0.041 A 
ATOM     79  F   UNL A   1      38.407  26.849  31.704  1.00  0.00    -0.206 F 
ATOM     80  C   UNL A   1      39.524  26.710  28.265  1.00  0.00     0.022 A 
BRANCH  77  81
ATOM     81  S   UNL A   1      41.105  28.347  26.655  1.00  0.00     0.124 S 
ATOM     82  O   UNL A   1      40.123  29.302  26.154  1.00  0.00    -0.237 OA
ATOM     83  O   UNL A   1      42.379  28.907  27.095  1.00  0.00    -0.237 OA
ATOM     84  O   UNL A   1      41.204  27.099  25.899  1.00  0.00    -0.744 OA
ENDBRANCH  77  81
ENDBRANCH  50  74
BRANCH  62  85
ATOM     85  C   UNL A   1      44.531  28.541  35.790  1.00  0.00     0.023 A 
ATOM     86  C   UNL A   1      45.826  28.882  35.360  1.00  0.00     0.031 A 
ATOM     87  C   UNL A   1      44.380  27.369  36.555  1.00  0.00     0.131 A 
ATOM     88  C   UNL A   1      46.910  28.038  35.657  1.00  0.00     0.055 A 
ATOM     89  C   UNL A   1      45.469  26.564  36.896  1.00  0.00     0.041 A 
ATOM     90  F   UNL A   1      43.169  26.990  36.993  1.00  0.00    -0.206 F 
ATOM     91  C   UNL A   1      46.741  26.890  36.436  1.00  0.00     0.022 A 
BRANCH  88  92
ATOM     92  S   UNL A   1      48.536  28.414  34.945  1.00  0.00     0.124 S 
ATOM     93  O   UNL A   1      48.678  27.367  33.940  1.00  0.00    -0.237 OA
ATOM     94  O   UNL A   1      48.348  29.768  34.434  1.00  0.00    -0.237 OA
ATOM     95  O   UNL A   1      49.444  28.305  36.086  1.00  0.00    -0.744 OA
ENDBRANCH  88  92
ENDBRANCH  62  85
ENDBRANCH  36  37
ENDBRANCH  29  31
ENDBRANCH  28  29
ENDBRANCH  27  28
ENDBRANCH  26  27
ENDBRANCH  25  26
ENDBRANCH   1  25
TORSDOF 22
ENDMDL
MODEL 3
REMARK VINA RESULT:      -9.8      5.155     10.916
REMARK SMILES CC(C)[N@@H+]1CC[C@@H]([N@@H+]2CC[C@@H](C(=O)OCCOCCOCCOC(=O)c3ccc(-c4c5nc(c(-c6cc(S(=O)(=O)[O-])ccc6F)c6ccc([nH]6)c(-c6cc(S(=O)(=O)[O-])ccc6F)c6nc(c(-c7cc(S(=O)(=O)[O-])ccc7F)c7ccc4[nH]7)C=C6)C=C5)cc3)[C@H]2C)C1
REMARK SMILES IDX 19 1 18 2 17 3 16 4 15 5 14 6 12 7 13 8 11 9 8 10 9 11 89 12
REMARK SMILES IDX 10 14 90 15 7 16 4 17 5 18 91 19 6 21 2 22 1 23 3 24 20 25
REMARK SMILES IDX 21 26 22 27 23 28 24 29 25 30 26 31 27 32 88 33 28 34 87 35
REMARK SMILES IDX 29 36 30 37 31 38 81 39 32 40 86 41 80 42 82 43 33 44 85 45
REMARK SMILES IDX 79 46 78 47 34 49 66 50 46 51 65 52 47 53 50 54 64 55 83 56
REMARK SMILES IDX 48 57 49 58 63 60 84 61 51 62 35 63 36 64 44 65 37 66 43 67
REMARK SMILES IDX 45 68 42 69 38 70 39 71 40 72 41 73 67 74 68 75 76 76 69 77
REMARK SMILES IDX 75 78 77 79 74 80 70 81 71 82 72 83 73 84 52 85 53 86 61 87
REMARK SMILES IDX 54 88 60 89 62 90 59 91 55 92 56 93 57 94 58 95
REMARK H PARENT 8 13 4 20 82 48 50 59
REMARK Flexibility Score: inf
ROOT
ATOM      1  C   UNL A   1      32.034  29.830  25.988  1.00  0.00     0.188 C 
ENDROOT
BRANCH   1   2
ATOM      2  C   UNL A   1      33.078  29.373  24.961  1.00  0.00     0.188 C 
BRANCH   2   3
ATOM      3  O   UNL A   1      33.776  28.170  25.267  1.00  0.00    -0.376 OA
BRANCH   3   4
ATOM      4  C   UNL A   1      33.996  27.271  24.178  1.00  0.00     0.202 C 
BRANCH   4   5
ATOM      5  C   UNL A   1      33.973  25.771  24.513  1.00  0.00     0.261 C 
BRANCH   5   6
ATOM      6  O   UNL A   1      32.693  25.316  24.994  1.00  0.00    -0.463 OA
BRANCH   6   7
ATOM      7  C   UNL A   1      32.027  24.428  24.203  1.00  0.00     0.315 C 
ATOM      8  O   UNL A   1      30.912  24.636  23.737  1.00  0.00    -0.252 OA
BRANCH   7   9
ATOM      9  C   UNL A   1      32.767  23.103  24.031  1.00  0.00     0.162 C 
ATOM     10  N   UNL A   1      32.099  20.763  24.110  1.00  0.00    -0.325 N 
ATOM     11  C   UNL A   1      31.928  21.236  22.744  1.00  0.00     0.264 C 
ATOM     12  C   UNL A   1      32.323  21.950  24.965  1.00  0.00     0.195 C 
ATOM     13  H   UNL A   1      31.239  20.290  24.387  1.00  0.00     0.348 HD
ATOM     14  C   UNL A   1      32.766  22.491  22.629  1.00  0.00     0.083 C 
ATOM     15  C   UNL A   1      31.046  22.162  25.778  1.00  0.00     0.076 C 
BRANCH  10  16
ATOM     16  C   UNL A   1      33.040  19.647  24.321  1.00  0.00     0.245 C 
ATOM     17  N   UNL A   1      32.452  17.378  25.023  1.00  0.00    -0.328 N 
ATOM     18  C   UNL A   1      32.354  17.469  23.572  1.00  0.00     0.269 C 
ATOM     19  C   UNL A   1      32.688  18.743  25.536  1.00  0.00     0.328 C 
ATOM     20  H   UNL A   1      31.562  17.018  25.368  1.00  0.00     0.348 HD
ATOM     21  C   UNL A   1      33.204  18.654  23.172  1.00  0.00     0.132 C 
BRANCH  17  22
ATOM     22  C   UNL A   1      33.320  16.333  25.592  1.00  0.00     0.177 C 
ATOM     23  C   UNL A   1      32.696  14.932  25.465  1.00  0.00     0.075 C 
ATOM     24  C   UNL A   1      34.759  16.287  25.062  1.00  0.00     0.075 C 
ENDBRANCH  17  22
ENDBRANCH  10  16
ENDBRANCH   7   9
ENDBRANCH   6   7
ENDBRANCH   5   6
ENDBRANCH   4   5
ENDBRANCH   3   4
ENDBRANCH   2   3
ENDBRANCH   1   2
BRANCH   1  25
ATOM     25  O   UNL A   1      31.511  31.133  25.753  1.00  0.00    -0.376 OA
BRANCH  25  26
ATOM     26  C   UNL A   1      31.363  31.968  26.908  1.00  0.00     0.202 C 
BRANCH  26  27
ATOM     27  C   UNL A   1      32.498  32.983  27.152  1.00  0.00     0.261 C 
BRANCH  27  28
ATOM     28  O   UNL A   1      32.404  33.640  28.432  1.00  0.00    -0.460 OA
BRANCH  28  29
ATOM     29  C   UNL A   1      33.267  34.667  28.629  1.00  0.00     0.338 C 
ATOM     30  O   UNL A   1      33.051  35.839  28.368  1.00  0.00    -0.246 OA
BRANCH  29  31
ATOM     31  C   UNL A   1      34.412  34.185  29.446  1.00  0.00     0.060 A 
ATOM     32  C   UNL A   1      35.701  34.520  29.018  1.00  0.00     0.016 A 
ATOM     33  C   UNL A   1      34.238  33.457  30.630  1.00  0.00     0.016 A 
ATOM     34  C   UNL A   1      36.816  34.078  29.732  1.00  0.00     0.010 A 
ATOM     35  C   UNL A   1      35.358  33.011  31.345  1.00  0.00     0.010 A 
ATOM     36  C   UNL A   1      36.654  33.284  30.876  1.00  0.00    -0.014 A 
BRANCH  36  37
ATOM     37  C   UNL A   1      37.829  32.538  31.398  1.00  0.00     0.031 A 
ATOM     38  C   UNL A   1      38.338  32.904  32.767  1.00  0.00     0.074 A 
ATOM     39  C   UNL A   1      38.385  31.509  30.734  1.00  0.00     0.049 A 
ATOM     40  N   UNL A   1      39.292  32.360  33.478  1.00  0.00    -0.248 NA
ATOM     41  C   UNL A   1      37.666  34.037  33.421  1.00  0.00     0.031 C 
ATOM     42  C   UNL A   1      37.953  31.003  29.434  1.00  0.00     0.029 A 
ATOM     43  N   UNL A   1      39.434  30.691  31.083  1.00  0.00    -0.354 N 
ATOM     44  C   UNL A   1      39.311  33.061  34.679  1.00  0.00     0.074 A 
ATOM     45  C   UNL A   1      38.324  34.113  34.566  1.00  0.00     0.031 C 
ATOM     46  C   UNL A   1      38.725  29.953  29.098  1.00  0.00     0.029 A 
ATOM     47  C   UNL A   1      39.722  29.728  30.146  1.00  0.00     0.049 A 
ATOM     48  H   UNL A   1      39.933  30.788  31.926  1.00  0.00     0.167 HD
ATOM     49  C   UNL A   1      40.063  32.840  35.787  1.00  0.00     0.034 A 
ATOM     50  C   UNL A   1      40.682  28.779  30.136  1.00  0.00     0.034 A 
ATOM     51  C   UNL A   1      41.086  31.830  35.879  1.00  0.00     0.049 A 
ATOM     52  C   UNL A   1      41.628  28.658  31.311  1.00  0.00     0.074 A 
ATOM     53  C   UNL A   1      41.928  31.547  36.941  1.00  0.00     0.029 A 
ATOM     54  N   UNL A   1      41.427  30.948  34.860  1.00  0.00    -0.354 N 
ATOM     55  N   UNL A   1      41.637  29.326  32.442  1.00  0.00    -0.248 NA
ATOM     56  C   UNL A   1      42.691  27.648  31.205  1.00  0.00     0.031 C 
ATOM     57  C   UNL A   1      42.826  30.551  36.538  1.00  0.00     0.029 A 
ATOM     58  C   UNL A   1      42.492  30.151  35.255  1.00  0.00     0.049 A 
ATOM     59  H   UNL A   1      40.977  30.897  33.986  1.00  0.00     0.167 HD
ATOM     60  C   UNL A   1      42.679  28.785  33.195  1.00  0.00     0.074 A 
ATOM     61  C   UNL A   1      43.272  27.738  32.392  1.00  0.00     0.031 C 
ATOM     62  C   UNL A   1      43.093  29.114  34.447  1.00  0.00     0.034 A 
BRANCH  49  63
ATOM     63  C   UNL A   1      39.828  33.768  36.954  1.00  0.00     0.023 A 
ATOM     64  C   UNL A   1      40.658  34.882  37.180  1.00  0.00     0.031 A 
ATOM     65  C   UNL A   1      38.830  33.486  37.901  1.00  0.00     0.131 A 
ATOM     66  C   UNL A   1      40.539  35.610  38.374  1.00  0.00     0.055 A 
ATOM     67  C   UNL A   1      38.656  34.272  39.042  1.00  0.00     0.041 A 
ATOM     68  F   UNL A   1      38.027  32.421  37.752  1.00  0.00    -0.206 F 
ATOM     69  C   UNL A   1      39.528  35.328  39.295  1.00  0.00     0.022 A 
BRANCH  66  70
ATOM     70  S   UNL A   1      41.846  36.796  38.797  1.00  0.00     0.124 S 
ATOM     71  O   UNL A   1      41.085  37.852  39.460  1.00  0.00    -0.237 OA
ATOM     72  O   UNL A   1      42.724  36.006  39.653  1.00  0.00    -0.237 OA
ATOM     73  O   UNL A   1      42.406  37.166  37.499  1.00  0.00    -0.744 OA
ENDBRANCH  66  70
ENDBRANCH  49  63
BRANCH  50  74
ATOM     74  C   UNL A   1      40.835  27.867  28.964  1.00  0.00     0.023 A 
ATOM     75  C   UNL A   1      41.845  28.072  28.011  1.00  0.00     0.031 A 
ATOM     76  C   UNL A   1      39.921  26.823  28.743  1.00  0.00     0.131 A 
ATOM     77  C   UNL A   1      41.891  27.272  26.857  1.00  0.00     0.055 A 
ATOM     78  C   UNL A   1      40.000  25.998  27.619  1.00  0.00     0.041 A 
ATOM     79  F   UNL A   1      38.930  26.590  29.619  1.00  0.00    -0.206 F 
ATOM     80  C   UNL A   1      40.984  26.229  26.662  1.00  0.00     0.022 A 
BRANCH  77  81
ATOM     81  S   UNL A   1      43.114  27.661  25.574  1.00  0.00     0.124 S 
ATOM     82  O   UNL A   1      43.789  26.379  25.409  1.00  0.00    -0.237 OA
ATOM     83  O   UNL A   1      42.267  28.089  24.465  1.00  0.00    -0.237 OA
ATOM     84  O   UNL A   1      43.921  28.718  26.182  1.00  0.00    -0.744 OA
ENDBRANCH  77  81
ENDBRANCH  50  74
BRANCH  62  85
ATOM     85  C   UNL A   1      44.211  28.296  35.051  1.00  0.00     0.023 A 
ATOM     86  C   UNL A   1      43.971  27.101  35.753  1.00  0.00     0.031 A 
ATOM     87  C   UNL A   1      45.546  28.722  34.916  1.00  0.00     0.131 A 
ATOM     88  C   UNL A   1      45.043  26.400  36.332  1.00  0.00     0.055 A 
ATOM     89  C   UNL A   1      46.612  27.992  35.444  1.00  0.00     0.041 A 
ATOM     90  F   UNL A   1      45.838  29.856  34.258  1.00  0.00    -0.206 F 
ATOM     91  C   UNL A   1      46.363  26.830  36.167  1.00  0.00     0.022 A 
BRANCH  88  92
ATOM     92  S   UNL A   1      44.687  24.958  37.374  1.00  0.00     0.124 S 
ATOM     93  O   UNL A   1      45.540  23.934  36.781  1.00  0.00    -0.237 OA
ATOM     94  O   UNL A   1      45.079  25.426  38.699  1.00  0.00    -0.237 OA
ATOM     95  O   UNL A   1      43.251  24.748  37.193  1.00  0.00    -0.744 OA
ENDBRANCH  88  92
ENDBRANCH  62  85
ENDBRANCH  36  37
ENDBRANCH  29  31
ENDBRANCH  28  29
ENDBRANCH  27  28
ENDBRANCH  26  27
ENDBRANCH  25  26
ENDBRANCH   1  25
TORSDOF 22
ENDMDL
