MODEL 1
REMARK VINA RESULT:     -11.1      0.000      0.000
REMARK SMILES Cc1ccc(C(=O)NC2(CC(=O)OCCOCCOCCOC(=O)c3ccc(-c4c5nc(c(-c6cc(S(=O)(=O)[O-])ccc6F)c6ccc([nH]6)c(-c6cc(S(=O)(=O)[O-])ccc6F)c6nc(c(-c7cc(S(=O)(=O)[O-])ccc7F)c7ccc4[nH]7)C=C6)C=C5)cc3)CCC2)cc1
REMARK SMILES IDX 17 1 16 2 15 3 14 4 13 5 11 6 12 7 10 8 9 9 88 10 90 11
REMARK SMILES IDX 89 12 8 13 6 14 7 15 5 17 1 18 2 19 3 20 92 21 4 22 91 23
REMARK SMILES IDX 18 24 19 25 20 26 21 27 22 28 23 29 24 30 25 31 26 32 87 33
REMARK SMILES IDX 27 34 86 35 28 36 29 37 30 38 80 39 31 40 85 41 79 42 81 43
REMARK SMILES IDX 32 44 84 45 78 46 77 47 33 49 65 50 45 51 64 52 46 53 49 54
REMARK SMILES IDX 63 55 82 56 47 57 48 58 62 60 83 61 50 62 34 63 35 64 43 65
REMARK SMILES IDX 36 66 42 67 44 68 41 69 37 70 38 71 39 72 40 73 66 74 67 75
REMARK SMILES IDX 75 76 68 77 74 78 76 79 73 80 69 81 70 82 71 83 72 84 51 85
REMARK SMILES IDX 52 86 60 87 53 88 59 89 61 90 58 91 54 92 55 93 56 94 57 95
REMARK H PARENT 8 16 81 48 49 59
REMARK Flexibility Score: inf
ROOT
ATOM      1  C   UNL A   1      34.389  22.705  26.748  1.00  0.00     0.188 C 
ENDROOT
BRANCH   1   2
ATOM      2  O   UNL A   1      33.303  22.282  27.538  1.00  0.00    -0.376 OA
BRANCH   2   3
ATOM      3  C   UNL A   1      32.147  23.098  27.597  1.00  0.00     0.202 C 
BRANCH   3   4
ATOM      4  C   UNL A   1      31.033  23.426  26.446  1.00  0.00     0.261 C 
BRANCH   4   5
ATOM      5  O   UNL A   1      30.684  24.497  25.133  1.00  0.00    -0.463 OA
BRANCH   5   6
ATOM      6  C   UNL A   1      30.721  24.832  23.689  1.00  0.00     0.308 C 
ATOM      7  O   UNL A   1      30.150  24.270  22.731  1.00  0.00    -0.252 OA
BRANCH   6   8
ATOM      8  C   UNL A   1      30.999  26.217  23.293  1.00  0.00     0.151 C 
BRANCH   8   9
ATOM      9  C   UNL A   1      32.239  26.401  24.090  1.00  0.00     0.051 C 
ATOM     10  C   UNL A   1      33.460  27.090  23.291  1.00  0.00     0.029 C 
ATOM     11  C   UNL A   1      33.233  25.082  23.775  1.00  0.00     0.029 C 
ATOM     12  C   UNL A   1      33.626  25.775  22.465  1.00  0.00     0.005 C 
BRANCH   9  13
ATOM     13  N   UNL A   1      31.677  27.047  25.731  1.00  0.00    -0.346 N 
ATOM     14  C   UNL A   1      32.329  28.042  27.051  1.00  0.00     0.251 C 
ATOM     15  O   UNL A   1      31.618  27.812  28.015  1.00  0.00    -0.269 OA
ATOM     16  H   UNL A   1      30.758  26.757  25.928  1.00  0.00     0.164 HD
BRANCH  14  17
ATOM     17  C   UNL A   1      33.733  29.334  27.282  1.00  0.00     0.039 A 
ATOM     18  C   UNL A   1      36.474  33.089  28.293  1.00  0.00     0.044 C 
ATOM     19  C   UNL A   1      35.781  31.779  28.031  1.00  0.00    -0.051 A 
ATOM     20  C   UNL A   1      36.142  30.443  27.869  1.00  0.00     0.004 A 
ATOM     21  C   UNL A   1      34.451  31.866  27.916  1.00  0.00     0.004 A 
ATOM     22  C   UNL A   1      35.114  29.265  27.591  1.00  0.00     0.014 A 
ATOM     23  C   UNL A   1      33.646  30.740  27.438  1.00  0.00     0.014 A 
ENDBRANCH  14  17
ENDBRANCH   9  13
ENDBRANCH   8   9
ENDBRANCH   6   8
ENDBRANCH   5   6
ENDBRANCH   4   5
ENDBRANCH   3   4
ENDBRANCH   2   3
ENDBRANCH   1   2
BRANCH   1  24
ATOM     24  C   UNL A   1      34.996  21.548  25.979  1.00  0.00     0.188 C 
BRANCH  24  25
ATOM     25  O   UNL A   1      36.408  21.536  25.984  1.00  0.00    -0.376 OA
BRANCH  25  26
ATOM     26  C   UNL A   1      37.129  21.413  24.772  1.00  0.00     0.202 C 
BRANCH  26  27
ATOM     27  C   UNL A   1      38.309  20.593  25.202  1.00  0.00     0.261 C 
BRANCH  27  28
ATOM     28  O   UNL A   1      39.234  21.578  25.804  1.00  0.00    -0.460 OA
BRANCH  28  29
ATOM     29  C   UNL A   1      40.316  21.066  26.474  1.00  0.00     0.338 C 
ATOM     30  O   UNL A   1      40.271  19.982  27.048  1.00  0.00    -0.246 OA
BRANCH  29  31
ATOM     31  C   UNL A   1      41.551  22.028  26.591  1.00  0.00     0.060 A 
ATOM     32  C   UNL A   1      41.663  22.682  27.787  1.00  0.00     0.016 A 
ATOM     33  C   UNL A   1      42.422  22.616  25.645  1.00  0.00     0.016 A 
ATOM     34  C   UNL A   1      42.462  23.916  27.925  1.00  0.00     0.010 A 
ATOM     35  C   UNL A   1      43.221  23.936  25.874  1.00  0.00     0.010 A 
ATOM     36  C   UNL A   1      43.143  24.746  27.039  1.00  0.00    -0.014 A 
BRANCH  36  37
ATOM     37  C   UNL A   1      43.470  26.471  27.287  1.00  0.00     0.031 A 
ATOM     38  C   UNL A   1      42.297  27.312  26.891  1.00  0.00     0.074 A 
ATOM     39  C   UNL A   1      44.438  27.584  27.301  1.00  0.00     0.049 A 
ATOM     40  N   UNL A   1      42.280  28.615  26.871  1.00  0.00    -0.248 NA
ATOM     41  C   UNL A   1      40.989  26.747  26.587  1.00  0.00     0.031 C 
ATOM     42  C   UNL A   1      44.691  28.312  28.593  1.00  0.00     0.029 A 
ATOM     43  N   UNL A   1      45.653  28.026  26.704  1.00  0.00    -0.354 N 
ATOM     44  C   UNL A   1      41.064  28.852  27.432  1.00  0.00     0.074 A 
ATOM     45  C   UNL A   1      40.241  27.830  26.832  1.00  0.00     0.031 C 
ATOM     46  C   UNL A   1      45.932  28.879  28.675  1.00  0.00     0.029 A 
ATOM     47  C   UNL A   1      46.710  28.565  27.478  1.00  0.00     0.049 A 
ATOM     48  H   UNL A   1      45.760  27.956  25.728  1.00  0.00     0.167 HD
ATOM     49  C   UNL A   1      41.047  29.447  28.666  1.00  0.00     0.034 A 
ATOM     50  C   UNL A   1      47.961  29.077  27.127  1.00  0.00     0.034 A 
ATOM     51  C   UNL A   1      42.282  30.213  29.044  1.00  0.00     0.049 A 
ATOM     52  C   UNL A   1      47.586  30.523  26.964  1.00  0.00     0.074 A 
ATOM     53  C   UNL A   1      42.965  30.427  30.241  1.00  0.00     0.029 A 
ATOM     54  N   UNL A   1      43.106  30.814  28.068  1.00  0.00    -0.354 N 
ATOM     55  N   UNL A   1      46.320  30.835  26.881  1.00  0.00    -0.248 NA
ATOM     56  C   UNL A   1      48.445  31.695  27.075  1.00  0.00     0.031 C 
ATOM     57  C   UNL A   1      44.124  31.221  29.986  1.00  0.00     0.029 A 
ATOM     58  C   UNL A   1      44.169  31.508  28.631  1.00  0.00     0.049 A 
ATOM     59  H   UNL A   1      42.946  30.748  27.099  1.00  0.00     0.167 HD
ATOM     60  C   UNL A   1      46.168  32.088  27.343  1.00  0.00     0.074 A 
ATOM     61  C   UNL A   1      47.514  32.654  27.275  1.00  0.00     0.031 C 
ATOM     62  C   UNL A   1      44.974  32.473  27.874  1.00  0.00     0.034 A 
BRANCH  49  63
ATOM     63  C   UNL A   1      39.922  29.162  29.661  1.00  0.00     0.023 A 
ATOM     64  C   UNL A   1      39.236  30.252  30.219  1.00  0.00     0.031 A 
ATOM     65  C   UNL A   1      39.501  27.896  30.146  1.00  0.00     0.131 A 
ATOM     66  C   UNL A   1      38.190  30.074  31.141  1.00  0.00     0.055 A 
ATOM     67  C   UNL A   1      38.387  27.715  30.973  1.00  0.00     0.041 A 
ATOM     68  F   UNL A   1      40.171  26.760  29.922  1.00  0.00    -0.206 F 
ATOM     69  C   UNL A   1      37.718  28.811  31.474  1.00  0.00     0.022 A 
BRANCH  66  70
ATOM     70  S   UNL A   1      37.470  31.535  31.927  1.00  0.00     0.124 S 
ATOM     71  O   UNL A   1      38.343  32.594  31.430  1.00  0.00    -0.237 OA
ATOM     72  O   UNL A   1      36.105  31.527  31.416  1.00  0.00    -0.237 OA
ATOM     73  O   UNL A   1      37.600  31.241  33.353  1.00  0.00    -0.744 OA
ENDBRANCH  66  70
ENDBRANCH  49  63
BRANCH  50  74
ATOM     74  C   UNL A   1      49.144  28.397  26.355  1.00  0.00     0.023 A 
ATOM     75  C   UNL A   1      49.035  27.867  25.006  1.00  0.00     0.031 A 
ATOM     76  C   UNL A   1      50.462  28.457  26.832  1.00  0.00     0.131 A 
ATOM     77  C   UNL A   1      50.179  27.683  24.146  1.00  0.00     0.055 A 
ATOM     78  C   UNL A   1      51.590  28.237  26.002  1.00  0.00     0.041 A 
ATOM     79  F   UNL A   1      50.699  28.812  28.104  1.00  0.00    -0.206 F 
ATOM     80  C   UNL A   1      51.456  27.900  24.652  1.00  0.00     0.022 A 
BRANCH  77  81
ATOM     81  S   UNL A   1      50.099  27.430  22.272  1.00  0.00     0.124 S 
ATOM     82  O   UNL A   1      49.133  26.347  22.142  1.00  0.00    -0.237 OA
ATOM     83  O   UNL A   1      49.626  28.714  21.737  1.00  0.00    -0.237 OA
ATOM     84  O   UNL A   1      51.459  27.086  21.886  1.00  0.00    -0.744 OA
ENDBRANCH  77  81
ENDBRANCH  50  74
BRANCH  62  85
ATOM     85  C   UNL A   1      44.423  33.836  27.670  1.00  0.00     0.023 A 
ATOM     86  C   UNL A   1      44.602  34.854  28.595  1.00  0.00     0.031 A 
ATOM     87  C   UNL A   1      43.850  34.198  26.428  1.00  0.00     0.131 A 
ATOM     88  C   UNL A   1      44.250  36.166  28.288  1.00  0.00     0.055 A 
ATOM     89  C   UNL A   1      43.504  35.505  26.117  1.00  0.00     0.041 A 
ATOM     90  F   UNL A   1      43.659  33.325  25.431  1.00  0.00    -0.206 F 
ATOM     91  C   UNL A   1      43.708  36.505  27.052  1.00  0.00     0.022 A 
BRANCH  88  92
ATOM     92  S   UNL A   1      44.577  37.400  29.556  1.00  0.00     0.124 S 
ATOM     93  O   UNL A   1      44.016  36.768  30.748  1.00  0.00    -0.237 OA
ATOM     94  O   UNL A   1      46.035  37.493  29.522  1.00  0.00    -0.237 OA
ATOM     95  O   UNL A   1      43.864  38.577  29.075  1.00  0.00    -0.744 OA
ENDBRANCH  88  92
ENDBRANCH  62  85
ENDBRANCH  36  37
ENDBRANCH  29  31
ENDBRANCH  28  29
ENDBRANCH  27  28
ENDBRANCH  26  27
ENDBRANCH  25  26
ENDBRANCH  24  25
ENDBRANCH   1  24
TORSDOF 23
ENDMDL
MODEL 2
REMARK VINA RESULT:     -10.9      6.945      9.149
REMARK SMILES Cc1ccc(C(=O)NC2(CC(=O)OCCOCCOCCOC(=O)c3ccc(-c4c5nc(c(-c6cc(S(=O)(=O)[O-])ccc6F)c6ccc([nH]6)c(-c6cc(S(=O)(=O)[O-])ccc6F)c6nc(c(-c7cc(S(=O)(=O)[O-])ccc7F)c7ccc4[nH]7)C=C6)C=C5)cc3)CCC2)cc1
REMARK SMILES IDX 17 1 16 2 15 3 14 4 13 5 11 6 12 7 10 8 9 9 88 10 90 11
REMARK SMILES IDX 89 12 8 13 6 14 7 15 5 17 1 18 2 19 3 20 92 21 4 22 91 23
REMARK SMILES IDX 18 24 19 25 20 26 21 27 22 28 23 29 24 30 25 31 26 32 87 33
REMARK SMILES IDX 27 34 86 35 28 36 29 37 30 38 80 39 31 40 85 41 79 42 81 43
REMARK SMILES IDX 32 44 84 45 78 46 77 47 33 49 65 50 45 51 64 52 46 53 49 54
REMARK SMILES IDX 63 55 82 56 47 57 48 58 62 60 83 61 50 62 34 63 35 64 43 65
REMARK SMILES IDX 36 66 42 67 44 68 41 69 37 70 38 71 39 72 40 73 66 74 67 75
REMARK SMILES IDX 75 76 68 77 74 78 76 79 73 80 69 81 70 82 71 83 72 84 51 85
REMARK SMILES IDX 52 86 60 87 53 88 59 89 61 90 58 91 54 92 55 93 56 94 57 95
REMARK H PARENT 8 16 81 48 49 59
REMARK Flexibility Score: inf
ROOT
ATOM      1  C   UNL A   1      37.753  21.922  25.304  1.00  0.00     0.188 C 
ENDROOT
BRANCH   1   2
ATOM      2  O   UNL A   1      37.609  23.304  25.082  1.00  0.00    -0.376 OA
BRANCH   2   3
ATOM      3  C   UNL A   1      36.546  23.988  25.718  1.00  0.00     0.202 C 
BRANCH   3   4
ATOM      4  C   UNL A   1      35.034  24.311  25.183  1.00  0.00     0.261 C 
BRANCH   4   5
ATOM      5  O   UNL A   1      34.110  25.456  24.274  1.00  0.00    -0.463 OA
BRANCH   5   6
ATOM      6  C   UNL A   1      33.474  25.896  23.009  1.00  0.00     0.308 C 
ATOM      7  O   UNL A   1      33.866  25.747  21.833  1.00  0.00    -0.252 OA
BRANCH   6   8
ATOM      8  C   UNL A   1      32.019  26.077  22.976  1.00  0.00     0.151 C 
BRANCH   8   9
ATOM      9  C   UNL A   1      31.921  27.060  24.085  1.00  0.00     0.051 C 
ATOM     10  C   UNL A   1      30.952  28.317  23.790  1.00  0.00     0.029 C 
ATOM     11  C   UNL A   1      33.030  28.283  23.766  1.00  0.00     0.029 C 
ATOM     12  C   UNL A   1      32.011  28.859  22.778  1.00  0.00     0.005 C 
BRANCH   9  13
ATOM     13  N   UNL A   1      31.740  26.048  25.624  1.00  0.00    -0.346 N 
ATOM     14  C   UNL A   1      31.473  24.347  26.062  1.00  0.00     0.251 C 
ATOM     15  O   UNL A   1      31.086  24.365  27.218  1.00  0.00    -0.269 OA
ATOM     16  H   UNL A   1      31.813  26.612  26.427  1.00  0.00     0.164 HD
BRANCH  14  17
ATOM     17  C   UNL A   1      31.693  22.627  25.234  1.00  0.00     0.039 A 
ATOM     18  C   UNL A   1      32.515  18.917  22.369  1.00  0.00     0.044 C 
ATOM     19  C   UNL A   1      32.347  19.969  23.434  1.00  0.00    -0.051 A 
ATOM     20  C   UNL A   1      32.399  20.036  24.824  1.00  0.00     0.004 A 
ATOM     21  C   UNL A   1      32.073  21.193  22.969  1.00  0.00     0.004 A 
ATOM     22  C   UNL A   1      32.161  21.361  25.666  1.00  0.00     0.014 A 
ATOM     23  C   UNL A   1      31.656  22.277  23.861  1.00  0.00     0.014 A 
ENDBRANCH  14  17
ENDBRANCH   9  13
ENDBRANCH   8   9
ENDBRANCH   6   8
ENDBRANCH   5   6
ENDBRANCH   4   5
ENDBRANCH   3   4
ENDBRANCH   2   3
ENDBRANCH   1   2
BRANCH   1  24
ATOM     24  C   UNL A   1      39.153  21.580  25.773  1.00  0.00     0.188 C 
BRANCH  24  25
ATOM     25  O   UNL A   1      39.525  22.215  26.978  1.00  0.00    -0.376 OA
BRANCH  25  26
ATOM     26  C   UNL A   1      40.436  23.298  26.967  1.00  0.00     0.202 C 
BRANCH  26  27
ATOM     27  C   UNL A   1      41.571  22.733  26.167  1.00  0.00     0.261 C 
BRANCH  27  28
ATOM     28  O   UNL A   1      42.771  23.403  26.718  1.00  0.00    -0.460 OA
BRANCH  28  29
ATOM     29  C   UNL A   1      42.964  24.708  26.345  1.00  0.00     0.338 C 
ATOM     30  O   UNL A   1      43.106  25.034  25.169  1.00  0.00    -0.246 OA
BRANCH  29  31
ATOM     31  C   UNL A   1      43.152  25.725  27.525  1.00  0.00     0.060 A 
ATOM     32  C   UNL A   1      44.330  25.604  28.210  1.00  0.00     0.016 A 
ATOM     33  C   UNL A   1      42.263  26.551  28.252  1.00  0.00     0.016 A 
ATOM     34  C   UNL A   1      44.492  26.142  29.576  1.00  0.00     0.010 A 
ATOM     35  C   UNL A   1      42.513  27.064  29.703  1.00  0.00     0.010 A 
ATOM     36  C   UNL A   1      43.638  26.731  30.504  1.00  0.00    -0.014 A 
BRANCH  36  37
ATOM     37  C   UNL A   1      43.854  26.704  32.264  1.00  0.00     0.031 A 
ATOM     38  C   UNL A   1      44.021  28.085  32.815  1.00  0.00     0.074 A 
ATOM     39  C   UNL A   1      44.367  26.015  33.463  1.00  0.00     0.049 A 
ATOM     40  N   UNL A   1      44.293  28.370  34.058  1.00  0.00    -0.248 NA
ATOM     41  C   UNL A   1      43.780  29.284  32.023  1.00  0.00     0.031 C 
ATOM     42  C   UNL A   1      43.392  25.570  34.518  1.00  0.00     0.029 A 
ATOM     43  N   UNL A   1      45.391  25.126  33.899  1.00  0.00    -0.354 N 
ATOM     44  C   UNL A   1      43.438  29.407  34.264  1.00  0.00     0.074 A 
ATOM     45  C   UNL A   1      43.534  30.140  33.024  1.00  0.00     0.031 C 
ATOM     46  C   UNL A   1      43.819  24.495  35.248  1.00  0.00     0.029 A 
ATOM     47  C   UNL A   1      45.112  24.029  34.750  1.00  0.00     0.049 A 
ATOM     48  H   UNL A   1      46.316  25.279  33.601  1.00  0.00     0.167 HD
ATOM     49  C   UNL A   1      42.406  29.204  35.142  1.00  0.00     0.034 A 
ATOM     50  C   UNL A   1      45.932  23.052  35.319  1.00  0.00     0.034 A 
ATOM     51  C   UNL A   1      42.596  28.094  36.135  1.00  0.00     0.049 A 
ATOM     52  C   UNL A   1      46.254  23.742  36.615  1.00  0.00     0.074 A 
ATOM     53  C   UNL A   1      41.741  27.166  36.731  1.00  0.00     0.029 A 
ATOM     54  N   UNL A   1      43.880  27.709  36.576  1.00  0.00    -0.354 N 
ATOM     55  N   UNL A   1      45.995  25.018  36.726  1.00  0.00    -0.248 NA
ATOM     56  C   UNL A   1      46.654  23.141  37.881  1.00  0.00     0.031 C 
ATOM     57  C   UNL A   1      42.500  26.308  37.583  1.00  0.00     0.029 A 
ATOM     58  C   UNL A   1      43.829  26.696  37.524  1.00  0.00     0.049 A 
ATOM     59  H   UNL A   1      44.716  28.113  36.249  1.00  0.00     0.167 HD
ATOM     60  C   UNL A   1      45.768  25.287  38.023  1.00  0.00     0.074 A 
ATOM     61  C   UNL A   1      46.366  24.155  38.727  1.00  0.00     0.031 C 
ATOM     62  C   UNL A   1      44.977  26.342  38.367  1.00  0.00     0.034 A 
BRANCH  49  63
ATOM     63  C   UNL A   1      41.072  29.931  34.968  1.00  0.00     0.023 A 
ATOM     64  C   UNL A   1      40.158  29.428  34.029  1.00  0.00     0.031 A 
ATOM     65  C   UNL A   1      40.647  31.118  35.621  1.00  0.00     0.131 A 
ATOM     66  C   UNL A   1      38.911  30.038  33.811  1.00  0.00     0.055 A 
ATOM     67  C   UNL A   1      39.362  31.657  35.487  1.00  0.00     0.041 A 
ATOM     68  F   UNL A   1      41.453  31.878  36.369  1.00  0.00    -0.206 F 
ATOM     69  C   UNL A   1      38.480  31.113  34.578  1.00  0.00     0.022 A 
BRANCH  66  70
ATOM     70  S   UNL A   1      37.866  29.417  32.473  1.00  0.00     0.124 S 
ATOM     71  O   UNL A   1      38.839  29.236  31.401  1.00  0.00    -0.237 OA
ATOM     72  O   UNL A   1      37.305  28.202  33.051  1.00  0.00    -0.237 OA
ATOM     73  O   UNL A   1      36.911  30.504  32.268  1.00  0.00    -0.744 OA
ENDBRANCH  66  70
ENDBRANCH  49  63
BRANCH  50  74
ATOM     74  C   UNL A   1      46.885  22.015  34.631  1.00  0.00     0.023 A 
ATOM     75  C   UNL A   1      48.261  22.299  34.260  1.00  0.00     0.031 A 
ATOM     76  C   UNL A   1      46.542  20.658  34.531  1.00  0.00     0.131 A 
ATOM     77  C   UNL A   1      49.248  21.262  34.075  1.00  0.00     0.055 A 
ATOM     78  C   UNL A   1      47.501  19.639  34.308  1.00  0.00     0.041 A 
ATOM     79  F   UNL A   1      45.273  20.271  34.727  1.00  0.00    -0.206 F 
ATOM     80  C   UNL A   1      48.857  19.929  34.131  1.00  0.00     0.022 A 
BRANCH  77  81
ATOM     81  S   UNL A   1      51.119  21.540  34.032  1.00  0.00     0.124 S 
ATOM     82  O   UNL A   1      51.237  22.948  34.389  1.00  0.00    -0.237 OA
ATOM     83  O   UNL A   1      51.661  20.625  35.046  1.00  0.00    -0.237 OA
ATOM     84  O   UNL A   1      51.511  21.220  32.668  1.00  0.00    -0.744 OA
ENDBRANCH  77  81
ENDBRANCH  50  74
BRANCH  62  85
ATOM     85  C   UNL A   1      45.265  27.191  39.549  1.00  0.00     0.023 A 
ATOM     86  C   UNL A   1      45.739  28.491  39.430  1.00  0.00     0.031 A 
ATOM     87  C   UNL A   1      44.887  26.767  40.844  1.00  0.00     0.131 A 
ATOM     88  C   UNL A   1      45.808  29.327  40.541  1.00  0.00     0.055 A 
ATOM     89  C   UNL A   1      44.950  27.601  41.951  1.00  0.00     0.041 A 
ATOM     90  F   UNL A   1      44.376  25.555  41.094  1.00  0.00    -0.206 F 
ATOM     91  C   UNL A   1      45.411  28.897  41.804  1.00  0.00     0.022 A 
BRANCH  88  92
ATOM     92  S   UNL A   1      46.395  31.002  40.246  1.00  0.00     0.124 S 
ATOM     93  O   UNL A   1      47.345  31.189  41.341  1.00  0.00    -0.237 OA
ATOM     94  O   UNL A   1      46.987  30.887  38.915  1.00  0.00    -0.237 OA
ATOM     95  O   UNL A   1      45.181  31.806  40.325  1.00  0.00    -0.744 OA
ENDBRANCH  88  92
ENDBRANCH  62  85
ENDBRANCH  36  37
ENDBRANCH  29  31
ENDBRANCH  28  29
ENDBRANCH  27  28
ENDBRANCH  26  27
ENDBRANCH  25  26
ENDBRANCH  24  25
ENDBRANCH   1  24
TORSDOF 23
ENDMDL
MODEL 3
REMARK VINA RESULT:     -10.8      6.885      9.193
REMARK SMILES Cc1ccc(C(=O)NC2(CC(=O)OCCOCCOCCOC(=O)c3ccc(-c4c5nc(c(-c6cc(S(=O)(=O)[O-])ccc6F)c6ccc([nH]6)c(-c6cc(S(=O)(=O)[O-])ccc6F)c6nc(c(-c7cc(S(=O)(=O)[O-])ccc7F)c7ccc4[nH]7)C=C6)C=C5)cc3)CCC2)cc1
REMARK SMILES IDX 17 1 16 2 15 3 14 4 13 5 11 6 12 7 10 8 9 9 88 10 90 11
REMARK SMILES IDX 89 12 8 13 6 14 7 15 5 17 1 18 2 19 3 20 92 21 4 22 91 23
REMARK SMILES IDX 18 24 19 25 20 26 21 27 22 28 23 29 24 30 25 31 26 32 87 33
REMARK SMILES IDX 27 34 86 35 28 36 29 37 30 38 80 39 31 40 85 41 79 42 81 43
REMARK SMILES IDX 32 44 84 45 78 46 77 47 33 49 65 50 45 51 64 52 46 53 49 54
REMARK SMILES IDX 63 55 82 56 47 57 48 58 62 60 83 61 50 62 34 63 35 64 43 65
REMARK SMILES IDX 36 66 42 67 44 68 41 69 37 70 38 71 39 72 40 73 66 74 67 75
REMARK SMILES IDX 75 76 68 77 74 78 76 79 73 80 69 81 70 82 71 83 72 84 51 85
REMARK SMILES IDX 52 86 60 87 53 88 59 89 61 90 58 91 54 92 55 93 56 94 57 95
REMARK H PARENT 8 16 81 48 49 59
REMARK Flexibility Score: inf
ROOT
ATOM      1  C   UNL A   1      42.763  20.812  25.492  1.00  0.00     0.188 C 
ENDROOT
BRANCH   1   2
ATOM      2  O   UNL A   1      42.133  20.539  26.721  1.00  0.00    -0.376 OA
BRANCH   2   3
ATOM      3  C   UNL A   1      41.049  19.629  26.742  1.00  0.00     0.202 C 
BRANCH   3   4
ATOM      4  C   UNL A   1      39.739  19.533  25.767  1.00  0.00     0.261 C 
BRANCH   4   5
ATOM      5  O   UNL A   1      38.385  20.438  25.186  1.00  0.00    -0.463 OA
BRANCH   5   6
ATOM      6  C   UNL A   1      36.923  20.661  25.082  1.00  0.00     0.308 C 
ATOM      7  O   UNL A   1      36.032  19.888  24.672  1.00  0.00    -0.252 OA
BRANCH   6   8
ATOM      8  C   UNL A   1      36.291  21.634  25.979  1.00  0.00     0.151 C 
BRANCH   8   9
ATOM      9  C   UNL A   1      37.068  22.825  25.552  1.00  0.00     0.051 C 
ATOM     10  C   UNL A   1      36.209  24.188  25.439  1.00  0.00     0.029 C 
ATOM     11  C   UNL A   1      36.874  22.974  23.888  1.00  0.00     0.029 C 
ATOM     12  C   UNL A   1      35.507  23.607  24.170  1.00  0.00     0.005 C 
BRANCH   9  13
ATOM     13  N   UNL A   1      38.643  22.759  26.521  1.00  0.00    -0.346 N 
ATOM     14  C   UNL A   1      39.715  23.890  27.376  1.00  0.00     0.251 C 
ATOM     15  O   UNL A   1      40.776  23.300  27.502  1.00  0.00    -0.269 OA
ATOM     16  H   UNL A   1      38.983  21.837  26.579  1.00  0.00     0.164 HD
BRANCH  14  17
ATOM     17  C   UNL A   1      39.588  25.648  28.140  1.00  0.00     0.039 A 
ATOM     18  C   UNL A   1      39.106  30.290  29.066  1.00  0.00     0.044 C 
ATOM     19  C   UNL A   1      39.146  28.789  28.959  1.00  0.00    -0.051 A 
ATOM     20  C   UNL A   1      38.920  27.696  29.794  1.00  0.00     0.004 A 
ATOM     21  C   UNL A   1      39.486  28.326  27.751  1.00  0.00     0.004 A 
ATOM     22  C   UNL A   1      39.060  26.181  29.342  1.00  0.00     0.014 A 
ATOM     23  C   UNL A   1      39.795  26.911  27.531  1.00  0.00     0.014 A 
ENDBRANCH  14  17
ENDBRANCH   9  13
ENDBRANCH   8   9
ENDBRANCH   6   8
ENDBRANCH   5   6
ENDBRANCH   4   5
ENDBRANCH   3   4
ENDBRANCH   2   3
ENDBRANCH   1   2
BRANCH   1  24
ATOM     24  C   UNL A   1      44.011  19.969  25.312  1.00  0.00     0.188 C 
BRANCH  24  25
ATOM     25  O   UNL A   1      45.057  20.632  24.635  1.00  0.00    -0.376 OA
BRANCH  25  26
ATOM     26  C   UNL A   1      45.966  21.452  25.346  1.00  0.00     0.202 C 
BRANCH  26  27
ATOM     27  C   UNL A   1      45.723  22.792  24.719  1.00  0.00     0.261 C 
BRANCH  27  28
ATOM     28  O   UNL A   1      44.941  23.530  25.737  1.00  0.00    -0.460 OA
BRANCH  28  29
ATOM     29  C   UNL A   1      45.231  24.863  25.878  1.00  0.00     0.338 C 
ATOM     30  O   UNL A   1      46.055  25.428  25.163  1.00  0.00    -0.246 OA
BRANCH  29  31
ATOM     31  C   UNL A   1      44.562  25.571  27.109  1.00  0.00     0.060 A 
ATOM     32  C   UNL A   1      45.406  26.338  27.863  1.00  0.00     0.016 A 
ATOM     33  C   UNL A   1      43.350  25.369  27.809  1.00  0.00     0.016 A 
ATOM     34  C   UNL A   1      45.086  26.704  29.257  1.00  0.00     0.010 A 
ATOM     35  C   UNL A   1      43.104  25.780  29.294  1.00  0.00     0.010 A 
ATOM     36  C   UNL A   1      44.075  26.362  30.152  1.00  0.00    -0.014 A 
BRANCH  36  37
ATOM     37  C   UNL A   1      44.216  26.375  31.919  1.00  0.00     0.031 A 
ATOM     38  C   UNL A   1      44.195  27.771  32.458  1.00  0.00     0.074 A 
ATOM     39  C   UNL A   1      44.756  25.761  33.148  1.00  0.00     0.049 A 
ATOM     40  N   UNL A   1      44.377  28.096  33.707  1.00  0.00    -0.248 NA
ATOM     41  C   UNL A   1      43.847  28.926  31.642  1.00  0.00     0.031 C 
ATOM     42  C   UNL A   1      43.795  25.212  34.167  1.00  0.00     0.029 A 
ATOM     43  N   UNL A   1      45.857  25.005  33.638  1.00  0.00    -0.354 N 
ATOM     44  C   UNL A   1      43.397  29.025  33.864  1.00  0.00     0.074 A 
ATOM     45  C   UNL A   1      43.458  29.754  32.620  1.00  0.00     0.031 C 
ATOM     46  C   UNL A   1      44.315  24.202  34.928  1.00  0.00     0.029 A 
ATOM     47  C   UNL A   1      45.674  23.889  34.490  1.00  0.00     0.049 A 
ATOM     48  H   UNL A   1      46.770  25.264  33.377  1.00  0.00     0.167 HD
ATOM     49  C   UNL A   1      42.360  28.708  34.701  1.00  0.00     0.034 A 
ATOM     50  C   UNL A   1      46.579  23.022  35.107  1.00  0.00     0.034 A 
ATOM     51  C   UNL A   1      42.636  27.637  35.715  1.00  0.00     0.049 A 
ATOM     52  C   UNL A   1      46.761  23.755  36.406  1.00  0.00     0.074 A 
ATOM     53  C   UNL A   1      41.873  26.618  36.287  1.00  0.00     0.029 A 
ATOM     54  N   UNL A   1      43.937  27.411  36.214  1.00  0.00    -0.354 N 
ATOM     55  N   UNL A   1      46.348  24.992  36.488  1.00  0.00    -0.248 NA
ATOM     56  C   UNL A   1      47.174  23.216  37.695  1.00  0.00     0.031 C 
ATOM     57  C   UNL A   1      42.691  25.863  37.181  1.00  0.00     0.029 A 
ATOM     58  C   UNL A   1      43.966  26.406  37.173  1.00  0.00     0.049 A 
ATOM     59  H   UNL A   1      44.732  27.908  35.918  1.00  0.00     0.167 HD
ATOM     60  C   UNL A   1      46.035  25.242  37.771  1.00  0.00     0.074 A 
ATOM     61  C   UNL A   1      46.732  24.195  38.515  1.00  0.00     0.031 C 
ATOM     62  C   UNL A   1      45.110  26.199  38.068  1.00  0.00     0.034 A 
BRANCH  49  63
ATOM     63  C   UNL A   1      40.958  29.270  34.462  1.00  0.00     0.023 A 
ATOM     64  C   UNL A   1      40.404  30.115  35.437  1.00  0.00     0.031 A 
ATOM     65  C   UNL A   1      40.095  28.997  33.368  1.00  0.00     0.131 A 
ATOM     66  C   UNL A   1      39.122  30.671  35.292  1.00  0.00     0.055 A 
ATOM     67  C   UNL A   1      38.869  29.641  33.169  1.00  0.00     0.041 A 
ATOM     68  F   UNL A   1      40.335  28.046  32.459  1.00  0.00    -0.206 F 
ATOM     69  C   UNL A   1      38.375  30.491  34.135  1.00  0.00     0.022 A 
BRANCH  66  70
ATOM     70  S   UNL A   1      38.429  31.618  36.667  1.00  0.00     0.124 S 
ATOM     71  O   UNL A   1      39.632  31.972  37.415  1.00  0.00    -0.237 OA
ATOM     72  O   UNL A   1      37.746  32.710  35.985  1.00  0.00    -0.237 OA
ATOM     73  O   UNL A   1      37.551  30.652  37.325  1.00  0.00    -0.744 OA
ENDBRANCH  66  70
ENDBRANCH  49  63
BRANCH  50  74
ATOM     74  C   UNL A   1      47.677  22.099  34.473  1.00  0.00     0.023 A 
ATOM     75  C   UNL A   1      49.037  22.530  34.195  1.00  0.00     0.031 A 
ATOM     76  C   UNL A   1      47.485  20.717  34.337  1.00  0.00     0.131 A 
ATOM     77  C   UNL A   1      50.137  21.604  34.066  1.00  0.00     0.055 A 
ATOM     78  C   UNL A   1      48.557  19.805  34.168  1.00  0.00     0.041 A 
ATOM     79  F   UNL A   1      46.253  20.197  34.445  1.00  0.00    -0.206 F 
ATOM     80  C   UNL A   1      49.884  20.237  34.083  1.00  0.00     0.022 A 
BRANCH  77  81
ATOM     81  S   UNL A   1      51.968  22.074  34.149  1.00  0.00     0.124 S 
ATOM     82  O   UNL A   1      51.963  23.445  33.655  1.00  0.00    -0.237 OA
ATOM     83  O   UNL A   1      52.325  21.957  35.570  1.00  0.00    -0.237 OA
ATOM     84  O   UNL A   1      52.637  21.115  33.284  1.00  0.00    -0.744 OA
ENDBRANCH  77  81
ENDBRANCH  50  74
BRANCH  62  85
ATOM     85  C   UNL A   1      45.244  27.086  39.250  1.00  0.00     0.023 A 
ATOM     86  C   UNL A   1      45.547  28.435  39.133  1.00  0.00     0.031 A 
ATOM     87  C   UNL A   1      44.882  26.624  40.536  1.00  0.00     0.131 A 
ATOM     88  C   UNL A   1      45.468  29.280  40.237  1.00  0.00     0.055 A 
ATOM     89  C   UNL A   1      44.797  27.465  41.636  1.00  0.00     0.041 A 
ATOM     90  F   UNL A   1      44.526  25.357  40.782  1.00  0.00    -0.206 F 
ATOM     91  C   UNL A   1      45.088  28.810  41.490  1.00  0.00     0.022 A 
BRANCH  88  92
ATOM     92  S   UNL A   1      45.840  31.017  39.943  1.00  0.00     0.124 S 
ATOM     93  O   UNL A   1      46.231  31.010  38.535  1.00  0.00    -0.237 OA
ATOM     94  O   UNL A   1      44.559  31.656  40.236  1.00  0.00    -0.237 OA
ATOM     95  O   UNL A   1      46.911  31.299  40.891  1.00  0.00    -0.744 OA
ENDBRANCH  88  92
ENDBRANCH  62  85
ENDBRANCH  36  37
ENDBRANCH  29  31
ENDBRANCH  28  29
ENDBRANCH  27  28
ENDBRANCH  26  27
ENDBRANCH  25  26
ENDBRANCH  24  25
ENDBRANCH   1  24
TORSDOF 23
ENDMDL
