MODEL 1
REMARK VINA RESULT:     -11.8      0.000      0.000
REMARK SMILES O=C(OCCOCCOCCOC(=O)c1ccc(-c2c3nc(c(-c4cc(S(=O)(=O)[O-])ccc4F)c4ccc([nH]4)c(-c4cc(S(=O)(=O)[O-])ccc4F)c4nc(c(-c5cc(S(=O)(=O)[O-])ccc5F)c5ccc2[nH]5)C=C4)C=C3)cc1)C1=Cc2cc(S(F)(F)(F)(F)F)cc(Br)c2O[C@@H]1C(F)(F)F
REMARK SMILES IDX 8 1 7 2 6 3 5 4 4 5 3 6 2 7 1 8 78 9 79 10 94 11 80 12 93 13
REMARK SMILES IDX 81 14 92 15 82 16 90 17 89 18 91 19 95 20 96 21 97 22 98 23
REMARK SMILES IDX 83 24 84 25 85 26 86 27 87 28 88 29 9 30 10 31 11 32 12 33
REMARK SMILES IDX 13 34 14 35 15 36 16 37 77 38 17 39 76 40 18 41 19 42 20 43
REMARK SMILES IDX 70 44 21 45 75 46 69 47 71 48 22 49 74 50 68 51 67 52 23 54
REMARK SMILES IDX 55 55 35 56 54 57 36 58 39 59 53 60 72 61 37 62 38 63 52 65
REMARK SMILES IDX 73 66 40 67 24 68 25 69 33 70 26 71 32 72 34 73 31 74 27 75
REMARK SMILES IDX 28 76 29 77 30 78 56 79 57 80 65 81 58 82 64 83 66 84 63 85
REMARK SMILES IDX 59 86 60 87 61 88 62 89 41 90 42 91 50 92 43 93 49 94 51 95
REMARK SMILES IDX 48 96 44 97 45 98 46 99 47 100
REMARK H PARENT 71 53 39 64
REMARK Flexibility Score: inf
ROOT
ATOM      1  C   UNL A   1      34.781  20.808  24.934  1.00  0.00     0.188 C 
ENDROOT
BRANCH   1   2
ATOM      2  C   UNL A   1      34.250  22.062  25.608  1.00  0.00     0.188 C 
BRANCH   2   3
ATOM      3  O   UNL A   1      33.023  21.767  26.259  1.00  0.00    -0.376 OA
BRANCH   3   4
ATOM      4  C   UNL A   1      32.870  22.614  27.387  1.00  0.00     0.202 C 
BRANCH   4   5
ATOM      5  C   UNL A   1      31.611  23.452  27.225  1.00  0.00     0.261 C 
BRANCH   5   6
ATOM      6  O   UNL A   1      31.887  24.564  26.385  1.00  0.00    -0.460 OA
BRANCH   6   7
ATOM      7  C   UNL A   1      30.885  25.057  25.508  1.00  0.00     0.338 C 
ATOM      8  O   UNL A   1      29.902  25.716  25.973  1.00  0.00    -0.246 OA
BRANCH   7   9
ATOM      9  C   UNL A   1      30.989  24.799  24.014  1.00  0.00     0.087 C 
ATOM     10  C   UNL A   1      30.840  25.827  23.134  1.00  0.00     0.027 C 
ATOM     11  C   UNL A   1      31.260  23.394  23.502  1.00  0.00     0.316 C 
ATOM     12  C   UNL A   1      30.571  27.233  23.646  1.00  0.00     0.020 A 
ATOM     13  O   UNL A   1      32.092  26.759  25.409  1.00  0.00    -0.474 OA
ATOM     14  C   UNL A   1      29.668  28.059  22.998  1.00  0.00     0.036 A 
ATOM     15  C   UNL A   1      31.297  27.672  24.667  1.00  0.00     0.142 A 
ATOM     16  C   UNL A   1      29.811  29.429  23.320  1.00  0.00     0.109 A 
ATOM     17  C   UNL A   1      31.285  29.001  25.013  1.00  0.00     0.062 A 
ATOM     18  C   UNL A   1      30.461  29.887  24.376  1.00  0.00     0.044 A 
ATOM     19  Br  UNL A   1      32.468  29.639  26.440  1.00  0.00    -0.047 Br
BRANCH  11  20
ATOM     20  C   UNL A   1      32.553  23.385  22.705  1.00  0.00     0.430 C 
ATOM     21  F   UNL A   1      32.376  24.049  21.566  1.00  0.00    -0.167 F 
ATOM     22  F   UNL A   1      33.515  23.970  23.413  1.00  0.00    -0.167 F 
ATOM     23  F   UNL A   1      32.901  22.130  22.437  1.00  0.00    -0.167 F 
ENDBRANCH  11  20
BRANCH  16  24
ATOM     24  S   UNL A   1      29.054  30.639  22.208  1.00  0.00     0.310 S 
ATOM     25  F   UNL A   1      28.138  29.537  21.528  1.00  0.00    -0.094 F 
ATOM     26  F   UNL A   1      30.151  30.292  21.132  1.00  0.00    -0.094 F 
ATOM     27  F   UNL A   1      28.406  31.679  21.251  1.00  0.00    -0.094 F 
ATOM     28  F   UNL A   1      27.882  30.872  23.240  1.00  0.00    -0.094 F 
ATOM     29  F   UNL A   1      29.634  29.506  23.144  1.00  0.00    -0.094 F 
ENDBRANCH  16  24
ENDBRANCH   7   9
ENDBRANCH   6   7
ENDBRANCH   5   6
ENDBRANCH   4   5
ENDBRANCH   3   4
ENDBRANCH   2   3
ENDBRANCH   1   2
BRANCH   1  30
ATOM     30  O   UNL A   1      36.197  20.877  24.854  1.00  0.00    -0.376 OA
BRANCH  30  31
ATOM     31  C   UNL A   1      36.730  19.564  24.755  1.00  0.00     0.202 C 
BRANCH  31  32
ATOM     32  C   UNL A   1      38.234  19.609  24.968  1.00  0.00     0.261 C 
BRANCH  32  33
ATOM     33  O   UNL A   1      38.578  20.800  25.660  1.00  0.00    -0.460 OA
BRANCH  33  34
ATOM     34  C   UNL A   1      39.796  20.871  26.387  1.00  0.00     0.338 C 
ATOM     35  O   UNL A   1      40.481  19.819  26.585  1.00  0.00    -0.246 OA
BRANCH  34  36
ATOM     36  C   UNL A   1      40.281  22.206  26.929  1.00  0.00     0.060 A 
ATOM     37  C   UNL A   1      41.333  22.288  27.826  1.00  0.00     0.016 A 
ATOM     38  C   UNL A   1      39.736  23.297  26.405  1.00  0.00     0.016 A 
ATOM     39  C   UNL A   1      41.555  23.590  28.334  1.00  0.00     0.010 A 
ATOM     40  C   UNL A   1      40.098  24.545  26.855  1.00  0.00     0.010 A 
ATOM     41  C   UNL A   1      41.090  24.697  27.783  1.00  0.00    -0.014 A 
BRANCH  41  42
ATOM     42  C   UNL A   1      41.631  26.066  28.162  1.00  0.00     0.031 A 
ATOM     43  C   UNL A   1      40.738  26.928  28.802  1.00  0.00     0.074 A 
ATOM     44  C   UNL A   1      42.899  26.434  27.748  1.00  0.00     0.049 A 
ATOM     45  N   UNL A   1      40.942  28.199  29.150  1.00  0.00    -0.248 NA
ATOM     46  C   UNL A   1      39.377  26.549  29.213  1.00  0.00     0.031 C 
ATOM     47  C   UNL A   1      43.808  25.569  27.110  1.00  0.00     0.029 A 
ATOM     48  N   UNL A   1      43.504  27.666  27.870  1.00  0.00    -0.354 N 
ATOM     49  C   UNL A   1      39.861  28.689  29.762  1.00  0.00     0.074 A 
ATOM     50  C   UNL A   1      38.837  27.637  29.804  1.00  0.00     0.031 C 
ATOM     51  C   UNL A   1      44.940  26.271  26.839  1.00  0.00     0.029 A 
ATOM     52  C   UNL A   1      44.757  27.587  27.305  1.00  0.00     0.049 A 
ATOM     53  H   UNL A   1      43.108  28.464  28.287  1.00  0.00     0.167 HD
ATOM     54  C   UNL A   1      39.690  29.972  30.285  1.00  0.00     0.034 A 
ATOM     55  C   UNL A   1      45.702  28.594  27.192  1.00  0.00     0.034 A 
ATOM     56  C   UNL A   1      40.653  30.967  30.210  1.00  0.00     0.049 A 
ATOM     57  C   UNL A   1      45.508  29.895  27.664  1.00  0.00     0.074 A 
ATOM     58  C   UNL A   1      40.500  32.262  30.741  1.00  0.00     0.029 A 
ATOM     59  N   UNL A   1      41.896  30.895  29.624  1.00  0.00    -0.354 N 
ATOM     60  N   UNL A   1      44.444  30.373  28.310  1.00  0.00    -0.248 NA
ATOM     61  C   UNL A   1      46.490  30.979  27.521  1.00  0.00     0.031 C 
ATOM     62  C   UNL A   1      41.632  32.965  30.470  1.00  0.00     0.029 A 
ATOM     63  C   UNL A   1      42.510  32.120  29.766  1.00  0.00     0.049 A 
ATOM     64  H   UNL A   1      42.281  30.105  29.181  1.00  0.00     0.167 HD
ATOM     65  C   UNL A   1      44.633  31.656  28.621  1.00  0.00     0.074 A 
ATOM     66  C   UNL A   1      45.948  32.068  28.111  1.00  0.00     0.031 C 
ATOM     67  C   UNL A   1      43.764  32.501  29.313  1.00  0.00     0.034 A 
BRANCH  54  68
ATOM     68  C   UNL A   1      38.376  30.294  30.979  1.00  0.00     0.023 A 
ATOM     69  C   UNL A   1      37.316  30.855  30.286  1.00  0.00     0.031 A 
ATOM     70  C   UNL A   1      38.336  30.143  32.298  1.00  0.00     0.131 A 
ATOM     71  C   UNL A   1      36.366  31.497  31.116  1.00  0.00     0.055 A 
ATOM     72  C   UNL A   1      37.306  30.680  33.031  1.00  0.00     0.041 A 
ATOM     73  F   UNL A   1      39.301  29.467  32.914  1.00  0.00    -0.206 F 
ATOM     74  C   UNL A   1      36.254  31.301  32.416  1.00  0.00     0.022 A 
BRANCH  71  75
ATOM     75  S   UNL A   1      35.224  32.666  30.338  1.00  0.00     0.124 S 
ATOM     76  O   UNL A   1      36.012  33.856  29.784  1.00  0.00    -0.237 OA
ATOM     77  O   UNL A   1      34.480  31.970  29.196  1.00  0.00    -0.237 OA
ATOM     78  O   UNL A   1      34.097  33.220  31.499  1.00  0.00    -0.744 OA
ENDBRANCH  71  75
ENDBRANCH  54  68
BRANCH  55  79
ATOM     79  C   UNL A   1      47.022  28.267  26.513  1.00  0.00     0.023 A 
ATOM     80  C   UNL A   1      47.221  28.323  25.143  1.00  0.00     0.031 A 
ATOM     81  C   UNL A   1      48.025  28.014  27.345  1.00  0.00     0.131 A 
ATOM     82  C   UNL A   1      48.471  27.809  24.725  1.00  0.00     0.055 A 
ATOM     83  C   UNL A   1      49.259  27.649  26.863  1.00  0.00     0.041 A 
ATOM     84  F   UNL A   1      47.834  28.115  28.657  1.00  0.00    -0.206 F 
ATOM     85  C   UNL A   1      49.510  27.626  25.519  1.00  0.00     0.022 A 
BRANCH  82  86
ATOM     86  S   UNL A   1      48.660  27.374  22.978  1.00  0.00     0.124 S 
ATOM     87  O   UNL A   1      47.673  28.190  22.139  1.00  0.00    -0.237 OA
ATOM     88  O   UNL A   1      50.089  27.684  22.527  1.00  0.00    -0.237 OA
ATOM     89  O   UNL A   1      48.345  25.707  22.768  1.00  0.00    -0.744 OA
ENDBRANCH  82  86
ENDBRANCH  55  79
BRANCH  67  90
ATOM     90  C   UNL A   1      44.218  33.926  29.585  1.00  0.00     0.023 A 
ATOM     91  C   UNL A   1      43.775  34.990  28.817  1.00  0.00     0.031 A 
ATOM     92  C   UNL A   1      44.971  34.119  30.662  1.00  0.00     0.131 A 
ATOM     93  C   UNL A   1      44.424  36.214  29.104  1.00  0.00     0.055 A 
ATOM     94  C   UNL A   1      45.460  35.369  30.957  1.00  0.00     0.041 A 
ATOM     95  F   UNL A   1      45.255  33.095  31.461  1.00  0.00    -0.206 F 
ATOM     96  C   UNL A   1      45.111  36.457  30.206  1.00  0.00     0.022 A 
BRANCH  93  97
ATOM     97  S   UNL A   1      44.304  37.538  27.877  1.00  0.00     0.124 S 
ATOM     98  O   UNL A   1      43.873  38.835  28.564  1.00  0.00    -0.237 OA
ATOM     99  O   UNL A   1      45.666  37.742  27.211  1.00  0.00    -0.237 OA
ATOM    100  O   UNL A   1      43.147  37.112  26.690  1.00  0.00    -0.744 OA
ENDBRANCH  93  97
ENDBRANCH  67  90
ENDBRANCH  41  42
ENDBRANCH  34  36
ENDBRANCH  33  34
ENDBRANCH  32  33
ENDBRANCH  31  32
ENDBRANCH  30  31
ENDBRANCH   1  30
TORSDOF 22
ENDMDL
MODEL 2
REMARK VINA RESULT:     -11.7      0.650      7.189
REMARK SMILES O=C(OCCOCCOCCOC(=O)c1ccc(-c2c3nc(c(-c4cc(S(=O)(=O)[O-])ccc4F)c4ccc([nH]4)c(-c4cc(S(=O)(=O)[O-])ccc4F)c4nc(c(-c5cc(S(=O)(=O)[O-])ccc5F)c5ccc2[nH]5)C=C4)C=C3)cc1)C1=Cc2cc(S(F)(F)(F)(F)F)cc(Br)c2O[C@@H]1C(F)(F)F
REMARK SMILES IDX 8 1 7 2 6 3 5 4 4 5 3 6 2 7 1 8 78 9 79 10 94 11 80 12 93 13
REMARK SMILES IDX 81 14 92 15 82 16 90 17 89 18 91 19 95 20 96 21 97 22 98 23
REMARK SMILES IDX 83 24 84 25 85 26 86 27 87 28 88 29 9 30 10 31 11 32 12 33
REMARK SMILES IDX 13 34 14 35 15 36 16 37 77 38 17 39 76 40 18 41 19 42 20 43
REMARK SMILES IDX 70 44 21 45 75 46 69 47 71 48 22 49 74 50 68 51 67 52 23 54
REMARK SMILES IDX 55 55 35 56 54 57 36 58 39 59 53 60 72 61 37 62 38 63 52 65
REMARK SMILES IDX 73 66 40 67 24 68 25 69 33 70 26 71 32 72 34 73 31 74 27 75
REMARK SMILES IDX 28 76 29 77 30 78 56 79 57 80 65 81 58 82 64 83 66 84 63 85
REMARK SMILES IDX 59 86 60 87 61 88 62 89 41 90 42 91 50 92 43 93 49 94 51 95
REMARK SMILES IDX 48 96 44 97 45 98 46 99 47 100
REMARK H PARENT 71 53 39 64
REMARK Flexibility Score: inf
ROOT
ATOM      1  C   UNL A   1      35.986  20.805  25.007  1.00  0.00     0.188 C 
ENDROOT
BRANCH   1   2
ATOM      2  C   UNL A   1      35.717  22.271  25.304  1.00  0.00     0.188 C 
BRANCH   2   3
ATOM      3  O   UNL A   1      34.469  22.397  25.969  1.00  0.00    -0.376 OA
BRANCH   3   4
ATOM      4  C   UNL A   1      34.306  23.734  26.420  1.00  0.00     0.202 C 
BRANCH   4   5
ATOM      5  C   UNL A   1      32.830  24.013  26.657  1.00  0.00     0.261 C 
BRANCH   5   6
ATOM      6  O   UNL A   1      32.478  25.246  26.049  1.00  0.00    -0.460 OA
BRANCH   6   7
ATOM      7  C   UNL A   1      31.334  25.323  25.210  1.00  0.00     0.338 C 
ATOM      8  O   UNL A   1      30.196  25.585  25.710  1.00  0.00    -0.246 OA
BRANCH   7   9
ATOM      9  C   UNL A   1      31.472  25.092  23.714  1.00  0.00     0.087 C 
ATOM     10  C   UNL A   1      31.140  26.080  22.839  1.00  0.00     0.027 C 
ATOM     11  C   UNL A   1      31.982  23.758  23.195  1.00  0.00     0.316 C 
ATOM     12  C   UNL A   1      30.630  27.415  23.358  1.00  0.00     0.020 A 
ATOM     13  O   UNL A   1      32.222  27.210  25.111  1.00  0.00    -0.474 OA
ATOM     14  C   UNL A   1      29.592  28.072  22.720  1.00  0.00     0.036 A 
ATOM     15  C   UNL A   1      31.275  27.972  24.378  1.00  0.00     0.142 A 
ATOM     16  C   UNL A   1      29.494  29.445  23.047  1.00  0.00     0.109 A 
ATOM     17  C   UNL A   1      31.031  29.277  24.730  1.00  0.00     0.062 A 
ATOM     18  C   UNL A   1      30.060  30.006  24.101  1.00  0.00     0.044 A 
ATOM     19  Br  UNL A   1      32.093  30.108  26.153  1.00  0.00    -0.047 Br
BRANCH  11  20
ATOM     20  C   UNL A   1      33.253  23.979  22.390  1.00  0.00     0.430 C 
ATOM     21  F   UNL A   1      33.988  22.871  22.410  1.00  0.00    -0.167 F 
ATOM     22  F   UNL A   1      32.934  24.277  21.133  1.00  0.00    -0.167 F 
ATOM     23  F   UNL A   1      33.945  24.982  22.921  1.00  0.00    -0.167 F 
ENDBRANCH  11  20
BRANCH  16  24
ATOM     24  S   UNL A   1      28.529  30.507  21.945  1.00  0.00     0.310 S 
ATOM     25  F   UNL A   1      29.137  31.828  22.579  1.00  0.00    -0.094 F 
ATOM     26  F   UNL A   1      27.405  30.576  23.046  1.00  0.00    -0.094 F 
ATOM     27  F   UNL A   1      27.696  31.418  20.999  1.00  0.00    -0.094 F 
ATOM     28  F   UNL A   1      29.723  30.541  20.912  1.00  0.00    -0.094 F 
ATOM     29  F   UNL A   1      29.432  29.675  22.939  1.00  0.00    -0.094 F 
ENDBRANCH  16  24
ENDBRANCH   7   9
ENDBRANCH   6   7
ENDBRANCH   5   6
ENDBRANCH   4   5
ENDBRANCH   3   4
ENDBRANCH   2   3
ENDBRANCH   1   2
BRANCH   1  30
ATOM     30  O   UNL A   1      37.354  20.635  24.665  1.00  0.00    -0.376 OA
BRANCH  30  31
ATOM     31  C   UNL A   1      37.748  19.299  24.942  1.00  0.00     0.202 C 
BRANCH  31  32
ATOM     32  C   UNL A   1      39.141  19.298  25.551  1.00  0.00     0.261 C 
BRANCH  32  33
ATOM     33  O   UNL A   1      39.524  20.630  25.859  1.00  0.00    -0.460 OA
BRANCH  33  34
ATOM     34  C   UNL A   1      40.345  20.889  26.988  1.00  0.00     0.338 C 
ATOM     35  O   UNL A   1      40.779  19.924  27.694  1.00  0.00    -0.246 OA
BRANCH  34  36
ATOM     36  C   UNL A   1      40.706  22.319  27.354  1.00  0.00     0.060 A 
ATOM     37  C   UNL A   1      41.675  22.605  28.301  1.00  0.00     0.016 A 
ATOM     38  C   UNL A   1      40.144  23.281  26.632  1.00  0.00     0.016 A 
ATOM     39  C   UNL A   1      41.779  23.980  28.619  1.00  0.00     0.010 A 
ATOM     40  C   UNL A   1      40.396  24.604  26.910  1.00  0.00     0.010 A 
ATOM     41  C   UNL A   1      41.298  24.959  27.874  1.00  0.00    -0.014 A 
BRANCH  41  42
ATOM     42  C   UNL A   1      41.725  26.404  28.077  1.00  0.00     0.031 A 
ATOM     43  C   UNL A   1      43.037  26.717  27.715  1.00  0.00     0.074 A 
ATOM     44  C   UNL A   1      40.868  27.282  28.717  1.00  0.00     0.049 A 
ATOM     45  N   UNL A   1      43.670  27.879  27.878  1.00  0.00    -0.248 NA
ATOM     46  C   UNL A   1      43.961  25.774  27.065  1.00  0.00     0.031 C 
ATOM     47  C   UNL A   1      39.542  26.977  29.078  1.00  0.00     0.029 A 
ATOM     48  N   UNL A   1      41.126  28.576  29.113  1.00  0.00    -0.354 N 
ATOM     49  C   UNL A   1      44.909  27.802  27.387  1.00  0.00     0.074 A 
ATOM     50  C   UNL A   1      45.116  26.444  26.864  1.00  0.00     0.031 C 
ATOM     51  C   UNL A   1      39.011  28.065  29.695  1.00  0.00     0.029 A 
ATOM     52  C   UNL A   1      39.997  29.070  29.728  1.00  0.00     0.049 A 
ATOM     53  H   UNL A   1      41.971  29.062  28.982  1.00  0.00     0.167 HD
ATOM     54  C   UNL A   1      45.875  28.810  27.356  1.00  0.00     0.034 A 
ATOM     55  C   UNL A   1      39.817  30.322  30.293  1.00  0.00     0.034 A 
ATOM     56  C   UNL A   1      45.679  30.077  27.882  1.00  0.00     0.049 A 
ATOM     57  C   UNL A   1      40.803  31.312  30.313  1.00  0.00     0.074 A 
ATOM     58  C   UNL A   1      46.639  31.107  27.851  1.00  0.00     0.029 A 
ATOM     59  N   UNL A   1      44.559  30.563  28.518  1.00  0.00    -0.354 N 
ATOM     60  N   UNL A   1      42.027  31.248  29.788  1.00  0.00    -0.248 NA
ATOM     61  C   UNL A   1      40.635  32.631  30.937  1.00  0.00     0.031 C 
ATOM     62  C   UNL A   1      46.108  32.196  28.468  1.00  0.00     0.029 A 
ATOM     63  C   UNL A   1      44.809  31.864  28.895  1.00  0.00     0.049 A 
ATOM     64  H   UNL A   1      43.724  30.067  28.676  1.00  0.00     0.167 HD
ATOM     65  C   UNL A   1      42.675  32.396  29.989  1.00  0.00     0.074 A 
ATOM     66  C   UNL A   1      41.791  33.301  30.738  1.00  0.00     0.031 C 
ATOM     67  C   UNL A   1      43.965  32.730  29.574  1.00  0.00     0.034 A 
BRANCH  54  68
ATOM     68  C   UNL A   1      47.214  28.500  26.706  1.00  0.00     0.023 A 
ATOM     69  C   UNL A   1      47.385  28.587  25.334  1.00  0.00     0.031 A 
ATOM     70  C   UNL A   1      48.168  28.014  27.491  1.00  0.00     0.131 A 
ATOM     71  C   UNL A   1      48.498  27.860  24.849  1.00  0.00     0.055 A 
ATOM     72  C   UNL A   1      49.293  27.439  26.949  1.00  0.00     0.041 A 
ATOM     73  F   UNL A   1      48.035  28.082  28.812  1.00  0.00    -0.206 F 
ATOM     74  C   UNL A   1      49.499  27.436  25.597  1.00  0.00     0.022 A 
BRANCH  71  75
ATOM     75  S   UNL A   1      48.551  27.486  23.079  1.00  0.00     0.124 S 
ATOM     76  O   UNL A   1      48.392  25.979  22.871  1.00  0.00    -0.237 OA
ATOM     77  O   UNL A   1      47.413  28.223  22.367  1.00  0.00    -0.237 OA
ATOM     78  O   UNL A   1      50.051  27.996  22.434  1.00  0.00    -0.744 OA
ENDBRANCH  71  75
ENDBRANCH  54  68
BRANCH  55  79
ATOM     79  C   UNL A   1      38.472  30.637  30.927  1.00  0.00     0.023 A 
ATOM     80  C   UNL A   1      37.404  31.187  30.239  1.00  0.00     0.031 A 
ATOM     81  C   UNL A   1      38.350  30.247  32.190  1.00  0.00     0.131 A 
ATOM     82  C   UNL A   1      36.317  31.555  31.068  1.00  0.00     0.055 A 
ATOM     83  C   UNL A   1      37.206  30.520  32.900  1.00  0.00     0.041 A 
ATOM     84  F   UNL A   1      39.346  29.587  32.775  1.00  0.00    -0.206 F 
ATOM     85  C   UNL A   1      36.132  31.115  32.300  1.00  0.00     0.022 A 
BRANCH  82  86
ATOM     86  S   UNL A   1      35.094  32.706  30.392  1.00  0.00     0.124 S 
ATOM     87  O   UNL A   1      35.801  33.973  29.905  1.00  0.00    -0.237 OA
ATOM     88  O   UNL A   1      34.367  32.046  29.218  1.00  0.00    -0.237 OA
ATOM     89  O   UNL A   1      33.963  33.115  31.607  1.00  0.00    -0.744 OA
ENDBRANCH  82  86
ENDBRANCH  55  79
BRANCH  67  90
ATOM     90  C   UNL A   1      44.478  34.126  29.888  1.00  0.00     0.023 A 
ATOM     91  C   UNL A   1      44.101  35.226  29.134  1.00  0.00     0.031 A 
ATOM     92  C   UNL A   1      45.214  34.263  30.984  1.00  0.00     0.131 A 
ATOM     93  C   UNL A   1      44.798  36.412  29.461  1.00  0.00     0.055 A 
ATOM     94  C   UNL A   1      45.752  35.482  31.318  1.00  0.00     0.041 A 
ATOM     95  F   UNL A   1      45.432  33.210  31.767  1.00  0.00    -0.206 F 
ATOM     96  C   UNL A   1      45.470  36.600  30.583  1.00  0.00     0.022 A 
BRANCH  93  97
ATOM     97  S   UNL A   1      44.767  37.765  28.261  1.00  0.00     0.124 S 
ATOM     98  O   UNL A   1      44.048  38.971  28.869  1.00  0.00    -0.237 OA
ATOM     99  O   UNL A   1      46.200  38.157  27.895  1.00  0.00    -0.237 OA
ATOM    100  O   UNL A   1      43.938  37.259  26.853  1.00  0.00    -0.744 OA
ENDBRANCH  93  97
ENDBRANCH  67  90
ENDBRANCH  41  42
ENDBRANCH  34  36
ENDBRANCH  33  34
ENDBRANCH  32  33
ENDBRANCH  31  32
ENDBRANCH  30  31
ENDBRANCH   1  30
TORSDOF 22
ENDMDL
MODEL 3
REMARK VINA RESULT:     -11.4      2.435      7.785
REMARK SMILES O=C(OCCOCCOCCOC(=O)c1ccc(-c2c3nc(c(-c4cc(S(=O)(=O)[O-])ccc4F)c4ccc([nH]4)c(-c4cc(S(=O)(=O)[O-])ccc4F)c4nc(c(-c5cc(S(=O)(=O)[O-])ccc5F)c5ccc2[nH]5)C=C4)C=C3)cc1)C1=Cc2cc(S(F)(F)(F)(F)F)cc(Br)c2O[C@@H]1C(F)(F)F
REMARK SMILES IDX 8 1 7 2 6 3 5 4 4 5 3 6 2 7 1 8 78 9 79 10 94 11 80 12 93 13
REMARK SMILES IDX 81 14 92 15 82 16 90 17 89 18 91 19 95 20 96 21 97 22 98 23
REMARK SMILES IDX 83 24 84 25 85 26 86 27 87 28 88 29 9 30 10 31 11 32 12 33
REMARK SMILES IDX 13 34 14 35 15 36 16 37 77 38 17 39 76 40 18 41 19 42 20 43
REMARK SMILES IDX 70 44 21 45 75 46 69 47 71 48 22 49 74 50 68 51 67 52 23 54
REMARK SMILES IDX 55 55 35 56 54 57 36 58 39 59 53 60 72 61 37 62 38 63 52 65
REMARK SMILES IDX 73 66 40 67 24 68 25 69 33 70 26 71 32 72 34 73 31 74 27 75
REMARK SMILES IDX 28 76 29 77 30 78 56 79 57 80 65 81 58 82 64 83 66 84 63 85
REMARK SMILES IDX 59 86 60 87 61 88 62 89 41 90 42 91 50 92 43 93 49 94 51 95
REMARK SMILES IDX 48 96 44 97 45 98 46 99 47 100
REMARK H PARENT 71 53 39 64
REMARK Flexibility Score: inf
ROOT
ATOM      1  C   UNL A   1      34.671  22.610  23.483  1.00  0.00     0.188 C 
ENDROOT
BRANCH   1   2
ATOM      2  C   UNL A   1      33.363  23.069  22.858  1.00  0.00     0.188 C 
BRANCH   2   3
ATOM      3  O   UNL A   1      33.638  23.949  21.778  1.00  0.00    -0.376 OA
BRANCH   3   4
ATOM      4  C   UNL A   1      32.800  25.090  21.873  1.00  0.00     0.202 C 
BRANCH   4   5
ATOM      5  C   UNL A   1      33.642  26.311  22.209  1.00  0.00     0.261 C 
BRANCH   5   6
ATOM      6  O   UNL A   1      32.905  27.175  23.060  1.00  0.00    -0.460 OA
BRANCH   6   7
ATOM      7  C   UNL A   1      33.207  27.235  24.446  1.00  0.00     0.338 C 
ATOM      8  O   UNL A   1      33.395  26.162  25.102  1.00  0.00    -0.246 OA
BRANCH   7   9
ATOM      9  C   UNL A   1      33.307  28.581  25.146  1.00  0.00     0.087 C 
ATOM     10  C   UNL A   1      32.311  29.497  25.002  1.00  0.00     0.027 C 
ATOM     11  C   UNL A   1      34.518  28.902  26.006  1.00  0.00     0.316 C 
ATOM     12  C   UNL A   1      31.099  29.175  24.143  1.00  0.00     0.020 A 
ATOM     13  O   UNL A   1      31.215  26.966  25.010  1.00  0.00    -0.474 OA
ATOM     14  C   UNL A   1      30.544  30.137  23.316  1.00  0.00     0.036 A 
ATOM     15  C   UNL A   1      30.537  27.980  24.284  1.00  0.00     0.142 A 
ATOM     16  C   UNL A   1      29.225  29.842  22.898  1.00  0.00     0.109 A 
ATOM     17  C   UNL A   1      29.306  27.717  23.734  1.00  0.00     0.062 A 
ATOM     18  C   UNL A   1      28.671  28.643  22.954  1.00  0.00     0.044 A 
ATOM     19  Br  UNL A   1      28.446  25.989  24.073  1.00  0.00    -0.047 Br
BRANCH  11  20
ATOM     20  C   UNL A   1      34.067  29.183  27.431  1.00  0.00     0.430 C 
ATOM     21  F   UNL A   1      33.588  30.421  27.508  1.00  0.00    -0.167 F 
ATOM     22  F   UNL A   1      33.117  28.318  27.773  1.00  0.00    -0.167 F 
ATOM     23  F   UNL A   1      35.101  29.054  28.256  1.00  0.00    -0.167 F 
ENDBRANCH  11  20
BRANCH  16  24
ATOM     24  S   UNL A   1      28.226  31.200  22.242  1.00  0.00     0.310 S 
ATOM     25  F   UNL A   1      29.253  32.292  22.761  1.00  0.00    -0.094 F 
ATOM     26  F   UNL A   1      27.509  31.309  23.641  1.00  0.00    -0.094 F 
ATOM     27  F   UNL A   1      27.365  32.368  21.681  1.00  0.00    -0.094 F 
ATOM     28  F   UNL A   1      29.049  31.172  20.895  1.00  0.00    -0.094 F 
ATOM     29  F   UNL A   1      29.184  30.092  22.834  1.00  0.00    -0.094 F 
ENDBRANCH  16  24
ENDBRANCH   7   9
ENDBRANCH   6   7
ENDBRANCH   5   6
ENDBRANCH   4   5
ENDBRANCH   3   4
ENDBRANCH   2   3
ENDBRANCH   1   2
BRANCH   1  30
ATOM     30  O   UNL A   1      34.435  22.192  24.819  1.00  0.00    -0.376 OA
BRANCH  30  31
ATOM     31  C   UNL A   1      34.520  20.776  24.894  1.00  0.00     0.202 C 
BRANCH  31  32
ATOM     32  C   UNL A   1      35.977  20.361  25.007  1.00  0.00     0.261 C 
BRANCH  32  33
ATOM     33  O   UNL A   1      36.694  21.343  25.740  1.00  0.00    -0.460 OA
BRANCH  33  34
ATOM     34  C   UNL A   1      38.113  21.299  25.787  1.00  0.00     0.338 C 
ATOM     35  O   UNL A   1      38.731  20.274  25.360  1.00  0.00    -0.246 OA
BRANCH  34  36
ATOM     36  C   UNL A   1      38.892  22.477  26.348  1.00  0.00     0.060 A 
ATOM     37  C   UNL A   1      40.109  22.307  26.986  1.00  0.00     0.016 A 
ATOM     38  C   UNL A   1      38.416  23.689  26.083  1.00  0.00     0.016 A 
ATOM     39  C   UNL A   1      40.622  23.490  27.570  1.00  0.00     0.010 A 
ATOM     40  C   UNL A   1      39.045  24.809  26.573  1.00  0.00     0.010 A 
ATOM     41  C   UNL A   1      40.221  24.711  27.263  1.00  0.00    -0.014 A 
BRANCH  41  42
ATOM     42  C   UNL A   1      41.024  25.939  27.657  1.00  0.00     0.031 A 
ATOM     43  C   UNL A   1      42.360  25.960  27.251  1.00  0.00     0.074 A 
ATOM     44  C   UNL A   1      40.453  26.887  28.488  1.00  0.00     0.049 A 
ATOM     45  N   UNL A   1      43.286  26.875  27.546  1.00  0.00    -0.248 NA
ATOM     46  C   UNL A   1      42.979  24.936  26.395  1.00  0.00     0.031 C 
ATOM     47  C   UNL A   1      39.105  26.877  28.895  1.00  0.00     0.029 A 
ATOM     48  N   UNL A   1      41.059  27.983  29.061  1.00  0.00    -0.354 N 
ATOM     49  C   UNL A   1      44.443  26.564  26.958  1.00  0.00     0.074 A 
ATOM     50  C   UNL A   1      44.264  25.310  26.215  1.00  0.00     0.031 C 
ATOM     51  C   UNL A   1      38.903  27.944  29.712  1.00  0.00     0.029 A 
ATOM     52  C   UNL A   1      40.121  28.640  29.828  1.00  0.00     0.049 A 
ATOM     53  H   UNL A   1      41.999  28.250  28.944  1.00  0.00     0.167 HD
ATOM     54  C   UNL A   1      45.641  27.279  27.013  1.00  0.00     0.034 A 
ATOM     55  C   UNL A   1      40.300  29.781  30.593  1.00  0.00     0.034 A 
ATOM     56  C   UNL A   1      45.808  28.445  27.744  1.00  0.00     0.049 A 
ATOM     57  C   UNL A   1      41.515  30.464  30.694  1.00  0.00     0.074 A 
ATOM     58  C   UNL A   1      47.006  29.183  27.802  1.00  0.00     0.029 A 
ATOM     59  N   UNL A   1      44.878  29.088  28.529  1.00  0.00    -0.354 N 
ATOM     60  N   UNL A   1      42.661  30.177  30.076  1.00  0.00    -0.248 NA
ATOM     61  C   UNL A   1      41.724  31.656  31.527  1.00  0.00     0.031 C 
ATOM     62  C   UNL A   1      46.804  30.250  28.619  1.00  0.00     0.029 A 
ATOM     63  C   UNL A   1      45.477  30.197  29.085  1.00  0.00     0.049 A 
ATOM     64  H   UNL A   1      43.945  28.805  28.669  1.00  0.00     0.167 HD
ATOM     65  C   UNL A   1      43.597  31.068  30.405  1.00  0.00     0.074 A 
ATOM     66  C   UNL A   1      43.011  32.029  31.349  1.00  0.00     0.031 C 
ATOM     67  C   UNL A   1      44.916  31.123  29.952  1.00  0.00     0.034 A 
BRANCH  54  68
ATOM     68  C   UNL A   1      46.829  26.750  26.224  1.00  0.00     0.023 A 
ATOM     69  C   UNL A   1      47.798  25.964  26.824  1.00  0.00     0.031 A 
ATOM     70  C   UNL A   1      46.968  27.186  24.977  1.00  0.00     0.131 A 
ATOM     71  C   UNL A   1      49.024  25.929  26.119  1.00  0.00     0.055 A 
ATOM     72  C   UNL A   1      48.149  26.997  24.300  1.00  0.00     0.041 A 
ATOM     73  F   UNL A   1      45.958  27.810  24.380  1.00  0.00    -0.206 F 
ATOM     74  C   UNL A   1      49.172  26.279  24.856  1.00  0.00     0.022 A 
BRANCH  71  75
ATOM     75  S   UNL A   1      50.493  25.362  27.014  1.00  0.00     0.124 S 
ATOM     76  O   UNL A   1      50.102  24.237  27.974  1.00  0.00    -0.237 OA
ATOM     77  O   UNL A   1      51.530  24.844  26.014  1.00  0.00    -0.237 OA
ATOM     78  O   UNL A   1      51.157  26.664  27.901  1.00  0.00    -0.744 OA
ENDBRANCH  71  75
ENDBRANCH  54  68
BRANCH  55  79
ATOM     79  C   UNL A   1      39.108  30.319  31.368  1.00  0.00     0.023 A 
ATOM     80  C   UNL A   1      38.194  31.222  30.849  1.00  0.00     0.031 A 
ATOM     81  C   UNL A   1      38.937  29.779  32.568  1.00  0.00     0.131 A 
ATOM     82  C   UNL A   1      37.273  31.715  31.803  1.00  0.00     0.055 A 
ATOM     83  C   UNL A   1      37.930  30.215  33.395  1.00  0.00     0.041 A 
ATOM     84  F   UNL A   1      39.747  28.806  32.974  1.00  0.00    -0.206 F 
ATOM     85  C   UNL A   1      37.026  31.148  32.970  1.00  0.00     0.022 A 
BRANCH  82  86
ATOM     86  S   UNL A   1      36.367  33.228  31.394  1.00  0.00     0.124 S 
ATOM     87  O   UNL A   1      34.910  33.088  31.843  1.00  0.00    -0.237 OA
ATOM     88  O   UNL A   1      37.009  34.418  32.112  1.00  0.00    -0.237 OA
ATOM     89  O   UNL A   1      36.421  33.486  29.704  1.00  0.00    -0.744 OA
ENDBRANCH  82  86
ENDBRANCH  55  79
BRANCH  67  90
ATOM     90  C   UNL A   1      45.792  32.265  30.440  1.00  0.00     0.023 A 
ATOM     91  C   UNL A   1      45.797  33.499  29.810  1.00  0.00     0.031 A 
ATOM     92  C   UNL A   1      46.469  32.063  31.565  1.00  0.00     0.131 A 
ATOM     93  C   UNL A   1      46.788  34.385  30.293  1.00  0.00     0.055 A 
ATOM     94  C   UNL A   1      47.317  33.027  32.053  1.00  0.00     0.041 A 
ATOM     95  F   UNL A   1      46.325  30.917  32.224  1.00  0.00    -0.206 F 
ATOM     96  C   UNL A   1      47.417  34.249  31.447  1.00  0.00     0.022 A 
BRANCH  93  97
ATOM     97  S   UNL A   1      47.223  35.805  29.259  1.00  0.00     0.124 S 
ATOM     98  O   UNL A   1      48.729  36.057  29.346  1.00  0.00    -0.237 OA
ATOM     99  O   UNL A   1      46.836  35.517  27.807  1.00  0.00    -0.237 OA
ATOM    100  O   UNL A   1      46.381  37.190  29.809  1.00  0.00    -0.744 OA
ENDBRANCH  93  97
ENDBRANCH  67  90
ENDBRANCH  41  42
ENDBRANCH  34  36
ENDBRANCH  33  34
ENDBRANCH  32  33
ENDBRANCH  31  32
ENDBRANCH  30  31
ENDBRANCH   1  30
TORSDOF 22
ENDMDL
