MODEL 1
REMARK VINA RESULT:      -9.6      0.000      0.000
REMARK SMILES CC[C@@](C)([NH3+])C(=O)Nc1cc(C(=O)OCCOCCOCCOC(=O)c2ccc(-c3c4nc(c(-c5cc(S(=O)(=O)[O-])ccc5F)c5ccc([nH]5)c(-c5cc(S(=O)(=O)[O-])ccc5F)c5nc(c(-c6cc(S(=O)(=O)[O-])ccc6F)c6ccc3[nH]6)C=C5)C=C4)cc2)cc(C(F)(F)F)c1
REMARK SMILES IDX 18 1 17 2 16 3 15 4 14 5 12 6 13 7 11 8 9 9 10 10 95 11
REMARK SMILES IDX 90 12 89 13 8 14 6 15 7 16 3 18 4 19 2 20 1 21 5 22 91 26
REMARK SMILES IDX 92 27 93 28 94 29 19 30 20 31 21 32 22 33 23 34 24 35 25 36
REMARK SMILES IDX 26 37 27 38 88 39 28 40 87 41 29 42 30 43 31 44 81 45 32 46
REMARK SMILES IDX 86 47 80 48 82 49 33 50 85 51 79 52 78 53 34 55 66 56 46 57
REMARK SMILES IDX 65 58 47 59 50 60 64 61 83 62 48 63 49 64 63 66 84 67 51 68
REMARK SMILES IDX 35 69 36 70 44 71 37 72 43 73 45 74 42 75 38 76 39 77 40 78
REMARK SMILES IDX 41 79 67 80 68 81 76 82 69 83 75 84 77 85 74 86 70 87 71 88
REMARK SMILES IDX 72 89 73 90 52 91 53 92 61 93 54 94 60 95 62 96 59 97 55 98
REMARK SMILES IDX 56 99 57 100 58 101
REMARK H PARENT 8 17 5 23 5 24 5 25 82 54 50 65
REMARK Flexibility Score: inf
ROOT
ATOM      1  C   UNL A   1      34.392  33.910  27.985  1.00  0.00     0.188 C 
ENDROOT
BRANCH   1   2
ATOM      2  O   UNL A   1      33.394  32.897  28.070  1.00  0.00    -0.376 OA
BRANCH   2   3
ATOM      3  C   UNL A   1      33.619  31.635  27.453  1.00  0.00     0.202 C 
BRANCH   3   4
ATOM      4  C   UNL A   1      32.397  30.760  27.158  1.00  0.00     0.261 C 
BRANCH   4   5
ATOM      5  O   UNL A   1      32.467  30.123  25.872  1.00  0.00    -0.460 OA
BRANCH   5   6
ATOM      6  C   UNL A   1      32.670  28.782  25.886  1.00  0.00     0.338 C 
ATOM      7  O   UNL A   1      33.151  28.114  26.786  1.00  0.00    -0.246 OA
BRANCH   6   8
ATOM      8  C   UNL A   1      32.025  28.196  24.693  1.00  0.00     0.062 A 
ATOM      9  C   UNL A   1      30.049  28.013  23.317  1.00  0.00     0.042 A 
ATOM     10  C   UNL A   1      30.678  28.505  24.457  1.00  0.00     0.041 A 
ATOM     11  C   UNL A   1      30.793  27.303  22.375  1.00  0.00     0.039 A 
ATOM     12  C   UNL A   1      32.131  26.953  22.613  1.00  0.00     0.058 A 
ATOM     13  C   UNL A   1      32.747  27.410  23.787  1.00  0.00     0.029 A 
BRANCH   9  14
ATOM     14  N   UNL A   1      28.699  28.303  23.112  1.00  0.00    -0.321 N 
ATOM     15  C   UNL A   1      28.062  29.515  22.979  1.00  0.00     0.285 C 
ATOM     16  O   UNL A   1      26.853  29.534  23.230  1.00  0.00    -0.267 OA
ATOM     17  H   UNL A   1      28.110  27.516  23.054  1.00  0.00     0.170 HD
BRANCH  15  18
ATOM     18  C   UNL A   1      28.807  30.776  22.388  1.00  0.00     0.171 C 
ATOM     19  C   UNL A   1      28.001  31.414  21.244  1.00  0.00     0.090 C 
BRANCH  18  20
ATOM     20  C   UNL A   1      29.041  31.826  23.515  1.00  0.00     0.075 C 
ATOM     21  C   UNL A   1      29.056  33.285  23.066  1.00  0.00     0.011 C 
ENDBRANCH  18  20
BRANCH  18  22
ATOM     22  N   UNL A   1      30.158  30.396  21.897  1.00  0.00    -0.345 N 
ATOM     23  H   UNL A   1      30.115  30.210  20.895  1.00  0.00     0.345 HD
ATOM     24  H   UNL A   1      30.474  29.559  22.385  1.00  0.00     0.345 HD
ATOM     25  H   UNL A   1      30.811  31.160  22.073  1.00  0.00     0.345 HD
ENDBRANCH  18  22
ENDBRANCH  15  18
ENDBRANCH   9  14
BRANCH  12  26
ATOM     26  C   UNL A   1      32.892  26.122  21.611  1.00  0.00     0.416 C 
ATOM     27  F   UNL A   1      32.078  25.498  20.718  1.00  0.00    -0.166 F 
ATOM     28  F   UNL A   1      33.758  26.871  20.872  1.00  0.00    -0.166 F 
ATOM     29  F   UNL A   1      33.653  25.146  22.181  1.00  0.00    -0.166 F 
ENDBRANCH  12  26
ENDBRANCH   6   8
ENDBRANCH   5   6
ENDBRANCH   4   5
ENDBRANCH   3   4
ENDBRANCH   2   3
ENDBRANCH   1   2
BRANCH   1  30
ATOM     30  C   UNL A   1      34.013  35.370  28.308  1.00  0.00     0.188 C 
BRANCH  30  31
ATOM     31  O   UNL A   1      32.833  35.488  29.081  1.00  0.00    -0.376 OA
BRANCH  31  32
ATOM     32  C   UNL A   1      32.936  36.218  30.290  1.00  0.00     0.202 C 
BRANCH  32  33
ATOM     33  C   UNL A   1      33.373  35.440  31.540  1.00  0.00     0.261 C 
BRANCH  33  34
ATOM     34  O   UNL A   1      33.645  34.042  31.362  1.00  0.00    -0.460 OA
BRANCH  34  35
ATOM     35  C   UNL A   1      34.161  33.368  32.416  1.00  0.00     0.338 C 
ATOM     36  O   UNL A   1      33.586  33.095  33.453  1.00  0.00    -0.246 OA
BRANCH  35  37
ATOM     37  C   UNL A   1      35.494  32.860  32.013  1.00  0.00     0.060 A 
ATOM     38  C   UNL A   1      36.198  32.016  32.882  1.00  0.00     0.016 A 
ATOM     39  C   UNL A   1      36.041  33.210  30.775  1.00  0.00     0.016 A 
ATOM     40  C   UNL A   1      37.463  31.537  32.520  1.00  0.00     0.010 A 
ATOM     41  C   UNL A   1      37.311  32.742  30.422  1.00  0.00     0.010 A 
ATOM     42  C   UNL A   1      38.040  31.922  31.300  1.00  0.00    -0.014 A 
BRANCH  42  43
ATOM     43  C   UNL A   1      39.468  31.618  31.013  1.00  0.00     0.031 A 
ATOM     44  C   UNL A   1      40.515  32.595  31.479  1.00  0.00     0.074 A 
ATOM     45  C   UNL A   1      39.833  30.505  30.352  1.00  0.00     0.049 A 
ATOM     46  N   UNL A   1      41.809  32.584  31.291  1.00  0.00    -0.248 NA
ATOM     47  C   UNL A   1      40.026  33.743  32.257  1.00  0.00     0.031 C 
ATOM     48  C   UNL A   1      38.922  29.462  29.886  1.00  0.00     0.029 A 
ATOM     49  N   UNL A   1      41.074  30.072  29.953  1.00  0.00    -0.354 N 
ATOM     50  C   UNL A   1      42.293  33.719  31.934  1.00  0.00     0.074 A 
ATOM     51  C   UNL A   1      41.145  34.416  32.472  1.00  0.00     0.031 C 
ATOM     52  C   UNL A   1      39.637  28.509  29.259  1.00  0.00     0.029 A 
ATOM     53  C   UNL A   1      41.048  28.893  29.243  1.00  0.00     0.049 A 
ATOM     54  H   UNL A   1      41.904  30.558  30.156  1.00  0.00     0.167 HD
ATOM     55  C   UNL A   1      43.577  34.136  32.073  1.00  0.00     0.034 A 
ATOM     56  C   UNL A   1      42.044  28.220  28.629  1.00  0.00     0.034 A 
ATOM     57  C   UNL A   1      44.712  33.449  31.505  1.00  0.00     0.049 A 
ATOM     58  C   UNL A   1      43.453  28.767  28.693  1.00  0.00     0.074 A 
ATOM     59  C   UNL A   1      46.052  33.787  31.580  1.00  0.00     0.029 A 
ATOM     60  N   UNL A   1      44.639  32.292  30.740  1.00  0.00    -0.354 N 
ATOM     61  N   UNL A   1      43.900  29.841  29.303  1.00  0.00    -0.248 NA
ATOM     62  C   UNL A   1      44.492  28.007  27.983  1.00  0.00     0.031 C 
ATOM     63  C   UNL A   1      46.779  32.879  30.801  1.00  0.00     0.029 A 
ATOM     64  C   UNL A   1      45.904  31.925  30.307  1.00  0.00     0.049 A 
ATOM     65  H   UNL A   1      43.809  31.803  30.534  1.00  0.00     0.167 HD
ATOM     66  C   UNL A   1      45.275  29.861  29.081  1.00  0.00     0.074 A 
ATOM     67  C   UNL A   1      45.584  28.691  28.287  1.00  0.00     0.031 C 
ATOM     68  C   UNL A   1      46.201  30.761  29.504  1.00  0.00     0.034 A 
BRANCH  55  69
ATOM     69  C   UNL A   1      43.800  35.427  32.825  1.00  0.00     0.023 A 
ATOM     70  C   UNL A   1      43.583  36.680  32.222  1.00  0.00     0.031 A 
ATOM     71  C   UNL A   1      44.288  35.408  34.143  1.00  0.00     0.131 A 
ATOM     72  C   UNL A   1      43.933  37.855  32.904  1.00  0.00     0.055 A 
ATOM     73  C   UNL A   1      44.552  36.584  34.847  1.00  0.00     0.041 A 
ATOM     74  F   UNL A   1      44.537  34.244  34.763  1.00  0.00    -0.206 F 
ATOM     75  C   UNL A   1      44.391  37.817  34.222  1.00  0.00     0.022 A 
BRANCH  72  76
ATOM     76  S   UNL A   1      43.935  39.421  31.988  1.00  0.00     0.124 S 
ATOM     77  O   UNL A   1      43.741  38.960  30.614  1.00  0.00    -0.237 OA
ATOM     78  O   UNL A   1      42.815  40.138  32.586  1.00  0.00    -0.237 OA
ATOM     79  O   UNL A   1      45.256  39.979  32.267  1.00  0.00    -0.744 OA
ENDBRANCH  72  76
ENDBRANCH  55  69
BRANCH  56  80
ATOM     80  C   UNL A   1      41.759  26.973  27.861  1.00  0.00     0.023 A 
ATOM     81  C   UNL A   1      42.021  25.707  28.409  1.00  0.00     0.031 A 
ATOM     82  C   UNL A   1      41.283  27.032  26.538  1.00  0.00     0.131 A 
ATOM     83  C   UNL A   1      41.850  24.554  27.625  1.00  0.00     0.055 A 
ATOM     84  C   UNL A   1      41.066  25.880  25.780  1.00  0.00     0.041 A 
ATOM     85  F   UNL A   1      41.022  28.216  25.963  1.00  0.00    -0.206 F 
ATOM     86  C   UNL A   1      41.362  24.632  26.319  1.00  0.00     0.022 A 
BRANCH  83  87
ATOM     87  S   UNL A   1      42.357  22.952  28.309  1.00  0.00     0.124 S 
ATOM     88  O   UNL A   1      42.851  23.335  29.627  1.00  0.00    -0.237 OA
ATOM     89  O   UNL A   1      41.105  22.203  28.285  1.00  0.00    -0.237 OA
ATOM     90  O   UNL A   1      43.375  22.488  27.369  1.00  0.00    -0.744 OA
ENDBRANCH  83  87
ENDBRANCH  56  80
BRANCH  68  91
ATOM     91  C   UNL A   1      47.645  30.481  29.158  1.00  0.00     0.023 A 
ATOM     92  C   UNL A   1      48.479  29.722  29.997  1.00  0.00     0.031 A 
ATOM     93  C   UNL A   1      48.195  30.991  27.967  1.00  0.00     0.131 A 
ATOM     94  C   UNL A   1      49.830  29.537  29.659  1.00  0.00     0.055 A 
ATOM     95  C   UNL A   1      49.523  30.755  27.608  1.00  0.00     0.041 A 
ATOM     96  F   UNL A   1      47.446  31.724  27.128  1.00  0.00    -0.206 F 
ATOM     97  C   UNL A   1      50.352  30.034  28.462  1.00  0.00     0.022 A 
BRANCH  94  98
ATOM     98  S   UNL A   1      50.923  28.708  30.846  1.00  0.00     0.124 S 
ATOM     99  O   UNL A   1      52.149  29.491  30.730  1.00  0.00    -0.237 OA
ATOM    100  O   UNL A   1      50.190  28.855  32.101  1.00  0.00    -0.237 OA
ATOM    101  O   UNL A   1      51.011  27.341  30.338  1.00  0.00    -0.744 OA
ENDBRANCH  94  98
ENDBRANCH  68  91
ENDBRANCH  42  43
ENDBRANCH  35  37
ENDBRANCH  34  35
ENDBRANCH  33  34
ENDBRANCH  32  33
ENDBRANCH  31  32
ENDBRANCH  30  31
ENDBRANCH   1  30
TORSDOF 25
ENDMDL
MODEL 2
REMARK VINA RESULT:      -9.3      5.093     11.987
REMARK SMILES CC[C@@](C)([NH3+])C(=O)Nc1cc(C(=O)OCCOCCOCCOC(=O)c2ccc(-c3c4nc(c(-c5cc(S(=O)(=O)[O-])ccc5F)c5ccc([nH]5)c(-c5cc(S(=O)(=O)[O-])ccc5F)c5nc(c(-c6cc(S(=O)(=O)[O-])ccc6F)c6ccc3[nH]6)C=C5)C=C4)cc2)cc(C(F)(F)F)c1
REMARK SMILES IDX 18 1 17 2 16 3 15 4 14 5 12 6 13 7 11 8 9 9 10 10 95 11
REMARK SMILES IDX 90 12 89 13 8 14 6 15 7 16 3 18 4 19 2 20 1 21 5 22 91 26
REMARK SMILES IDX 92 27 93 28 94 29 19 30 20 31 21 32 22 33 23 34 24 35 25 36
REMARK SMILES IDX 26 37 27 38 88 39 28 40 87 41 29 42 30 43 31 44 81 45 32 46
REMARK SMILES IDX 86 47 80 48 82 49 33 50 85 51 79 52 78 53 34 55 66 56 46 57
REMARK SMILES IDX 65 58 47 59 50 60 64 61 83 62 48 63 49 64 63 66 84 67 51 68
REMARK SMILES IDX 35 69 36 70 44 71 37 72 43 73 45 74 42 75 38 76 39 77 40 78
REMARK SMILES IDX 41 79 67 80 68 81 76 82 69 83 75 84 77 85 74 86 70 87 71 88
REMARK SMILES IDX 72 89 73 90 52 91 53 92 61 93 54 94 60 95 62 96 59 97 55 98
REMARK SMILES IDX 56 99 57 100 58 101
REMARK H PARENT 8 17 5 23 5 24 5 25 82 54 50 65
REMARK Flexibility Score: inf
ROOT
ATOM      1  C   UNL A   1      43.113  23.082  29.151  1.00  0.00     0.188 C 
ENDROOT
BRANCH   1   2
ATOM      2  O   UNL A   1      44.268  23.911  29.239  1.00  0.00    -0.376 OA
BRANCH   2   3
ATOM      3  C   UNL A   1      44.548  24.600  30.453  1.00  0.00     0.202 C 
BRANCH   3   4
ATOM      4  C   UNL A   1      44.500  23.794  31.755  1.00  0.00     0.261 C 
BRANCH   4   5
ATOM      5  O   UNL A   1      44.986  24.536  32.885  1.00  0.00    -0.460 OA
BRANCH   5   6
ATOM      6  C   UNL A   1      44.038  25.098  33.676  1.00  0.00     0.338 C 
ATOM      7  O   UNL A   1      43.337  24.541  34.503  1.00  0.00    -0.246 OA
BRANCH   6   8
ATOM      8  C   UNL A   1      44.112  26.566  33.527  1.00  0.00     0.062 A 
ATOM      9  C   UNL A   1      42.966  28.633  33.027  1.00  0.00     0.042 A 
ATOM     10  C   UNL A   1      42.951  27.244  33.130  1.00  0.00     0.041 A 
ATOM     11  C   UNL A   1      44.106  29.337  33.415  1.00  0.00     0.039 A 
ATOM     12  C   UNL A   1      45.288  28.673  33.777  1.00  0.00     0.058 A 
ATOM     13  C   UNL A   1      45.282  27.272  33.833  1.00  0.00     0.029 A 
BRANCH   9  14
ATOM     14  N   UNL A   1      41.811  29.291  32.601  1.00  0.00    -0.321 N 
ATOM     15  C   UNL A   1      40.679  29.639  33.300  1.00  0.00     0.285 C 
ATOM     16  O   UNL A   1      39.654  29.821  32.635  1.00  0.00    -0.267 OA
ATOM     17  H   UNL A   1      41.807  29.546  31.650  1.00  0.00     0.170 HD
BRANCH  15  18
ATOM     18  C   UNL A   1      40.728  29.940  34.849  1.00  0.00     0.171 C 
ATOM     19  C   UNL A   1      41.387  28.784  35.621  1.00  0.00     0.090 C 
BRANCH  18  20
ATOM     20  C   UNL A   1      41.516  31.259  35.105  1.00  0.00     0.075 C 
ATOM     21  C   UNL A   1      40.738  32.550  34.870  1.00  0.00     0.011 C 
ENDBRANCH  18  20
BRANCH  18  22
ATOM     22  N   UNL A   1      39.357  30.175  35.374  1.00  0.00    -0.345 N 
ATOM     23  H   UNL A   1      38.883  29.280  35.495  1.00  0.00     0.345 HD
ATOM     24  H   UNL A   1      38.834  30.751  34.716  1.00  0.00     0.345 HD
ATOM     25  H   UNL A   1      39.415  30.652  36.274  1.00  0.00     0.345 HD
ENDBRANCH  18  22
ENDBRANCH  15  18
ENDBRANCH   9  14
BRANCH  12  26
ATOM     26  C   UNL A   1      46.528  29.457  34.122  1.00  0.00     0.416 C 
ATOM     27  F   UNL A   1      46.998  30.187  33.076  1.00  0.00    -0.166 F 
ATOM     28  F   UNL A   1      46.313  30.345  35.133  1.00  0.00    -0.166 F 
ATOM     29  F   UNL A   1      47.565  28.679  34.540  1.00  0.00    -0.166 F 
ENDBRANCH  12  26
ENDBRANCH   6   8
ENDBRANCH   5   6
ENDBRANCH   4   5
ENDBRANCH   3   4
ENDBRANCH   2   3
ENDBRANCH   1   2
BRANCH   1  30
ATOM     30  C   UNL A   1      42.599  22.652  27.763  1.00  0.00     0.188 C 
BRANCH  30  31
ATOM     31  O   UNL A   1      42.494  21.248  27.611  1.00  0.00    -0.376 OA
BRANCH  31  32
ATOM     32  C   UNL A   1      41.196  20.729  27.378  1.00  0.00     0.202 C 
BRANCH  32  33
ATOM     33  C   UNL A   1      40.340  21.440  26.320  1.00  0.00     0.261 C 
BRANCH  33  34
ATOM     34  O   UNL A   1      39.117  22.035  26.779  1.00  0.00    -0.460 OA
BRANCH  34  35
ATOM     35  C   UNL A   1      38.660  23.118  26.109  1.00  0.00     0.338 C 
ATOM     36  O   UNL A   1      37.809  23.125  25.239  1.00  0.00    -0.246 OA
BRANCH  35  37
ATOM     37  C   UNL A   1      39.249  24.320  26.745  1.00  0.00     0.060 A 
ATOM     38  C   UNL A   1      39.045  24.543  28.113  1.00  0.00     0.016 A 
ATOM     39  C   UNL A   1      40.010  25.219  25.992  1.00  0.00     0.016 A 
ATOM     40  C   UNL A   1      39.586  25.679  28.725  1.00  0.00     0.010 A 
ATOM     41  C   UNL A   1      40.539  26.361  26.602  1.00  0.00     0.010 A 
ATOM     42  C   UNL A   1      40.311  26.612  27.967  1.00  0.00    -0.014 A 
BRANCH  42  43
ATOM     43  C   UNL A   1      40.682  27.930  28.547  1.00  0.00     0.031 A 
ATOM     44  C   UNL A   1      42.140  28.225  28.778  1.00  0.00     0.074 A 
ATOM     45  C   UNL A   1      39.751  28.847  28.867  1.00  0.00     0.049 A 
ATOM     46  N   UNL A   1      42.703  29.268  29.330  1.00  0.00    -0.248 NA
ATOM     47  C   UNL A   1      43.087  27.194  28.329  1.00  0.00     0.031 C 
ATOM     48  C   UNL A   1      38.313  28.701  28.655  1.00  0.00     0.029 A 
ATOM     49  N   UNL A   1      39.882  30.085  29.448  1.00  0.00    -0.354 N 
ATOM     50  C   UNL A   1      44.073  29.025  29.289  1.00  0.00     0.074 A 
ATOM     51  C   UNL A   1      44.246  27.713  28.701  1.00  0.00     0.031 C 
ATOM     52  C   UNL A   1      37.693  29.808  29.104  1.00  0.00     0.029 A 
ATOM     53  C   UNL A   1      38.683  30.722  29.672  1.00  0.00     0.049 A 
ATOM     54  H   UNL A   1      40.752  30.481  29.681  1.00  0.00     0.167 HD
ATOM     55  C   UNL A   1      45.093  29.824  29.691  1.00  0.00     0.034 A 
ATOM     56  C   UNL A   1      38.417  31.893  30.288  1.00  0.00     0.034 A 
ATOM     57  C   UNL A   1      44.907  31.117  30.304  1.00  0.00     0.049 A 
ATOM     58  C   UNL A   1      39.561  32.713  30.840  1.00  0.00     0.074 A 
ATOM     59  C   UNL A   1      45.869  32.005  30.754  1.00  0.00     0.029 A 
ATOM     60  N   UNL A   1      43.675  31.700  30.570  1.00  0.00    -0.354 N 
ATOM     61  N   UNL A   1      40.852  32.473  30.795  1.00  0.00    -0.248 NA
ATOM     62  C   UNL A   1      39.209  33.966  31.525  1.00  0.00     0.031 C 
ATOM     63  C   UNL A   1      45.219  33.089  31.357  1.00  0.00     0.029 A 
ATOM     64  C   UNL A   1      43.851  32.918  31.210  1.00  0.00     0.049 A 
ATOM     65  H   UNL A   1      42.802  31.307  30.338  1.00  0.00     0.167 HD
ATOM     66  C   UNL A   1      41.463  33.563  31.412  1.00  0.00     0.074 A 
ATOM     67  C   UNL A   1      40.403  34.461  31.815  1.00  0.00     0.031 C 
ATOM     68  C   UNL A   1      42.784  33.803  31.619  1.00  0.00     0.034 A 
BRANCH  55  69
ATOM     69  C   UNL A   1      46.493  29.282  29.527  1.00  0.00     0.023 A 
ATOM     70  C   UNL A   1      47.047  28.377  30.451  1.00  0.00     0.031 A 
ATOM     71  C   UNL A   1      47.305  29.717  28.465  1.00  0.00     0.131 A 
ATOM     72  C   UNL A   1      48.396  28.004  30.342  1.00  0.00     0.055 A 
ATOM     73  C   UNL A   1      48.620  29.274  28.315  1.00  0.00     0.041 A 
ATOM     74  F   UNL A   1      46.840  30.598  27.566  1.00  0.00    -0.206 F 
ATOM     75  C   UNL A   1      49.179  28.426  29.266  1.00  0.00     0.022 A 
BRANCH  72  76
ATOM     76  S   UNL A   1      49.157  27.094  31.715  1.00  0.00     0.124 S 
ATOM     77  O   UNL A   1      49.684  28.183  32.535  1.00  0.00    -0.237 OA
ATOM     78  O   UNL A   1      48.026  26.363  32.274  1.00  0.00    -0.237 OA
ATOM     79  O   UNL A   1      50.171  26.271  31.061  1.00  0.00    -0.744 OA
ENDBRANCH  72  76
ENDBRANCH  55  69
BRANCH  56  80
ATOM     80  C   UNL A   1      37.009  32.358  30.463  1.00  0.00     0.023 A 
ATOM     81  C   UNL A   1      36.338  33.039  29.435  1.00  0.00     0.031 A 
ATOM     82  C   UNL A   1      36.339  32.188  31.688  1.00  0.00     0.131 A 
ATOM     83  C   UNL A   1      35.055  33.565  29.664  1.00  0.00     0.055 A 
ATOM     84  C   UNL A   1      35.044  32.667  31.893  1.00  0.00     0.041 A 
ATOM     85  F   UNL A   1      36.937  31.549  32.706  1.00  0.00    -0.206 F 
ATOM     86  C   UNL A   1      34.399  33.371  30.882  1.00  0.00     0.022 A 
BRANCH  83  87
ATOM     87  S   UNL A   1      34.287  34.582  28.373  1.00  0.00     0.124 S 
ATOM     88  O   UNL A   1      35.091  34.237  27.206  1.00  0.00    -0.237 OA
ATOM     89  O   UNL A   1      32.914  34.088  28.375  1.00  0.00    -0.237 OA
ATOM     90  O   UNL A   1      34.456  35.946  28.869  1.00  0.00    -0.744 OA
ENDBRANCH  83  87
ENDBRANCH  56  80
BRANCH  68  91
ATOM     91  C   UNL A   1      43.155  35.118  32.265  1.00  0.00     0.023 A 
ATOM     92  C   UNL A   1      43.237  35.266  33.660  1.00  0.00     0.031 A 
ATOM     93  C   UNL A   1      43.425  36.243  31.465  1.00  0.00     0.131 A 
ATOM     94  C   UNL A   1      43.530  36.523  34.215  1.00  0.00     0.055 A 
ATOM     95  C   UNL A   1      43.772  37.476  32.019  1.00  0.00     0.041 A 
ATOM     96  F   UNL A   1      43.360  36.161  30.126  1.00  0.00    -0.206 F 
ATOM     97  C   UNL A   1      43.814  37.624  33.403  1.00  0.00     0.022 A 
BRANCH  94  98
ATOM     98  S   UNL A   1      43.452  36.725  36.016  1.00  0.00     0.124 S 
ATOM     99  O   UNL A   1      43.765  38.142  36.178  1.00  0.00    -0.237 OA
ATOM    100  O   UNL A   1      42.076  36.339  36.314  1.00  0.00    -0.237 OA
ATOM    101  O   UNL A   1      44.473  35.804  36.511  1.00  0.00    -0.744 OA
ENDBRANCH  94  98
ENDBRANCH  68  91
ENDBRANCH  42  43
ENDBRANCH  35  37
ENDBRANCH  34  35
ENDBRANCH  33  34
ENDBRANCH  32  33
ENDBRANCH  31  32
ENDBRANCH  30  31
ENDBRANCH   1  30
TORSDOF 25
ENDMDL
MODEL 3
REMARK VINA RESULT:      -9.1      3.463      8.698
REMARK SMILES CC[C@@](C)([NH3+])C(=O)Nc1cc(C(=O)OCCOCCOCCOC(=O)c2ccc(-c3c4nc(c(-c5cc(S(=O)(=O)[O-])ccc5F)c5ccc([nH]5)c(-c5cc(S(=O)(=O)[O-])ccc5F)c5nc(c(-c6cc(S(=O)(=O)[O-])ccc6F)c6ccc3[nH]6)C=C5)C=C4)cc2)cc(C(F)(F)F)c1
REMARK SMILES IDX 18 1 17 2 16 3 15 4 14 5 12 6 13 7 11 8 9 9 10 10 95 11
REMARK SMILES IDX 90 12 89 13 8 14 6 15 7 16 3 18 4 19 2 20 1 21 5 22 91 26
REMARK SMILES IDX 92 27 93 28 94 29 19 30 20 31 21 32 22 33 23 34 24 35 25 36
REMARK SMILES IDX 26 37 27 38 88 39 28 40 87 41 29 42 30 43 31 44 81 45 32 46
REMARK SMILES IDX 86 47 80 48 82 49 33 50 85 51 79 52 78 53 34 55 66 56 46 57
REMARK SMILES IDX 65 58 47 59 50 60 64 61 83 62 48 63 49 64 63 66 84 67 51 68
REMARK SMILES IDX 35 69 36 70 44 71 37 72 43 73 45 74 42 75 38 76 39 77 40 78
REMARK SMILES IDX 41 79 67 80 68 81 76 82 69 83 75 84 77 85 74 86 70 87 71 88
REMARK SMILES IDX 72 89 73 90 52 91 53 92 61 93 54 94 60 95 62 96 59 97 55 98
REMARK SMILES IDX 56 99 57 100 58 101
REMARK H PARENT 8 17 5 23 5 24 5 25 82 54 50 65
REMARK Flexibility Score: inf
ROOT
ATOM      1  C   UNL A   1      35.910  34.307  31.752  1.00  0.00     0.188 C 
ENDROOT
BRANCH   1   2
ATOM      2  O   UNL A   1      35.149  33.729  30.695  1.00  0.00    -0.376 OA
BRANCH   2   3
ATOM      3  C   UNL A   1      34.098  34.477  30.095  1.00  0.00     0.202 C 
BRANCH   3   4
ATOM      4  C   UNL A   1      34.329  35.021  28.682  1.00  0.00     0.261 C 
BRANCH   4   5
ATOM      5  O   UNL A   1      34.451  33.980  27.699  1.00  0.00    -0.460 OA
BRANCH   5   6
ATOM      6  C   UNL A   1      33.429  33.090  27.651  1.00  0.00     0.338 C 
ATOM      7  O   UNL A   1      32.248  33.325  27.461  1.00  0.00    -0.246 OA
BRANCH   6   8
ATOM      8  C   UNL A   1      33.994  31.724  27.668  1.00  0.00     0.062 A 
ATOM      9  C   UNL A   1      33.633  29.356  27.363  1.00  0.00     0.042 A 
ATOM     10  C   UNL A   1      33.129  30.653  27.405  1.00  0.00     0.041 A 
ATOM     11  C   UNL A   1      35.007  29.150  27.485  1.00  0.00     0.039 A 
ATOM     12  C   UNL A   1      35.881  30.206  27.785  1.00  0.00     0.058 A 
ATOM     13  C   UNL A   1      35.362  31.505  27.875  1.00  0.00     0.029 A 
BRANCH   9  14
ATOM     14  N   UNL A   1      32.754  28.297  27.132  1.00  0.00    -0.321 N 
ATOM     15  C   UNL A   1      31.954  28.029  26.045  1.00  0.00     0.285 C 
ATOM     16  O   UNL A   1      30.981  27.296  26.244  1.00  0.00    -0.267 OA
ATOM     17  H   UNL A   1      32.697  27.638  27.861  1.00  0.00     0.170 HD
BRANCH  15  18
ATOM     18  C   UNL A   1      32.351  28.507  24.593  1.00  0.00     0.171 C 
ATOM     19  C   UNL A   1      33.877  28.480  24.395  1.00  0.00     0.090 C 
BRANCH  18  20
ATOM     20  C   UNL A   1      31.668  27.593  23.532  1.00  0.00     0.075 C 
ATOM     21  C   UNL A   1      32.611  26.897  22.554  1.00  0.00     0.011 C 
ENDBRANCH  18  20
BRANCH  18  22
ATOM     22  N   UNL A   1      31.838  29.879  24.342  1.00  0.00    -0.345 N 
ATOM     23  H   UNL A   1      30.820  29.878  24.408  1.00  0.00     0.345 HD
ATOM     24  H   UNL A   1      32.118  30.182  23.410  1.00  0.00     0.345 HD
ATOM     25  H   UNL A   1      32.222  30.519  25.037  1.00  0.00     0.345 HD
ENDBRANCH  18  22
ENDBRANCH  15  18
ENDBRANCH   9  14
BRANCH  12  26
ATOM     26  C   UNL A   1      37.353  29.945  27.983  1.00  0.00     0.416 C 
ATOM     27  F   UNL A   1      37.963  30.906  28.727  1.00  0.00    -0.166 F 
ATOM     28  F   UNL A   1      37.586  28.767  28.628  1.00  0.00    -0.166 F 
ATOM     29  F   UNL A   1      38.053  29.863  26.817  1.00  0.00    -0.166 F 
ENDBRANCH  12  26
ENDBRANCH   6   8
ENDBRANCH   5   6
ENDBRANCH   4   5
ENDBRANCH   3   4
ENDBRANCH   2   3
ENDBRANCH   1   2
BRANCH   1  30
ATOM     30  C   UNL A   1      35.307  35.471  32.564  1.00  0.00     0.188 C 
BRANCH  30  31
ATOM     31  O   UNL A   1      35.442  35.310  33.964  1.00  0.00    -0.376 OA
BRANCH  31  32
ATOM     32  C   UNL A   1      35.790  34.016  34.424  1.00  0.00     0.202 C 
BRANCH  32  33
ATOM     33  C   UNL A   1      37.161  33.859  35.098  1.00  0.00     0.261 C 
BRANCH  33  34
ATOM     34  O   UNL A   1      37.763  32.558  35.031  1.00  0.00    -0.460 OA
BRANCH  34  35
ATOM     35  C   UNL A   1      37.412  31.761  33.995  1.00  0.00     0.338 C 
ATOM     36  O   UNL A   1      36.281  31.439  33.680  1.00  0.00    -0.246 OA
BRANCH  35  37
ATOM     37  C   UNL A   1      38.634  31.495  33.200  1.00  0.00     0.060 A 
ATOM     38  C   UNL A   1      38.777  32.090  31.940  1.00  0.00     0.016 A 
ATOM     39  C   UNL A   1      39.641  30.667  33.705  1.00  0.00     0.016 A 
ATOM     40  C   UNL A   1      39.921  31.840  31.174  1.00  0.00     0.010 A 
ATOM     41  C   UNL A   1      40.777  30.407  32.932  1.00  0.00     0.010 A 
ATOM     42  C   UNL A   1      40.915  30.972  31.652  1.00  0.00    -0.014 A 
BRANCH  42  43
ATOM     43  C   UNL A   1      42.010  30.512  30.756  1.00  0.00     0.031 A 
ATOM     44  C   UNL A   1      41.804  29.247  29.966  1.00  0.00     0.074 A 
ATOM     45  C   UNL A   1      43.162  31.196  30.643  1.00  0.00     0.049 A 
ATOM     46  N   UNL A   1      42.631  28.613  29.175  1.00  0.00    -0.248 NA
ATOM     47  C   UNL A   1      40.486  28.610  30.098  1.00  0.00     0.031 C 
ATOM     48  C   UNL A   1      43.468  32.455  31.319  1.00  0.00     0.029 A 
ATOM     49  N   UNL A   1      44.296  30.919  29.919  1.00  0.00    -0.354 N 
ATOM     50  C   UNL A   1      41.931  27.506  28.707  1.00  0.00     0.074 A 
ATOM     51  C   UNL A   1      40.631  27.533  29.344  1.00  0.00     0.031 C 
ATOM     52  C   UNL A   1      44.713  32.839  30.980  1.00  0.00     0.029 A 
ATOM     53  C   UNL A   1      45.306  31.836  30.096  1.00  0.00     0.049 A 
ATOM     54  H   UNL A   1      44.379  30.138  29.326  1.00  0.00     0.167 HD
ATOM     55  C   UNL A   1      42.329  26.559  27.820  1.00  0.00     0.034 A 
ATOM     56  C   UNL A   1      46.571  31.848  29.623  1.00  0.00     0.034 A 
ATOM     57  C   UNL A   1      43.639  26.525  27.215  1.00  0.00     0.049 A 
ATOM     58  C   UNL A   1      47.035  30.718  28.731  1.00  0.00     0.074 A 
ATOM     59  C   UNL A   1      44.148  25.610  26.309  1.00  0.00     0.029 A 
ATOM     60  N   UNL A   1      44.655  27.437  27.468  1.00  0.00    -0.354 N 
ATOM     61  N   UNL A   1      46.365  29.676  28.295  1.00  0.00    -0.248 NA
ATOM     62  C   UNL A   1      48.429  30.770  28.268  1.00  0.00     0.031 C 
ATOM     63  C   UNL A   1      45.491  25.926  26.073  1.00  0.00     0.029 A 
ATOM     64  C   UNL A   1      45.799  27.086  26.765  1.00  0.00     0.049 A 
ATOM     65  H   UNL A   1      44.576  28.220  28.061  1.00  0.00     0.167 HD
ATOM     66  C   UNL A   1      47.247  28.972  27.477  1.00  0.00     0.074 A 
ATOM     67  C   UNL A   1      48.492  29.709  27.477  1.00  0.00     0.031 C 
ATOM     68  C   UNL A   1      47.042  27.823  26.781  1.00  0.00     0.034 A 
BRANCH  55  69
ATOM     69  C   UNL A   1      41.345  25.458  27.505  1.00  0.00     0.023 A 
ATOM     70  C   UNL A   1      41.651  24.105  27.737  1.00  0.00     0.031 A 
ATOM     71  C   UNL A   1      40.105  25.760  26.914  1.00  0.00     0.131 A 
ATOM     72  C   UNL A   1      40.769  23.103  27.304  1.00  0.00     0.055 A 
ATOM     73  C   UNL A   1      39.194  24.761  26.564  1.00  0.00     0.041 A 
ATOM     74  F   UNL A   1      39.766  27.030  26.645  1.00  0.00    -0.206 F 
ATOM     75  C   UNL A   1      39.531  23.423  26.742  1.00  0.00     0.022 A 
BRANCH  72  76
ATOM     76  S   UNL A   1      41.333  21.379  27.334  1.00  0.00     0.124 S 
ATOM     77  O   UNL A   1      40.727  20.848  26.114  1.00  0.00    -0.237 OA
ATOM     78  O   UNL A   1      42.784  21.521  27.317  1.00  0.00    -0.237 OA
ATOM     79  O   UNL A   1      40.771  20.856  28.577  1.00  0.00    -0.744 OA
ENDBRANCH  72  76
ENDBRANCH  55  69
BRANCH  56  80
ATOM     80  C   UNL A   1      47.515  32.939  30.004  1.00  0.00     0.023 A 
ATOM     81  C   UNL A   1      48.240  32.884  31.205  1.00  0.00     0.031 A 
ATOM     82  C   UNL A   1      47.655  34.087  29.202  1.00  0.00     0.131 A 
ATOM     83  C   UNL A   1      49.035  33.975  31.595  1.00  0.00     0.055 A 
ATOM     84  C   UNL A   1      48.488  35.145  29.569  1.00  0.00     0.041 A 
ATOM     85  F   UNL A   1      46.980  34.194  28.046  1.00  0.00    -0.206 F 
ATOM     86  C   UNL A   1      49.174  35.099  30.777  1.00  0.00     0.022 A 
BRANCH  83  87
ATOM     87  S   UNL A   1      49.823  33.939  33.229  1.00  0.00     0.124 S 
ATOM     88  O   UNL A   1      49.697  32.531  33.588  1.00  0.00    -0.237 OA
ATOM     89  O   UNL A   1      51.171  34.407  32.925  1.00  0.00    -0.237 OA
ATOM     90  O   UNL A   1      49.010  34.862  34.018  1.00  0.00    -0.744 OA
ENDBRANCH  83  87
ENDBRANCH  56  80
BRANCH  68  91
ATOM     91  C   UNL A   1      48.178  27.326  25.919  1.00  0.00     0.023 A 
ATOM     92  C   UNL A   1      48.263  27.631  24.549  1.00  0.00     0.031 A 
ATOM     93  C   UNL A   1      49.190  26.526  26.481  1.00  0.00     0.131 A 
ATOM     94  C   UNL A   1      49.309  27.098  23.777  1.00  0.00     0.055 A 
ATOM     95  C   UNL A   1      50.259  26.047  25.721  1.00  0.00     0.041 A 
ATOM     96  F   UNL A   1      49.160  26.201  27.783  1.00  0.00    -0.206 F 
ATOM     97  C   UNL A   1      50.315  26.323  24.358  1.00  0.00     0.022 A 
BRANCH  94  98
ATOM     98  S   UNL A   1      49.293  27.361  21.982  1.00  0.00     0.124 S 
ATOM     99  O   UNL A   1      50.709  27.554  21.689  1.00  0.00    -0.237 OA
ATOM    100  O   UNL A   1      48.704  26.118  21.490  1.00  0.00    -0.237 OA
ATOM    101  O   UNL A   1      48.458  28.548  21.815  1.00  0.00    -0.744 OA
ENDBRANCH  94  98
ENDBRANCH  68  91
ENDBRANCH  42  43
ENDBRANCH  35  37
ENDBRANCH  34  35
ENDBRANCH  33  34
ENDBRANCH  32  33
ENDBRANCH  31  32
ENDBRANCH  30  31
ENDBRANCH   1  30
TORSDOF 25
ENDMDL
