MODEL 1
REMARK VINA RESULT:      -9.9      0.000      0.000
REMARK SMILES C[C@H](NC(=O)OCc1ccccc1)C(=O)NCC(=O)N1CCC[C@H]1C(=O)OCCOCCOCCOC(=O)c1ccc(-c2c3nc(c(-c4cc(S(=O)(=O)[O-])ccc4F)c4ccc([nH]4)c(-c4cc(S(=O)(=O)[O-])ccc4F)c4nc(c(-c5cc(S(=O)(=O)[O-])ccc5F)c5ccc2[nH]5)C=C4)C=C3)cc1
REMARK SMILES IDX 29 1 28 2 27 3 25 4 26 5 24 6 20 7 21 8 22 9 23 10 18 11
REMARK SMILES IDX 19 12 17 13 16 14 14 15 15 16 2 18 1 19 3 20 4 21 5 23 6 24
REMARK SMILES IDX 7 25 8 26 9 27 13 28 10 29 12 30 11 31 30 32 31 33 32 34
REMARK SMILES IDX 33 35 34 36 35 37 36 38 37 39 38 40 39 41 40 42 101 43 41 44
REMARK SMILES IDX 100 45 42 46 43 47 44 48 94 49 45 50 99 51 93 52 95 53 46 54
REMARK SMILES IDX 98 55 92 56 91 57 47 59 79 60 59 61 78 62 60 63 63 64 77 65
REMARK SMILES IDX 96 66 61 67 62 68 76 70 97 71 64 72 48 73 49 74 57 75 50 76
REMARK SMILES IDX 56 77 58 78 55 79 51 80 52 81 53 82 54 83 80 84 81 85 89 86
REMARK SMILES IDX 82 87 88 88 90 89 87 90 83 91 84 92 85 93 86 94 65 95 66 96
REMARK SMILES IDX 74 97 67 98 73 99 75 100 72 101 68 102 69 103 70 104 71 105
REMARK H PARENT 16 17 3 22 95 58 63 69
REMARK Flexibility Score: inf
ROOT
ATOM      1  C   UNL A   1      36.669  22.463  24.035  1.00  0.00     0.202 C 
ENDROOT
BRANCH   1   2
ATOM      2  C   UNL A   1      36.339  21.200  24.857  1.00  0.00     0.261 C 
BRANCH   2   3
ATOM      3  O   UNL A   1      35.039  20.614  24.768  1.00  0.00    -0.462 OA
BRANCH   3   4
ATOM      4  C   UNL A   1      34.240  20.735  25.866  1.00  0.00     0.328 C 
ATOM      5  O   UNL A   1      34.540  21.385  26.860  1.00  0.00    -0.250 OA
BRANCH   4   6
ATOM      6  C   UNL A   1      32.888  20.016  25.635  1.00  0.00     0.195 C 
ATOM      7  N   UNL A   1      32.082  20.857  24.757  1.00  0.00    -0.327 N 
ATOM      8  C   UNL A   1      32.207  20.369  23.392  1.00  0.00     0.120 C 
ATOM      9  C   UNL A   1      32.236  18.867  23.569  1.00  0.00     0.024 C 
ATOM     10  C   UNL A   1      32.976  18.678  24.885  1.00  0.00     0.039 C 
BRANCH   7  11
ATOM     11  C   UNL A   1      31.538  21.999  25.283  1.00  0.00     0.242 C 
ATOM     12  O   UNL A   1      30.491  21.938  25.945  1.00  0.00    -0.273 OA
BRANCH  11  13
ATOM     13  C   UNL A   1      32.044  23.383  24.889  1.00  0.00     0.216 C 
BRANCH  13  14
ATOM     14  N   UNL A   1      33.100  23.537  23.919  1.00  0.00    -0.345 N 
ATOM     15  C   UNL A   1      33.391  24.562  23.071  1.00  0.00     0.242 C 
ATOM     16  O   UNL A   1      34.402  24.430  22.377  1.00  0.00    -0.273 OA
ATOM     17  H   UNL A   1      33.714  22.771  23.860  1.00  0.00     0.164 HD
BRANCH  15  18
ATOM     18  C   UNL A   1      32.549  25.849  22.985  1.00  0.00     0.171 C 
ATOM     19  C   UNL A   1      31.513  25.796  21.868  1.00  0.00     0.042 C 
BRANCH  18  20
ATOM     20  N   UNL A   1      33.337  27.077  22.894  1.00  0.00    -0.310 N 
ATOM     21  C   UNL A   1      33.011  28.268  23.483  1.00  0.00     0.408 C 
ATOM     22  H   UNL A   1      34.169  27.045  22.368  1.00  0.00     0.167 HD
ATOM     23  O   UNL A   1      33.623  29.296  23.210  1.00  0.00    -0.225 OA
BRANCH  21  24
ATOM     24  O   UNL A   1      31.977  28.170  24.345  1.00  0.00    -0.445 OA
BRANCH  24  25
ATOM     25  C   UNL A   1      32.305  27.958  25.726  1.00  0.00     0.270 C 
BRANCH  25  26
ATOM     26  C   UNL A   1      32.983  29.122  26.409  1.00  0.00    -0.011 A 
ATOM     27  C   UNL A   1      34.273  29.030  26.948  1.00  0.00     0.007 A 
ATOM     28  C   UNL A   1      32.265  30.317  26.584  1.00  0.00     0.007 A 
ATOM     29  C   UNL A   1      34.842  30.119  27.616  1.00  0.00     0.000 A 
ATOM     30  C   UNL A   1      32.832  31.401  27.256  1.00  0.00     0.000 A 
ATOM     31  C   UNL A   1      34.122  31.303  27.768  1.00  0.00     0.000 A 
ENDBRANCH  25  26
ENDBRANCH  24  25
ENDBRANCH  21  24
ENDBRANCH  18  20
ENDBRANCH  15  18
ENDBRANCH  13  14
ENDBRANCH  11  13
ENDBRANCH   7  11
ENDBRANCH   4   6
ENDBRANCH   3   4
ENDBRANCH   2   3
ENDBRANCH   1   2
BRANCH   1  32
ATOM     32  O   UNL A   1      37.114  23.704  24.545  1.00  0.00    -0.376 OA
BRANCH  32  33
ATOM     33  C   UNL A   1      37.114  23.942  25.928  1.00  0.00     0.188 C 
BRANCH  33  34
ATOM     34  C   UNL A   1      38.509  24.109  26.574  1.00  0.00     0.188 C 
BRANCH  34  35
ATOM     35  O   UNL A   1      39.224  22.967  27.005  1.00  0.00    -0.376 OA
BRANCH  35  36
ATOM     36  C   UNL A   1      39.524  21.949  26.070  1.00  0.00     0.202 C 
BRANCH  36  37
ATOM     37  C   UNL A   1      40.041  20.567  26.513  1.00  0.00     0.261 C 
BRANCH  37  38
ATOM     38  O   UNL A   1      40.755  19.779  25.545  1.00  0.00    -0.460 OA
BRANCH  38  39
ATOM     39  C   UNL A   1      42.041  19.467  25.861  1.00  0.00     0.338 C 
ATOM     40  O   UNL A   1      42.568  18.374  25.756  1.00  0.00    -0.246 OA
BRANCH  39  41
ATOM     41  C   UNL A   1      42.799  20.696  26.203  1.00  0.00     0.060 A 
ATOM     42  C   UNL A   1      42.850  21.114  27.542  1.00  0.00     0.016 A 
ATOM     43  C   UNL A   1      43.397  21.471  25.209  1.00  0.00     0.016 A 
ATOM     44  C   UNL A   1      43.475  22.319  27.885  1.00  0.00     0.010 A 
ATOM     45  C   UNL A   1      44.005  22.687  25.552  1.00  0.00     0.010 A 
ATOM     46  C   UNL A   1      44.025  23.135  26.888  1.00  0.00    -0.014 A 
BRANCH  46  47
ATOM     47  C   UNL A   1      44.464  24.524  27.204  1.00  0.00     0.031 A 
ATOM     48  C   UNL A   1      43.439  25.509  27.708  1.00  0.00     0.074 A 
ATOM     49  C   UNL A   1      45.745  24.914  27.058  1.00  0.00     0.049 A 
ATOM     50  N   UNL A   1      43.562  26.789  27.954  1.00  0.00    -0.248 NA
ATOM     51  C   UNL A   1      42.095  24.973  27.966  1.00  0.00     0.031 C 
ATOM     52  C   UNL A   1      46.848  24.051  26.637  1.00  0.00     0.029 A 
ATOM     53  N   UNL A   1      46.334  26.146  27.233  1.00  0.00    -0.354 N 
ATOM     54  C   UNL A   1      42.309  27.215  28.384  1.00  0.00     0.074 A 
ATOM     55  C   UNL A   1      41.436  26.060  28.337  1.00  0.00     0.031 C 
ATOM     56  C   UNL A   1      47.974  24.783  26.574  1.00  0.00     0.029 A 
ATOM     57  C   UNL A   1      47.669  26.177  26.898  1.00  0.00     0.049 A 
ATOM     58  H   UNL A   1      45.844  26.933  27.567  1.00  0.00     0.167 HD
ATOM     59  C   UNL A   1      41.921  28.452  28.784  1.00  0.00     0.034 A 
ATOM     60  C   UNL A   1      48.534  27.212  26.824  1.00  0.00     0.034 A 
ATOM     61  C   UNL A   1      42.795  29.601  28.815  1.00  0.00     0.049 A 
ATOM     62  C   UNL A   1      48.049  28.606  27.169  1.00  0.00     0.074 A 
ATOM     63  C   UNL A   1      42.502  30.893  29.213  1.00  0.00     0.029 A 
ATOM     64  N   UNL A   1      44.127  29.602  28.419  1.00  0.00    -0.354 N 
ATOM     65  N   UNL A   1      46.862  28.994  27.574  1.00  0.00    -0.248 NA
ATOM     66  C   UNL A   1      49.026  29.700  27.051  1.00  0.00     0.031 C 
ATOM     67  C   UNL A   1      43.625  31.692  28.976  1.00  0.00     0.029 A 
ATOM     68  C   UNL A   1      44.653  30.880  28.525  1.00  0.00     0.049 A 
ATOM     69  H   UNL A   1      44.624  28.811  28.108  1.00  0.00     0.167 HD
ATOM     70  C   UNL A   1      46.965  30.368  27.798  1.00  0.00     0.074 A 
ATOM     71  C   UNL A   1      48.332  30.736  27.495  1.00  0.00     0.031 C 
ATOM     72  C   UNL A   1      46.017  31.244  28.221  1.00  0.00     0.034 A 
BRANCH  59  73
ATOM     73  C   UNL A   1      40.473  28.641  29.166  1.00  0.00     0.023 A 
ATOM     74  C   UNL A   1      40.057  28.694  30.507  1.00  0.00     0.031 A 
ATOM     75  C   UNL A   1      39.489  28.762  28.167  1.00  0.00     0.131 A 
ATOM     76  C   UNL A   1      38.691  28.799  30.813  1.00  0.00     0.055 A 
ATOM     77  C   UNL A   1      38.141  28.950  28.479  1.00  0.00     0.041 A 
ATOM     78  F   UNL A   1      39.821  28.694  26.868  1.00  0.00    -0.206 F 
ATOM     79  C   UNL A   1      37.733  28.957  29.809  1.00  0.00     0.022 A 
BRANCH  76  80
ATOM     80  S   UNL A   1      38.171  28.589  32.538  1.00  0.00     0.124 S 
ATOM     81  O   UNL A   1      36.865  29.244  32.534  1.00  0.00    -0.237 OA
ATOM     82  O   UNL A   1      38.156  27.139  32.689  1.00  0.00    -0.237 OA
ATOM     83  O   UNL A   1      39.206  29.286  33.297  1.00  0.00    -0.744 OA
ENDBRANCH  76  80
ENDBRANCH  59  73
BRANCH  60  84
ATOM     84  C   UNL A   1      49.937  27.007  26.347  1.00  0.00     0.023 A 
ATOM     85  C   UNL A   1      50.304  27.278  25.018  1.00  0.00     0.031 A 
ATOM     86  C   UNL A   1      50.911  26.444  27.193  1.00  0.00     0.131 A 
ATOM     87  C   UNL A   1      51.586  26.931  24.559  1.00  0.00     0.055 A 
ATOM     88  C   UNL A   1      52.206  26.166  26.751  1.00  0.00     0.041 A 
ATOM     89  F   UNL A   1      50.614  26.147  28.468  1.00  0.00    -0.206 F 
ATOM     90  C   UNL A   1      52.545  26.393  25.421  1.00  0.00     0.022 A 
BRANCH  87  91
ATOM     91  S   UNL A   1      51.943  27.065  22.785  1.00  0.00     0.124 S 
ATOM     92  O   UNL A   1      52.795  25.902  22.566  1.00  0.00    -0.237 OA
ATOM     93  O   UNL A   1      50.608  27.003  22.200  1.00  0.00    -0.237 OA
ATOM     94  O   UNL A   1      52.612  28.359  22.669  1.00  0.00    -0.744 OA
ENDBRANCH  87  91
ENDBRANCH  60  84
BRANCH  72  95
ATOM     95  C   UNL A   1      46.442  32.678  28.449  1.00  0.00     0.023 A 
ATOM     96  C   UNL A   1      46.531  33.608  27.398  1.00  0.00     0.031 A 
ATOM     97  C   UNL A   1      46.764  33.119  29.746  1.00  0.00     0.131 A 
ATOM     98  C   UNL A   1      46.987  34.912  27.654  1.00  0.00     0.055 A 
ATOM     99  C   UNL A   1      47.148  34.436  30.004  1.00  0.00     0.041 A 
ATOM    100  F   UNL A   1      46.702  32.276  30.789  1.00  0.00    -0.206 F 
ATOM    101  C   UNL A   1      47.275  35.338  28.953  1.00  0.00     0.022 A 
BRANCH  98 102
ATOM    102  S   UNL A   1      47.295  36.021  26.251  1.00  0.00     0.124 S 
ATOM    103  O   UNL A   1      46.609  35.332  25.163  1.00  0.00    -0.237 OA
ATOM    104  O   UNL A   1      46.687  37.269  26.700  1.00  0.00    -0.237 OA
ATOM    105  O   UNL A   1      48.754  36.046  26.146  1.00  0.00    -0.744 OA
ENDBRANCH  98 102
ENDBRANCH  72  95
ENDBRANCH  46  47
ENDBRANCH  39  41
ENDBRANCH  38  39
ENDBRANCH  37  38
ENDBRANCH  36  37
ENDBRANCH  35  36
ENDBRANCH  34  35
ENDBRANCH  33  34
ENDBRANCH  32  33
ENDBRANCH   1  32
TORSDOF 28
ENDMDL
MODEL 2
REMARK VINA RESULT:      -9.9      1.394      7.434
REMARK SMILES C[C@H](NC(=O)OCc1ccccc1)C(=O)NCC(=O)N1CCC[C@H]1C(=O)OCCOCCOCCOC(=O)c1ccc(-c2c3nc(c(-c4cc(S(=O)(=O)[O-])ccc4F)c4ccc([nH]4)c(-c4cc(S(=O)(=O)[O-])ccc4F)c4nc(c(-c5cc(S(=O)(=O)[O-])ccc5F)c5ccc2[nH]5)C=C4)C=C3)cc1
REMARK SMILES IDX 29 1 28 2 27 3 25 4 26 5 24 6 20 7 21 8 22 9 23 10 18 11
REMARK SMILES IDX 19 12 17 13 16 14 14 15 15 16 2 18 1 19 3 20 4 21 5 23 6 24
REMARK SMILES IDX 7 25 8 26 9 27 13 28 10 29 12 30 11 31 30 32 31 33 32 34
REMARK SMILES IDX 33 35 34 36 35 37 36 38 37 39 38 40 39 41 40 42 101 43 41 44
REMARK SMILES IDX 100 45 42 46 43 47 44 48 94 49 45 50 99 51 93 52 95 53 46 54
REMARK SMILES IDX 98 55 92 56 91 57 47 59 79 60 59 61 78 62 60 63 63 64 77 65
REMARK SMILES IDX 96 66 61 67 62 68 76 70 97 71 64 72 48 73 49 74 57 75 50 76
REMARK SMILES IDX 56 77 58 78 55 79 51 80 52 81 53 82 54 83 80 84 81 85 89 86
REMARK SMILES IDX 82 87 88 88 90 89 87 90 83 91 84 92 85 93 86 94 65 95 66 96
REMARK SMILES IDX 74 97 67 98 73 99 75 100 72 101 68 102 69 103 70 104 71 105
REMARK H PARENT 16 17 3 22 95 58 63 69
REMARK Flexibility Score: inf
ROOT
ATOM      1  C   UNL A   1      36.509  22.378  24.169  1.00  0.00     0.202 C 
ENDROOT
BRANCH   1   2
ATOM      2  C   UNL A   1      36.412  21.051  24.950  1.00  0.00     0.261 C 
BRANCH   2   3
ATOM      3  O   UNL A   1      35.194  20.304  24.934  1.00  0.00    -0.462 OA
BRANCH   3   4
ATOM      4  C   UNL A   1      34.252  20.656  25.854  1.00  0.00     0.328 C 
ATOM      5  O   UNL A   1      34.448  21.458  26.760  1.00  0.00    -0.250 OA
BRANCH   4   6
ATOM      6  C   UNL A   1      32.900  19.971  25.536  1.00  0.00     0.195 C 
ATOM      7  N   UNL A   1      32.139  20.869  24.674  1.00  0.00    -0.327 N 
ATOM      8  C   UNL A   1      32.310  20.450  23.290  1.00  0.00     0.120 C 
ATOM      9  C   UNL A   1      32.312  18.941  23.390  1.00  0.00     0.024 C 
ATOM     10  C   UNL A   1      32.998  18.673  24.721  1.00  0.00     0.039 C 
BRANCH   7  11
ATOM     11  C   UNL A   1      31.591  21.990  25.238  1.00  0.00     0.242 C 
ATOM     12  O   UNL A   1      30.519  21.911  25.855  1.00  0.00    -0.273 OA
BRANCH  11  13
ATOM     13  C   UNL A   1      32.133  23.384  24.938  1.00  0.00     0.216 C 
BRANCH  13  14
ATOM     14  N   UNL A   1      33.176  23.579  23.963  1.00  0.00    -0.345 N 
ATOM     15  C   UNL A   1      33.425  24.616  23.115  1.00  0.00     0.242 C 
ATOM     16  O   UNL A   1      34.436  24.523  22.416  1.00  0.00    -0.273 OA
ATOM     17  H   UNL A   1      33.819  22.837  23.900  1.00  0.00     0.164 HD
BRANCH  15  18
ATOM     18  C   UNL A   1      32.534  25.870  23.035  1.00  0.00     0.171 C 
ATOM     19  C   UNL A   1      31.504  25.786  21.915  1.00  0.00     0.042 C 
BRANCH  18  20
ATOM     20  N   UNL A   1      33.275  27.129  22.955  1.00  0.00    -0.310 N 
ATOM     21  C   UNL A   1      32.827  28.337  23.415  1.00  0.00     0.408 C 
ATOM     22  H   UNL A   1      34.167  27.105  22.539  1.00  0.00     0.167 HD
ATOM     23  O   UNL A   1      33.425  29.375  23.147  1.00  0.00    -0.225 OA
BRANCH  21  24
ATOM     24  O   UNL A   1      31.698  28.242  24.148  1.00  0.00    -0.445 OA
BRANCH  24  25
ATOM     25  C   UNL A   1      31.855  27.900  25.533  1.00  0.00     0.270 C 
BRANCH  25  26
ATOM     26  C   UNL A   1      32.712  28.851  26.335  1.00  0.00    -0.011 A 
ATOM     27  C   UNL A   1      32.308  30.160  26.631  1.00  0.00     0.007 A 
ATOM     28  C   UNL A   1      33.995  28.438  26.730  1.00  0.00     0.007 A 
ATOM     29  C   UNL A   1      33.155  31.022  27.333  1.00  0.00     0.000 A 
ATOM     30  C   UNL A   1      34.842  29.302  27.427  1.00  0.00     0.000 A 
ATOM     31  C   UNL A   1      34.420  30.592  27.731  1.00  0.00     0.000 A 
ENDBRANCH  25  26
ENDBRANCH  24  25
ENDBRANCH  21  24
ENDBRANCH  18  20
ENDBRANCH  15  18
ENDBRANCH  13  14
ENDBRANCH  11  13
ENDBRANCH   7  11
ENDBRANCH   4   6
ENDBRANCH   3   4
ENDBRANCH   2   3
ENDBRANCH   1   2
BRANCH   1  32
ATOM     32  O   UNL A   1      37.054  23.592  24.642  1.00  0.00    -0.376 OA
BRANCH  32  33
ATOM     33  C   UNL A   1      37.266  23.786  26.016  1.00  0.00     0.188 C 
BRANCH  33  34
ATOM     34  C   UNL A   1      38.743  23.750  26.473  1.00  0.00     0.188 C 
BRANCH  34  35
ATOM     35  O   UNL A   1      39.307  22.537  26.930  1.00  0.00    -0.376 OA
BRANCH  35  36
ATOM     36  C   UNL A   1      39.636  21.532  25.990  1.00  0.00     0.202 C 
BRANCH  36  37
ATOM     37  C   UNL A   1      40.310  20.213  26.414  1.00  0.00     0.261 C 
BRANCH  37  38
ATOM     38  O   UNL A   1      41.090  19.514  25.428  1.00  0.00    -0.460 OA
BRANCH  38  39
ATOM     39  C   UNL A   1      42.410  19.358  25.715  1.00  0.00     0.338 C 
ATOM     40  O   UNL A   1      43.061  18.334  25.593  1.00  0.00    -0.246 OA
BRANCH  39  41
ATOM     41  C   UNL A   1      43.024  20.667  26.047  1.00  0.00     0.060 A 
ATOM     42  C   UNL A   1      42.892  21.170  27.350  1.00  0.00     0.016 A 
ATOM     43  C   UNL A   1      43.665  21.428  25.068  1.00  0.00     0.016 A 
ATOM     44  C   UNL A   1      43.376  22.445  27.670  1.00  0.00     0.010 A 
ATOM     45  C   UNL A   1      44.131  22.712  25.386  1.00  0.00     0.010 A 
ATOM     46  C   UNL A   1      43.965  23.242  26.680  1.00  0.00    -0.014 A 
BRANCH  46  47
ATOM     47  C   UNL A   1      44.254  24.682  26.942  1.00  0.00     0.031 A 
ATOM     48  C   UNL A   1      45.668  25.177  26.771  1.00  0.00     0.074 A 
ATOM     49  C   UNL A   1      43.288  25.542  27.317  1.00  0.00     0.049 A 
ATOM     50  N   UNL A   1      46.177  26.354  27.033  1.00  0.00    -0.248 NA
ATOM     51  C   UNL A   1      46.635  24.210  26.232  1.00  0.00     0.031 C 
ATOM     52  C   UNL A   1      41.872  25.211  27.463  1.00  0.00     0.029 A 
ATOM     53  N   UNL A   1      43.357  26.873  27.661  1.00  0.00    -0.354 N 
ATOM     54  C   UNL A   1      47.526  26.267  26.704  1.00  0.00     0.074 A 
ATOM     55  C   UNL A   1      47.758  24.911  26.250  1.00  0.00     0.031 C 
ATOM     56  C   UNL A   1      41.209  26.305  27.878  1.00  0.00     0.029 A 
ATOM     57  C   UNL A   1      42.156  27.402  28.080  1.00  0.00     0.049 A 
ATOM     58  H   UNL A   1      44.188  27.399  27.612  1.00  0.00     0.167 HD
ATOM     59  C   UNL A   1      48.483  27.227  26.771  1.00  0.00     0.034 A 
ATOM     60  C   UNL A   1      41.862  28.613  28.600  1.00  0.00     0.034 A 
ATOM     61  C   UNL A   1      48.245  28.572  27.238  1.00  0.00     0.049 A 
ATOM     62  C   UNL A   1      42.969  29.633  28.769  1.00  0.00     0.074 A 
ATOM     63  C   UNL A   1      49.143  29.620  27.333  1.00  0.00     0.029 A 
ATOM     64  N   UNL A   1      47.027  29.052  27.701  1.00  0.00    -0.354 N 
ATOM     65  N   UNL A   1      44.241  29.537  28.454  1.00  0.00    -0.248 NA
ATOM     66  C   UNL A   1      42.599  30.929  29.360  1.00  0.00     0.031 C 
ATOM     67  C   UNL A   1      48.494  30.703  27.935  1.00  0.00     0.029 A 
ATOM     68  C   UNL A   1      47.163  30.367  28.121  1.00  0.00     0.049 A 
ATOM     69  H   UNL A   1      46.189  28.536  27.728  1.00  0.00     0.167 HD
ATOM     70  C   UNL A   1      44.807  30.773  28.771  1.00  0.00     0.074 A 
ATOM     71  C   UNL A   1      43.738  31.599  29.289  1.00  0.00     0.031 C 
ATOM     72  C   UNL A   1      46.094  31.188  28.639  1.00  0.00     0.034 A 
BRANCH  59  73
ATOM     73  C   UNL A   1      49.890  26.839  26.383  1.00  0.00     0.023 A 
ATOM     74  C   UNL A   1      50.440  27.184  25.137  1.00  0.00     0.031 A 
ATOM     75  C   UNL A   1      50.691  26.103  27.275  1.00  0.00     0.131 A 
ATOM     76  C   UNL A   1      51.727  26.741  24.794  1.00  0.00     0.055 A 
ATOM     77  C   UNL A   1      52.000  25.736  26.959  1.00  0.00     0.041 A 
ATOM     78  F   UNL A   1      50.212  25.721  28.470  1.00  0.00    -0.206 F 
ATOM     79  C   UNL A   1      52.522  26.043  25.706  1.00  0.00     0.022 A 
BRANCH  76  80
ATOM     80  S   UNL A   1      52.295  26.968  23.085  1.00  0.00     0.124 S 
ATOM     81  O   UNL A   1      53.174  25.815  22.911  1.00  0.00    -0.237 OA
ATOM     82  O   UNL A   1      51.048  26.938  22.332  1.00  0.00    -0.237 OA
ATOM     83  O   UNL A   1      52.974  28.260  23.119  1.00  0.00    -0.744 OA
ENDBRANCH  76  80
ENDBRANCH  59  73
BRANCH  60  84
ATOM     84  C   UNL A   1      40.476  28.932  29.066  1.00  0.00     0.023 A 
ATOM     85  C   UNL A   1      40.115  28.814  30.420  1.00  0.00     0.031 A 
ATOM     86  C   UNL A   1      39.466  29.268  28.147  1.00  0.00     0.131 A 
ATOM     87  C   UNL A   1      38.773  28.969  30.804  1.00  0.00     0.055 A 
ATOM     88  C   UNL A   1      38.146  29.491  28.544  1.00  0.00     0.041 A 
ATOM     89  F   UNL A   1      39.746  29.378  26.838  1.00  0.00    -0.206 F 
ATOM     90  C   UNL A   1      37.789  29.324  29.878  1.00  0.00     0.022 A 
BRANCH  87  91
ATOM     91  S   UNL A   1      38.303  28.568  32.510  1.00  0.00     0.124 S 
ATOM     92  O   UNL A   1      38.396  27.112  32.507  1.00  0.00    -0.237 OA
ATOM     93  O   UNL A   1      39.319  29.274  33.281  1.00  0.00    -0.237 OA
ATOM     94  O   UNL A   1      36.949  29.106  32.626  1.00  0.00    -0.744 OA
ENDBRANCH  87  91
ENDBRANCH  60  84
BRANCH  72  95
ATOM     95  C   UNL A   1      46.406  32.624  28.998  1.00  0.00     0.023 A 
ATOM     96  C   UNL A   1      46.808  33.002  30.292  1.00  0.00     0.031 A 
ATOM     97  C   UNL A   1      46.297  33.633  28.023  1.00  0.00     0.131 A 
ATOM     98  C   UNL A   1      47.029  34.357  30.589  1.00  0.00     0.055 A 
ATOM     99  C   UNL A   1      46.587  34.968  28.306  1.00  0.00     0.041 A 
ATOM    100  F   UNL A   1      45.914  33.335  26.771  1.00  0.00    -0.206 F 
ATOM    101  C   UNL A   1      46.942  35.340  29.599  1.00  0.00     0.022 A 
BRANCH  98 102
ATOM    102  S   UNL A   1      47.335  34.836  32.312  1.00  0.00     0.124 S 
ATOM    103  O   UNL A   1      46.168  34.283  32.992  1.00  0.00    -0.237 OA
ATOM    104  O   UNL A   1      48.608  34.182  32.596  1.00  0.00    -0.237 OA
ATOM    105  O   UNL A   1      47.388  36.296  32.259  1.00  0.00    -0.744 OA
ENDBRANCH  98 102
ENDBRANCH  72  95
ENDBRANCH  46  47
ENDBRANCH  39  41
ENDBRANCH  38  39
ENDBRANCH  37  38
ENDBRANCH  36  37
ENDBRANCH  35  36
ENDBRANCH  34  35
ENDBRANCH  33  34
ENDBRANCH  32  33
ENDBRANCH   1  32
TORSDOF 28
ENDMDL
MODEL 3
REMARK VINA RESULT:      -9.6      3.634      6.130
REMARK SMILES C[C@H](NC(=O)OCc1ccccc1)C(=O)NCC(=O)N1CCC[C@H]1C(=O)OCCOCCOCCOC(=O)c1ccc(-c2c3nc(c(-c4cc(S(=O)(=O)[O-])ccc4F)c4ccc([nH]4)c(-c4cc(S(=O)(=O)[O-])ccc4F)c4nc(c(-c5cc(S(=O)(=O)[O-])ccc5F)c5ccc2[nH]5)C=C4)C=C3)cc1
REMARK SMILES IDX 29 1 28 2 27 3 25 4 26 5 24 6 20 7 21 8 22 9 23 10 18 11
REMARK SMILES IDX 19 12 17 13 16 14 14 15 15 16 2 18 1 19 3 20 4 21 5 23 6 24
REMARK SMILES IDX 7 25 8 26 9 27 13 28 10 29 12 30 11 31 30 32 31 33 32 34
REMARK SMILES IDX 33 35 34 36 35 37 36 38 37 39 38 40 39 41 40 42 101 43 41 44
REMARK SMILES IDX 100 45 42 46 43 47 44 48 94 49 45 50 99 51 93 52 95 53 46 54
REMARK SMILES IDX 98 55 92 56 91 57 47 59 79 60 59 61 78 62 60 63 63 64 77 65
REMARK SMILES IDX 96 66 61 67 62 68 76 70 97 71 64 72 48 73 49 74 57 75 50 76
REMARK SMILES IDX 56 77 58 78 55 79 51 80 52 81 53 82 54 83 80 84 81 85 89 86
REMARK SMILES IDX 82 87 88 88 90 89 87 90 83 91 84 92 85 93 86 94 65 95 66 96
REMARK SMILES IDX 74 97 67 98 73 99 75 100 72 101 68 102 69 103 70 104 71 105
REMARK H PARENT 16 17 3 22 95 58 63 69
REMARK Flexibility Score: inf
ROOT
ATOM      1  C   UNL A   1      39.245  21.807  26.133  1.00  0.00     0.202 C 
ENDROOT
BRANCH   1   2
ATOM      2  C   UNL A   1      37.838  22.238  25.668  1.00  0.00     0.261 C 
BRANCH   2   3
ATOM      3  O   UNL A   1      37.508  22.203  24.279  1.00  0.00    -0.462 OA
BRANCH   3   4
ATOM      4  C   UNL A   1      36.186  22.315  23.964  1.00  0.00     0.328 C 
ATOM      5  O   UNL A   1      35.771  22.862  22.949  1.00  0.00    -0.250 OA
BRANCH   4   6
ATOM      6  C   UNL A   1      35.313  21.584  25.014  1.00  0.00     0.195 C 
ATOM      7  N   UNL A   1      34.074  22.338  25.163  1.00  0.00    -0.327 N 
ATOM      8  C   UNL A   1      33.043  21.715  24.346  1.00  0.00     0.120 C 
ATOM      9  C   UNL A   1      33.328  20.239  24.507  1.00  0.00     0.024 C 
ATOM     10  C   UNL A   1      34.844  20.178  24.612  1.00  0.00     0.039 C 
BRANCH   7  11
ATOM     11  C   UNL A   1      34.124  23.529  25.837  1.00  0.00     0.242 C 
ATOM     12  O   UNL A   1      34.390  23.545  27.048  1.00  0.00    -0.273 OA
BRANCH  11  13
ATOM     13  C   UNL A   1      33.633  24.828  25.205  1.00  0.00     0.216 C 
BRANCH  13  14
ATOM     14  N   UNL A   1      33.926  25.138  23.828  1.00  0.00    -0.345 N 
ATOM     15  C   UNL A   1      33.147  25.675  22.848  1.00  0.00     0.242 C 
ATOM     16  O   UNL A   1      33.692  25.873  21.760  1.00  0.00    -0.273 OA
ATOM     17  H   UNL A   1      34.845  24.926  23.548  1.00  0.00     0.164 HD
BRANCH  15  18
ATOM     18  C   UNL A   1      31.672  26.065  23.063  1.00  0.00     0.171 C 
ATOM     19  C   UNL A   1      30.741  24.857  23.056  1.00  0.00     0.042 C 
BRANCH  18  20
ATOM     20  N   UNL A   1      31.182  27.093  22.147  1.00  0.00    -0.310 N 
ATOM     21  C   UNL A   1      30.470  28.202  22.514  1.00  0.00     0.408 C 
ATOM     22  H   UNL A   1      31.381  26.980  21.190  1.00  0.00     0.167 HD
ATOM     23  O   UNL A   1      29.938  28.919  21.672  1.00  0.00    -0.225 OA
BRANCH  21  24
ATOM     24  O   UNL A   1      30.421  28.384  23.851  1.00  0.00    -0.445 OA
BRANCH  24  25
ATOM     25  C   UNL A   1      30.869  29.654  24.346  1.00  0.00     0.270 C 
BRANCH  25  26
ATOM     26  C   UNL A   1      31.944  29.586  25.405  1.00  0.00    -0.011 A 
ATOM     27  C   UNL A   1      32.100  30.577  26.384  1.00  0.00     0.007 A 
ATOM     28  C   UNL A   1      32.875  28.534  25.360  1.00  0.00     0.007 A 
ATOM     29  C   UNL A   1      33.140  30.498  27.314  1.00  0.00     0.000 A 
ATOM     30  C   UNL A   1      33.917  28.460  26.286  1.00  0.00     0.000 A 
ATOM     31  C   UNL A   1      34.047  29.439  27.265  1.00  0.00     0.000 A 
ENDBRANCH  25  26
ENDBRANCH  24  25
ENDBRANCH  21  24
ENDBRANCH  18  20
ENDBRANCH  15  18
ENDBRANCH  13  14
ENDBRANCH  11  13
ENDBRANCH   7  11
ENDBRANCH   4   6
ENDBRANCH   3   4
ENDBRANCH   2   3
ENDBRANCH   1   2
BRANCH   1  32
ATOM     32  O   UNL A   1      39.822  20.526  25.987  1.00  0.00    -0.376 OA
BRANCH  32  33
ATOM     33  C   UNL A   1      41.038  20.220  26.616  1.00  0.00     0.188 C 
BRANCH  33  34
ATOM     34  C   UNL A   1      41.742  21.407  27.315  1.00  0.00     0.188 C 
BRANCH  34  35
ATOM     35  O   UNL A   1      43.015  21.831  26.868  1.00  0.00    -0.376 OA
BRANCH  35  36
ATOM     36  C   UNL A   1      43.621  22.955  27.477  1.00  0.00     0.202 C 
BRANCH  36  37
ATOM     37  C   UNL A   1      45.008  23.465  27.042  1.00  0.00     0.261 C 
BRANCH  37  38
ATOM     38  O   UNL A   1      45.848  24.057  28.048  1.00  0.00    -0.460 OA
BRANCH  38  39
ATOM     39  C   UNL A   1      46.992  24.640  27.601  1.00  0.00     0.338 C 
ATOM     40  O   UNL A   1      47.933  24.075  27.070  1.00  0.00    -0.246 OA
BRANCH  39  41
ATOM     41  C   UNL A   1      46.884  26.117  27.685  1.00  0.00     0.060 A 
ATOM     42  C   UNL A   1      47.256  26.760  28.876  1.00  0.00     0.016 A 
ATOM     43  C   UNL A   1      46.358  26.861  26.628  1.00  0.00     0.016 A 
ATOM     44  C   UNL A   1      47.076  28.141  29.022  1.00  0.00     0.010 A 
ATOM     45  C   UNL A   1      46.160  28.240  26.785  1.00  0.00     0.010 A 
ATOM     46  C   UNL A   1      46.491  28.887  27.991  1.00  0.00    -0.014 A 
BRANCH  46  47
ATOM     47  C   UNL A   1      46.065  30.297  28.226  1.00  0.00     0.031 A 
ATOM     48  C   UNL A   1      44.728  30.549  28.875  1.00  0.00     0.074 A 
ATOM     49  C   UNL A   1      46.843  31.340  27.879  1.00  0.00     0.049 A 
ATOM     50  N   UNL A   1      44.105  31.680  29.090  1.00  0.00    -0.248 NA
ATOM     51  C   UNL A   1      43.999  29.361  29.344  1.00  0.00     0.031 C 
ATOM     52  C   UNL A   1      48.182  31.239  27.298  1.00  0.00     0.029 A 
ATOM     53  N   UNL A   1      46.613  32.695  27.951  1.00  0.00    -0.354 N 
ATOM     54  C   UNL A   1      42.904  31.341  29.706  1.00  0.00     0.074 A 
ATOM     55  C   UNL A   1      42.878  29.896  29.804  1.00  0.00     0.031 C 
ATOM     56  C   UNL A   1      48.646  32.478  27.055  1.00  0.00     0.029 A 
ATOM     57  C   UNL A   1      47.623  33.461  27.413  1.00  0.00     0.049 A 
ATOM     58  H   UNL A   1      45.800  33.081  28.352  1.00  0.00     0.167 HD
ATOM     59  C   UNL A   1      41.916  32.157  30.153  1.00  0.00     0.034 A 
ATOM     60  C   UNL A   1      47.697  34.792  27.197  1.00  0.00     0.034 A 
ATOM     61  C   UNL A   1      41.945  33.596  30.039  1.00  0.00     0.049 A 
ATOM     62  C   UNL A   1      46.533  35.673  27.604  1.00  0.00     0.074 A 
ATOM     63  C   UNL A   1      41.000  34.511  30.468  1.00  0.00     0.029 A 
ATOM     64  N   UNL A   1      42.961  34.329  29.441  1.00  0.00    -0.354 N 
ATOM     65  N   UNL A   1      45.404  35.339  28.185  1.00  0.00    -0.248 NA
ATOM     66  C   UNL A   1      46.658  37.113  27.327  1.00  0.00     0.031 C 
ATOM     67  C   UNL A   1      41.400  35.785  30.054  1.00  0.00     0.029 A 
ATOM     68  C   UNL A   1      42.645  35.679  29.455  1.00  0.00     0.049 A 
ATOM     69  H   UNL A   1      43.786  33.947  29.062  1.00  0.00     0.167 HD
ATOM     70  C   UNL A   1      44.708  36.533  28.380  1.00  0.00     0.074 A 
ATOM     71  C   UNL A   1      45.548  37.592  27.865  1.00  0.00     0.031 C 
ATOM     72  C   UNL A   1      43.486  36.734  28.939  1.00  0.00     0.034 A 
BRANCH  59  73
ATOM     73  C   UNL A   1      40.693  31.507  30.754  1.00  0.00     0.023 A 
ATOM     74  C   UNL A   1      39.627  31.050  29.960  1.00  0.00     0.031 A 
ATOM     75  C   UNL A   1      40.589  31.350  32.149  1.00  0.00     0.131 A 
ATOM     76  C   UNL A   1      38.480  30.517  30.569  1.00  0.00     0.055 A 
ATOM     77  C   UNL A   1      39.481  30.743  32.741  1.00  0.00     0.041 A 
ATOM     78  F   UNL A   1      41.563  31.790  32.961  1.00  0.00    -0.206 F 
ATOM     79  C   UNL A   1      38.411  30.334  31.952  1.00  0.00     0.022 A 
BRANCH  76  80
ATOM     80  S   UNL A   1      37.023  30.193  29.537  1.00  0.00     0.124 S 
ATOM     81  O   UNL A   1      36.265  29.270  30.379  1.00  0.00    -0.237 OA
ATOM     82  O   UNL A   1      36.450  31.523  29.374  1.00  0.00    -0.237 OA
ATOM     83  O   UNL A   1      37.585  29.601  28.326  1.00  0.00    -0.744 OA
ENDBRANCH  76  80
ENDBRANCH  59  73
BRANCH  60  84
ATOM     84  C   UNL A   1      48.883  35.393  26.510  1.00  0.00     0.023 A 
ATOM     85  C   UNL A   1      49.939  35.965  27.240  1.00  0.00     0.031 A 
ATOM     86  C   UNL A   1      48.932  35.487  25.107  1.00  0.00     0.131 A 
ATOM     87  C   UNL A   1      50.961  36.658  26.569  1.00  0.00     0.055 A 
ATOM     88  C   UNL A   1      49.987  36.114  24.441  1.00  0.00     0.041 A 
ATOM     89  F   UNL A   1      47.944  34.974  24.356  1.00  0.00    -0.206 F 
ATOM     90  C   UNL A   1      51.001  36.720  25.174  1.00  0.00     0.022 A 
BRANCH  87  91
ATOM     91  S   UNL A   1      52.169  37.593  27.549  1.00  0.00     0.124 S 
ATOM     92  O   UNL A   1      53.226  36.605  27.735  1.00  0.00    -0.237 OA
ATOM     93  O   UNL A   1      52.480  38.709  26.665  1.00  0.00    -0.237 OA
ATOM     94  O   UNL A   1      51.426  37.946  28.757  1.00  0.00    -0.744 OA
ENDBRANCH  87  91
ENDBRANCH  60  84
BRANCH  72  95
ATOM     95  C   UNL A   1      43.011  38.163  29.087  1.00  0.00     0.023 A 
ATOM     96  C   UNL A   1      43.366  38.959  30.191  1.00  0.00     0.031 A 
ATOM     97  C   UNL A   1      42.187  38.737  28.102  1.00  0.00     0.131 A 
ATOM     98  C   UNL A   1      42.852  40.260  30.311  1.00  0.00     0.055 A 
ATOM     99  C   UNL A   1      41.737  40.054  28.191  1.00  0.00     0.041 A 
ATOM    100  F   UNL A   1      41.812  38.025  27.027  1.00  0.00    -0.206 F 
ATOM    101  C   UNL A   1      42.056  40.820  29.307  1.00  0.00     0.022 A 
BRANCH  98 102
ATOM    102  S   UNL A   1      43.151  41.182  31.845  1.00  0.00     0.124 S 
ATOM    103  O   UNL A   1      42.332  42.374  31.647  1.00  0.00    -0.237 OA
ATOM    104  O   UNL A   1      42.685  40.249  32.865  1.00  0.00    -0.237 OA
ATOM    105  O   UNL A   1      44.595  41.413  31.830  1.00  0.00    -0.744 OA
ENDBRANCH  98 102
ENDBRANCH  72  95
ENDBRANCH  46  47
ENDBRANCH  39  41
ENDBRANCH  38  39
ENDBRANCH  37  38
ENDBRANCH  36  37
ENDBRANCH  35  36
ENDBRANCH  34  35
ENDBRANCH  33  34
ENDBRANCH  32  33
ENDBRANCH   1  32
TORSDOF 28
ENDMDL
