MODEL 1
REMARK VINA RESULT:     -10.5      0.000      0.000
REMARK SMILES O=C(OCCOCCOCCOC(=O)c1ccccc1/C=C1/SC(=S)N(C2CCCCC2)C1=O)c1ccc(-c2c3nc(c(-c4cc(S(=O)(=O)[O-])ccc4F)c4ccc([nH]4)c(-c4cc(S(=O)(=O)[O-])ccc4F)c4nc(c(-c5cc(S(=O)(=O)[O-])ccc5F)c5ccc2[nH]5)C=C4)C=C3)cc1
REMARK SMILES IDX 7 1 6 2 5 3 4 4 3 5 2 6 1 7 35 8 36 9 97 10 37 11 96 12
REMARK SMILES IDX 38 13 39 14 40 15 90 16 41 17 95 18 89 19 91 20 42 21 94 22
REMARK SMILES IDX 88 23 87 24 43 26 75 27 55 28 74 29 56 30 59 31 73 32 92 33
REMARK SMILES IDX 57 34 58 35 72 37 93 38 60 39 44 40 45 41 53 42 46 43 52 44
REMARK SMILES IDX 54 45 51 46 47 47 48 48 49 49 50 50 76 51 77 52 85 53 78 54
REMARK SMILES IDX 84 55 86 56 83 57 79 58 80 59 81 60 82 61 61 62 62 63 70 64
REMARK SMILES IDX 63 65 69 66 71 67 68 68 64 69 65 70 66 71 67 72 8 73 9 74
REMARK SMILES IDX 10 75 11 76 12 77 13 78 14 79 15 80 16 81 20 82 17 83 19 84
REMARK SMILES IDX 18 85 21 86 22 87 23 88 33 89 24 90 26 91 34 92 25 93 27 94
REMARK SMILES IDX 28 95 32 96 29 97 31 98 30 99
REMARK H PARENT 91 25 59 36
REMARK Flexibility Score: inf
ROOT
ATOM      1  C   UNL A   1      37.505  22.761  25.149  1.00  0.00     0.188 C 
ENDROOT
BRANCH   1   2
ATOM      2  O   UNL A   1      37.986  21.634  25.893  1.00  0.00    -0.376 OA
BRANCH   2   3
ATOM      3  C   UNL A   1      38.046  20.424  25.138  1.00  0.00     0.202 C 
BRANCH   3   4
ATOM      4  C   UNL A   1      39.282  19.574  25.443  1.00  0.00     0.261 C 
BRANCH   4   5
ATOM      5  O   UNL A   1      39.759  19.797  26.780  1.00  0.00    -0.460 OA
BRANCH   5   6
ATOM      6  C   UNL A   1      40.961  20.318  27.141  1.00  0.00     0.338 C 
ATOM      7  O   UNL A   1      41.902  19.554  27.352  1.00  0.00    -0.246 OA
BRANCH   6   8
ATOM      8  C   UNL A   1      41.216  21.787  27.220  1.00  0.00     0.060 A 
ATOM      9  C   UNL A   1      40.951  22.694  26.192  1.00  0.00     0.016 A 
ATOM     10  C   UNL A   1      41.682  22.292  28.445  1.00  0.00     0.016 A 
ATOM     11  C   UNL A   1      41.254  24.048  26.328  1.00  0.00     0.010 A 
ATOM     12  C   UNL A   1      41.918  23.662  28.611  1.00  0.00     0.010 A 
ATOM     13  C   UNL A   1      41.733  24.547  27.541  1.00  0.00    -0.014 A 
BRANCH  13  14
ATOM     14  C   UNL A   1      42.081  25.983  27.667  1.00  0.00     0.031 A 
ATOM     15  C   UNL A   1      43.399  26.472  27.149  1.00  0.00     0.074 A 
ATOM     16  C   UNL A   1      41.204  26.856  28.199  1.00  0.00     0.049 A 
ATOM     17  N   UNL A   1      43.945  27.652  27.266  1.00  0.00    -0.248 NA
ATOM     18  C   UNL A   1      44.198  25.507  26.378  1.00  0.00     0.031 C 
ATOM     19  C   UNL A   1      39.844  26.525  28.623  1.00  0.00     0.029 A 
ATOM     20  N   UNL A   1      41.321  28.195  28.482  1.00  0.00    -0.354 N 
ATOM     21  C   UNL A   1      45.152  27.577  26.585  1.00  0.00     0.074 A 
ATOM     22  C   UNL A   1      45.272  26.224  26.084  1.00  0.00     0.031 C 
ATOM     23  C   UNL A   1      39.269  27.624  29.132  1.00  0.00     0.029 A 
ATOM     24  C   UNL A   1      40.241  28.701  29.166  1.00  0.00     0.049 A 
ATOM     25  H   UNL A   1      42.101  28.738  28.223  1.00  0.00     0.167 HD
ATOM     26  C   UNL A   1      46.069  28.556  26.390  1.00  0.00     0.034 A 
ATOM     27  C   UNL A   1      40.068  29.868  29.817  1.00  0.00     0.034 A 
ATOM     28  C   UNL A   1      45.930  29.895  26.903  1.00  0.00     0.049 A 
ATOM     29  C   UNL A   1      41.175  30.878  29.751  1.00  0.00     0.074 A 
ATOM     30  C   UNL A   1      46.782  30.972  26.751  1.00  0.00     0.029 A 
ATOM     31  N   UNL A   1      44.870  30.334  27.687  1.00  0.00    -0.354 N 
ATOM     32  N   UNL A   1      42.319  30.793  29.116  1.00  0.00    -0.248 NA
ATOM     33  C   UNL A   1      40.971  32.136  30.478  1.00  0.00     0.031 C 
ATOM     34  C   UNL A   1      46.269  32.043  27.495  1.00  0.00     0.029 A 
ATOM     35  C   UNL A   1      45.071  31.649  28.069  1.00  0.00     0.049 A 
ATOM     36  H   UNL A   1      44.089  29.787  27.936  1.00  0.00     0.167 HD
ATOM     37  C   UNL A   1      42.968  31.998  29.349  1.00  0.00     0.074 A 
ATOM     38  C   UNL A   1      42.080  32.795  30.175  1.00  0.00     0.031 C 
ATOM     39  C   UNL A   1      44.184  32.412  28.913  1.00  0.00     0.034 A 
BRANCH  26  40
ATOM     40  C   UNL A   1      47.321  28.174  25.648  1.00  0.00     0.023 A 
ATOM     41  C   UNL A   1      47.409  28.261  24.247  1.00  0.00     0.031 A 
ATOM     42  C   UNL A   1      48.421  27.655  26.352  1.00  0.00     0.131 A 
ATOM     43  C   UNL A   1      48.550  27.775  23.590  1.00  0.00     0.055 A 
ATOM     44  C   UNL A   1      49.578  27.232  25.697  1.00  0.00     0.041 A 
ATOM     45  F   UNL A   1      48.375  27.524  27.688  1.00  0.00    -0.206 F 
ATOM     46  C   UNL A   1      49.642  27.280  24.307  1.00  0.00     0.022 A 
BRANCH  43  47
ATOM     47  S   UNL A   1      48.541  27.690  21.779  1.00  0.00     0.124 S 
ATOM     48  O   UNL A   1      47.173  28.099  21.470  1.00  0.00    -0.237 OA
ATOM     49  O   UNL A   1      49.588  28.637  21.411  1.00  0.00    -0.237 OA
ATOM     50  O   UNL A   1      48.844  26.288  21.500  1.00  0.00    -0.744 OA
ENDBRANCH  43  47
ENDBRANCH  26  40
BRANCH  27  51
ATOM     51  C   UNL A   1      38.867  30.086  30.676  1.00  0.00     0.023 A 
ATOM     52  C   UNL A   1      37.785  30.871  30.255  1.00  0.00     0.031 A 
ATOM     53  C   UNL A   1      38.816  29.539  31.975  1.00  0.00     0.131 A 
ATOM     54  C   UNL A   1      36.715  31.116  31.132  1.00  0.00     0.055 A 
ATOM     55  C   UNL A   1      37.731  29.749  32.828  1.00  0.00     0.041 A 
ATOM     56  F   UNL A   1      39.823  28.777  32.432  1.00  0.00    -0.206 F 
ATOM     57  C   UNL A   1      36.676  30.553  32.411  1.00  0.00     0.022 A 
BRANCH  54  58
ATOM     58  S   UNL A   1      35.404  32.257  30.612  1.00  0.00     0.124 S 
ATOM     59  O   UNL A   1      34.780  31.520  29.518  1.00  0.00    -0.237 OA
ATOM     60  O   UNL A   1      34.616  32.380  31.834  1.00  0.00    -0.237 OA
ATOM     61  O   UNL A   1      36.134  33.459  30.218  1.00  0.00    -0.744 OA
ENDBRANCH  54  58
ENDBRANCH  27  51
BRANCH  39  62
ATOM     62  C   UNL A   1      44.593  33.800  29.317  1.00  0.00     0.023 A 
ATOM     63  C   UNL A   1      44.225  34.917  28.550  1.00  0.00     0.031 A 
ATOM     64  C   UNL A   1      45.391  34.001  30.456  1.00  0.00     0.131 A 
ATOM     65  C   UNL A   1      44.701  36.186  28.903  1.00  0.00     0.055 A 
ATOM     66  C   UNL A   1      45.817  35.273  30.832  1.00  0.00     0.041 A 
ATOM     67  F   UNL A   1      45.772  32.960  31.215  1.00  0.00    -0.206 F 
ATOM     68  C   UNL A   1      45.481  36.374  30.048  1.00  0.00     0.022 A 
BRANCH  65  69
ATOM     69  S   UNL A   1      44.342  37.584  27.805  1.00  0.00     0.124 S 
ATOM     70  O   UNL A   1      45.599  37.724  27.078  1.00  0.00    -0.237 OA
ATOM     71  O   UNL A   1      43.208  37.093  27.029  1.00  0.00    -0.237 OA
ATOM     72  O   UNL A   1      44.033  38.673  28.729  1.00  0.00    -0.744 OA
ENDBRANCH  65  69
ENDBRANCH  39  62
ENDBRANCH  13  14
ENDBRANCH   6   8
ENDBRANCH   5   6
ENDBRANCH   4   5
ENDBRANCH   3   4
ENDBRANCH   2   3
ENDBRANCH   1   2
BRANCH   1  73
ATOM     73  C   UNL A   1      36.119  23.153  25.661  1.00  0.00     0.188 C 
BRANCH  73  74
ATOM     74  O   UNL A   1      35.128  22.125  25.544  1.00  0.00    -0.376 OA
BRANCH  74  75
ATOM     75  C   UNL A   1      34.626  21.565  26.754  1.00  0.00     0.202 C 
BRANCH  75  76
ATOM     76  C   UNL A   1      33.475  22.308  27.444  1.00  0.00     0.261 C 
BRANCH  76  77
ATOM     77  O   UNL A   1      32.187  22.242  26.809  1.00  0.00    -0.460 OA
BRANCH  77  78
ATOM     78  C   UNL A   1      31.680  23.452  26.484  1.00  0.00     0.338 C 
ATOM     79  O   UNL A   1      30.877  24.106  27.146  1.00  0.00    -0.246 OA
BRANCH  78  80
ATOM     80  C   UNL A   1      32.124  23.907  25.161  1.00  0.00     0.067 A 
ATOM     81  C   UNL A   1      31.900  23.058  24.069  1.00  0.00     0.016 A 
ATOM     82  C   UNL A   1      32.944  25.048  25.036  1.00  0.00    -0.010 A 
ATOM     83  C   UNL A   1      32.510  23.335  22.847  1.00  0.00     0.001 A 
ATOM     84  C   UNL A   1      33.601  25.267  23.822  1.00  0.00     0.009 A 
ATOM     85  C   UNL A   1      33.377  24.422  22.731  1.00  0.00     0.001 A 
BRANCH  82  86
ATOM     86  C   UNL A   1      33.103  26.031  26.119  1.00  0.00     0.030 C 
ATOM     87  C   UNL A   1      32.365  27.141  26.237  1.00  0.00     0.081 C 
ATOM     88  S   UNL A   1      32.793  28.498  27.194  1.00  0.00    -0.054 SA
ATOM     89  C   UNL A   1      31.211  27.492  25.382  1.00  0.00     0.266 C 
ATOM     90  C   UNL A   1      31.863  29.595  26.158  1.00  0.00     0.148 C 
ATOM     91  N   UNL A   1      31.155  28.868  25.223  1.00  0.00    -0.290 N 
ATOM     92  O   UNL A   1      30.420  26.671  24.936  1.00  0.00    -0.268 OA
ATOM     93  S   UNL A   1      31.945  31.246  26.386  1.00  0.00    -0.052 S 
BRANCH  91  94
ATOM     94  C   UNL A   1      30.280  29.356  24.145  1.00  0.00     0.092 C 
ATOM     95  C   UNL A   1      29.722  30.752  24.440  1.00  0.00     0.025 C 
ATOM     96  C   UNL A   1      30.867  29.245  22.726  1.00  0.00     0.025 C 
ATOM     97  C   UNL A   1      28.708  31.166  23.376  1.00  0.00     0.002 C 
ATOM     98  C   UNL A   1      29.840  29.673  21.678  1.00  0.00     0.002 C 
ATOM     99  C   UNL A   1      29.296  31.070  21.971  1.00  0.00     0.000 C 
ENDBRANCH  91  94
ENDBRANCH  82  86
ENDBRANCH  78  80
ENDBRANCH  77  78
ENDBRANCH  76  77
ENDBRANCH  75  76
ENDBRANCH  74  75
ENDBRANCH  73  74
ENDBRANCH   1  73
TORSDOF 22
ENDMDL
MODEL 2
REMARK VINA RESULT:     -10.0      1.918      7.490
REMARK SMILES O=C(OCCOCCOCCOC(=O)c1ccccc1/C=C1/SC(=S)N(C2CCCCC2)C1=O)c1ccc(-c2c3nc(c(-c4cc(S(=O)(=O)[O-])ccc4F)c4ccc([nH]4)c(-c4cc(S(=O)(=O)[O-])ccc4F)c4nc(c(-c5cc(S(=O)(=O)[O-])ccc5F)c5ccc2[nH]5)C=C4)C=C3)cc1
REMARK SMILES IDX 7 1 6 2 5 3 4 4 3 5 2 6 1 7 35 8 36 9 97 10 37 11 96 12
REMARK SMILES IDX 38 13 39 14 40 15 90 16 41 17 95 18 89 19 91 20 42 21 94 22
REMARK SMILES IDX 88 23 87 24 43 26 75 27 55 28 74 29 56 30 59 31 73 32 92 33
REMARK SMILES IDX 57 34 58 35 72 37 93 38 60 39 44 40 45 41 53 42 46 43 52 44
REMARK SMILES IDX 54 45 51 46 47 47 48 48 49 49 50 50 76 51 77 52 85 53 78 54
REMARK SMILES IDX 84 55 86 56 83 57 79 58 80 59 81 60 82 61 61 62 62 63 70 64
REMARK SMILES IDX 63 65 69 66 71 67 68 68 64 69 65 70 66 71 67 72 8 73 9 74
REMARK SMILES IDX 10 75 11 76 12 77 13 78 14 79 15 80 16 81 20 82 17 83 19 84
REMARK SMILES IDX 18 85 21 86 22 87 23 88 33 89 24 90 26 91 34 92 25 93 27 94
REMARK SMILES IDX 28 95 32 96 29 97 31 98 30 99
REMARK H PARENT 91 25 59 36
REMARK Flexibility Score: inf
ROOT
ATOM      1  C   UNL A   1      36.932  22.934  25.329  1.00  0.00     0.188 C 
ENDROOT
BRANCH   1   2
ATOM      2  O   UNL A   1      37.271  21.623  25.800  1.00  0.00    -0.376 OA
BRANCH   2   3
ATOM      3  C   UNL A   1      37.255  20.621  24.784  1.00  0.00     0.202 C 
BRANCH   3   4
ATOM      4  C   UNL A   1      38.245  19.479  25.036  1.00  0.00     0.261 C 
BRANCH   4   5
ATOM      5  O   UNL A   1      39.002  19.693  26.238  1.00  0.00    -0.460 OA
BRANCH   5   6
ATOM      6  C   UNL A   1      40.318  20.019  26.326  1.00  0.00     0.338 C 
ATOM      7  O   UNL A   1      41.162  19.156  26.087  1.00  0.00    -0.246 OA
BRANCH   6   8
ATOM      8  C   UNL A   1      40.792  21.402  26.627  1.00  0.00     0.060 A 
ATOM      9  C   UNL A   1      40.471  22.532  25.873  1.00  0.00     0.016 A 
ATOM     10  C   UNL A   1      41.549  21.580  27.797  1.00  0.00     0.016 A 
ATOM     11  C   UNL A   1      40.986  23.786  26.196  1.00  0.00     0.010 A 
ATOM     12  C   UNL A   1      42.007  22.851  28.167  1.00  0.00     0.010 A 
ATOM     13  C   UNL A   1      41.752  23.961  27.350  1.00  0.00    -0.014 A 
BRANCH  13  14
ATOM     14  C   UNL A   1      42.320  25.292  27.670  1.00  0.00     0.031 A 
ATOM     15  C   UNL A   1      41.461  26.316  28.350  1.00  0.00     0.074 A 
ATOM     16  C   UNL A   1      43.609  25.571  27.400  1.00  0.00     0.049 A 
ATOM     17  N   UNL A   1      41.721  27.568  28.609  1.00  0.00    -0.248 NA
ATOM     18  C   UNL A   1      40.144  25.859  28.818  1.00  0.00     0.031 C 
ATOM     19  C   UNL A   1      44.577  24.619  26.857  1.00  0.00     0.029 A 
ATOM     20  N   UNL A   1      44.330  26.733  27.536  1.00  0.00    -0.354 N 
ATOM     21  C   UNL A   1      40.602  28.055  29.271  1.00  0.00     0.074 A 
ATOM     22  C   UNL A   1      39.648  26.968  29.345  1.00  0.00     0.031 C 
ATOM     23  C   UNL A   1      45.750  25.244  26.685  1.00  0.00     0.029 A 
ATOM     24  C   UNL A   1      45.595  26.651  27.005  1.00  0.00     0.049 A 
ATOM     25  H   UNL A   1      43.975  27.543  27.970  1.00  0.00     0.167 HD
ATOM     26  C   UNL A   1      40.398  29.295  29.778  1.00  0.00     0.034 A 
ATOM     27  C   UNL A   1      46.508  27.603  26.730  1.00  0.00     0.034 A 
ATOM     28  C   UNL A   1      41.361  30.363  29.688  1.00  0.00     0.049 A 
ATOM     29  C   UNL A   1      46.190  29.014  27.128  1.00  0.00     0.074 A 
ATOM     30  C   UNL A   1      41.273  31.651  30.181  1.00  0.00     0.029 A 
ATOM     31  N   UNL A   1      42.587  30.268  29.040  1.00  0.00    -0.354 N 
ATOM     32  N   UNL A   1      45.123  29.467  27.742  1.00  0.00    -0.248 NA
ATOM     33  C   UNL A   1      47.191  30.036  26.808  1.00  0.00     0.031 C 
ATOM     34  C   UNL A   1      42.418  32.353  29.778  1.00  0.00     0.029 A 
ATOM     35  C   UNL A   1      43.243  31.488  29.078  1.00  0.00     0.049 A 
ATOM     36  H   UNL A   1      42.939  29.451  28.617  1.00  0.00     0.167 HD
ATOM     37  C   UNL A   1      45.332  30.830  27.901  1.00  0.00     0.074 A 
ATOM     38  C   UNL A   1      46.633  31.120  27.327  1.00  0.00     0.031 C 
ATOM     39  C   UNL A   1      44.526  31.757  28.476  1.00  0.00     0.034 A 
BRANCH  26  40
ATOM     40  C   UNL A   1      39.057  29.559  30.407  1.00  0.00     0.023 A 
ATOM     41  C   UNL A   1      38.060  30.295  29.744  1.00  0.00     0.031 A 
ATOM     42  C   UNL A   1      38.799  29.120  31.717  1.00  0.00     0.131 A 
ATOM     43  C   UNL A   1      36.874  30.624  30.419  1.00  0.00     0.055 A 
ATOM     44  C   UNL A   1      37.592  29.396  32.359  1.00  0.00     0.041 A 
ATOM     45  F   UNL A   1      39.731  28.438  32.403  1.00  0.00    -0.206 F 
ATOM     46  C   UNL A   1      36.626  30.163  31.714  1.00  0.00     0.022 A 
BRANCH  43  47
ATOM     47  S   UNL A   1      35.707  31.763  29.623  1.00  0.00     0.124 S 
ATOM     48  O   UNL A   1      35.095  30.902  28.614  1.00  0.00    -0.237 OA
ATOM     49  O   UNL A   1      34.845  32.160  30.731  1.00  0.00    -0.237 OA
ATOM     50  O   UNL A   1      36.566  32.820  29.094  1.00  0.00    -0.744 OA
ENDBRANCH  43  47
ENDBRANCH  26  40
BRANCH  27  51
ATOM     51  C   UNL A   1      47.732  27.275  25.941  1.00  0.00     0.023 A 
ATOM     52  C   UNL A   1      48.903  26.804  26.549  1.00  0.00     0.031 A 
ATOM     53  C   UNL A   1      47.754  27.484  24.547  1.00  0.00     0.131 A 
ATOM     54  C   UNL A   1      50.056  26.590  25.775  1.00  0.00     0.055 A 
ATOM     55  C   UNL A   1      48.888  27.229  23.775  1.00  0.00     0.041 A 
ATOM     56  F   UNL A   1      46.660  27.932  23.909  1.00  0.00    -0.206 F 
ATOM     57  C   UNL A   1      50.053  26.790  24.391  1.00  0.00     0.022 A 
BRANCH  54  58
ATOM     58  S   UNL A   1      51.597  26.126  26.614  1.00  0.00     0.124 S 
ATOM     59  O   UNL A   1      51.824  27.275  27.483  1.00  0.00    -0.237 OA
ATOM     60  O   UNL A   1      51.211  24.885  27.278  1.00  0.00    -0.237 OA
ATOM     61  O   UNL A   1      52.550  25.976  25.517  1.00  0.00    -0.744 OA
ENDBRANCH  54  58
ENDBRANCH  27  51
BRANCH  39  62
ATOM     62  C   UNL A   1      45.059  33.161  28.520  1.00  0.00     0.023 A 
ATOM     63  C   UNL A   1      45.869  33.596  29.582  1.00  0.00     0.031 A 
ATOM     64  C   UNL A   1      44.722  34.079  27.513  1.00  0.00     0.131 A 
ATOM     65  C   UNL A   1      46.273  34.936  29.640  1.00  0.00     0.055 A 
ATOM     66  C   UNL A   1      45.172  35.398  27.548  1.00  0.00     0.041 A 
ATOM     67  F   UNL A   1      43.945  33.707  26.482  1.00  0.00    -0.206 F 
ATOM     68  C   UNL A   1      45.942  35.836  28.622  1.00  0.00     0.022 A 
BRANCH  65  69
ATOM     69  S   UNL A   1      47.181  35.506  31.102  1.00  0.00     0.124 S 
ATOM     70  O   UNL A   1      47.035  36.955  30.999  1.00  0.00    -0.237 OA
ATOM     71  O   UNL A   1      46.453  34.868  32.194  1.00  0.00    -0.237 OA
ATOM     72  O   UNL A   1      48.534  35.001  30.882  1.00  0.00    -0.744 OA
ENDBRANCH  65  69
ENDBRANCH  39  62
ENDBRANCH  13  14
ENDBRANCH   6   8
ENDBRANCH   5   6
ENDBRANCH   4   5
ENDBRANCH   3   4
ENDBRANCH   2   3
ENDBRANCH   1   2
BRANCH   1  73
ATOM     73  C   UNL A   1      35.688  23.431  26.065  1.00  0.00     0.188 C 
BRANCH  73  74
ATOM     74  O   UNL A   1      34.751  22.405  26.412  1.00  0.00    -0.376 OA
BRANCH  74  75
ATOM     75  C   UNL A   1      34.083  22.529  27.664  1.00  0.00     0.202 C 
BRANCH  75  76
ATOM     76  C   UNL A   1      32.553  22.639  27.634  1.00  0.00     0.261 C 
BRANCH  76  77
ATOM     77  O   UNL A   1      31.925  22.587  26.343  1.00  0.00    -0.460 OA
BRANCH  77  78
ATOM     78  C   UNL A   1      31.350  23.752  25.971  1.00  0.00     0.338 C 
ATOM     79  O   UNL A   1      30.371  24.279  26.494  1.00  0.00    -0.246 OA
BRANCH  78  80
ATOM     80  C   UNL A   1      31.972  24.324  24.771  1.00  0.00     0.067 A 
ATOM     81  C   UNL A   1      31.890  23.591  23.580  1.00  0.00     0.016 A 
ATOM     82  C   UNL A   1      32.812  25.453  24.871  1.00  0.00    -0.010 A 
ATOM     83  C   UNL A   1      32.661  23.973  22.484  1.00  0.00     0.001 A 
ATOM     84  C   UNL A   1      33.628  25.776  23.783  1.00  0.00     0.009 A 
ATOM     85  C   UNL A   1      33.546  25.046  22.594  1.00  0.00     0.001 A 
BRANCH  82  86
ATOM     86  C   UNL A   1      32.833  26.323  26.059  1.00  0.00     0.030 C 
ATOM     87  C   UNL A   1      32.152  27.470  26.158  1.00  0.00     0.081 C 
ATOM     88  S   UNL A   1      32.480  28.701  27.306  1.00  0.00    -0.054 SA
ATOM     89  C   UNL A   1      31.190  27.980  25.158  1.00  0.00     0.266 C 
ATOM     90  C   UNL A   1      31.815  29.951  26.241  1.00  0.00     0.148 C 
ATOM     91  N   UNL A   1      31.244  29.366  25.130  1.00  0.00    -0.290 N 
ATOM     92  O   UNL A   1      30.445  27.264  24.502  1.00  0.00    -0.268 OA
ATOM     93  S   UNL A   1      31.951  31.566  26.644  1.00  0.00    -0.052 S 
BRANCH  91  94
ATOM     94  C   UNL A   1      30.605  30.011  23.972  1.00  0.00     0.092 C 
ATOM     95  C   UNL A   1      30.504  29.069  22.768  1.00  0.00     0.025 C 
ATOM     96  C   UNL A   1      29.276  30.726  24.273  1.00  0.00     0.025 C 
ATOM     97  C   UNL A   1      29.972  29.811  21.544  1.00  0.00     0.002 C 
ATOM     98  C   UNL A   1      28.757  31.454  23.033  1.00  0.00     0.002 C 
ATOM     99  C   UNL A   1      28.647  30.507  21.840  1.00  0.00     0.000 C 
ENDBRANCH  91  94
ENDBRANCH  82  86
ENDBRANCH  78  80
ENDBRANCH  77  78
ENDBRANCH  76  77
ENDBRANCH  75  76
ENDBRANCH  74  75
ENDBRANCH  73  74
ENDBRANCH   1  73
TORSDOF 22
ENDMDL
MODEL 3
REMARK VINA RESULT:      -9.5      1.975      2.311
REMARK SMILES O=C(OCCOCCOCCOC(=O)c1ccccc1/C=C1/SC(=S)N(C2CCCCC2)C1=O)c1ccc(-c2c3nc(c(-c4cc(S(=O)(=O)[O-])ccc4F)c4ccc([nH]4)c(-c4cc(S(=O)(=O)[O-])ccc4F)c4nc(c(-c5cc(S(=O)(=O)[O-])ccc5F)c5ccc2[nH]5)C=C4)C=C3)cc1
REMARK SMILES IDX 7 1 6 2 5 3 4 4 3 5 2 6 1 7 35 8 36 9 97 10 37 11 96 12
REMARK SMILES IDX 38 13 39 14 40 15 90 16 41 17 95 18 89 19 91 20 42 21 94 22
REMARK SMILES IDX 88 23 87 24 43 26 75 27 55 28 74 29 56 30 59 31 73 32 92 33
REMARK SMILES IDX 57 34 58 35 72 37 93 38 60 39 44 40 45 41 53 42 46 43 52 44
REMARK SMILES IDX 54 45 51 46 47 47 48 48 49 49 50 50 76 51 77 52 85 53 78 54
REMARK SMILES IDX 84 55 86 56 83 57 79 58 80 59 81 60 82 61 61 62 62 63 70 64
REMARK SMILES IDX 63 65 69 66 71 67 68 68 64 69 65 70 66 71 67 72 8 73 9 74
REMARK SMILES IDX 10 75 11 76 12 77 13 78 14 79 15 80 16 81 20 82 17 83 19 84
REMARK SMILES IDX 18 85 21 86 22 87 23 88 33 89 24 90 26 91 34 92 25 93 27 94
REMARK SMILES IDX 28 95 32 96 29 97 31 98 30 99
REMARK H PARENT 91 25 59 36
REMARK Flexibility Score: inf
ROOT
ATOM      1  C   UNL A   1      37.694  22.783  25.346  1.00  0.00     0.188 C 
ENDROOT
BRANCH   1   2
ATOM      2  O   UNL A   1      38.283  21.629  25.958  1.00  0.00    -0.376 OA
BRANCH   2   3
ATOM      3  C   UNL A   1      38.296  20.472  25.122  1.00  0.00     0.202 C 
BRANCH   3   4
ATOM      4  C   UNL A   1      39.360  19.444  25.517  1.00  0.00     0.261 C 
BRANCH   4   5
ATOM      5  O   UNL A   1      40.232  19.953  26.538  1.00  0.00    -0.460 OA
BRANCH   5   6
ATOM      6  C   UNL A   1      41.459  20.510  26.361  1.00  0.00     0.338 C 
ATOM      7  O   UNL A   1      42.361  19.822  25.884  1.00  0.00    -0.246 OA
BRANCH   6   8
ATOM      8  C   UNL A   1      41.746  21.947  26.647  1.00  0.00     0.060 A 
ATOM      9  C   UNL A   1      41.905  22.933  25.671  1.00  0.00     0.016 A 
ATOM     10  C   UNL A   1      41.779  22.338  27.995  1.00  0.00     0.016 A 
ATOM     11  C   UNL A   1      42.210  24.248  26.018  1.00  0.00     0.010 A 
ATOM     12  C   UNL A   1      42.012  23.673  28.348  1.00  0.00     0.010 A 
ATOM     13  C   UNL A   1      42.260  24.634  27.359  1.00  0.00    -0.014 A 
BRANCH  13  14
ATOM     14  C   UNL A   1      42.614  26.028  27.719  1.00  0.00     0.031 A 
ATOM     15  C   UNL A   1      44.049  26.458  27.676  1.00  0.00     0.074 A 
ATOM     16  C   UNL A   1      41.656  26.918  28.037  1.00  0.00     0.049 A 
ATOM     17  N   UNL A   1      44.584  27.584  28.063  1.00  0.00    -0.248 NA
ATOM     18  C   UNL A   1      45.004  25.499  27.099  1.00  0.00     0.031 C 
ATOM     19  C   UNL A   1      40.218  26.654  27.992  1.00  0.00     0.029 A 
ATOM     20  N   UNL A   1      41.739  28.221  28.465  1.00  0.00    -0.354 N 
ATOM     21  C   UNL A   1      45.938  27.475  27.779  1.00  0.00     0.074 A 
ATOM     22  C   UNL A   1      46.147  26.158  27.215  1.00  0.00     0.031 C 
ATOM     23  C   UNL A   1      39.563  27.750  28.402  1.00  0.00     0.029 A 
ATOM     24  C   UNL A   1      40.524  28.750  28.831  1.00  0.00     0.049 A 
ATOM     25  H   UNL A   1      42.585  28.724  28.508  1.00  0.00     0.167 HD
ATOM     26  C   UNL A   1      46.913  28.398  27.965  1.00  0.00     0.034 A 
ATOM     27  C   UNL A   1      40.209  29.873  29.504  1.00  0.00     0.034 A 
ATOM     28  C   UNL A   1      46.681  29.701  28.534  1.00  0.00     0.049 A 
ATOM     29  C   UNL A   1      41.326  30.805  29.873  1.00  0.00     0.074 A 
ATOM     30  C   UNL A   1      47.586  30.723  28.750  1.00  0.00     0.029 A 
ATOM     31  N   UNL A   1      45.451  30.154  28.995  1.00  0.00    -0.354 N 
ATOM     32  N   UNL A   1      42.606  30.686  29.613  1.00  0.00    -0.248 NA
ATOM     33  C   UNL A   1      40.964  32.015  30.617  1.00  0.00     0.031 C 
ATOM     34  C   UNL A   1      46.916  31.770  29.399  1.00  0.00     0.029 A 
ATOM     35  C   UNL A   1      45.583  31.420  29.541  1.00  0.00     0.049 A 
ATOM     36  H   UNL A   1      44.608  29.648  28.941  1.00  0.00     0.167 HD
ATOM     37  C   UNL A   1      43.204  31.821  30.144  1.00  0.00     0.074 A 
ATOM     38  C   UNL A   1      42.140  32.615  30.730  1.00  0.00     0.031 C 
ATOM     39  C   UNL A   1      44.512  32.179  30.141  1.00  0.00     0.034 A 
BRANCH  26  40
ATOM     40  C   UNL A   1      48.315  27.984  27.609  1.00  0.00     0.023 A 
ATOM     41  C   UNL A   1      48.867  28.250  26.343  1.00  0.00     0.031 A 
ATOM     42  C   UNL A   1      49.086  27.257  28.531  1.00  0.00     0.131 A 
ATOM     43  C   UNL A   1      50.131  27.735  26.014  1.00  0.00     0.055 A 
ATOM     44  C   UNL A   1      50.367  26.803  28.219  1.00  0.00     0.041 A 
ATOM     45  F   UNL A   1      48.593  26.953  29.743  1.00  0.00    -0.206 F 
ATOM     46  C   UNL A   1      50.892  27.030  26.950  1.00  0.00     0.022 A 
BRANCH  43  47
ATOM     47  S   UNL A   1      50.718  27.897  24.305  1.00  0.00     0.124 S 
ATOM     48  O   UNL A   1      51.645  26.772  24.204  1.00  0.00    -0.237 OA
ATOM     49  O   UNL A   1      49.486  27.779  23.533  1.00  0.00    -0.237 OA
ATOM     50  O   UNL A   1      51.344  29.217  24.282  1.00  0.00    -0.744 OA
ENDBRANCH  43  47
ENDBRANCH  26  40
BRANCH  27  51
ATOM     51  C   UNL A   1      38.812  30.112  29.972  1.00  0.00     0.023 A 
ATOM     52  C   UNL A   1      37.967  31.039  29.346  1.00  0.00     0.031 A 
ATOM     53  C   UNL A   1      38.319  29.434  31.106  1.00  0.00     0.131 A 
ATOM     54  C   UNL A   1      36.690  31.289  29.875  1.00  0.00     0.055 A 
ATOM     55  C   UNL A   1      37.034  29.654  31.603  1.00  0.00     0.041 A 
ATOM     56  F   UNL A   1      39.083  28.533  31.745  1.00  0.00    -0.206 F 
ATOM     57  C   UNL A   1      36.214  30.596  30.992  1.00  0.00     0.022 A 
BRANCH  54  58
ATOM     58  S   UNL A   1      35.680  32.602  29.134  1.00  0.00     0.124 S 
ATOM     59  O   UNL A   1      35.840  33.685  30.099  1.00  0.00    -0.237 OA
ATOM     60  O   UNL A   1      36.336  32.789  27.845  1.00  0.00    -0.237 OA
ATOM     61  O   UNL A   1      34.345  32.013  29.075  1.00  0.00    -0.744 OA
ENDBRANCH  54  58
ENDBRANCH  27  51
BRANCH  39  62
ATOM     62  C   UNL A   1      44.838  33.500  30.778  1.00  0.00     0.023 A 
ATOM     63  C   UNL A   1      45.113  33.594  32.152  1.00  0.00     0.031 A 
ATOM     64  C   UNL A   1      44.833  34.677  30.012  1.00  0.00     0.131 A 
ATOM     65  C   UNL A   1      45.321  34.852  32.731  1.00  0.00     0.055 A 
ATOM     66  C   UNL A   1      45.095  35.920  30.584  1.00  0.00     0.041 A 
ATOM     67  F   UNL A   1      44.569  34.633  28.696  1.00  0.00    -0.206 F 
ATOM     68  C   UNL A   1      45.329  36.014  31.954  1.00  0.00     0.022 A 
BRANCH  65  69
ATOM     69  S   UNL A   1      45.514  34.958  34.531  1.00  0.00     0.124 S 
ATOM     70  O   UNL A   1      44.142  34.774  34.991  1.00  0.00    -0.237 OA
ATOM     71  O   UNL A   1      46.434  33.861  34.814  1.00  0.00    -0.237 OA
ATOM     72  O   UNL A   1      46.065  36.296  34.737  1.00  0.00    -0.744 OA
ENDBRANCH  65  69
ENDBRANCH  39  62
ENDBRANCH  13  14
ENDBRANCH   6   8
ENDBRANCH   5   6
ENDBRANCH   4   5
ENDBRANCH   3   4
ENDBRANCH   2   3
ENDBRANCH   1   2
BRANCH   1  73
ATOM     73  C   UNL A   1      36.426  23.170  26.106  1.00  0.00     0.188 C 
BRANCH  73  74
ATOM     74  O   UNL A   1      35.531  22.082  26.363  1.00  0.00    -0.376 OA
BRANCH  74  75
ATOM     75  C   UNL A   1      34.653  22.211  27.478  1.00  0.00     0.202 C 
BRANCH  75  76
ATOM     76  C   UNL A   1      33.189  22.561  27.180  1.00  0.00     0.261 C 
BRANCH  76  77
ATOM     77  O   UNL A   1      32.786  22.542  25.800  1.00  0.00    -0.460 OA
BRANCH  77  78
ATOM     78  C   UNL A   1      31.920  23.527  25.475  1.00  0.00     0.338 C 
ATOM     79  O   UNL A   1      30.899  23.830  26.089  1.00  0.00    -0.246 OA
BRANCH  78  80
ATOM     80  C   UNL A   1      32.271  24.184  24.210  1.00  0.00     0.067 A 
ATOM     81  C   UNL A   1      32.057  23.473  23.023  1.00  0.00     0.016 A 
ATOM     82  C   UNL A   1      33.005  25.389  24.211  1.00  0.00    -0.010 A 
ATOM     83  C   UNL A   1      32.590  23.953  21.828  1.00  0.00     0.001 A 
ATOM     84  C   UNL A   1      33.589  25.815  23.015  1.00  0.00     0.009 A 
ATOM     85  C   UNL A   1      33.375  25.107  21.829  1.00  0.00     0.001 A 
BRANCH  82  86
ATOM     86  C   UNL A   1      33.145  26.231  25.410  1.00  0.00     0.030 C 
ATOM     87  C   UNL A   1      32.356  27.275  25.689  1.00  0.00     0.081 C 
ATOM     88  S   UNL A   1      32.742  28.516  26.807  1.00  0.00    -0.054 SA
ATOM     89  C   UNL A   1      31.162  27.672  24.913  1.00  0.00     0.266 C 
ATOM     90  C   UNL A   1      31.730  29.687  25.945  1.00  0.00     0.148 C 
ATOM     91  N   UNL A   1      31.033  29.052  24.937  1.00  0.00    -0.290 N 
ATOM     92  O   UNL A   1      30.401  26.875  24.379  1.00  0.00    -0.268 OA
ATOM     93  S   UNL A   1      31.735  31.297  26.386  1.00  0.00    -0.052 S 
BRANCH  91  94
ATOM     94  C   UNL A   1      30.104  29.629  23.952  1.00  0.00     0.092 C 
ATOM     95  C   UNL A   1      29.636  31.032  24.351  1.00  0.00     0.025 C 
ATOM     96  C   UNL A   1      30.578  29.561  22.489  1.00  0.00     0.025 C 
ATOM     97  C   UNL A   1      28.567  31.540  23.387  1.00  0.00     0.002 C 
ATOM     98  C   UNL A   1      29.498  30.082  21.543  1.00  0.00     0.002 C 
ATOM     99  C   UNL A   1      29.044  31.486  21.938  1.00  0.00     0.000 C 
ENDBRANCH  91  94
ENDBRANCH  82  86
ENDBRANCH  78  80
ENDBRANCH  77  78
ENDBRANCH  76  77
ENDBRANCH  75  76
ENDBRANCH  74  75
ENDBRANCH  73  74
ENDBRANCH   1  73
TORSDOF 22
ENDMDL
