MODEL 1
REMARK VINA RESULT:      -9.2      0.000      0.000
REMARK SMILES CC[N@@H+]1CC[C@H](C[NH2+]Cc2cc(C(=O)OCCOCCOCCOC(=O)c3ccc(-c4c5nc(c(-c6cc(S(=O)(=O)[O-])ccc6F)c6ccc([nH]6)c(-c6cc(S(=O)(=O)[O-])ccc6F)c6nc(c(-c7cc(S(=O)(=O)[O-])ccc7F)c7ccc4[nH]7)C=C6)C=C5)cc3)cs2)C1
REMARK SMILES IDX 19 1 18 2 17 3 16 4 15 5 13 6 14 7 12 8 10 9 11 10 91 11
REMARK SMILES IDX 90 12 9 13 8 14 7 17 6 18 3 19 4 20 92 21 5 23 2 24 1 25
REMARK SMILES IDX 20 26 21 27 22 28 23 29 24 30 25 31 26 32 27 33 28 34 89 35
REMARK SMILES IDX 29 36 88 37 30 38 31 39 32 40 82 41 33 42 87 43 81 44 83 45
REMARK SMILES IDX 34 46 86 47 80 48 79 49 35 51 67 52 47 53 66 54 48 55 51 56
REMARK SMILES IDX 65 57 84 58 49 59 50 60 64 62 85 63 52 64 36 65 37 66 45 67
REMARK SMILES IDX 38 68 44 69 46 70 43 71 39 72 40 73 41 74 42 75 68 76 69 77
REMARK SMILES IDX 77 78 70 79 76 80 78 81 75 82 71 83 72 84 73 85 74 86 53 87
REMARK SMILES IDX 54 88 62 89 55 90 61 91 63 92 60 93 56 94 57 95 58 96 59 97
REMARK H PARENT 8 15 8 16 3 22 83 50 51 61
REMARK Flexibility Score: inf
ROOT
ATOM      1  C   UNL A   1      30.611  31.236  25.074  1.00  0.00     0.188 C 
ENDROOT
BRANCH   1   2
ATOM      2  O   UNL A   1      29.313  31.050  24.517  1.00  0.00    -0.376 OA
BRANCH   2   3
ATOM      3  C   UNL A   1      28.822  31.972  23.553  1.00  0.00     0.202 C 
BRANCH   3   4
ATOM      4  C   UNL A   1      27.932  31.398  22.450  1.00  0.00     0.261 C 
BRANCH   4   5
ATOM      5  O   UNL A   1      28.368  30.095  22.029  1.00  0.00    -0.460 OA
BRANCH   5   6
ATOM      6  C   UNL A   1      28.004  29.063  22.843  1.00  0.00     0.339 C 
ATOM      7  O   UNL A   1      26.896  28.924  23.347  1.00  0.00    -0.246 OA
BRANCH   6   8
ATOM      8  C   UNL A   1      29.042  28.045  22.926  1.00  0.00     0.071 A 
ATOM      9  C   UNL A   1      30.169  26.058  23.464  1.00  0.00     0.059 A 
ATOM     10  C   UNL A   1      29.001  26.786  23.617  1.00  0.00     0.037 A 
ATOM     11  S   UNL A   1      31.382  27.000  22.696  1.00  0.00    -0.142 S 
ATOM     12  C   UNL A   1      30.268  28.228  22.313  1.00  0.00     0.081 A 
BRANCH   9  13
ATOM     13  C   UNL A   1      30.465  24.639  23.879  1.00  0.00     0.308 C 
BRANCH  13  14
ATOM     14  N   UNL A   1      30.356  24.458  25.337  1.00  0.00    -0.341 N 
ATOM     15  H   UNL A   1      29.424  24.747  25.637  1.00  0.00     0.346 HD
ATOM     16  H   UNL A   1      30.522  23.474  25.547  1.00  0.00     0.346 HD
BRANCH  14  17
ATOM     17  C   UNL A   1      31.356  25.253  26.066  1.00  0.00     0.270 C 
BRANCH  17  18
ATOM     18  C   UNL A   1      32.440  24.396  26.732  1.00  0.00     0.105 C 
ATOM     19  N   UNL A   1      34.088  22.973  25.661  1.00  0.00    -0.335 N 
ATOM     20  C   UNL A   1      33.338  22.171  26.625  1.00  0.00     0.262 C 
ATOM     21  C   UNL A   1      33.736  24.377  25.902  1.00  0.00     0.271 C 
ATOM     22  H   UNL A   1      35.089  22.848  25.811  1.00  0.00     0.348 HD
ATOM     23  C   UNL A   1      32.051  22.926  26.877  1.00  0.00     0.076 C 
BRANCH  19  24
ATOM     24  C   UNL A   1      33.964  22.527  24.267  1.00  0.00     0.258 C 
ATOM     25  C   UNL A   1      32.631  21.951  23.797  1.00  0.00     0.071 C 
ENDBRANCH  19  24
ENDBRANCH  17  18
ENDBRANCH  14  17
ENDBRANCH  13  14
ENDBRANCH   9  13
ENDBRANCH   6   8
ENDBRANCH   5   6
ENDBRANCH   4   5
ENDBRANCH   3   4
ENDBRANCH   2   3
ENDBRANCH   1   2
BRANCH   1  26
ATOM     26  C   UNL A   1      31.587  30.046  25.140  1.00  0.00     0.188 C 
BRANCH  26  27
ATOM     27  O   UNL A   1      32.624  30.206  26.100  1.00  0.00    -0.376 OA
BRANCH  27  28
ATOM     28  C   UNL A   1      32.358  31.131  27.144  1.00  0.00     0.202 C 
BRANCH  28  29
ATOM     29  C   UNL A   1      33.596  31.932  27.558  1.00  0.00     0.261 C 
BRANCH  29  30
ATOM     30  O   UNL A   1      33.502  33.346  27.323  1.00  0.00    -0.460 OA
BRANCH  30  31
ATOM     31  C   UNL A   1      33.413  34.140  28.416  1.00  0.00     0.338 C 
ATOM     32  O   UNL A   1      32.493  34.880  28.709  1.00  0.00    -0.246 OA
BRANCH  31  33
ATOM     33  C   UNL A   1      34.570  33.847  29.286  1.00  0.00     0.060 A 
ATOM     34  C   UNL A   1      35.847  34.253  28.881  1.00  0.00     0.016 A 
ATOM     35  C   UNL A   1      34.390  33.157  30.488  1.00  0.00     0.016 A 
ATOM     36  C   UNL A   1      36.957  33.936  29.668  1.00  0.00     0.010 A 
ATOM     37  C   UNL A   1      35.502  32.830  31.266  1.00  0.00     0.010 A 
ATOM     38  C   UNL A   1      36.793  33.193  30.846  1.00  0.00    -0.014 A 
BRANCH  38  39
ATOM     39  C   UNL A   1      37.971  32.624  31.549  1.00  0.00     0.031 A 
ATOM     40  C   UNL A   1      38.661  31.437  30.936  1.00  0.00     0.074 A 
ATOM     41  C   UNL A   1      38.403  33.132  32.717  1.00  0.00     0.049 A 
ATOM     42  N   UNL A   1      39.651  30.717  31.399  1.00  0.00    -0.248 NA
ATOM     43  C   UNL A   1      38.157  30.999  29.626  1.00  0.00     0.031 C 
ATOM     44  C   UNL A   1      37.835  34.294  33.396  1.00  0.00     0.029 A 
ATOM     45  N   UNL A   1      39.414  32.716  33.547  1.00  0.00    -0.354 N 
ATOM     46  C   UNL A   1      39.890  29.743  30.436  1.00  0.00     0.074 A 
ATOM     47  C   UNL A   1      38.917  29.944  29.384  1.00  0.00     0.031 C 
ATOM     48  C   UNL A   1      38.498  34.489  34.550  1.00  0.00     0.029 A 
ATOM     49  C   UNL A   1      39.511  33.446  34.708  1.00  0.00     0.049 A 
ATOM     50  H   UNL A   1      40.014  31.966  33.330  1.00  0.00     0.167 HD
ATOM     51  C   UNL A   1      40.840  28.775  30.426  1.00  0.00     0.034 A 
ATOM     52  C   UNL A   1      40.305  33.272  35.784  1.00  0.00     0.034 A 
ATOM     53  C   UNL A   1      41.783  28.562  31.495  1.00  0.00     0.049 A 
ATOM     54  C   UNL A   1      41.295  32.130  35.794  1.00  0.00     0.074 A 
ATOM     55  C   UNL A   1      42.784  27.611  31.588  1.00  0.00     0.029 A 
ATOM     56  N   UNL A   1      41.831  29.303  32.669  1.00  0.00    -0.354 N 
ATOM     57  N   UNL A   1      41.520  31.221  34.873  1.00  0.00    -0.248 NA
ATOM     58  C   UNL A   1      42.138  31.993  36.990  1.00  0.00     0.031 C 
ATOM     59  C   UNL A   1      43.395  27.737  32.841  1.00  0.00     0.029 A 
ATOM     60  C   UNL A   1      42.823  28.812  33.503  1.00  0.00     0.049 A 
ATOM     61  H   UNL A   1      41.246  30.066  32.879  1.00  0.00     0.167 HD
ATOM     62  C   UNL A   1      42.553  30.427  35.367  1.00  0.00     0.074 A 
ATOM     63  C   UNL A   1      42.909  30.966  36.664  1.00  0.00     0.031 C 
ATOM     64  C   UNL A   1      43.161  29.354  34.797  1.00  0.00     0.034 A 
BRANCH  51  65
ATOM     65  C   UNL A   1      40.852  27.845  29.239  1.00  0.00     0.023 A 
ATOM     66  C   UNL A   1      41.743  28.033  28.167  1.00  0.00     0.031 A 
ATOM     67  C   UNL A   1      39.926  26.792  29.150  1.00  0.00     0.131 A 
ATOM     68  C   UNL A   1      41.639  27.229  27.023  1.00  0.00     0.055 A 
ATOM     69  C   UNL A   1      39.878  25.946  28.041  1.00  0.00     0.041 A 
ATOM     70  F   UNL A   1      39.035  26.580  30.132  1.00  0.00    -0.206 F 
ATOM     71  C   UNL A   1      40.727  26.173  26.960  1.00  0.00     0.022 A 
BRANCH  68  72
ATOM     72  S   UNL A   1      42.609  27.678  25.557  1.00  0.00     0.124 S 
ATOM     73  O   UNL A   1      43.939  27.874  26.130  1.00  0.00    -0.237 OA
ATOM     74  O   UNL A   1      42.448  26.508  24.701  1.00  0.00    -0.237 OA
ATOM     75  O   UNL A   1      41.961  28.896  25.076  1.00  0.00    -0.744 OA
ENDBRANCH  68  72
ENDBRANCH  51  65
BRANCH  52  76
ATOM     76  C   UNL A   1      40.178  34.165  36.971  1.00  0.00     0.023 A 
ATOM     77  C   UNL A   1      41.160  35.125  37.267  1.00  0.00     0.031 A 
ATOM     78  C   UNL A   1      39.100  34.025  37.862  1.00  0.00     0.131 A 
ATOM     79  C   UNL A   1      41.065  35.878  38.448  1.00  0.00     0.055 A 
ATOM     80  C   UNL A   1      38.987  34.808  39.012  1.00  0.00     0.041 A 
ATOM     81  F   UNL A   1      38.137  33.120  37.626  1.00  0.00    -0.206 F 
ATOM     82  C   UNL A   1      39.981  35.734  39.317  1.00  0.00     0.022 A 
BRANCH  79  83
ATOM     83  S   UNL A   1      42.426  36.998  38.874  1.00  0.00     0.124 S 
ATOM     84  O   UNL A   1      43.279  36.894  37.695  1.00  0.00    -0.237 OA
ATOM     85  O   UNL A   1      41.729  38.267  39.053  1.00  0.00    -0.237 OA
ATOM     86  O   UNL A   1      42.977  36.414  40.096  1.00  0.00    -0.744 OA
ENDBRANCH  79  83
ENDBRANCH  52  76
BRANCH  64  87
ATOM     87  C   UNL A   1      44.309  28.731  35.552  1.00  0.00     0.023 A 
ATOM     88  C   UNL A   1      44.116  27.675  36.460  1.00  0.00     0.031 A 
ATOM     89  C   UNL A   1      45.618  29.205  35.355  1.00  0.00     0.131 A 
ATOM     90  C   UNL A   1      45.210  27.158  37.172  1.00  0.00     0.055 A 
ATOM     91  C   UNL A   1      46.709  28.654  36.028  1.00  0.00     0.041 A 
ATOM     92  F   UNL A   1      45.858  30.211  34.499  1.00  0.00    -0.206 F 
ATOM     93  C   UNL A   1      46.506  27.631  36.951  1.00  0.00     0.022 A 
BRANCH  90  94
ATOM     94  S   UNL A   1      44.910  25.902  38.447  1.00  0.00     0.124 S 
ATOM     95  O   UNL A   1      44.716  26.721  39.639  1.00  0.00    -0.237 OA
ATOM     96  O   UNL A   1      43.723  25.221  37.941  1.00  0.00    -0.237 OA
ATOM     97  O   UNL A   1      46.133  25.102  38.436  1.00  0.00    -0.744 OA
ENDBRANCH  90  94
ENDBRANCH  64  87
ENDBRANCH  38  39
ENDBRANCH  31  33
ENDBRANCH  30  31
ENDBRANCH  29  30
ENDBRANCH  28  29
ENDBRANCH  27  28
ENDBRANCH  26  27
ENDBRANCH   1  26
TORSDOF 25
ENDMDL
MODEL 2
REMARK VINA RESULT:      -9.0      3.064      8.622
REMARK SMILES CC[N@@H+]1CC[C@H](C[NH2+]Cc2cc(C(=O)OCCOCCOCCOC(=O)c3ccc(-c4c5nc(c(-c6cc(S(=O)(=O)[O-])ccc6F)c6ccc([nH]6)c(-c6cc(S(=O)(=O)[O-])ccc6F)c6nc(c(-c7cc(S(=O)(=O)[O-])ccc7F)c7ccc4[nH]7)C=C6)C=C5)cc3)cs2)C1
REMARK SMILES IDX 19 1 18 2 17 3 16 4 15 5 13 6 14 7 12 8 10 9 11 10 91 11
REMARK SMILES IDX 90 12 9 13 8 14 7 17 6 18 3 19 4 20 92 21 5 23 2 24 1 25
REMARK SMILES IDX 20 26 21 27 22 28 23 29 24 30 25 31 26 32 27 33 28 34 89 35
REMARK SMILES IDX 29 36 88 37 30 38 31 39 32 40 82 41 33 42 87 43 81 44 83 45
REMARK SMILES IDX 34 46 86 47 80 48 79 49 35 51 67 52 47 53 66 54 48 55 51 56
REMARK SMILES IDX 65 57 84 58 49 59 50 60 64 62 85 63 52 64 36 65 37 66 45 67
REMARK SMILES IDX 38 68 44 69 46 70 43 71 39 72 40 73 41 74 42 75 68 76 69 77
REMARK SMILES IDX 77 78 70 79 76 80 78 81 75 82 71 83 72 84 73 85 74 86 53 87
REMARK SMILES IDX 54 88 62 89 55 90 61 91 63 92 60 93 56 94 57 95 58 96 59 97
REMARK H PARENT 8 15 8 16 3 22 83 50 51 61
REMARK Flexibility Score: inf
ROOT
ATOM      1  C   UNL A   1      30.772  26.374  25.651  1.00  0.00     0.188 C 
ENDROOT
BRANCH   1   2
ATOM      2  O   UNL A   1      31.331  25.123  25.258  1.00  0.00    -0.376 OA
BRANCH   2   3
ATOM      3  C   UNL A   1      31.558  24.116  26.234  1.00  0.00     0.202 C 
BRANCH   3   4
ATOM      4  C   UNL A   1      31.149  22.692  25.855  1.00  0.00     0.261 C 
BRANCH   4   5
ATOM      5  O   UNL A   1      32.100  22.076  24.971  1.00  0.00    -0.460 OA
BRANCH   5   6
ATOM      6  C   UNL A   1      33.185  21.513  25.577  1.00  0.00     0.339 C 
ATOM      7  O   UNL A   1      33.161  20.484  26.242  1.00  0.00    -0.246 OA
BRANCH   6   8
ATOM      8  C   UNL A   1      34.422  22.189  25.214  1.00  0.00     0.071 A 
ATOM      9  C   UNL A   1      36.452  23.354  25.387  1.00  0.00     0.059 A 
ATOM     10  C   UNL A   1      35.375  22.826  26.080  1.00  0.00     0.037 A 
ATOM     11  S   UNL A   1      36.182  23.288  23.692  1.00  0.00    -0.142 S 
ATOM     12  C   UNL A   1      34.806  22.305  23.891  1.00  0.00     0.081 A 
BRANCH   9  13
ATOM     13  C   UNL A   1      37.731  23.944  25.924  1.00  0.00     0.308 C 
BRANCH  13  14
ATOM     14  N   UNL A   1      38.734  22.906  26.219  1.00  0.00    -0.341 N 
ATOM     15  H   UNL A   1      38.252  22.035  26.444  1.00  0.00     0.346 HD
ATOM     16  H   UNL A   1      39.328  22.797  25.397  1.00  0.00     0.346 HD
BRANCH  14  17
ATOM     17  C   UNL A   1      39.593  23.279  27.353  1.00  0.00     0.270 C 
BRANCH  17  18
ATOM     18  C   UNL A   1      41.090  23.143  27.047  1.00  0.00     0.105 C 
ATOM     19  N   UNL A   1      42.327  21.130  26.493  1.00  0.00    -0.335 N 
ATOM     20  C   UNL A   1      42.964  21.765  27.645  1.00  0.00     0.262 C 
ATOM     21  C   UNL A   1      41.352  22.088  25.958  1.00  0.00     0.271 C 
ATOM     22  H   UNL A   1      43.025  20.927  25.779  1.00  0.00     0.348 HD
ATOM     23  C   UNL A   1      41.918  22.679  28.244  1.00  0.00     0.076 C 
BRANCH  19  24
ATOM     24  C   UNL A   1      41.803  19.782  26.752  1.00  0.00     0.258 C 
ATOM     25  C   UNL A   1      42.714  18.582  26.509  1.00  0.00     0.071 C 
ENDBRANCH  19  24
ENDBRANCH  17  18
ENDBRANCH  14  17
ENDBRANCH  13  14
ENDBRANCH   9  13
ENDBRANCH   6   8
ENDBRANCH   5   6
ENDBRANCH   4   5
ENDBRANCH   3   4
ENDBRANCH   2   3
ENDBRANCH   1   2
BRANCH   1  26
ATOM     26  C   UNL A   1      31.194  27.660  24.915  1.00  0.00     0.188 C 
BRANCH  26  27
ATOM     27  O   UNL A   1      32.228  28.384  25.571  1.00  0.00    -0.376 OA
BRANCH  27  28
ATOM     28  C   UNL A   1      32.099  29.798  25.547  1.00  0.00     0.202 C 
BRANCH  28  29
ATOM     29  C   UNL A   1      32.519  30.455  26.865  1.00  0.00     0.261 C 
BRANCH  29  30
ATOM     30  O   UNL A   1      33.909  30.307  27.195  1.00  0.00    -0.460 OA
BRANCH  30  31
ATOM     31  C   UNL A   1      34.537  31.401  27.685  1.00  0.00     0.338 C 
ATOM     32  O   UNL A   1      34.104  32.537  27.725  1.00  0.00    -0.246 OA
BRANCH  31  33
ATOM     33  C   UNL A   1      35.801  30.958  28.309  1.00  0.00     0.060 A 
ATOM     34  C   UNL A   1      35.896  29.651  28.800  1.00  0.00     0.016 A 
ATOM     35  C   UNL A   1      36.877  31.842  28.422  1.00  0.00     0.016 A 
ATOM     36  C   UNL A   1      37.066  29.236  29.442  1.00  0.00     0.010 A 
ATOM     37  C   UNL A   1      38.040  31.428  29.073  1.00  0.00     0.010 A 
ATOM     38  C   UNL A   1      38.130  30.134  29.612  1.00  0.00    -0.014 A 
BRANCH  38  39
ATOM     39  C   UNL A   1      39.262  29.798  30.511  1.00  0.00     0.031 A 
ATOM     40  C   UNL A   1      39.281  30.401  31.889  1.00  0.00     0.074 A 
ATOM     41  C   UNL A   1      40.266  28.999  30.107  1.00  0.00     0.049 A 
ATOM     42  N   UNL A   1      40.197  30.327  32.819  1.00  0.00    -0.248 NA
ATOM     43  C   UNL A   1      38.107  31.206  32.260  1.00  0.00     0.031 C 
ATOM     44  C   UNL A   1      40.348  28.335  28.809  1.00  0.00     0.029 A 
ATOM     45  N   UNL A   1      41.420  28.627  30.751  1.00  0.00    -0.354 N 
ATOM     46  C   UNL A   1      39.710  31.071  33.888  1.00  0.00     0.074 A 
ATOM     47  C   UNL A   1      38.436  31.618  33.473  1.00  0.00     0.031 C 
ATOM     48  C   UNL A   1      41.502  27.647  28.745  1.00  0.00     0.029 A 
ATOM     49  C   UNL A   1      42.256  27.851  29.983  1.00  0.00     0.049 A 
ATOM     50  H   UNL A   1      41.629  28.889  31.676  1.00  0.00     0.167 HD
ATOM     51  C   UNL A   1      40.269  31.274  35.106  1.00  0.00     0.034 A 
ATOM     52  C   UNL A   1      43.496  27.388  30.239  1.00  0.00     0.034 A 
ATOM     53  C   UNL A   1      41.554  30.753  35.499  1.00  0.00     0.049 A 
ATOM     54  C   UNL A   1      44.141  27.702  31.568  1.00  0.00     0.074 A 
ATOM     55  C   UNL A   1      42.216  30.899  36.706  1.00  0.00     0.029 A 
ATOM     56  N   UNL A   1      42.386  29.997  34.682  1.00  0.00    -0.354 N 
ATOM     57  N   UNL A   1      43.667  28.398  32.576  1.00  0.00    -0.248 NA
ATOM     58  C   UNL A   1      45.492  27.165  31.794  1.00  0.00     0.031 C 
ATOM     59  C   UNL A   1      43.469  30.285  36.598  1.00  0.00     0.029 A 
ATOM     60  C   UNL A   1      43.563  29.695  35.348  1.00  0.00     0.049 A 
ATOM     61  H   UNL A   1      42.170  29.715  33.763  1.00  0.00     0.167 HD
ATOM     62  C   UNL A   1      44.647  28.353  33.565  1.00  0.00     0.074 A 
ATOM     63  C   UNL A   1      45.737  27.559  33.035  1.00  0.00     0.031 C 
ATOM     64  C   UNL A   1      44.645  28.909  34.804  1.00  0.00     0.034 A 
BRANCH  51  65
ATOM     65  C   UNL A   1      39.505  32.146  36.071  1.00  0.00     0.023 A 
ATOM     66  C   UNL A   1      39.881  33.479  36.314  1.00  0.00     0.031 A 
ATOM     67  C   UNL A   1      38.424  31.622  36.800  1.00  0.00     0.131 A 
ATOM     68  C   UNL A   1      39.230  34.219  37.312  1.00  0.00     0.055 A 
ATOM     69  C   UNL A   1      37.730  32.388  37.739  1.00  0.00     0.041 A 
ATOM     70  F   UNL A   1      38.036  30.348  36.628  1.00  0.00    -0.206 F 
ATOM     71  C   UNL A   1      38.143  33.690  38.011  1.00  0.00     0.022 A 
BRANCH  68  72
ATOM     72  S   UNL A   1      39.921  35.827  37.788  1.00  0.00     0.124 S 
ATOM     73  O   UNL A   1      39.212  36.095  39.038  1.00  0.00    -0.237 OA
ATOM     74  O   UNL A   1      41.344  35.535  37.912  1.00  0.00    -0.237 OA
ATOM     75  O   UNL A   1      39.557  36.700  36.675  1.00  0.00    -0.744 OA
ENDBRANCH  68  72
ENDBRANCH  51  65
BRANCH  52  76
ATOM     76  C   UNL A   1      44.242  26.613  29.206  1.00  0.00     0.023 A 
ATOM     77  C   UNL A   1      44.715  27.229  28.036  1.00  0.00     0.031 A 
ATOM     78  C   UNL A   1      44.438  25.228  29.349  1.00  0.00     0.131 A 
ATOM     79  C   UNL A   1      45.321  26.453  27.035  1.00  0.00     0.055 A 
ATOM     80  C   UNL A   1      45.082  24.469  28.371  1.00  0.00     0.041 A 
ATOM     81  F   UNL A   1      44.002  24.592  30.448  1.00  0.00    -0.206 F 
ATOM     82  C   UNL A   1      45.517  25.080  27.199  1.00  0.00     0.022 A 
BRANCH  79  83
ATOM     83  S   UNL A   1      45.781  27.255  25.474  1.00  0.00     0.124 S 
ATOM     84  O   UNL A   1      46.984  27.985  25.858  1.00  0.00    -0.237 OA
ATOM     85  O   UNL A   1      45.977  26.110  24.592  1.00  0.00    -0.237 OA
ATOM     86  O   UNL A   1      44.620  28.087  25.164  1.00  0.00    -0.744 OA
ENDBRANCH  79  83
ENDBRANCH  52  76
BRANCH  64  87
ATOM     87  C   UNL A   1      45.835  28.629  35.688  1.00  0.00     0.023 A 
ATOM     88  C   UNL A   1      45.996  27.399  36.350  1.00  0.00     0.031 A 
ATOM     89  C   UNL A   1      46.824  29.613  35.866  1.00  0.00     0.131 A 
ATOM     90  C   UNL A   1      47.098  27.202  37.197  1.00  0.00     0.055 A 
ATOM     91  C   UNL A   1      47.943  29.393  36.669  1.00  0.00     0.041 A 
ATOM     92  F   UNL A   1      46.719  30.804  35.255  1.00  0.00    -0.206 F 
ATOM     93  C   UNL A   1      48.080  28.186  37.349  1.00  0.00     0.022 A 
BRANCH  90  94
ATOM     94  S   UNL A   1      47.200  25.666  38.157  1.00  0.00     0.124 S 
ATOM     95  O   UNL A   1      45.884  25.078  37.930  1.00  0.00    -0.237 OA
ATOM     96  O   UNL A   1      48.323  24.978  37.527  1.00  0.00    -0.237 OA
ATOM     97  O   UNL A   1      47.446  26.129  39.522  1.00  0.00    -0.744 OA
ENDBRANCH  90  94
ENDBRANCH  64  87
ENDBRANCH  38  39
ENDBRANCH  31  33
ENDBRANCH  30  31
ENDBRANCH  29  30
ENDBRANCH  28  29
ENDBRANCH  27  28
ENDBRANCH  26  27
ENDBRANCH   1  26
TORSDOF 25
ENDMDL
MODEL 3
REMARK VINA RESULT:      -8.9      3.762      8.759
REMARK SMILES CC[N@@H+]1CC[C@H](C[NH2+]Cc2cc(C(=O)OCCOCCOCCOC(=O)c3ccc(-c4c5nc(c(-c6cc(S(=O)(=O)[O-])ccc6F)c6ccc([nH]6)c(-c6cc(S(=O)(=O)[O-])ccc6F)c6nc(c(-c7cc(S(=O)(=O)[O-])ccc7F)c7ccc4[nH]7)C=C6)C=C5)cc3)cs2)C1
REMARK SMILES IDX 19 1 18 2 17 3 16 4 15 5 13 6 14 7 12 8 10 9 11 10 91 11
REMARK SMILES IDX 90 12 9 13 8 14 7 17 6 18 3 19 4 20 92 21 5 23 2 24 1 25
REMARK SMILES IDX 20 26 21 27 22 28 23 29 24 30 25 31 26 32 27 33 28 34 89 35
REMARK SMILES IDX 29 36 88 37 30 38 31 39 32 40 82 41 33 42 87 43 81 44 83 45
REMARK SMILES IDX 34 46 86 47 80 48 79 49 35 51 67 52 47 53 66 54 48 55 51 56
REMARK SMILES IDX 65 57 84 58 49 59 50 60 64 62 85 63 52 64 36 65 37 66 45 67
REMARK SMILES IDX 38 68 44 69 46 70 43 71 39 72 40 73 41 74 42 75 68 76 69 77
REMARK SMILES IDX 77 78 70 79 76 80 78 81 75 82 71 83 72 84 73 85 74 86 53 87
REMARK SMILES IDX 54 88 62 89 55 90 61 91 63 92 60 93 56 94 57 95 58 96 59 97
REMARK H PARENT 8 15 8 16 3 22 83 50 51 61
REMARK Flexibility Score: inf
ROOT
ATOM      1  C   UNL A   1      30.758  26.308  25.613  1.00  0.00     0.188 C 
ENDROOT
BRANCH   1   2
ATOM      2  O   UNL A   1      31.361  25.084  25.203  1.00  0.00    -0.376 OA
BRANCH   2   3
ATOM      3  C   UNL A   1      31.689  24.101  26.175  1.00  0.00     0.202 C 
BRANCH   3   4
ATOM      4  C   UNL A   1      31.288  22.660  25.853  1.00  0.00     0.261 C 
BRANCH   4   5
ATOM      5  O   UNL A   1      32.274  21.994  25.048  1.00  0.00    -0.460 OA
BRANCH   5   6
ATOM      6  C   UNL A   1      33.361  21.521  25.724  1.00  0.00     0.339 C 
ATOM      7  O   UNL A   1      33.351  20.560  26.483  1.00  0.00    -0.246 OA
BRANCH   6   8
ATOM      8  C   UNL A   1      34.587  22.194  25.320  1.00  0.00     0.071 A 
ATOM      9  C   UNL A   1      36.600  23.398  25.422  1.00  0.00     0.059 A 
ATOM     10  C   UNL A   1      35.533  22.893  26.146  1.00  0.00     0.037 A 
ATOM     11  S   UNL A   1      36.327  23.234  23.734  1.00  0.00    -0.142 S 
ATOM     12  C   UNL A   1      34.967  22.243  23.991  1.00  0.00     0.081 A 
BRANCH   9  13
ATOM     13  C   UNL A   1      37.870  24.036  25.922  1.00  0.00     0.308 C 
BRANCH  13  14
ATOM     14  N   UNL A   1      38.946  23.047  26.109  1.00  0.00    -0.341 N 
ATOM     15  H   UNL A   1      38.532  22.115  26.162  1.00  0.00     0.346 HD
ATOM     16  H   UNL A   1      39.586  23.121  25.319  1.00  0.00     0.346 HD
BRANCH  14  17
ATOM     17  C   UNL A   1      39.712  23.295  27.340  1.00  0.00     0.270 C 
BRANCH  17  18
ATOM     18  C   UNL A   1      41.229  23.338  27.108  1.00  0.00     0.105 C 
ATOM     19  N   UNL A   1      42.684  21.531  26.399  1.00  0.00    -0.335 N 
ATOM     20  C   UNL A   1      43.200  22.078  27.651  1.00  0.00     0.262 C 
ATOM     21  C   UNL A   1      41.646  22.452  25.921  1.00  0.00     0.271 C 
ATOM     22  H   UNL A   1      43.432  21.482  25.708  1.00  0.00     0.348 HD
ATOM     23  C   UNL A   1      42.040  22.811  28.290  1.00  0.00     0.076 C 
BRANCH  19  24
ATOM     24  C   UNL A   1      42.286  20.119  26.467  1.00  0.00     0.258 C 
ATOM     25  C   UNL A   1      40.808  19.766  26.326  1.00  0.00     0.071 C 
ENDBRANCH  19  24
ENDBRANCH  17  18
ENDBRANCH  14  17
ENDBRANCH  13  14
ENDBRANCH   9  13
ENDBRANCH   6   8
ENDBRANCH   5   6
ENDBRANCH   4   5
ENDBRANCH   3   4
ENDBRANCH   2   3
ENDBRANCH   1   2
BRANCH   1  26
ATOM     26  C   UNL A   1      31.143  27.620  24.903  1.00  0.00     0.188 C 
BRANCH  26  27
ATOM     27  O   UNL A   1      32.165  28.354  25.566  1.00  0.00    -0.376 OA
BRANCH  27  28
ATOM     28  C   UNL A   1      31.977  29.760  25.621  1.00  0.00     0.202 C 
BRANCH  28  29
ATOM     29  C   UNL A   1      32.388  30.363  26.967  1.00  0.00     0.261 C 
BRANCH  29  30
ATOM     30  O   UNL A   1      33.794  30.300  27.250  1.00  0.00    -0.460 OA
BRANCH  30  31
ATOM     31  C   UNL A   1      34.360  31.411  27.775  1.00  0.00     0.338 C 
ATOM     32  O   UNL A   1      33.853  32.513  27.874  1.00  0.00    -0.246 OA
BRANCH  31  33
ATOM     33  C   UNL A   1      35.664  31.029  28.353  1.00  0.00     0.060 A 
ATOM     34  C   UNL A   1      35.858  29.712  28.784  1.00  0.00     0.016 A 
ATOM     35  C   UNL A   1      36.681  31.978  28.483  1.00  0.00     0.016 A 
ATOM     36  C   UNL A   1      37.068  29.350  29.382  1.00  0.00     0.010 A 
ATOM     37  C   UNL A   1      37.884  31.617  29.092  1.00  0.00     0.010 A 
ATOM     38  C   UNL A   1      38.073  30.310  29.570  1.00  0.00    -0.014 A 
BRANCH  38  39
ATOM     39  C   UNL A   1      39.246  30.014  30.431  1.00  0.00     0.031 A 
ATOM     40  C   UNL A   1      39.257  30.558  31.832  1.00  0.00     0.074 A 
ATOM     41  C   UNL A   1      40.290  29.301  29.972  1.00  0.00     0.049 A 
ATOM     42  N   UNL A   1      40.198  30.507  32.740  1.00  0.00    -0.248 NA
ATOM     43  C   UNL A   1      38.041  31.266  32.262  1.00  0.00     0.031 C 
ATOM     44  C   UNL A   1      40.385  28.698  28.644  1.00  0.00     0.029 A 
ATOM     45  N   UNL A   1      41.482  28.980  30.575  1.00  0.00    -0.354 N 
ATOM     46  C   UNL A   1      39.688  31.171  33.849  1.00  0.00     0.074 A 
ATOM     47  C   UNL A   1      38.371  31.648  33.485  1.00  0.00     0.031 C 
ATOM     48  C   UNL A   1      41.581  28.093  28.527  1.00  0.00     0.029 A 
ATOM     49  C   UNL A   1      42.348  28.295  29.756  1.00  0.00     0.049 A 
ATOM     50  H   UNL A   1      41.694  29.217  31.506  1.00  0.00     0.167 HD
ATOM     51  C   UNL A   1      40.261  31.360  35.063  1.00  0.00     0.034 A 
ATOM     52  C   UNL A   1      43.622  27.906  29.967  1.00  0.00     0.034 A 
ATOM     53  C   UNL A   1      41.587  30.911  35.406  1.00  0.00     0.049 A 
ATOM     54  C   UNL A   1      44.276  28.207  31.295  1.00  0.00     0.074 A 
ATOM     55  C   UNL A   1      42.265  31.050  36.605  1.00  0.00     0.029 A 
ATOM     56  N   UNL A   1      42.447  30.246  34.540  1.00  0.00    -0.354 N 
ATOM     57  N   UNL A   1      43.781  28.827  32.341  1.00  0.00    -0.248 NA
ATOM     58  C   UNL A   1      45.664  27.752  31.469  1.00  0.00     0.031 C 
ATOM     59  C   UNL A   1      43.553  30.526  36.444  1.00  0.00     0.029 A 
ATOM     60  C   UNL A   1      43.657  29.997  35.168  1.00  0.00     0.049 A 
ATOM     61  H   UNL A   1      42.229  29.990  33.615  1.00  0.00     0.167 HD
ATOM     62  C   UNL A   1      44.785  28.806  33.307  1.00  0.00     0.074 A 
ATOM     63  C   UNL A   1      45.912  28.109  32.721  1.00  0.00     0.031 C 
ATOM     64  C   UNL A   1      44.775  29.309  34.568  1.00  0.00     0.034 A 
BRANCH  51  65
ATOM     65  C   UNL A   1      39.464  32.138  36.081  1.00  0.00     0.023 A 
ATOM     66  C   UNL A   1      38.780  31.494  37.128  1.00  0.00     0.031 A 
ATOM     67  C   UNL A   1      39.337  33.533  35.970  1.00  0.00     0.131 A 
ATOM     68  C   UNL A   1      37.944  32.233  37.976  1.00  0.00     0.055 A 
ATOM     69  C   UNL A   1      38.563  34.274  36.864  1.00  0.00     0.041 A 
ATOM     70  F   UNL A   1      39.947  34.198  34.976  1.00  0.00    -0.206 F 
ATOM     71  C   UNL A   1      37.847  33.622  37.866  1.00  0.00     0.022 A 
BRANCH  68  72
ATOM     72  S   UNL A   1      36.868  31.338  39.129  1.00  0.00     0.124 S 
ATOM     73  O   UNL A   1      36.728  30.046  38.461  1.00  0.00    -0.237 OA
ATOM     74  O   UNL A   1      37.652  31.339  40.359  1.00  0.00    -0.237 OA
ATOM     75  O   UNL A   1      35.652  32.148  39.163  1.00  0.00    -0.744 OA
ENDBRANCH  68  72
ENDBRANCH  51  65
BRANCH  52  76
ATOM     76  C   UNL A   1      44.393  27.227  28.886  1.00  0.00     0.023 A 
ATOM     77  C   UNL A   1      45.052  27.965  27.890  1.00  0.00     0.031 A 
ATOM     78  C   UNL A   1      44.428  25.824  28.801  1.00  0.00     0.131 A 
ATOM     79  C   UNL A   1      45.682  27.296  26.827  1.00  0.00     0.055 A 
ATOM     80  C   UNL A   1      45.093  25.163  27.768  1.00  0.00     0.041 A 
ATOM     81  F   UNL A   1      43.810  25.073  29.728  1.00  0.00    -0.206 F 
ATOM     82  C   UNL A   1      45.716  25.901  26.765  1.00  0.00     0.022 A 
BRANCH  79  83
ATOM     83  S   UNL A   1      46.391  28.282  25.480  1.00  0.00     0.124 S 
ATOM     84  O   UNL A   1      47.762  27.786  25.437  1.00  0.00    -0.237 OA
ATOM     85  O   UNL A   1      45.538  27.914  24.354  1.00  0.00    -0.237 OA
ATOM     86  O   UNL A   1      46.240  29.658  25.950  1.00  0.00    -0.744 OA
ENDBRANCH  79  83
ENDBRANCH  52  76
BRANCH  64  87
ATOM     87  C   UNL A   1      46.002  29.072  35.414  1.00  0.00     0.023 A 
ATOM     88  C   UNL A   1      47.063  29.993  35.459  1.00  0.00     0.031 A 
ATOM     89  C   UNL A   1      46.105  27.902  36.188  1.00  0.00     0.131 A 
ATOM     90  C   UNL A   1      48.203  29.707  36.226  1.00  0.00     0.055 A 
ATOM     91  C   UNL A   1      47.220  27.648  36.989  1.00  0.00     0.041 A 
ATOM     92  F   UNL A   1      45.120  26.990  36.182  1.00  0.00    -0.206 F 
ATOM     93  C   UNL A   1      48.281  28.547  37.003  1.00  0.00     0.022 A 
BRANCH  90  94
ATOM     94  S   UNL A   1      49.619  30.839  36.146  1.00  0.00     0.124 S 
ATOM     95  O   UNL A   1      49.349  31.576  34.916  1.00  0.00    -0.237 OA
ATOM     96  O   UNL A   1      49.484  31.596  37.385  1.00  0.00    -0.237 OA
ATOM     97  O   UNL A   1      50.773  29.943  36.091  1.00  0.00    -0.744 OA
ENDBRANCH  90  94
ENDBRANCH  64  87
ENDBRANCH  38  39
ENDBRANCH  31  33
ENDBRANCH  30  31
ENDBRANCH  29  30
ENDBRANCH  28  29
ENDBRANCH  27  28
ENDBRANCH  26  27
ENDBRANCH   1  26
TORSDOF 25
ENDMDL
