MODEL 1
REMARK VINA RESULT:      -9.0      0.000      0.000
REMARK SMILES C=CC[N@@H+](CC(=O)OCCOCCOCCOC(=O)c1ccc(-c2c3nc(c(-c4cc(S(=O)(=O)[O-])ccc4F)c4ccc([nH]4)c(-c4cc(S(=O)(=O)[O-])ccc4F)c4nc(c(-c5cc(S(=O)(=O)[O-])ccc5F)c5ccc2[nH]5)C=C4)C=C3)cc1)Cc1nnc(-c2ccc(C)cc2)o1
REMARK SMILES IDX 12 1 11 2 10 3 9 4 8 5 6 6 7 7 5 8 4 9 3 11 2 12 1 13 83 14
REMARK SMILES IDX 84 15 85 16 95 17 86 18 87 19 88 20 89 21 94 22 90 23 93 24
REMARK SMILES IDX 91 25 92 26 13 27 14 28 15 29 16 30 17 31 18 32 19 33 20 34
REMARK SMILES IDX 21 35 82 36 22 37 81 38 23 39 24 40 25 41 75 42 26 43 80 44
REMARK SMILES IDX 74 45 76 46 27 47 79 48 73 49 72 50 28 52 60 53 40 54 59 55
REMARK SMILES IDX 41 56 44 57 58 58 77 59 42 60 43 61 57 63 78 64 45 65 29 66
REMARK SMILES IDX 30 67 38 68 31 69 37 70 39 71 36 72 32 73 33 74 34 75 35 76
REMARK SMILES IDX 61 77 62 78 70 79 63 80 69 81 71 82 68 83 64 84 65 85 66 86
REMARK SMILES IDX 67 87 46 88 47 89 55 90 48 91 54 92 56 93 53 94 49 95 50 96
REMARK SMILES IDX 51 97 52 98
REMARK H PARENT 4 10 76 51 44 62
REMARK Flexibility Score: inf
ROOT
ATOM      1  C   UNL A   1      37.905  22.183  26.003  1.00  0.00     0.188 C 
ENDROOT
BRANCH   1   2
ATOM      2  O   UNL A   1      37.327  22.208  24.712  1.00  0.00    -0.376 OA
BRANCH   2   3
ATOM      3  C   UNL A   1      35.921  22.067  24.566  1.00  0.00     0.202 C 
BRANCH   3   4
ATOM      4  C   UNL A   1      34.973  22.152  25.768  1.00  0.00     0.261 C 
BRANCH   4   5
ATOM      5  O   UNL A   1      33.653  21.633  25.519  1.00  0.00    -0.459 OA
BRANCH   5   6
ATOM      6  C   UNL A   1      32.645  22.267  26.173  1.00  0.00     0.361 C 
ATOM      7  O   UNL A   1      32.621  22.429  27.390  1.00  0.00    -0.245 OA
BRANCH   6   8
ATOM      8  C   UNL A   1      31.517  22.790  25.291  1.00  0.00     0.387 C 
BRANCH   8   9
ATOM      9  N   UNL A   1      31.464  24.212  24.943  1.00  0.00    -0.315 N 
ATOM     10  H   UNL A   1      30.789  24.135  24.184  1.00  0.00     0.349 HD
BRANCH   9  11
ATOM     11  C   UNL A   1      32.558  24.764  24.172  1.00  0.00     0.291 C 
BRANCH  11  12
ATOM     12  C   UNL A   1      32.317  24.617  22.696  1.00  0.00     0.025 C 
ATOM     13  C   UNL A   1      32.949  25.334  21.759  1.00  0.00     0.010 C 
ENDBRANCH  11  12
ENDBRANCH   9  11
BRANCH   9  14
ATOM     14  C   UNL A   1      30.637  25.114  25.749  1.00  0.00     0.363 C 
BRANCH  14  15
ATOM     15  C   UNL A   1      30.763  26.586  25.579  1.00  0.00     0.271 A 
ATOM     16  N   UNL A   1      31.693  27.730  26.374  1.00  0.00    -0.106 NA
ATOM     17  O   UNL A   1      30.003  27.446  24.161  1.00  0.00    -0.415 OA
ATOM     18  N   UNL A   1      31.489  29.462  25.448  1.00  0.00    -0.107 NA
ATOM     19  C   UNL A   1      30.465  29.225  24.160  1.00  0.00     0.248 A 
BRANCH  19  20
ATOM     20  C   UNL A   1      29.562  30.070  23.409  1.00  0.00     0.039 A 
ATOM     21  C   UNL A   1      29.277  31.372  23.819  1.00  0.00     0.014 A 
ATOM     22  C   UNL A   1      29.130  29.628  22.148  1.00  0.00     0.014 A 
ATOM     23  C   UNL A   1      28.630  32.245  22.939  1.00  0.00     0.004 A 
ATOM     24  C   UNL A   1      28.478  30.496  21.275  1.00  0.00     0.004 A 
ATOM     25  C   UNL A   1      28.244  31.820  21.658  1.00  0.00    -0.051 A 
ATOM     26  C   UNL A   1      27.657  32.796  20.685  1.00  0.00     0.044 C 
ENDBRANCH  19  20
ENDBRANCH  14  15
ENDBRANCH   9  14
ENDBRANCH   8   9
ENDBRANCH   6   8
ENDBRANCH   5   6
ENDBRANCH   4   5
ENDBRANCH   3   4
ENDBRANCH   2   3
ENDBRANCH   1   2
BRANCH   1  27
ATOM     27  C   UNL A   1      39.264  23.046  26.329  1.00  0.00     0.188 C 
BRANCH  27  28
ATOM     28  O   UNL A   1      39.434  25.101  26.718  1.00  0.00    -0.376 OA
BRANCH  28  29
ATOM     29  C   UNL A   1      40.559  26.176  26.351  1.00  0.00     0.202 C 
BRANCH  29  30
ATOM     30  C   UNL A   1      42.123  25.919  26.304  1.00  0.00     0.261 C 
BRANCH  30  31
ATOM     31  O   UNL A   1      42.959  26.471  27.348  1.00  0.00    -0.460 OA
BRANCH  31  32
ATOM     32  C   UNL A   1      42.722  26.024  28.605  1.00  0.00     0.338 C 
ATOM     33  O   UNL A   1      42.775  24.858  28.968  1.00  0.00    -0.246 OA
BRANCH  32  34
ATOM     34  C   UNL A   1      42.630  27.185  29.545  1.00  0.00     0.060 A 
ATOM     35  C   UNL A   1      41.575  28.094  29.354  1.00  0.00     0.016 A 
ATOM     36  C   UNL A   1      43.529  27.392  30.595  1.00  0.00     0.016 A 
ATOM     37  C   UNL A   1      41.474  29.250  30.130  1.00  0.00     0.010 A 
ATOM     38  C   UNL A   1      43.447  28.570  31.359  1.00  0.00     0.010 A 
ATOM     39  C   UNL A   1      42.461  29.538  31.078  1.00  0.00    -0.014 A 
BRANCH  39  40
ATOM     40  C   UNL A   1      42.668  30.963  31.470  1.00  0.00     0.031 A 
ATOM     41  C   UNL A   1      43.483  31.818  30.525  1.00  0.00     0.074 A 
ATOM     42  C   UNL A   1      42.098  31.523  32.553  1.00  0.00     0.049 A 
ATOM     43  N   UNL A   1      43.837  33.074  30.620  1.00  0.00    -0.248 NA
ATOM     44  C   UNL A   1      43.966  31.153  29.303  1.00  0.00     0.031 C 
ATOM     45  C   UNL A   1      41.224  30.837  33.502  1.00  0.00     0.029 A 
ATOM     46  N   UNL A   1      42.169  32.810  33.033  1.00  0.00    -0.354 N 
ATOM     47  C   UNL A   1      44.589  33.342  29.478  1.00  0.00     0.074 A 
ATOM     48  C   UNL A   1      44.678  32.107  28.733  1.00  0.00     0.031 C 
ATOM     49  C   UNL A   1      40.846  31.711  34.455  1.00  0.00     0.029 A 
ATOM     50  C   UNL A   1      41.479  33.007  34.206  1.00  0.00     0.049 A 
ATOM     51  H   UNL A   1      42.670  33.525  32.577  1.00  0.00     0.167 HD
ATOM     52  C   UNL A   1      45.147  34.509  29.078  1.00  0.00     0.034 A 
ATOM     53  C   UNL A   1      41.390  34.099  34.999  1.00  0.00     0.034 A 
ATOM     54  C   UNL A   1      45.062  35.735  29.833  1.00  0.00     0.049 A 
ATOM     55  C   UNL A   1      42.109  35.366  34.587  1.00  0.00     0.074 A 
ATOM     56  C   UNL A   1      45.597  36.973  29.526  1.00  0.00     0.029 A 
ATOM     57  N   UNL A   1      44.409  35.874  31.050  1.00  0.00    -0.354 N 
ATOM     58  N   UNL A   1      42.830  35.603  33.513  1.00  0.00    -0.248 NA
ATOM     59  C   UNL A   1      41.991  36.519  35.491  1.00  0.00     0.031 C 
ATOM     60  C   UNL A   1      45.340  37.837  30.596  1.00  0.00     0.029 A 
ATOM     61  C   UNL A   1      44.558  37.169  31.524  1.00  0.00     0.049 A 
ATOM     62  H   UNL A   1      43.912  35.158  31.510  1.00  0.00     0.167 HD
ATOM     63  C   UNL A   1      43.215  36.942  33.599  1.00  0.00     0.074 A 
ATOM     64  C   UNL A   1      42.631  37.462  34.817  1.00  0.00     0.031 C 
ATOM     65  C   UNL A   1      43.976  37.677  32.745  1.00  0.00     0.034 A 
BRANCH  52  66
ATOM     66  C   UNL A   1      45.954  34.489  27.800  1.00  0.00     0.023 A 
ATOM     67  C   UNL A   1      47.314  34.130  27.780  1.00  0.00     0.031 A 
ATOM     68  C   UNL A   1      45.361  34.880  26.587  1.00  0.00     0.131 A 
ATOM     69  C   UNL A   1      48.051  34.243  26.592  1.00  0.00     0.055 A 
ATOM     70  C   UNL A   1      46.078  34.905  25.389  1.00  0.00     0.041 A 
ATOM     71  F   UNL A   1      44.075  35.263  26.546  1.00  0.00    -0.206 F 
ATOM     72  C   UNL A   1      47.436  34.600  25.389  1.00  0.00     0.022 A 
BRANCH  69  73
ATOM     73  S   UNL A   1      49.856  34.070  26.667  1.00  0.00     0.124 S 
ATOM     74  O   UNL A   1      50.007  32.948  27.589  1.00  0.00    -0.237 OA
ATOM     75  O   UNL A   1      50.206  33.806  25.277  1.00  0.00    -0.237 OA
ATOM     76  O   UNL A   1      50.302  35.360  27.190  1.00  0.00    -0.744 OA
ENDBRANCH  69  73
ENDBRANCH  52  66
BRANCH  53  77
ATOM     77  C   UNL A   1      40.635  34.049  36.289  1.00  0.00     0.023 A 
ATOM     78  C   UNL A   1      41.236  33.597  37.476  1.00  0.00     0.031 A 
ATOM     79  C   UNL A   1      39.267  34.376  36.334  1.00  0.00     0.131 A 
ATOM     80  C   UNL A   1      40.463  33.436  38.639  1.00  0.00     0.055 A 
ATOM     81  C   UNL A   1      38.518  34.274  37.508  1.00  0.00     0.041 A 
ATOM     82  F   UNL A   1      38.633  34.798  35.228  1.00  0.00    -0.206 F 
ATOM     83  C   UNL A   1      39.113  33.788  38.668  1.00  0.00     0.022 A 
BRANCH  80  84
ATOM     84  S   UNL A   1      41.224  32.658  40.094  1.00  0.00     0.124 S 
ATOM     85  O   UNL A   1      42.167  31.733  39.476  1.00  0.00    -0.237 OA
ATOM     86  O   UNL A   1      41.806  33.806  40.781  1.00  0.00    -0.237 OA
ATOM     87  O   UNL A   1      40.093  32.034  40.777  1.00  0.00    -0.744 OA
ENDBRANCH  80  84
ENDBRANCH  53  77
BRANCH  65  88
ATOM     88  C   UNL A   1      44.168  39.142  33.071  1.00  0.00     0.023 A 
ATOM     89  C   UNL A   1      43.315  40.138  32.564  1.00  0.00     0.031 A 
ATOM     90  C   UNL A   1      45.240  39.549  33.887  1.00  0.00     0.131 A 
ATOM     91  C   UNL A   1      43.594  41.492  32.810  1.00  0.00     0.055 A 
ATOM     92  C   UNL A   1      45.465  40.892  34.195  1.00  0.00     0.041 A 
ATOM     93  F   UNL A   1      46.090  38.646  34.401  1.00  0.00    -0.206 F 
ATOM     94  C   UNL A   1      44.651  41.874  33.640  1.00  0.00     0.022 A 
BRANCH  91  95
ATOM     95  S   UNL A   1      42.640  42.752  31.920  1.00  0.00     0.124 S 
ATOM     96  O   UNL A   1      41.976  43.457  33.011  1.00  0.00    -0.237 OA
ATOM     97  O   UNL A   1      43.683  43.496  31.221  1.00  0.00    -0.237 OA
ATOM     98  O   UNL A   1      41.755  41.968  31.060  1.00  0.00    -0.744 OA
ENDBRANCH  91  95
ENDBRANCH  65  88
ENDBRANCH  39  40
ENDBRANCH  32  34
ENDBRANCH  31  32
ENDBRANCH  30  31
ENDBRANCH  29  30
ENDBRANCH  28  29
ENDBRANCH  27  28
ENDBRANCH   1  27
TORSDOF 26
ENDMDL
MODEL 2
REMARK VINA RESULT:      -8.6      6.565     14.295
REMARK SMILES C=CC[N@@H+](CC(=O)OCCOCCOCCOC(=O)c1ccc(-c2c3nc(c(-c4cc(S(=O)(=O)[O-])ccc4F)c4ccc([nH]4)c(-c4cc(S(=O)(=O)[O-])ccc4F)c4nc(c(-c5cc(S(=O)(=O)[O-])ccc5F)c5ccc2[nH]5)C=C4)C=C3)cc1)Cc1nnc(-c2ccc(C)cc2)o1
REMARK SMILES IDX 12 1 11 2 10 3 9 4 8 5 6 6 7 7 5 8 4 9 3 11 2 12 1 13 83 14
REMARK SMILES IDX 84 15 85 16 95 17 86 18 87 19 88 20 89 21 94 22 90 23 93 24
REMARK SMILES IDX 91 25 92 26 13 27 14 28 15 29 16 30 17 31 18 32 19 33 20 34
REMARK SMILES IDX 21 35 82 36 22 37 81 38 23 39 24 40 25 41 75 42 26 43 80 44
REMARK SMILES IDX 74 45 76 46 27 47 79 48 73 49 72 50 28 52 60 53 40 54 59 55
REMARK SMILES IDX 41 56 44 57 58 58 77 59 42 60 43 61 57 63 78 64 45 65 29 66
REMARK SMILES IDX 30 67 38 68 31 69 37 70 39 71 36 72 32 73 33 74 34 75 35 76
REMARK SMILES IDX 61 77 62 78 70 79 63 80 69 81 71 82 68 83 64 84 65 85 66 86
REMARK SMILES IDX 67 87 46 88 47 89 55 90 48 91 54 92 56 93 53 94 49 95 50 96
REMARK SMILES IDX 51 97 52 98
REMARK H PARENT 4 10 76 51 44 62
REMARK Flexibility Score: inf
ROOT
ATOM      1  C   UNL A   1      44.222  43.329  29.950  1.00  0.00     0.188 C 
ENDROOT
BRANCH   1   2
ATOM      2  O   UNL A   1      45.297  42.727  29.256  1.00  0.00    -0.376 OA
BRANCH   2   3
ATOM      3  C   UNL A   1      45.694  43.238  27.991  1.00  0.00     0.202 C 
BRANCH   3   4
ATOM      4  C   UNL A   1      47.153  43.190  27.523  1.00  0.00     0.261 C 
BRANCH   4   5
ATOM      5  O   UNL A   1      48.076  43.870  28.394  1.00  0.00    -0.459 OA
BRANCH   5   6
ATOM      6  C   UNL A   1      49.182  43.161  28.739  1.00  0.00     0.361 C 
ATOM      7  O   UNL A   1      50.153  43.016  28.002  1.00  0.00    -0.245 OA
BRANCH   6   8
ATOM      8  C   UNL A   1      49.158  42.545  30.133  1.00  0.00     0.387 C 
BRANCH   8   9
ATOM      9  N   UNL A   1      48.626  41.193  30.323  1.00  0.00    -0.315 N 
ATOM     10  H   UNL A   1      47.756  41.323  29.807  1.00  0.00     0.349 HD
BRANCH   9  11
ATOM     11  C   UNL A   1      48.042  40.867  31.607  1.00  0.00     0.291 C 
BRANCH  11  12
ATOM     12  C   UNL A   1      48.197  39.405  31.923  1.00  0.00     0.025 C 
ATOM     13  C   UNL A   1      48.275  38.913  33.166  1.00  0.00     0.010 C 
ENDBRANCH  11  12
ENDBRANCH   9  11
BRANCH   9  14
ATOM     14  C   UNL A   1      49.112  40.107  29.467  1.00  0.00     0.363 C 
BRANCH  14  15
ATOM     15  C   UNL A   1      48.295  39.654  28.310  1.00  0.00     0.271 A 
ATOM     16  N   UNL A   1      48.708  38.892  26.877  1.00  0.00    -0.106 NA
ATOM     17  O   UNL A   1      46.472  39.656  28.377  1.00  0.00    -0.415 OA
ATOM     18  N   UNL A   1      47.050  38.410  25.919  1.00  0.00    -0.107 NA
ATOM     19  C   UNL A   1      45.767  38.905  26.854  1.00  0.00     0.248 A 
BRANCH  19  20
ATOM     20  C   UNL A   1      44.399  39.288  26.584  1.00  0.00     0.039 A 
ATOM     21  C   UNL A   1      43.327  38.535  27.062  1.00  0.00     0.014 A 
ATOM     22  C   UNL A   1      44.161  40.542  25.999  1.00  0.00     0.014 A 
ATOM     23  C   UNL A   1      42.036  39.071  27.022  1.00  0.00     0.004 A 
ATOM     24  C   UNL A   1      42.874  41.072  25.953  1.00  0.00     0.004 A 
ATOM     25  C   UNL A   1      41.804  40.347  26.486  1.00  0.00    -0.051 A 
ATOM     26  C   UNL A   1      40.437  40.957  26.554  1.00  0.00     0.044 C 
ENDBRANCH  19  20
ENDBRANCH  14  15
ENDBRANCH   9  14
ENDBRANCH   8   9
ENDBRANCH   6   8
ENDBRANCH   5   6
ENDBRANCH   4   5
ENDBRANCH   3   4
ENDBRANCH   2   3
ENDBRANCH   1   2
BRANCH   1  27
ATOM     27  C   UNL A   1      44.495  44.238  31.291  1.00  0.00     0.188 C 
BRANCH  27  28
ATOM     28  O   UNL A   1      43.088  45.045  32.622  1.00  0.00    -0.376 OA
BRANCH  28  29
ATOM     29  C   UNL A   1      42.142  44.377  33.724  1.00  0.00     0.202 C 
BRANCH  29  30
ATOM     30  C   UNL A   1      42.284  42.914  34.320  1.00  0.00     0.261 C 
BRANCH  30  31
ATOM     31  O   UNL A   1      43.041  41.924  33.583  1.00  0.00    -0.460 OA
BRANCH  31  32
ATOM     32  C   UNL A   1      43.844  41.117  34.317  1.00  0.00     0.338 C 
ATOM     33  O   UNL A   1      44.128  41.275  35.494  1.00  0.00    -0.246 OA
BRANCH  32  34
ATOM     34  C   UNL A   1      44.135  39.864  33.551  1.00  0.00     0.060 A 
ATOM     35  C   UNL A   1      43.712  39.808  32.212  1.00  0.00     0.016 A 
ATOM     36  C   UNL A   1      44.811  38.770  34.101  1.00  0.00     0.016 A 
ATOM     37  C   UNL A   1      43.864  38.642  31.458  1.00  0.00     0.010 A 
ATOM     38  C   UNL A   1      44.939  37.586  33.354  1.00  0.00     0.010 A 
ATOM     39  C   UNL A   1      44.399  37.496  32.055  1.00  0.00    -0.014 A 
BRANCH  39  40
ATOM     40  C   UNL A   1      44.043  36.167  31.475  1.00  0.00     0.031 A 
ATOM     41  C   UNL A   1      44.925  35.653  30.359  1.00  0.00     0.074 A 
ATOM     42  C   UNL A   1      43.053  35.392  31.955  1.00  0.00     0.049 A 
ATOM     43  N   UNL A   1      44.841  34.549  29.662  1.00  0.00    -0.248 NA
ATOM     44  C   UNL A   1      46.058  36.513  29.980  1.00  0.00     0.031 C 
ATOM     45  C   UNL A   1      42.181  35.728  33.079  1.00  0.00     0.029 A 
ATOM     46  N   UNL A   1      42.620  34.150  31.554  1.00  0.00    -0.354 N 
ATOM     47  C   UNL A   1      45.902  34.591  28.760  1.00  0.00     0.074 A 
ATOM     48  C   UNL A   1      46.583  35.848  28.968  1.00  0.00     0.031 C 
ATOM     49  C   UNL A   1      41.312  34.717  33.271  1.00  0.00     0.029 A 
ATOM     50  C   UNL A   1      41.539  33.680  32.263  1.00  0.00     0.049 A 
ATOM     51  H   UNL A   1      43.045  33.644  30.824  1.00  0.00     0.167 HD
ATOM     52  C   UNL A   1      46.283  33.665  27.848  1.00  0.00     0.034 A 
ATOM     53  C   UNL A   1      40.805  32.556  32.102  1.00  0.00     0.034 A 
ATOM     54  C   UNL A   1      45.592  32.418  27.639  1.00  0.00     0.049 A 
ATOM     55  C   UNL A   1      41.185  31.582  31.006  1.00  0.00     0.074 A 
ATOM     56  C   UNL A   1      45.886  31.411  26.737  1.00  0.00     0.029 A 
ATOM     57  N   UNL A   1      44.461  32.010  28.334  1.00  0.00    -0.354 N 
ATOM     58  N   UNL A   1      42.180  31.640  30.149  1.00  0.00    -0.248 NA
ATOM     59  C   UNL A   1      40.346  30.384  30.864  1.00  0.00     0.031 C 
ATOM     60  C   UNL A   1      44.887  30.437  26.828  1.00  0.00     0.029 A 
ATOM     61  C   UNL A   1      44.025  30.784  27.856  1.00  0.00     0.049 A 
ATOM     62  H   UNL A   1      44.031  32.518  29.061  1.00  0.00     0.167 HD
ATOM     63  C   UNL A   1      42.105  30.467  29.396  1.00  0.00     0.074 A 
ATOM     64  C   UNL A   1      40.981  29.716  29.914  1.00  0.00     0.031 C 
ATOM     65  C   UNL A   1      42.897  30.045  28.375  1.00  0.00     0.034 A 
BRANCH  52  66
ATOM     66  C   UNL A   1      47.462  34.007  26.965  1.00  0.00     0.023 A 
ATOM     67  C   UNL A   1      48.770  33.585  27.268  1.00  0.00     0.031 A 
ATOM     68  C   UNL A   1      47.279  34.809  25.825  1.00  0.00     0.131 A 
ATOM     69  C   UNL A   1      49.848  34.028  26.486  1.00  0.00     0.055 A 
ATOM     70  C   UNL A   1      48.346  35.175  25.001  1.00  0.00     0.041 A 
ATOM     71  F   UNL A   1      46.061  35.270  25.502  1.00  0.00    -0.206 F 
ATOM     72  C   UNL A   1      49.642  34.796  25.338  1.00  0.00     0.022 A 
BRANCH  69  73
ATOM     73  S   UNL A   1      51.536  33.720  27.078  1.00  0.00     0.124 S 
ATOM     74  O   UNL A   1      51.686  32.292  26.810  1.00  0.00    -0.237 OA
ATOM     75  O   UNL A   1      52.330  34.614  26.244  1.00  0.00    -0.237 OA
ATOM     76  O   UNL A   1      51.473  34.078  28.493  1.00  0.00    -0.744 OA
ENDBRANCH  69  73
ENDBRANCH  52  66
BRANCH  53  77
ATOM     77  C   UNL A   1      39.606  32.294  32.957  1.00  0.00     0.023 A 
ATOM     78  C   UNL A   1      38.331  32.765  32.598  1.00  0.00     0.031 A 
ATOM     79  C   UNL A   1      39.736  31.640  34.195  1.00  0.00     0.131 A 
ATOM     80  C   UNL A   1      37.252  32.619  33.487  1.00  0.00     0.055 A 
ATOM     81  C   UNL A   1      38.646  31.441  35.047  1.00  0.00     0.041 A 
ATOM     82  F   UNL A   1      40.931  31.182  34.600  1.00  0.00    -0.206 F 
ATOM     83  C   UNL A   1      37.397  31.945  34.700  1.00  0.00     0.022 A 
BRANCH  80  84
ATOM     84  S   UNL A   1      35.671  33.416  33.082  1.00  0.00     0.124 S 
ATOM     85  O   UNL A   1      35.001  33.422  34.378  1.00  0.00    -0.237 OA
ATOM     86  O   UNL A   1      36.106  34.713  32.577  1.00  0.00    -0.237 OA
ATOM     87  O   UNL A   1      35.087  32.524  32.081  1.00  0.00    -0.744 OA
ENDBRANCH  80  84
ENDBRANCH  53  77
BRANCH  65  88
ATOM     88  C   UNL A   1      42.610  28.678  27.792  1.00  0.00     0.023 A 
ATOM     89  C   UNL A   1      43.278  27.522  28.233  1.00  0.00     0.031 A 
ATOM     90  C   UNL A   1      41.665  28.536  26.759  1.00  0.00     0.131 A 
ATOM     91  C   UNL A   1      43.052  26.294  27.592  1.00  0.00     0.055 A 
ATOM     92  C   UNL A   1      41.386  27.297  26.179  1.00  0.00     0.041 A 
ATOM     93  F   UNL A   1      40.995  29.601  26.293  1.00  0.00    -0.206 F 
ATOM     94  C   UNL A   1      42.095  26.170  26.581  1.00  0.00     0.022 A 
BRANCH  91  95
ATOM     95  S   UNL A   1      44.125  24.890  28.001  1.00  0.00     0.124 S 
ATOM     96  O   UNL A   1      43.405  24.270  29.108  1.00  0.00    -0.237 OA
ATOM     97  O   UNL A   1      44.142  24.136  26.750  1.00  0.00    -0.237 OA
ATOM     98  O   UNL A   1      45.394  25.521  28.361  1.00  0.00    -0.744 OA
ENDBRANCH  91  95
ENDBRANCH  65  88
ENDBRANCH  39  40
ENDBRANCH  32  34
ENDBRANCH  31  32
ENDBRANCH  30  31
ENDBRANCH  29  30
ENDBRANCH  28  29
ENDBRANCH  27  28
ENDBRANCH   1  27
TORSDOF 26
ENDMDL
MODEL 3
REMARK VINA RESULT:      -8.6      8.011     12.317
REMARK SMILES C=CC[N@@H+](CC(=O)OCCOCCOCCOC(=O)c1ccc(-c2c3nc(c(-c4cc(S(=O)(=O)[O-])ccc4F)c4ccc([nH]4)c(-c4cc(S(=O)(=O)[O-])ccc4F)c4nc(c(-c5cc(S(=O)(=O)[O-])ccc5F)c5ccc2[nH]5)C=C4)C=C3)cc1)Cc1nnc(-c2ccc(C)cc2)o1
REMARK SMILES IDX 12 1 11 2 10 3 9 4 8 5 6 6 7 7 5 8 4 9 3 11 2 12 1 13 83 14
REMARK SMILES IDX 84 15 85 16 95 17 86 18 87 19 88 20 89 21 94 22 90 23 93 24
REMARK SMILES IDX 91 25 92 26 13 27 14 28 15 29 16 30 17 31 18 32 19 33 20 34
REMARK SMILES IDX 21 35 82 36 22 37 81 38 23 39 24 40 25 41 75 42 26 43 80 44
REMARK SMILES IDX 74 45 76 46 27 47 79 48 73 49 72 50 28 52 60 53 40 54 59 55
REMARK SMILES IDX 41 56 44 57 58 58 77 59 42 60 43 61 57 63 78 64 45 65 29 66
REMARK SMILES IDX 30 67 38 68 31 69 37 70 39 71 36 72 32 73 33 74 34 75 35 76
REMARK SMILES IDX 61 77 62 78 70 79 63 80 69 81 71 82 68 83 64 84 65 85 66 86
REMARK SMILES IDX 67 87 46 88 47 89 55 90 48 91 54 92 56 93 53 94 49 95 50 96
REMARK SMILES IDX 51 97 52 98
REMARK H PARENT 4 10 76 51 44 62
REMARK Flexibility Score: inf
ROOT
ATOM      1  C   UNL A   1      37.007  23.544  25.546  1.00  0.00     0.188 C 
ENDROOT
BRANCH   1   2
ATOM      2  O   UNL A   1      35.711  23.803  26.049  1.00  0.00    -0.376 OA
BRANCH   2   3
ATOM      3  C   UNL A   1      34.948  24.875  25.513  1.00  0.00     0.202 C 
BRANCH   3   4
ATOM      4  C   UNL A   1      33.542  25.201  26.030  1.00  0.00     0.261 C 
BRANCH   4   5
ATOM      5  O   UNL A   1      33.294  26.605  26.227  1.00  0.00    -0.459 OA
BRANCH   5   6
ATOM      6  C   UNL A   1      32.120  27.066  25.723  1.00  0.00     0.361 C 
ATOM      7  O   UNL A   1      31.056  27.027  26.335  1.00  0.00    -0.245 OA
BRANCH   6   8
ATOM      8  C   UNL A   1      32.196  27.662  24.322  1.00  0.00     0.387 C 
BRANCH   8   9
ATOM      9  N   UNL A   1      31.079  27.479  23.392  1.00  0.00    -0.315 N 
ATOM     10  H   UNL A   1      31.594  27.667  22.532  1.00  0.00     0.349 HD
BRANCH   9  11
ATOM     11  C   UNL A   1      30.110  28.547  23.273  1.00  0.00     0.291 C 
BRANCH  11  12
ATOM     12  C   UNL A   1      28.705  28.012  23.244  1.00  0.00     0.025 C 
ATOM     13  C   UNL A   1      27.623  28.762  23.001  1.00  0.00     0.010 C 
ENDBRANCH  11  12
ENDBRANCH   9  11
BRANCH   9  14
ATOM     14  C   UNL A   1      30.690  26.120  23.002  1.00  0.00     0.363 C 
BRANCH  14  15
ATOM     15  C   UNL A   1      31.737  25.102  22.720  1.00  0.00     0.271 A 
ATOM     16  N   UNL A   1      33.056  25.109  21.689  1.00  0.00    -0.106 NA
ATOM     17  O   UNL A   1      31.894  23.596  23.737  1.00  0.00    -0.415 OA
ATOM     18  N   UNL A   1      34.119  23.477  22.016  1.00  0.00    -0.107 NA
ATOM     19  C   UNL A   1      33.367  22.621  23.227  1.00  0.00     0.248 A 
BRANCH  19  20
ATOM     20  C   UNL A   1      33.313  21.226  23.605  1.00  0.00     0.039 A 
ATOM     21  C   UNL A   1      34.017  20.747  24.709  1.00  0.00     0.014 A 
ATOM     22  C   UNL A   1      32.381  20.396  22.960  1.00  0.00     0.014 A 
ATOM     23  C   UNL A   1      33.730  19.471  25.207  1.00  0.00     0.004 A 
ATOM     24  C   UNL A   1      32.104  19.124  23.452  1.00  0.00     0.004 A 
ATOM     25  C   UNL A   1      32.762  18.661  24.595  1.00  0.00    -0.051 A 
ATOM     26  C   UNL A   1      32.383  17.346  25.206  1.00  0.00     0.044 C 
ENDBRANCH  19  20
ENDBRANCH  14  15
ENDBRANCH   9  14
ENDBRANCH   8   9
ENDBRANCH   6   8
ENDBRANCH   5   6
ENDBRANCH   4   5
ENDBRANCH   3   4
ENDBRANCH   2   3
ENDBRANCH   1   2
BRANCH   1  27
ATOM     27  C   UNL A   1      38.328  24.226  26.245  1.00  0.00     0.188 C 
BRANCH  27  28
ATOM     28  O   UNL A   1      39.789  23.303  27.435  1.00  0.00    -0.376 OA
BRANCH  28  29
ATOM     29  C   UNL A   1      41.279  22.813  27.124  1.00  0.00     0.202 C 
BRANCH  29  30
ATOM     30  C   UNL A   1      41.896  22.540  25.689  1.00  0.00     0.261 C 
BRANCH  30  31
ATOM     31  O   UNL A   1      43.160  23.153  25.339  1.00  0.00    -0.460 OA
BRANCH  31  32
ATOM     32  C   UNL A   1      43.189  24.508  25.340  1.00  0.00     0.338 C 
ATOM     33  O   UNL A   1      42.279  25.240  24.981  1.00  0.00    -0.246 OA
BRANCH  32  34
ATOM     34  C   UNL A   1      44.400  24.986  26.078  1.00  0.00     0.060 A 
ATOM     35  C   UNL A   1      45.339  24.021  26.481  1.00  0.00     0.016 A 
ATOM     36  C   UNL A   1      44.637  26.333  26.369  1.00  0.00     0.016 A 
ATOM     37  C   UNL A   1      46.448  24.375  27.252  1.00  0.00     0.010 A 
ATOM     38  C   UNL A   1      45.736  26.689  27.169  1.00  0.00     0.010 A 
ATOM     39  C   UNL A   1      46.604  25.699  27.675  1.00  0.00    -0.014 A 
BRANCH  39  40
ATOM     40  C   UNL A   1      47.407  25.956  28.907  1.00  0.00     0.031 A 
ATOM     41  C   UNL A   1      46.720  25.708  30.232  1.00  0.00     0.074 A 
ATOM     42  C   UNL A   1      48.707  26.300  28.883  1.00  0.00     0.049 A 
ATOM     43  N   UNL A   1      47.165  25.865  31.452  1.00  0.00    -0.248 NA
ATOM     44  C   UNL A   1      45.334  25.215  30.160  1.00  0.00     0.031 C 
ATOM     45  C   UNL A   1      49.514  26.492  27.680  1.00  0.00     0.029 A 
ATOM     46  N   UNL A   1      49.583  26.547  29.915  1.00  0.00    -0.354 N 
ATOM     47  C   UNL A   1      46.111  25.500  32.287  1.00  0.00     0.074 A 
ATOM     48  C   UNL A   1      44.995  25.161  31.435  1.00  0.00     0.031 C 
ATOM     49  C   UNL A   1      50.765  26.832  28.044  1.00  0.00     0.029 A 
ATOM     50  C   UNL A   1      50.841  26.920  29.503  1.00  0.00     0.049 A 
ATOM     51  H   UNL A   1      49.331  26.463  30.864  1.00  0.00     0.167 HD
ATOM     52  C   UNL A   1      46.076  25.442  33.640  1.00  0.00     0.034 A 
ATOM     53  C   UNL A   1      51.919  27.311  30.219  1.00  0.00     0.034 A 
ATOM     54  C   UNL A   1      47.190  25.792  34.484  1.00  0.00     0.049 A 
ATOM     55  C   UNL A   1      51.825  27.340  31.731  1.00  0.00     0.074 A 
ATOM     56  C   UNL A   1      47.262  25.779  35.865  1.00  0.00     0.029 A 
ATOM     57  N   UNL A   1      48.426  26.230  34.026  1.00  0.00    -0.354 N 
ATOM     58  N   UNL A   1      50.819  27.009  32.509  1.00  0.00    -0.248 NA
ATOM     59  C   UNL A   1      53.021  27.786  32.460  1.00  0.00     0.031 C 
ATOM     60  C   UNL A   1      48.509  26.287  36.243  1.00  0.00     0.029 A 
ATOM     61  C   UNL A   1      49.254  26.523  35.099  1.00  0.00     0.049 A 
ATOM     62  H   UNL A   1      48.678  26.319  33.078  1.00  0.00     0.167 HD
ATOM     63  C   UNL A   1      51.278  27.170  33.817  1.00  0.00     0.074 A 
ATOM     64  C   UNL A   1      52.653  27.610  33.720  1.00  0.00     0.031 C 
ATOM     65  C   UNL A   1      50.625  26.968  34.992  1.00  0.00     0.034 A 
BRANCH  52  66
ATOM     66  C   UNL A   1      44.765  25.048  34.282  1.00  0.00     0.023 A 
ATOM     67  C   UNL A   1      43.862  26.004  34.785  1.00  0.00     0.031 A 
ATOM     68  C   UNL A   1      44.434  23.690  34.433  1.00  0.00     0.131 A 
ATOM     69  C   UNL A   1      42.716  25.587  35.480  1.00  0.00     0.055 A 
ATOM     70  C   UNL A   1      43.249  23.283  35.048  1.00  0.00     0.041 A 
ATOM     71  F   UNL A   1      45.268  22.732  34.002  1.00  0.00    -0.206 F 
ATOM     72  C   UNL A   1      42.388  24.234  35.589  1.00  0.00     0.022 A 
BRANCH  69  73
ATOM     73  S   UNL A   1      41.742  26.829  36.375  1.00  0.00     0.124 S 
ATOM     74  O   UNL A   1      42.749  27.417  37.254  1.00  0.00    -0.237 OA
ATOM     75  O   UNL A   1      41.256  27.684  35.298  1.00  0.00    -0.237 OA
ATOM     76  O   UNL A   1      40.718  26.037  37.054  1.00  0.00    -0.744 OA
ENDBRANCH  69  73
ENDBRANCH  52  66
BRANCH  53  77
ATOM     77  C   UNL A   1      53.173  27.757  29.536  1.00  0.00     0.023 A 
ATOM     78  C   UNL A   1      53.284  29.036  28.964  1.00  0.00     0.031 A 
ATOM     79  C   UNL A   1      54.253  26.872  29.370  1.00  0.00     0.131 A 
ATOM     80  C   UNL A   1      54.423  29.374  28.214  1.00  0.00     0.055 A 
ATOM     81  C   UNL A   1      55.411  27.235  28.677  1.00  0.00     0.041 A 
ATOM     82  F   UNL A   1      54.200  25.631  29.880  1.00  0.00    -0.206 F 
ATOM     83  C   UNL A   1      55.494  28.489  28.082  1.00  0.00     0.022 A 
BRANCH  80  84
ATOM     84  S   UNL A   1      54.444  30.956  27.321  1.00  0.00     0.124 S 
ATOM     85  O   UNL A   1      54.863  30.537  25.987  1.00  0.00    -0.237 OA
ATOM     86  O   UNL A   1      53.059  31.395  27.450  1.00  0.00    -0.237 OA
ATOM     87  O   UNL A   1      55.421  31.752  28.061  1.00  0.00    -0.744 OA
ENDBRANCH  80  84
ENDBRANCH  53  77
BRANCH  65  88
ATOM     88  C   UNL A   1      51.414  27.161  36.268  1.00  0.00     0.023 A 
ATOM     89  C   UNL A   1      52.124  26.109  36.874  1.00  0.00     0.031 A 
ATOM     90  C   UNL A   1      51.436  28.417  36.902  1.00  0.00     0.131 A 
ATOM     91  C   UNL A   1      52.757  26.311  38.111  1.00  0.00     0.055 A 
ATOM     92  C   UNL A   1      52.134  28.632  38.091  1.00  0.00     0.041 A 
ATOM     93  F   UNL A   1      50.777  29.461  36.374  1.00  0.00    -0.206 F 
ATOM     94  C   UNL A   1      52.783  27.571  38.713  1.00  0.00     0.022 A 
BRANCH  91  95
ATOM     95  S   UNL A   1      53.425  24.872  38.991  1.00  0.00     0.124 S 
ATOM     96  O   UNL A   1      53.425  23.852  37.949  1.00  0.00    -0.237 OA
ATOM     97  O   UNL A   1      54.738  25.349  39.416  1.00  0.00    -0.237 OA
ATOM     98  O   UNL A   1      52.465  24.655  40.072  1.00  0.00    -0.744 OA
ENDBRANCH  91  95
ENDBRANCH  65  88
ENDBRANCH  39  40
ENDBRANCH  32  34
ENDBRANCH  31  32
ENDBRANCH  30  31
ENDBRANCH  29  30
ENDBRANCH  28  29
ENDBRANCH  27  28
ENDBRANCH   1  27
TORSDOF 26
ENDMDL
