MODEL 1
REMARK VINA RESULT:     -10.5      0.000      0.000
REMARK SMILES N#Cc1ccc2c(c1)C=C(C(=O)OCCOCCOCCOC(=O)c1ccc(-c3c4nc(c(-c5cc(S(=O)(=O)[O-])ccc5F)c5ccc([nH]5)c(-c5cc(S(=O)(=O)[O-])ccc5F)c5nc(c(-c6cc(S(=O)(=O)[O-])ccc6F)c6ccc3[nH]6)C=C5)C=C4)cc1)[C@@H](C(F)(F)F)O2
REMARK SMILES IDX 18 1 17 2 16 3 15 4 14 5 13 6 11 7 12 8 10 9 3 10 4 11 8 12
REMARK SMILES IDX 5 13 7 14 6 15 9 16 93 17 88 18 2 19 1 20 89 21 90 22 91 23
REMARK SMILES IDX 92 24 19 25 20 26 21 27 22 28 23 29 24 30 25 31 26 32 87 33
REMARK SMILES IDX 27 34 86 35 28 36 29 37 30 38 80 39 31 40 85 41 79 42 81 43
REMARK SMILES IDX 32 44 84 45 78 46 77 47 33 49 65 50 45 51 64 52 46 53 49 54
REMARK SMILES IDX 63 55 82 56 47 57 48 58 62 60 83 61 50 62 34 63 35 64 43 65
REMARK SMILES IDX 36 66 42 67 44 68 41 69 37 70 38 71 39 72 40 73 66 74 67 75
REMARK SMILES IDX 75 76 68 77 74 78 76 79 73 80 69 81 70 82 71 83 72 84 51 85
REMARK SMILES IDX 52 86 60 87 53 88 59 89 61 90 58 91 54 92 55 93 56 94 57 95
REMARK H PARENT 81 48 49 59
REMARK Flexibility Score: inf
ROOT
ATOM      1  C   UNL A   1      33.703  20.575  25.189  1.00  0.00     0.188 C 
ENDROOT
BRANCH   1   2
ATOM      2  C   UNL A   1      32.355  21.122  24.675  1.00  0.00     0.188 C 
BRANCH   2   3
ATOM      3  O   UNL A   1      32.320  21.532  23.329  1.00  0.00    -0.376 OA
BRANCH   3   4
ATOM      4  C   UNL A   1      32.178  22.898  22.988  1.00  0.00     0.202 C 
BRANCH   4   5
ATOM      5  C   UNL A   1      33.325  23.888  22.695  1.00  0.00     0.261 C 
BRANCH   5   6
ATOM      6  O   UNL A   1      32.991  25.261  22.473  1.00  0.00    -0.460 OA
BRANCH   6   7
ATOM      7  C   UNL A   1      32.701  25.986  23.580  1.00  0.00     0.338 C 
ATOM      8  O   UNL A   1      33.465  26.264  24.488  1.00  0.00    -0.246 OA
BRANCH   7   9
ATOM      9  C   UNL A   1      31.333  26.532  23.458  1.00  0.00     0.087 C 
ATOM     10  C   UNL A   1      28.394  30.079  22.057  1.00  0.00     0.053 A 
ATOM     11  C   UNL A   1      27.352  29.483  22.776  1.00  0.00     0.023 A 
ATOM     12  C   UNL A   1      29.640  29.446  21.984  1.00  0.00     0.031 A 
ATOM     13  C   UNL A   1      27.549  28.249  23.398  1.00  0.00     0.048 A 
ATOM     14  C   UNL A   1      29.853  28.233  22.655  1.00  0.00     0.019 A 
ATOM     15  C   UNL A   1      28.795  27.627  23.339  1.00  0.00     0.128 A 
ATOM     16  C   UNL A   1      31.179  27.640  22.718  1.00  0.00     0.027 C 
ATOM     17  O   UNL A   1      28.892  26.432  23.989  1.00  0.00    -0.475 OA
ATOM     18  C   UNL A   1      30.199  25.815  24.141  1.00  0.00     0.316 C 
BRANCH  10  19
ATOM     19  C   UNL A   1      28.183  31.353  21.436  1.00  0.00     0.099 C 
ATOM     20  N   UNL A   1      28.008  32.366  20.893  1.00  0.00    -0.192 NA
ENDBRANCH  10  19
BRANCH  18  21
ATOM     21  C   UNL A   1      30.465  25.615  25.639  1.00  0.00     0.430 C 
ATOM     22  F   UNL A   1      31.032  26.716  26.190  1.00  0.00    -0.167 F 
ATOM     23  F   UNL A   1      29.322  25.386  26.327  1.00  0.00    -0.167 F 
ATOM     24  F   UNL A   1      31.294  24.573  25.872  1.00  0.00    -0.167 F 
ENDBRANCH  18  21
ENDBRANCH   7   9
ENDBRANCH   6   7
ENDBRANCH   5   6
ENDBRANCH   4   5
ENDBRANCH   3   4
ENDBRANCH   2   3
ENDBRANCH   1   2
BRANCH   1  25
ATOM     25  O   UNL A   1      34.888  20.940  24.514  1.00  0.00    -0.376 OA
BRANCH  25  26
ATOM     26  C   UNL A   1      36.129  20.882  25.203  1.00  0.00     0.202 C 
BRANCH  26  27
ATOM     27  C   UNL A   1      36.857  22.091  25.837  1.00  0.00     0.261 C 
BRANCH  27  28
ATOM     28  O   UNL A   1      38.183  22.401  25.395  1.00  0.00    -0.460 OA
BRANCH  28  29
ATOM     29  C   UNL A   1      39.193  22.092  26.251  1.00  0.00     0.338 C 
ATOM     30  O   UNL A   1      39.662  20.987  26.457  1.00  0.00    -0.246 OA
BRANCH  29  31
ATOM     31  C   UNL A   1      39.792  23.359  26.730  1.00  0.00     0.060 A 
ATOM     32  C   UNL A   1      39.766  24.493  25.920  1.00  0.00     0.016 A 
ATOM     33  C   UNL A   1      40.425  23.399  27.983  1.00  0.00     0.016 A 
ATOM     34  C   UNL A   1      40.371  25.670  26.371  1.00  0.00     0.010 A 
ATOM     35  C   UNL A   1      41.046  24.574  28.422  1.00  0.00     0.010 A 
ATOM     36  C   UNL A   1      41.008  25.727  27.627  1.00  0.00    -0.014 A 
BRANCH  36  37
ATOM     37  C   UNL A   1      41.470  27.037  28.158  1.00  0.00     0.031 A 
ATOM     38  C   UNL A   1      42.916  27.435  28.178  1.00  0.00     0.074 A 
ATOM     39  C   UNL A   1      40.534  27.886  28.628  1.00  0.00     0.049 A 
ATOM     40  N   UNL A   1      43.440  28.586  28.515  1.00  0.00    -0.248 NA
ATOM     41  C   UNL A   1      43.901  26.421  27.779  1.00  0.00     0.031 C 
ATOM     42  C   UNL A   1      39.105  27.583  28.698  1.00  0.00     0.029 A 
ATOM     43  N   UNL A   1      40.630  29.165  29.118  1.00  0.00    -0.354 N 
ATOM     44  C   UNL A   1      44.814  28.448  28.352  1.00  0.00     0.074 A 
ATOM     45  C   UNL A   1      45.044  27.080  27.935  1.00  0.00     0.031 C 
ATOM     46  C   UNL A   1      38.452  28.658  29.160  1.00  0.00     0.029 A 
ATOM     47  C   UNL A   1      39.416  29.713  29.466  1.00  0.00     0.049 A 
ATOM     48  H   UNL A   1      41.485  29.644  29.213  1.00  0.00     0.167 HD
ATOM     49  C   UNL A   1      45.780  29.386  28.515  1.00  0.00     0.034 A 
ATOM     50  C   UNL A   1      39.104  30.925  29.971  1.00  0.00     0.034 A 
ATOM     51  C   UNL A   1      45.523  30.746  28.933  1.00  0.00     0.049 A 
ATOM     52  C   UNL A   1      40.202  31.940  30.163  1.00  0.00     0.074 A 
ATOM     53  C   UNL A   1      46.434  31.781  29.066  1.00  0.00     0.029 A 
ATOM     54  N   UNL A   1      44.286  31.262  29.293  1.00  0.00    -0.354 N 
ATOM     55  N   UNL A   1      41.480  31.832  29.886  1.00  0.00    -0.248 NA
ATOM     56  C   UNL A   1      39.821  33.247  30.717  1.00  0.00     0.031 C 
ATOM     57  C   UNL A   1      45.769  32.887  29.592  1.00  0.00     0.029 A 
ATOM     58  C   UNL A   1      44.421  32.586  29.687  1.00  0.00     0.049 A 
ATOM     59  H   UNL A   1      43.438  30.763  29.272  1.00  0.00     0.167 HD
ATOM     60  C   UNL A   1      42.048  33.063  30.204  1.00  0.00     0.074 A 
ATOM     61  C   UNL A   1      40.968  33.910  30.665  1.00  0.00     0.031 C 
ATOM     62  C   UNL A   1      43.347  33.448  30.125  1.00  0.00     0.034 A 
BRANCH  49  63
ATOM     63  C   UNL A   1      47.219  29.026  28.216  1.00  0.00     0.023 A 
ATOM     64  C   UNL A   1      47.630  28.803  26.886  1.00  0.00     0.031 A 
ATOM     65  C   UNL A   1      48.121  28.711  29.248  1.00  0.00     0.131 A 
ATOM     66  C   UNL A   1      48.880  28.224  26.628  1.00  0.00     0.055 A 
ATOM     67  C   UNL A   1      49.388  28.186  28.982  1.00  0.00     0.041 A 
ATOM     68  F   UNL A   1      47.776  28.891  30.534  1.00  0.00    -0.206 F 
ATOM     69  C   UNL A   1      49.763  27.922  27.669  1.00  0.00     0.022 A 
BRANCH  66  70
ATOM     70  S   UNL A   1      49.364  27.740  24.948  1.00  0.00     0.124 S 
ATOM     71  O   UNL A   1      50.438  28.687  24.662  1.00  0.00    -0.237 OA
ATOM     72  O   UNL A   1      49.789  26.356  25.140  1.00  0.00    -0.237 OA
ATOM     73  O   UNL A   1      48.148  27.926  24.165  1.00  0.00    -0.744 OA
ENDBRANCH  66  70
ENDBRANCH  49  63
BRANCH  50  74
ATOM     74  C   UNL A   1      37.676  31.243  30.263  1.00  0.00     0.023 A 
ATOM     75  C   UNL A   1      36.842  31.790  29.269  1.00  0.00     0.031 A 
ATOM     76  C   UNL A   1      37.152  31.109  31.560  1.00  0.00     0.131 A 
ATOM     77  C   UNL A   1      35.566  32.254  29.605  1.00  0.00     0.055 A 
ATOM     78  C   UNL A   1      35.846  31.493  31.870  1.00  0.00     0.041 A 
ATOM     79  F   UNL A   1      37.909  30.609  32.548  1.00  0.00    -0.206 F 
ATOM     80  C   UNL A   1      35.052  32.088  30.895  1.00  0.00     0.022 A 
BRANCH  77  81
ATOM     81  S   UNL A   1      34.592  33.223  28.420  1.00  0.00     0.124 S 
ATOM     82  O   UNL A   1      35.608  33.643  27.460  1.00  0.00    -0.237 OA
ATOM     83  O   UNL A   1      33.639  32.227  27.935  1.00  0.00    -0.237 OA
ATOM     84  O   UNL A   1      34.015  34.287  29.235  1.00  0.00    -0.744 OA
ENDBRANCH  77  81
ENDBRANCH  50  74
BRANCH  62  85
ATOM     85  C   UNL A   1      43.722  34.860  30.522  1.00  0.00     0.023 A 
ATOM     86  C   UNL A   1      43.707  35.232  31.882  1.00  0.00     0.031 A 
ATOM     87  C   UNL A   1      43.918  35.870  29.564  1.00  0.00     0.131 A 
ATOM     88  C   UNL A   1      43.820  36.581  32.240  1.00  0.00     0.055 A 
ATOM     89  C   UNL A   1      44.099  37.205  29.931  1.00  0.00     0.041 A 
ATOM     90  F   UNL A   1      43.930  35.576  28.254  1.00  0.00    -0.206 F 
ATOM     91  C   UNL A   1      44.029  37.568  31.272  1.00  0.00     0.022 A 
BRANCH  88  92
ATOM     92  S   UNL A   1      43.586  37.118  33.958  1.00  0.00     0.124 S 
ATOM     93  O   UNL A   1      43.362  38.553  33.800  1.00  0.00    -0.237 OA
ATOM     94  O   UNL A   1      42.414  36.346  34.362  1.00  0.00    -0.237 OA
ATOM     95  O   UNL A   1      44.837  36.754  34.615  1.00  0.00    -0.744 OA
ENDBRANCH  88  92
ENDBRANCH  62  85
ENDBRANCH  36  37
ENDBRANCH  29  31
ENDBRANCH  28  29
ENDBRANCH  27  28
ENDBRANCH  26  27
ENDBRANCH  25  26
ENDBRANCH   1  25
TORSDOF 22
ENDMDL
MODEL 2
REMARK VINA RESULT:     -10.4      5.427      9.144
REMARK SMILES N#Cc1ccc2c(c1)C=C(C(=O)OCCOCCOCCOC(=O)c1ccc(-c3c4nc(c(-c5cc(S(=O)(=O)[O-])ccc5F)c5ccc([nH]5)c(-c5cc(S(=O)(=O)[O-])ccc5F)c5nc(c(-c6cc(S(=O)(=O)[O-])ccc6F)c6ccc3[nH]6)C=C5)C=C4)cc1)[C@@H](C(F)(F)F)O2
REMARK SMILES IDX 18 1 17 2 16 3 15 4 14 5 13 6 11 7 12 8 10 9 3 10 4 11 8 12
REMARK SMILES IDX 5 13 7 14 6 15 9 16 93 17 88 18 2 19 1 20 89 21 90 22 91 23
REMARK SMILES IDX 92 24 19 25 20 26 21 27 22 28 23 29 24 30 25 31 26 32 87 33
REMARK SMILES IDX 27 34 86 35 28 36 29 37 30 38 80 39 31 40 85 41 79 42 81 43
REMARK SMILES IDX 32 44 84 45 78 46 77 47 33 49 65 50 45 51 64 52 46 53 49 54
REMARK SMILES IDX 63 55 82 56 47 57 48 58 62 60 83 61 50 62 34 63 35 64 43 65
REMARK SMILES IDX 36 66 42 67 44 68 41 69 37 70 38 71 39 72 40 73 66 74 67 75
REMARK SMILES IDX 75 76 68 77 74 78 76 79 73 80 69 81 70 82 71 83 72 84 51 85
REMARK SMILES IDX 52 86 60 87 53 88 59 89 61 90 58 91 54 92 55 93 56 94 57 95
REMARK H PARENT 81 48 49 59
REMARK Flexibility Score: inf
ROOT
ATOM      1  C   UNL A   1      32.732  29.155  27.042  1.00  0.00     0.188 C 
ENDROOT
BRANCH   1   2
ATOM      2  C   UNL A   1      33.165  28.511  25.708  1.00  0.00     0.188 C 
BRANCH   2   3
ATOM      3  O   UNL A   1      32.683  27.212  25.457  1.00  0.00    -0.376 OA
BRANCH   3   4
ATOM      4  C   UNL A   1      33.254  26.088  26.101  1.00  0.00     0.202 C 
BRANCH   4   5
ATOM      5  C   UNL A   1      33.894  24.868  25.406  1.00  0.00     0.261 C 
BRANCH   5   6
ATOM      6  O   UNL A   1      33.384  23.569  25.718  1.00  0.00    -0.460 OA
BRANCH   6   7
ATOM      7  C   UNL A   1      32.135  23.301  25.266  1.00  0.00     0.338 C 
ATOM      8  O   UNL A   1      31.157  24.023  25.359  1.00  0.00    -0.246 OA
BRANCH   7   9
ATOM      9  C   UNL A   1      32.159  22.041  24.492  1.00  0.00     0.087 C 
ATOM     10  C   UNL A   1      33.005  17.305  24.304  1.00  0.00     0.053 A 
ATOM     11  C   UNL A   1      32.916  17.357  22.909  1.00  0.00     0.023 A 
ATOM     12  C   UNL A   1      32.760  18.458  25.060  1.00  0.00     0.031 A 
ATOM     13  C   UNL A   1      32.562  18.549  22.275  1.00  0.00     0.048 A 
ATOM     14  C   UNL A   1      32.458  19.668  24.419  1.00  0.00     0.019 A 
ATOM     15  C   UNL A   1      32.335  19.701  23.028  1.00  0.00     0.128 A 
ATOM     16  C   UNL A   1      32.352  20.905  25.177  1.00  0.00     0.027 C 
ATOM     17  O   UNL A   1      32.007  20.818  22.318  1.00  0.00    -0.475 OA
ATOM     18  C   UNL A   1      31.946  22.098  23.003  1.00  0.00     0.316 C 
BRANCH  10  19
ATOM     19  C   UNL A   1      33.385  16.079  24.940  1.00  0.00     0.099 C 
ATOM     20  N   UNL A   1      33.713  15.109  25.491  1.00  0.00    -0.192 NA
ENDBRANCH  10  19
BRANCH  18  21
ATOM     21  C   UNL A   1      32.926  23.058  22.318  1.00  0.00     0.430 C 
ATOM     22  F   UNL A   1      32.996  22.823  20.985  1.00  0.00    -0.167 F 
ATOM     23  F   UNL A   1      32.547  24.351  22.460  1.00  0.00    -0.167 F 
ATOM     24  F   UNL A   1      34.177  22.946  22.815  1.00  0.00    -0.167 F 
ENDBRANCH  18  21
ENDBRANCH   7   9
ENDBRANCH   6   7
ENDBRANCH   5   6
ENDBRANCH   4   5
ENDBRANCH   3   4
ENDBRANCH   2   3
ENDBRANCH   1   2
BRANCH   1  25
ATOM     25  O   UNL A   1      32.488  30.545  27.079  1.00  0.00    -0.376 OA
BRANCH  25  26
ATOM     26  C   UNL A   1      33.518  31.421  27.514  1.00  0.00     0.202 C 
BRANCH  26  27
ATOM     27  C   UNL A   1      33.518  32.958  27.334  1.00  0.00     0.261 C 
BRANCH  27  28
ATOM     28  O   UNL A   1      32.597  33.739  28.102  1.00  0.00    -0.460 OA
BRANCH  28  29
ATOM     29  C   UNL A   1      33.137  34.694  28.906  1.00  0.00     0.338 C 
ATOM     30  O   UNL A   1      32.681  35.801  29.130  1.00  0.00    -0.246 OA
BRANCH  29  31
ATOM     31  C   UNL A   1      34.261  34.083  29.651  1.00  0.00     0.060 A 
ATOM     32  C   UNL A   1      34.007  33.252  30.741  1.00  0.00     0.016 A 
ATOM     33  C   UNL A   1      35.583  34.382  29.282  1.00  0.00     0.016 A 
ATOM     34  C   UNL A   1      35.081  32.716  31.458  1.00  0.00     0.010 A 
ATOM     35  C   UNL A   1      36.654  33.859  30.015  1.00  0.00     0.010 A 
ATOM     36  C   UNL A   1      36.413  33.005  31.099  1.00  0.00    -0.014 A 
BRANCH  36  37
ATOM     37  C   UNL A   1      37.527  32.269  31.756  1.00  0.00     0.031 A 
ATOM     38  C   UNL A   1      38.231  31.119  31.100  1.00  0.00     0.074 A 
ATOM     39  C   UNL A   1      37.905  32.674  32.984  1.00  0.00     0.049 A 
ATOM     40  N   UNL A   1      39.283  30.462  31.517  1.00  0.00    -0.248 NA
ATOM     41  C   UNL A   1      37.690  30.636  29.822  1.00  0.00     0.031 C 
ATOM     42  C   UNL A   1      37.259  33.752  33.734  1.00  0.00     0.029 A 
ATOM     43  N   UNL A   1      38.916  32.250  33.811  1.00  0.00    -0.354 N 
ATOM     44  C   UNL A   1      39.548  29.500  30.549  1.00  0.00     0.074 A 
ATOM     45  C   UNL A   1      38.509  29.627  29.547  1.00  0.00     0.031 C 
ATOM     46  C   UNL A   1      37.914  33.935  34.889  1.00  0.00     0.029 A 
ATOM     47  C   UNL A   1      38.997  32.958  34.989  1.00  0.00     0.049 A 
ATOM     48  H   UNL A   1      39.524  31.510  33.584  1.00  0.00     0.167 HD
ATOM     49  C   UNL A   1      40.575  28.616  30.499  1.00  0.00     0.034 A 
ATOM     50  C   UNL A   1      39.844  32.844  36.034  1.00  0.00     0.034 A 
ATOM     51  C   UNL A   1      41.599  28.508  31.514  1.00  0.00     0.049 A 
ATOM     52  C   UNL A   1      40.962  31.836  35.960  1.00  0.00     0.074 A 
ATOM     53  C   UNL A   1      42.711  27.683  31.516  1.00  0.00     0.029 A 
ATOM     54  N   UNL A   1      41.641  29.228  32.700  1.00  0.00    -0.354 N 
ATOM     55  N   UNL A   1      41.270  31.019  34.981  1.00  0.00    -0.248 NA
ATOM     56  C   UNL A   1      41.860  31.742  37.120  1.00  0.00     0.031 C 
ATOM     57  C   UNL A   1      43.369  27.833  32.736  1.00  0.00     0.029 A 
ATOM     58  C   UNL A   1      42.736  28.832  33.456  1.00  0.00     0.049 A 
ATOM     59  H   UNL A   1      40.991  29.917  32.966  1.00  0.00     0.167 HD
ATOM     60  C   UNL A   1      42.412  30.339  35.394  1.00  0.00     0.074 A 
ATOM     61  C   UNL A   1      42.757  30.861  36.699  1.00  0.00     0.031 C 
ATOM     62  C   UNL A   1      43.103  29.365  34.748  1.00  0.00     0.034 A 
BRANCH  49  63
ATOM     63  C   UNL A   1      40.702  27.695  29.305  1.00  0.00     0.023 A 
ATOM     64  C   UNL A   1      41.605  28.006  28.266  1.00  0.00     0.031 A 
ATOM     65  C   UNL A   1      39.799  26.636  29.101  1.00  0.00     0.131 A 
ATOM     66  C   UNL A   1      41.542  27.307  27.053  1.00  0.00     0.055 A 
ATOM     67  C   UNL A   1      39.780  25.907  27.910  1.00  0.00     0.041 A 
ATOM     68  F   UNL A   1      38.909  26.307  30.051  1.00  0.00    -0.206 F 
ATOM     69  C   UNL A   1      40.640  26.254  26.873  1.00  0.00     0.022 A 
BRANCH  66  70
ATOM     70  S   UNL A   1      42.548  27.805  25.628  1.00  0.00     0.124 S 
ATOM     71  O   UNL A   1      43.853  28.026  26.247  1.00  0.00    -0.237 OA
ATOM     72  O   UNL A   1      42.459  26.629  24.766  1.00  0.00    -0.237 OA
ATOM     73  O   UNL A   1      41.885  29.005  25.132  1.00  0.00    -0.744 OA
ENDBRANCH  66  70
ENDBRANCH  49  63
BRANCH  50  74
ATOM     74  C   UNL A   1      39.683  33.762  37.201  1.00  0.00     0.023 A 
ATOM     75  C   UNL A   1      39.075  33.314  38.389  1.00  0.00     0.031 A 
ATOM     76  C   UNL A   1      40.033  35.119  37.111  1.00  0.00     0.131 A 
ATOM     77  C   UNL A   1      38.763  34.229  39.400  1.00  0.00     0.055 A 
ATOM     78  C   UNL A   1      39.800  36.010  38.160  1.00  0.00     0.041 A 
ATOM     79  F   UNL A   1      40.600  35.601  35.995  1.00  0.00    -0.206 F 
ATOM     80  C   UNL A   1      39.142  35.571  39.305  1.00  0.00     0.022 A 
BRANCH  77  81
ATOM     81  S   UNL A   1      37.723  33.737  40.804  1.00  0.00     0.124 S 
ATOM     82  O   UNL A   1      36.549  33.184  40.135  1.00  0.00    -0.237 OA
ATOM     83  O   UNL A   1      38.579  32.766  41.482  1.00  0.00    -0.237 OA
ATOM     84  O   UNL A   1      37.508  34.985  41.528  1.00  0.00    -0.744 OA
ENDBRANCH  77  81
ENDBRANCH  50  74
BRANCH  62  85
ATOM     85  C   UNL A   1      44.335  28.777  35.405  1.00  0.00     0.023 A 
ATOM     86  C   UNL A   1      44.200  27.716  36.322  1.00  0.00     0.031 A 
ATOM     87  C   UNL A   1      45.601  29.371  35.264  1.00  0.00     0.131 A 
ATOM     88  C   UNL A   1      45.293  27.324  37.106  1.00  0.00     0.055 A 
ATOM     89  C   UNL A   1      46.704  28.932  36.000  1.00  0.00     0.041 A 
ATOM     90  F   UNL A   1      45.786  30.395  34.415  1.00  0.00    -0.206 F 
ATOM     91  C   UNL A   1      46.548  27.918  36.940  1.00  0.00     0.022 A 
BRANCH  88  92
ATOM     92  S   UNL A   1      45.100  26.114  38.445  1.00  0.00     0.124 S 
ATOM     93  O   UNL A   1      44.101  25.204  37.890  1.00  0.00    -0.237 OA
ATOM     94  O   UNL A   1      46.448  25.565  38.558  1.00  0.00    -0.237 OA
ATOM     95  O   UNL A   1      44.649  26.913  39.580  1.00  0.00    -0.744 OA
ENDBRANCH  88  92
ENDBRANCH  62  85
ENDBRANCH  36  37
ENDBRANCH  29  31
ENDBRANCH  28  29
ENDBRANCH  27  28
ENDBRANCH  26  27
ENDBRANCH  25  26
ENDBRANCH   1  25
TORSDOF 22
ENDMDL
MODEL 3
REMARK VINA RESULT:     -10.2      4.895     10.175
REMARK SMILES N#Cc1ccc2c(c1)C=C(C(=O)OCCOCCOCCOC(=O)c1ccc(-c3c4nc(c(-c5cc(S(=O)(=O)[O-])ccc5F)c5ccc([nH]5)c(-c5cc(S(=O)(=O)[O-])ccc5F)c5nc(c(-c6cc(S(=O)(=O)[O-])ccc6F)c6ccc3[nH]6)C=C5)C=C4)cc1)[C@@H](C(F)(F)F)O2
REMARK SMILES IDX 18 1 17 2 16 3 15 4 14 5 13 6 11 7 12 8 10 9 3 10 4 11 8 12
REMARK SMILES IDX 5 13 7 14 6 15 9 16 93 17 88 18 2 19 1 20 89 21 90 22 91 23
REMARK SMILES IDX 92 24 19 25 20 26 21 27 22 28 23 29 24 30 25 31 26 32 87 33
REMARK SMILES IDX 27 34 86 35 28 36 29 37 30 38 80 39 31 40 85 41 79 42 81 43
REMARK SMILES IDX 32 44 84 45 78 46 77 47 33 49 65 50 45 51 64 52 46 53 49 54
REMARK SMILES IDX 63 55 82 56 47 57 48 58 62 60 83 61 50 62 34 63 35 64 43 65
REMARK SMILES IDX 36 66 42 67 44 68 41 69 37 70 38 71 39 72 40 73 66 74 67 75
REMARK SMILES IDX 75 76 68 77 74 78 76 79 73 80 69 81 70 82 71 83 72 84 51 85
REMARK SMILES IDX 52 86 60 87 53 88 59 89 61 90 58 91 54 92 55 93 56 94 57 95
REMARK H PARENT 81 48 49 59
REMARK Flexibility Score: inf
ROOT
ATOM      1  C   UNL A   1      32.509  29.687  26.726  1.00  0.00     0.188 C 
ENDROOT
BRANCH   1   2
ATOM      2  C   UNL A   1      33.088  29.600  25.298  1.00  0.00     0.188 C 
BRANCH   2   3
ATOM      3  O   UNL A   1      32.159  29.403  24.259  1.00  0.00    -0.376 OA
BRANCH   3   4
ATOM      4  C   UNL A   1      31.087  28.491  24.405  1.00  0.00     0.202 C 
BRANCH   4   5
ATOM      5  C   UNL A   1      31.183  26.953  24.323  1.00  0.00     0.261 C 
BRANCH   5   6
ATOM      6  O   UNL A   1      32.187  26.297  25.102  1.00  0.00    -0.460 OA
BRANCH   6   7
ATOM      7  C   UNL A   1      31.769  25.232  25.829  1.00  0.00     0.338 C 
ATOM      8  O   UNL A   1      30.738  25.152  26.474  1.00  0.00    -0.246 OA
BRANCH   7   9
ATOM      9  C   UNL A   1      32.690  24.098  25.602  1.00  0.00     0.087 C 
ATOM     10  C   UNL A   1      37.144  22.277  25.765  1.00  0.00     0.053 A 
ATOM     11  C   UNL A   1      36.713  21.188  25.000  1.00  0.00     0.023 A 
ATOM     12  C   UNL A   1      36.222  23.248  26.175  1.00  0.00     0.031 A 
ATOM     13  C   UNL A   1      35.364  21.057  24.668  1.00  0.00     0.048 A 
ATOM     14  C   UNL A   1      34.876  23.144  25.794  1.00  0.00     0.019 A 
ATOM     15  C   UNL A   1      34.449  22.033  25.062  1.00  0.00     0.128 A 
ATOM     16  C   UNL A   1      33.937  24.217  26.079  1.00  0.00     0.027 C 
ATOM     17  O   UNL A   1      33.157  21.823  24.679  1.00  0.00    -0.475 OA
ATOM     18  C   UNL A   1      32.181  22.880  24.878  1.00  0.00     0.316 C 
BRANCH  10  19
ATOM     19  C   UNL A   1      38.534  22.407  26.085  1.00  0.00     0.099 C 
ATOM     20  N   UNL A   1      39.666  22.467  26.345  1.00  0.00    -0.192 NA
ENDBRANCH  10  19
BRANCH  18  21
ATOM     21  C   UNL A   1      31.569  23.234  23.517  1.00  0.00     0.430 C 
ATOM     22  F   UNL A   1      30.324  23.753  23.656  1.00  0.00    -0.167 F 
ATOM     23  F   UNL A   1      32.302  24.166  22.863  1.00  0.00    -0.167 F 
ATOM     24  F   UNL A   1      31.470  22.156  22.709  1.00  0.00    -0.167 F 
ENDBRANCH  18  21
ENDBRANCH   7   9
ENDBRANCH   6   7
ENDBRANCH   5   6
ENDBRANCH   4   5
ENDBRANCH   3   4
ENDBRANCH   2   3
ENDBRANCH   1   2
BRANCH   1  25
ATOM     25  O   UNL A   1      32.154  30.953  27.240  1.00  0.00    -0.376 OA
BRANCH  25  26
ATOM     26  C   UNL A   1      33.177  31.871  27.600  1.00  0.00     0.202 C 
BRANCH  26  27
ATOM     27  C   UNL A   1      33.046  33.412  27.572  1.00  0.00     0.261 C 
BRANCH  27  28
ATOM     28  O   UNL A   1      32.531  34.078  28.730  1.00  0.00    -0.460 OA
BRANCH  28  29
ATOM     29  C   UNL A   1      33.340  35.009  29.302  1.00  0.00     0.338 C 
ATOM     30  O   UNL A   1      33.066  36.174  29.526  1.00  0.00    -0.246 OA
BRANCH  29  31
ATOM     31  C   UNL A   1      34.539  34.315  29.823  1.00  0.00     0.060 A 
ATOM     32  C   UNL A   1      35.790  34.563  29.260  1.00  0.00     0.016 A 
ATOM     33  C   UNL A   1      34.403  33.371  30.855  1.00  0.00     0.016 A 
ATOM     34  C   UNL A   1      36.906  33.869  29.738  1.00  0.00     0.010 A 
ATOM     35  C   UNL A   1      35.519  32.665  31.316  1.00  0.00     0.010 A 
ATOM     36  C   UNL A   1      36.785  32.921  30.774  1.00  0.00    -0.014 A 
BRANCH  36  37
ATOM     37  C   UNL A   1      38.012  32.344  31.388  1.00  0.00     0.031 A 
ATOM     38  C   UNL A   1      38.594  32.866  32.668  1.00  0.00     0.074 A 
ATOM     39  C   UNL A   1      38.600  31.310  30.756  1.00  0.00     0.049 A 
ATOM     40  N   UNL A   1      39.593  32.387  33.364  1.00  0.00    -0.248 NA
ATOM     41  C   UNL A   1      37.989  34.077  33.241  1.00  0.00     0.031 C 
ATOM     42  C   UNL A   1      38.145  30.753  29.483  1.00  0.00     0.029 A 
ATOM     43  N   UNL A   1      39.685  30.538  31.092  1.00  0.00    -0.354 N 
ATOM     44  C   UNL A   1      39.731  33.221  34.468  1.00  0.00     0.074 A 
ATOM     45  C   UNL A   1      38.742  34.269  34.319  1.00  0.00     0.031 C 
ATOM     46  C   UNL A   1      38.915  29.703  29.165  1.00  0.00     0.029 A 
ATOM     47  C   UNL A   1      39.950  29.537  30.183  1.00  0.00     0.049 A 
ATOM     48  H   UNL A   1      40.222  30.685  31.903  1.00  0.00     0.167 HD
ATOM     49  C   UNL A   1      40.588  33.102  35.512  1.00  0.00     0.034 A 
ATOM     50  C   UNL A   1      40.910  28.589  30.166  1.00  0.00     0.034 A 
ATOM     51  C   UNL A   1      41.567  32.045  35.637  1.00  0.00     0.049 A 
ATOM     52  C   UNL A   1      41.864  28.495  31.329  1.00  0.00     0.074 A 
ATOM     53  C   UNL A   1      42.436  31.811  36.690  1.00  0.00     0.029 A 
ATOM     54  N   UNL A   1      41.820  31.060  34.692  1.00  0.00    -0.354 N 
ATOM     55  N   UNL A   1      41.901  29.217  32.424  1.00  0.00    -0.248 NA
ATOM     56  C   UNL A   1      42.897  27.451  31.269  1.00  0.00     0.031 C 
ATOM     57  C   UNL A   1      43.272  30.751  36.344  1.00  0.00     0.029 A 
ATOM     58  C   UNL A   1      42.858  30.246  35.122  1.00  0.00     0.049 A 
ATOM     59  H   UNL A   1      41.334  30.955  33.843  1.00  0.00     0.167 HD
ATOM     60  C   UNL A   1      42.936  28.695  33.194  1.00  0.00     0.074 A 
ATOM     61  C   UNL A   1      43.481  27.578  32.453  1.00  0.00     0.031 C 
ATOM     62  C   UNL A   1      43.393  29.113  34.402  1.00  0.00     0.034 A 
BRANCH  49  63
ATOM     63  C   UNL A   1      40.517  34.100  36.646  1.00  0.00     0.023 A 
ATOM     64  C   UNL A   1      39.924  33.735  37.873  1.00  0.00     0.031 A 
ATOM     65  C   UNL A   1      40.846  35.453  36.449  1.00  0.00     0.131 A 
ATOM     66  C   UNL A   1      39.625  34.719  38.825  1.00  0.00     0.055 A 
ATOM     67  C   UNL A   1      40.597  36.421  37.425  1.00  0.00     0.041 A 
ATOM     68  F   UNL A   1      41.400  35.858  35.295  1.00  0.00    -0.206 F 
ATOM     69  C   UNL A   1      39.966  36.058  38.610  1.00  0.00     0.022 A 
BRANCH  66  70
ATOM     70  S   UNL A   1      38.687  34.321  40.326  1.00  0.00     0.124 S 
ATOM     71  O   UNL A   1      38.230  35.641  40.753  1.00  0.00    -0.237 OA
ATOM     72  O   UNL A   1      37.644  33.438  39.809  1.00  0.00    -0.237 OA
ATOM     73  O   UNL A   1      39.672  33.692  41.199  1.00  0.00    -0.744 OA
ENDBRANCH  66  70
ENDBRANCH  49  63
BRANCH  50  74
ATOM     74  C   UNL A   1      40.958  27.626  29.026  1.00  0.00     0.023 A 
ATOM     75  C   UNL A   1      41.931  27.754  28.017  1.00  0.00     0.031 A 
ATOM     76  C   UNL A   1      39.973  26.637  28.869  1.00  0.00     0.131 A 
ATOM     77  C   UNL A   1      41.850  26.964  26.865  1.00  0.00     0.055 A 
ATOM     78  C   UNL A   1      39.949  25.792  27.758  1.00  0.00     0.041 A 
ATOM     79  F   UNL A   1      39.012  26.484  29.793  1.00  0.00    -0.206 F 
ATOM     80  C   UNL A   1      40.879  25.967  26.738  1.00  0.00     0.022 A 
BRANCH  77  81
ATOM     81  S   UNL A   1      42.908  27.308  25.431  1.00  0.00     0.124 S 
ATOM     82  O   UNL A   1      42.993  25.997  24.794  1.00  0.00    -0.237 OA
ATOM     83  O   UNL A   1      42.119  28.308  24.714  1.00  0.00    -0.237 OA
ATOM     84  O   UNL A   1      44.144  27.804  26.025  1.00  0.00    -0.744 OA
ENDBRANCH  77  81
ENDBRANCH  50  74
BRANCH  62  85
ATOM     85  C   UNL A   1      44.540  28.369  35.053  1.00  0.00     0.023 A 
ATOM     86  C   UNL A   1      44.290  27.515  36.146  1.00  0.00     0.031 A 
ATOM     87  C   UNL A   1      45.879  28.634  34.716  1.00  0.00     0.131 A 
ATOM     88  C   UNL A   1      45.357  27.009  36.899  1.00  0.00     0.055 A 
ATOM     89  C   UNL A   1      46.941  28.073  35.429  1.00  0.00     0.041 A 
ATOM     90  F   UNL A   1      46.177  29.450  33.692  1.00  0.00    -0.206 F 
ATOM     91  C   UNL A   1      46.682  27.274  36.538  1.00  0.00     0.022 A 
BRANCH  88  92
ATOM     92  S   UNL A   1      45.067  26.090  38.436  1.00  0.00     0.124 S 
ATOM     93  O   UNL A   1      46.048  26.690  39.338  1.00  0.00    -0.237 OA
ATOM     94  O   UNL A   1      43.674  26.414  38.728  1.00  0.00    -0.237 OA
ATOM     95  O   UNL A   1      45.327  24.701  38.072  1.00  0.00    -0.744 OA
ENDBRANCH  88  92
ENDBRANCH  62  85
ENDBRANCH  36  37
ENDBRANCH  29  31
ENDBRANCH  28  29
ENDBRANCH  27  28
ENDBRANCH  26  27
ENDBRANCH  25  26
ENDBRANCH   1  25
TORSDOF 22
ENDMDL
