MODEL 1
REMARK VINA RESULT:     -10.6      0.000      0.000
REMARK SMILES Cc1cc(Cl)c2c(c1)C=C(C(=O)OCCOCCOCCOC(=O)c1ccc(-c3c4nc(c(-c5cc(S(=O)(=O)[O-])ccc5F)c5ccc([nH]5)c(-c5cc(S(=O)(=O)[O-])ccc5F)c5nc(c(-c6cc(S(=O)(=O)[O-])ccc6F)c6ccc3[nH]6)C=C5)C=C4)cc1)[C@@H](C(F)(F)F)O2
REMARK SMILES IDX 18 1 17 2 16 3 15 4 14 5 13 6 11 7 12 8 10 9 1 10 2 11 3 12
REMARK SMILES IDX 8 13 4 14 7 15 5 16 6 17 9 18 93 19 88 20 89 21 90 22 91 23
REMARK SMILES IDX 92 24 19 25 20 26 21 27 22 28 23 29 24 30 25 31 26 32 87 33
REMARK SMILES IDX 27 34 86 35 28 36 29 37 30 38 80 39 31 40 85 41 79 42 81 43
REMARK SMILES IDX 32 44 84 45 78 46 77 47 33 49 65 50 45 51 64 52 46 53 49 54
REMARK SMILES IDX 63 55 82 56 47 57 48 58 62 60 83 61 50 62 34 63 35 64 43 65
REMARK SMILES IDX 36 66 42 67 44 68 41 69 37 70 38 71 39 72 40 73 66 74 67 75
REMARK SMILES IDX 75 76 68 77 74 78 76 79 73 80 69 81 70 82 71 83 72 84 51 85
REMARK SMILES IDX 52 86 60 87 53 88 59 89 61 90 58 91 54 92 55 93 56 94 57 95
REMARK H PARENT 81 48 49 59
REMARK Flexibility Score: inf
ROOT
ATOM      1  C   UNL A   1      34.645  34.209  29.568  1.00  0.00     0.188 C 
ENDROOT
BRANCH   1   2
ATOM      2  C   UNL A   1      34.020  33.468  28.367  1.00  0.00     0.188 C 
BRANCH   2   3
ATOM      3  O   UNL A   1      34.670  32.338  27.825  1.00  0.00    -0.376 OA
BRANCH   3   4
ATOM      4  C   UNL A   1      34.054  31.065  27.774  1.00  0.00     0.202 C 
BRANCH   4   5
ATOM      5  C   UNL A   1      33.083  30.599  26.680  1.00  0.00     0.261 C 
BRANCH   5   6
ATOM      6  O   UNL A   1      32.913  29.187  26.542  1.00  0.00    -0.460 OA
BRANCH   6   7
ATOM      7  C   UNL A   1      31.984  28.815  25.628  1.00  0.00     0.338 C 
ATOM      8  O   UNL A   1      31.094  29.510  25.164  1.00  0.00    -0.246 OA
BRANCH   7   9
ATOM      9  C   UNL A   1      32.263  27.441  25.176  1.00  0.00     0.087 C 
ATOM     10  C   UNL A   1      33.623  21.844  27.365  1.00  0.00     0.044 C 
ATOM     11  C   UNL A   1      33.382  22.892  26.317  1.00  0.00    -0.049 A 
ATOM     12  C   UNL A   1      33.527  22.591  24.958  1.00  0.00     0.028 A 
ATOM     13  C   UNL A   1      32.972  24.179  26.688  1.00  0.00     0.015 A 
ATOM     14  C   UNL A   1      33.280  23.568  23.989  1.00  0.00     0.084 A 
ATOM     15  C   UNL A   1      32.748  25.166  25.720  1.00  0.00     0.019 A 
ATOM     16  Cl  UNL A   1      33.496  23.144  22.327  1.00  0.00    -0.080 Cl
ATOM     17  C   UNL A   1      32.889  24.861  24.362  1.00  0.00     0.146 A 
ATOM     18  C   UNL A   1      32.413  26.517  26.133  1.00  0.00     0.027 C 
ATOM     19  O   UNL A   1      32.657  25.772  23.367  1.00  0.00    -0.474 OA
ATOM     20  C   UNL A   1      32.369  27.153  23.706  1.00  0.00     0.316 C 
BRANCH  20  21
ATOM     21  C   UNL A   1      33.403  28.052  23.009  1.00  0.00     0.430 C 
ATOM     22  F   UNL A   1      34.407  28.395  23.851  1.00  0.00    -0.167 F 
ATOM     23  F   UNL A   1      33.985  27.426  21.958  1.00  0.00    -0.167 F 
ATOM     24  F   UNL A   1      32.854  29.196  22.544  1.00  0.00    -0.167 F 
ENDBRANCH  20  21
ENDBRANCH   7   9
ENDBRANCH   6   7
ENDBRANCH   5   6
ENDBRANCH   4   5
ENDBRANCH   3   4
ENDBRANCH   2   3
ENDBRANCH   1   2
BRANCH   1  25
ATOM     25  O   UNL A   1      33.926  34.360  30.778  1.00  0.00    -0.376 OA
BRANCH  25  26
ATOM     26  C   UNL A   1      34.581  34.941  31.898  1.00  0.00     0.202 C 
BRANCH  26  27
ATOM     27  C   UNL A   1      36.078  34.708  32.131  1.00  0.00     0.261 C 
BRANCH  27  28
ATOM     28  O   UNL A   1      36.373  33.676  33.083  1.00  0.00    -0.460 OA
BRANCH  28  29
ATOM     29  C   UNL A   1      35.902  32.443  32.762  1.00  0.00     0.338 C 
ATOM     30  O   UNL A   1      34.772  32.020  32.928  1.00  0.00    -0.246 OA
BRANCH  29  31
ATOM     31  C   UNL A   1      36.930  31.721  31.989  1.00  0.00     0.060 A 
ATOM     32  C   UNL A   1      38.057  31.241  32.667  1.00  0.00     0.016 A 
ATOM     33  C   UNL A   1      36.800  31.546  30.610  1.00  0.00     0.016 A 
ATOM     34  C   UNL A   1      39.065  30.582  31.963  1.00  0.00     0.010 A 
ATOM     35  C   UNL A   1      37.824  30.909  29.903  1.00  0.00     0.010 A 
ATOM     36  C   UNL A   1      38.967  30.439  30.573  1.00  0.00    -0.014 A 
BRANCH  36  37
ATOM     37  C   UNL A   1      40.126  29.922  29.807  1.00  0.00     0.031 A 
ATOM     38  C   UNL A   1      41.321  30.812  29.616  1.00  0.00     0.074 A 
ATOM     39  C   UNL A   1      40.129  28.667  29.320  1.00  0.00     0.049 A 
ATOM     40  N   UNL A   1      42.434  30.576  28.972  1.00  0.00    -0.248 NA
ATOM     41  C   UNL A   1      41.254  32.144  30.238  1.00  0.00     0.031 C 
ATOM     42  C   UNL A   1      39.050  27.695  29.490  1.00  0.00     0.029 A 
ATOM     43  N   UNL A   1      41.077  27.996  28.590  1.00  0.00    -0.354 N 
ATOM     44  C   UNL A   1      43.207  31.720  29.124  1.00  0.00     0.074 A 
ATOM     45  C   UNL A   1      42.421  32.665  29.889  1.00  0.00     0.031 C 
ATOM     46  C   UNL A   1      39.400  26.548  28.881  1.00  0.00     0.029 A 
ATOM     47  C   UNL A   1      40.709  26.714  28.252  1.00  0.00     0.049 A 
ATOM     48  H   UNL A   1      41.938  28.395  28.332  1.00  0.00     0.167 HD
ATOM     49  C   UNL A   1      44.463  31.957  28.676  1.00  0.00     0.034 A 
ATOM     50  C   UNL A   1      41.352  25.790  27.509  1.00  0.00     0.034 A 
ATOM     51  C   UNL A   1      45.232  31.022  27.897  1.00  0.00     0.049 A 
ATOM     52  C   UNL A   1      42.704  26.118  26.924  1.00  0.00     0.074 A 
ATOM     53  C   UNL A   1      46.509  31.174  27.387  1.00  0.00     0.029 A 
ATOM     54  N   UNL A   1      44.794  29.764  27.509  1.00  0.00    -0.354 N 
ATOM     55  N   UNL A   1      43.412  27.216  27.055  1.00  0.00    -0.248 NA
ATOM     56  C   UNL A   1      43.342  25.087  26.093  1.00  0.00     0.031 C 
ATOM     57  C   UNL A   1      46.821  30.032  26.641  1.00  0.00     0.029 A 
ATOM     58  C   UNL A   1      45.766  29.141  26.744  1.00  0.00     0.049 A 
ATOM     59  H   UNL A   1      43.921  29.372  27.743  1.00  0.00     0.167 HD
ATOM     60  C   UNL A   1      44.591  26.994  26.347  1.00  0.00     0.074 A 
ATOM     61  C   UNL A   1      44.498  25.662  25.787  1.00  0.00     0.031 C 
ATOM     62  C   UNL A   1      45.658  27.815  26.187  1.00  0.00     0.034 A 
BRANCH  49  63
ATOM     63  C   UNL A   1      45.072  33.295  28.994  1.00  0.00     0.023 A 
ATOM     64  C   UNL A   1      44.739  34.442  28.253  1.00  0.00     0.031 A 
ATOM     65  C   UNL A   1      45.977  33.430  30.059  1.00  0.00     0.131 A 
ATOM     66  C   UNL A   1      45.338  35.671  28.566  1.00  0.00     0.055 A 
ATOM     67  C   UNL A   1      46.524  34.667  30.404  1.00  0.00     0.041 A 
ATOM     68  F   UNL A   1      46.342  32.361  30.785  1.00  0.00    -0.206 F 
ATOM     69  C   UNL A   1      46.210  35.795  29.651  1.00  0.00     0.022 A 
BRANCH  66  70
ATOM     70  S   UNL A   1      45.017  37.093  27.490  1.00  0.00     0.124 S 
ATOM     71  O   UNL A   1      43.667  36.802  27.014  1.00  0.00    -0.237 OA
ATOM     72  O   UNL A   1      45.141  38.220  28.406  1.00  0.00    -0.237 OA
ATOM     73  O   UNL A   1      46.065  36.997  26.475  1.00  0.00    -0.744 OA
ENDBRANCH  66  70
ENDBRANCH  49  63
BRANCH  50  74
ATOM     74  C   UNL A   1      40.719  24.466  27.253  1.00  0.00     0.023 A 
ATOM     75  C   UNL A   1      39.510  24.369  26.547  1.00  0.00     0.031 A 
ATOM     76  C   UNL A   1      41.306  23.281  27.729  1.00  0.00     0.131 A 
ATOM     77  C   UNL A   1      38.913  23.114  26.357  1.00  0.00     0.055 A 
ATOM     78  C   UNL A   1      40.728  22.031  27.505  1.00  0.00     0.041 A 
ATOM     79  F   UNL A   1      42.464  23.323  28.409  1.00  0.00    -0.206 F 
ATOM     80  C   UNL A   1      39.519  21.943  26.820  1.00  0.00     0.022 A 
BRANCH  77  81
ATOM     81  S   UNL A   1      37.306  23.033  25.520  1.00  0.00     0.124 S 
ATOM     82  O   UNL A   1      36.517  23.976  26.304  1.00  0.00    -0.237 OA
ATOM     83  O   UNL A   1      37.648  23.452  24.165  1.00  0.00    -0.237 OA
ATOM     84  O   UNL A   1      36.922  21.629  25.657  1.00  0.00    -0.744 OA
ENDBRANCH  77  81
ENDBRANCH  50  74
BRANCH  62  85
ATOM     85  C   UNL A   1      46.839  27.293  25.411  1.00  0.00     0.023 A 
ATOM     86  C   UNL A   1      47.082  27.687  24.086  1.00  0.00     0.031 A 
ATOM     87  C   UNL A   1      47.772  26.449  26.040  1.00  0.00     0.131 A 
ATOM     88  C   UNL A   1      48.228  27.222  23.423  1.00  0.00     0.055 A 
ATOM     89  C   UNL A   1      48.930  26.025  25.390  1.00  0.00     0.041 A 
ATOM     90  F   UNL A   1      47.585  26.051  27.309  1.00  0.00    -0.206 F 
ATOM     91  C   UNL A   1      49.162  26.409  24.073  1.00  0.00     0.022 A 
BRANCH  88  92
ATOM     92  S   UNL A   1      48.486  27.685  21.689  1.00  0.00     0.124 S 
ATOM     93  O   UNL A   1      47.140  28.069  21.276  1.00  0.00    -0.237 OA
ATOM     94  O   UNL A   1      49.454  28.773  21.792  1.00  0.00    -0.237 OA
ATOM     95  O   UNL A   1      48.997  26.461  21.077  1.00  0.00    -0.744 OA
ENDBRANCH  88  92
ENDBRANCH  62  85
ENDBRANCH  36  37
ENDBRANCH  29  31
ENDBRANCH  28  29
ENDBRANCH  27  28
ENDBRANCH  26  27
ENDBRANCH  25  26
ENDBRANCH   1  25
TORSDOF 21
ENDMDL
MODEL 2
REMARK VINA RESULT:     -10.4      2.873      8.874
REMARK SMILES Cc1cc(Cl)c2c(c1)C=C(C(=O)OCCOCCOCCOC(=O)c1ccc(-c3c4nc(c(-c5cc(S(=O)(=O)[O-])ccc5F)c5ccc([nH]5)c(-c5cc(S(=O)(=O)[O-])ccc5F)c5nc(c(-c6cc(S(=O)(=O)[O-])ccc6F)c6ccc3[nH]6)C=C5)C=C4)cc1)[C@@H](C(F)(F)F)O2
REMARK SMILES IDX 18 1 17 2 16 3 15 4 14 5 13 6 11 7 12 8 10 9 1 10 2 11 3 12
REMARK SMILES IDX 8 13 4 14 7 15 5 16 6 17 9 18 93 19 88 20 89 21 90 22 91 23
REMARK SMILES IDX 92 24 19 25 20 26 21 27 22 28 23 29 24 30 25 31 26 32 87 33
REMARK SMILES IDX 27 34 86 35 28 36 29 37 30 38 80 39 31 40 85 41 79 42 81 43
REMARK SMILES IDX 32 44 84 45 78 46 77 47 33 49 65 50 45 51 64 52 46 53 49 54
REMARK SMILES IDX 63 55 82 56 47 57 48 58 62 60 83 61 50 62 34 63 35 64 43 65
REMARK SMILES IDX 36 66 42 67 44 68 41 69 37 70 38 71 39 72 40 73 66 74 67 75
REMARK SMILES IDX 75 76 68 77 74 78 76 79 73 80 69 81 70 82 71 83 72 84 51 85
REMARK SMILES IDX 52 86 60 87 53 88 59 89 61 90 58 91 54 92 55 93 56 94 57 95
REMARK H PARENT 81 48 49 59
REMARK Flexibility Score: inf
ROOT
ATOM      1  C   UNL A   1      35.890  21.162  25.769  1.00  0.00     0.188 C 
ENDROOT
BRANCH   1   2
ATOM      2  C   UNL A   1      34.763  22.041  25.189  1.00  0.00     0.188 C 
BRANCH   2   3
ATOM      3  O   UNL A   1      34.385  21.894  23.837  1.00  0.00    -0.376 OA
BRANCH   3   4
ATOM      4  C   UNL A   1      33.072  21.524  23.456  1.00  0.00     0.202 C 
BRANCH   4   5
ATOM      5  C   UNL A   1      31.808  21.779  24.287  1.00  0.00     0.261 C 
BRANCH   5   6
ATOM      6  O   UNL A   1      31.254  23.094  24.214  1.00  0.00    -0.460 OA
BRANCH   6   7
ATOM      7  C   UNL A   1      30.957  23.653  25.413  1.00  0.00     0.338 C 
ATOM      8  O   UNL A   1      30.792  23.068  26.471  1.00  0.00    -0.246 OA
BRANCH   7   9
ATOM      9  C   UNL A   1      30.963  25.120  25.285  1.00  0.00     0.087 C 
ATOM     10  C   UNL A   1      28.363  29.673  22.048  1.00  0.00     0.044 C 
ATOM     11  C   UNL A   1      29.296  29.052  23.047  1.00  0.00    -0.049 A 
ATOM     12  C   UNL A   1      30.214  29.837  23.752  1.00  0.00     0.028 A 
ATOM     13  C   UNL A   1      29.232  27.678  23.312  1.00  0.00     0.015 A 
ATOM     14  C   UNL A   1      31.064  29.254  24.696  1.00  0.00     0.084 A 
ATOM     15  C   UNL A   1      30.100  27.087  24.240  1.00  0.00     0.019 A 
ATOM     16  Cl  UNL A   1      32.193  30.271  25.520  1.00  0.00    -0.080 Cl
ATOM     17  C   UNL A   1      31.014  27.876  24.947  1.00  0.00     0.146 A 
ATOM     18  C   UNL A   1      30.078  25.648  24.431  1.00  0.00     0.027 C 
ATOM     19  O   UNL A   1      31.868  27.363  25.886  1.00  0.00    -0.474 OA
ATOM     20  C   UNL A   1      31.938  25.929  26.092  1.00  0.00     0.316 C 
BRANCH  20  21
ATOM     21  C   UNL A   1      33.390  25.475  25.878  1.00  0.00     0.430 C 
ATOM     22  F   UNL A   1      33.603  25.088  24.597  1.00  0.00    -0.167 F 
ATOM     23  F   UNL A   1      34.270  26.474  26.126  1.00  0.00    -0.167 F 
ATOM     24  F   UNL A   1      33.724  24.436  26.676  1.00  0.00    -0.167 F 
ENDBRANCH  20  21
ENDBRANCH   7   9
ENDBRANCH   6   7
ENDBRANCH   5   6
ENDBRANCH   4   5
ENDBRANCH   3   4
ENDBRANCH   2   3
ENDBRANCH   1   2
BRANCH   1  25
ATOM     25  O   UNL A   1      36.346  20.016  25.072  1.00  0.00    -0.376 OA
BRANCH  25  26
ATOM     26  C   UNL A   1      37.703  19.965  24.650  1.00  0.00     0.202 C 
BRANCH  26  27
ATOM     27  C   UNL A   1      38.798  20.663  25.464  1.00  0.00     0.261 C 
BRANCH  27  28
ATOM     28  O   UNL A   1      39.443  19.819  26.429  1.00  0.00    -0.460 OA
BRANCH  28  29
ATOM     29  C   UNL A   1      40.796  19.758  26.328  1.00  0.00     0.338 C 
ATOM     30  O   UNL A   1      41.464  18.819  25.929  1.00  0.00    -0.246 OA
BRANCH  29  31
ATOM     31  C   UNL A   1      41.361  21.092  26.601  1.00  0.00     0.060 A 
ATOM     32  C   UNL A   1      41.384  21.546  27.926  1.00  0.00     0.016 A 
ATOM     33  C   UNL A   1      41.835  21.898  25.564  1.00  0.00     0.016 A 
ATOM     34  C   UNL A   1      41.881  22.816  28.218  1.00  0.00     0.010 A 
ATOM     35  C   UNL A   1      42.309  23.180  25.857  1.00  0.00     0.010 A 
ATOM     36  C   UNL A   1      42.319  23.650  27.182  1.00  0.00    -0.014 A 
BRANCH  36  37
ATOM     37  C   UNL A   1      42.654  25.065  27.472  1.00  0.00     0.031 A 
ATOM     38  C   UNL A   1      44.020  25.574  27.108  1.00  0.00     0.074 A 
ATOM     39  C   UNL A   1      41.743  25.893  28.017  1.00  0.00     0.049 A 
ATOM     40  N   UNL A   1      44.532  26.763  27.282  1.00  0.00    -0.248 NA
ATOM     41  C   UNL A   1      44.926  24.615  26.458  1.00  0.00     0.031 C 
ATOM     42  C   UNL A   1      40.370  25.527  28.362  1.00  0.00     0.029 A 
ATOM     43  N   UNL A   1      41.838  27.215  28.370  1.00  0.00    -0.354 N 
ATOM     44  C   UNL A   1      45.814  26.703  26.749  1.00  0.00     0.074 A 
ATOM     45  C   UNL A   1      46.015  25.349  26.280  1.00  0.00     0.031 C 
ATOM     46  C   UNL A   1      39.749  26.604  28.875  1.00  0.00     0.029 A 
ATOM     47  C   UNL A   1      40.687  27.724  28.926  1.00  0.00     0.049 A 
ATOM     48  H   UNL A   1      42.654  27.750  28.237  1.00  0.00     0.167 HD
ATOM     49  C   UNL A   1      46.736  27.691  26.649  1.00  0.00     0.034 A 
ATOM     50  C   UNL A   1      40.429  28.948  29.430  1.00  0.00     0.034 A 
ATOM     51  C   UNL A   1      46.538  29.030  27.137  1.00  0.00     0.049 A 
ATOM     52  C   UNL A   1      41.511  30.001  29.410  1.00  0.00     0.074 A 
ATOM     53  C   UNL A   1      47.416  30.099  27.093  1.00  0.00     0.029 A 
ATOM     54  N   UNL A   1      45.388  29.485  27.765  1.00  0.00    -0.354 N 
ATOM     55  N   UNL A   1      42.729  29.921  28.926  1.00  0.00    -0.248 NA
ATOM     56  C   UNL A   1      41.186  31.306  30.005  1.00  0.00     0.031 C 
ATOM     57  C   UNL A   1      46.820  31.182  27.746  1.00  0.00     0.029 A 
ATOM     58  C   UNL A   1      45.544  30.810  28.136  1.00  0.00     0.049 A 
ATOM     59  H   UNL A   1      44.580  28.945  27.924  1.00  0.00     0.167 HD
ATOM     60  C   UNL A   1      43.302  31.173  29.132  1.00  0.00     0.074 A 
ATOM     61  C   UNL A   1      42.302  31.989  29.788  1.00  0.00     0.031 C 
ATOM     62  C   UNL A   1      44.541  31.610  28.795  1.00  0.00     0.034 A 
BRANCH  49  63
ATOM     63  C   UNL A   1      48.055  27.347  26.013  1.00  0.00     0.023 A 
ATOM     64  C   UNL A   1      49.108  26.803  26.767  1.00  0.00     0.031 A 
ATOM     65  C   UNL A   1      48.254  27.545  24.637  1.00  0.00     0.131 A 
ATOM     66  C   UNL A   1      50.330  26.509  26.144  1.00  0.00     0.055 A 
ATOM     67  C   UNL A   1      49.451  27.196  24.012  1.00  0.00     0.041 A 
ATOM     68  F   UNL A   1      47.284  28.081  23.877  1.00  0.00    -0.206 F 
ATOM     69  C   UNL A   1      50.500  26.680  24.768  1.00  0.00     0.022 A 
BRANCH  66  70
ATOM     70  S   UNL A   1      51.720  25.967  27.172  1.00  0.00     0.124 S 
ATOM     71  O   UNL A   1      52.598  27.133  27.117  1.00  0.00    -0.237 OA
ATOM     72  O   UNL A   1      51.084  25.708  28.458  1.00  0.00    -0.237 OA
ATOM     73  O   UNL A   1      52.221  24.783  26.475  1.00  0.00    -0.744 OA
ENDBRANCH  66  70
ENDBRANCH  49  63
BRANCH  50  74
ATOM     74  C   UNL A   1      39.094  29.248  30.018  1.00  0.00     0.023 A 
ATOM     75  C   UNL A   1      38.121  29.942  29.282  1.00  0.00     0.031 A 
ATOM     76  C   UNL A   1      38.780  28.861  31.332  1.00  0.00     0.131 A 
ATOM     77  C   UNL A   1      36.888  30.251  29.874  1.00  0.00     0.055 A 
ATOM     78  C   UNL A   1      37.538  29.136  31.904  1.00  0.00     0.041 A 
ATOM     79  F   UNL A   1      39.678  28.193  32.075  1.00  0.00    -0.206 F 
ATOM     80  C   UNL A   1      36.584  29.842  31.175  1.00  0.00     0.022 A 
BRANCH  77  81
ATOM     81  S   UNL A   1      35.688  31.227  28.927  1.00  0.00     0.124 S 
ATOM     82  O   UNL A   1      34.907  30.182  28.275  1.00  0.00    -0.237 OA
ATOM     83  O   UNL A   1      35.008  31.976  29.978  1.00  0.00    -0.237 OA
ATOM     84  O   UNL A   1      36.528  32.028  28.038  1.00  0.00    -0.744 OA
ENDBRANCH  77  81
ENDBRANCH  50  74
BRANCH  62  85
ATOM     85  C   UNL A   1      44.884  33.047  29.086  1.00  0.00     0.023 A 
ATOM     86  C   UNL A   1      44.577  34.076  28.181  1.00  0.00     0.031 A 
ATOM     87  C   UNL A   1      45.456  33.394  30.322  1.00  0.00     0.131 A 
ATOM     88  C   UNL A   1      44.861  35.407  28.520  1.00  0.00     0.055 A 
ATOM     89  C   UNL A   1      45.697  34.722  30.672  1.00  0.00     0.041 A 
ATOM     90  F   UNL A   1      45.761  32.445  31.223  1.00  0.00    -0.206 F 
ATOM     91  C   UNL A   1      45.401  35.738  29.767  1.00  0.00     0.022 A 
BRANCH  88  92
ATOM     92  S   UNL A   1      44.523  36.712  27.308  1.00  0.00     0.124 S 
ATOM     93  O   UNL A   1      45.776  36.765  26.563  1.00  0.00    -0.237 OA
ATOM     94  O   UNL A   1      43.373  36.180  26.582  1.00  0.00    -0.237 OA
ATOM     95  O   UNL A   1      44.242  37.885  28.133  1.00  0.00    -0.744 OA
ENDBRANCH  88  92
ENDBRANCH  62  85
ENDBRANCH  36  37
ENDBRANCH  29  31
ENDBRANCH  28  29
ENDBRANCH  27  28
ENDBRANCH  26  27
ENDBRANCH  25  26
ENDBRANCH   1  25
TORSDOF 21
ENDMDL
MODEL 3
REMARK VINA RESULT:     -10.3      2.733      8.843
REMARK SMILES Cc1cc(Cl)c2c(c1)C=C(C(=O)OCCOCCOCCOC(=O)c1ccc(-c3c4nc(c(-c5cc(S(=O)(=O)[O-])ccc5F)c5ccc([nH]5)c(-c5cc(S(=O)(=O)[O-])ccc5F)c5nc(c(-c6cc(S(=O)(=O)[O-])ccc6F)c6ccc3[nH]6)C=C5)C=C4)cc1)[C@@H](C(F)(F)F)O2
REMARK SMILES IDX 18 1 17 2 16 3 15 4 14 5 13 6 11 7 12 8 10 9 1 10 2 11 3 12
REMARK SMILES IDX 8 13 4 14 7 15 5 16 6 17 9 18 93 19 88 20 89 21 90 22 91 23
REMARK SMILES IDX 92 24 19 25 20 26 21 27 22 28 23 29 24 30 25 31 26 32 87 33
REMARK SMILES IDX 27 34 86 35 28 36 29 37 30 38 80 39 31 40 85 41 79 42 81 43
REMARK SMILES IDX 32 44 84 45 78 46 77 47 33 49 65 50 45 51 64 52 46 53 49 54
REMARK SMILES IDX 63 55 82 56 47 57 48 58 62 60 83 61 50 62 34 63 35 64 43 65
REMARK SMILES IDX 36 66 42 67 44 68 41 69 37 70 38 71 39 72 40 73 66 74 67 75
REMARK SMILES IDX 75 76 68 77 74 78 76 79 73 80 69 81 70 82 71 83 72 84 51 85
REMARK SMILES IDX 52 86 60 87 53 88 59 89 61 90 58 91 54 92 55 93 56 94 57 95
REMARK H PARENT 81 48 49 59
REMARK Flexibility Score: inf
ROOT
ATOM      1  C   UNL A   1      36.354  21.758  25.537  1.00  0.00     0.188 C 
ENDROOT
BRANCH   1   2
ATOM      2  C   UNL A   1      35.137  21.398  24.659  1.00  0.00     0.188 C 
BRANCH   2   3
ATOM      3  O   UNL A   1      33.999  20.806  25.248  1.00  0.00    -0.376 OA
BRANCH   3   4
ATOM      4  C   UNL A   1      32.684  21.098  24.811  1.00  0.00     0.202 C 
BRANCH   4   5
ATOM      5  C   UNL A   1      32.300  22.262  23.888  1.00  0.00     0.261 C 
BRANCH   5   6
ATOM      6  O   UNL A   1      31.051  22.902  24.157  1.00  0.00    -0.460 OA
BRANCH   6   7
ATOM      7  C   UNL A   1      30.959  23.474  25.382  1.00  0.00     0.338 C 
ATOM      8  O   UNL A   1      30.933  22.898  26.458  1.00  0.00    -0.246 OA
BRANCH   7   9
ATOM      9  C   UNL A   1      30.998  24.940  25.244  1.00  0.00     0.087 C 
ATOM     10  C   UNL A   1      28.326  29.550  22.149  1.00  0.00     0.044 C 
ATOM     11  C   UNL A   1      29.304  28.907  23.090  1.00  0.00    -0.049 A 
ATOM     12  C   UNL A   1      30.288  29.668  23.729  1.00  0.00     0.028 A 
ATOM     13  C   UNL A   1      29.218  27.537  23.369  1.00  0.00     0.015 A 
ATOM     14  C   UNL A   1      31.181  29.065  24.619  1.00  0.00     0.084 A 
ATOM     15  C   UNL A   1      30.127  26.925  24.242  1.00  0.00     0.019 A 
ATOM     16  Cl  UNL A   1      32.389  30.054  25.362  1.00  0.00    -0.080 Cl
ATOM     17  C   UNL A   1      31.107  27.691  24.883  1.00  0.00     0.146 A 
ATOM     18  C   UNL A   1      30.075  25.488  24.445  1.00  0.00     0.027 C 
ATOM     19  O   UNL A   1      32.005  27.159  25.768  1.00  0.00    -0.474 OA
ATOM     20  C   UNL A   1      32.046  25.724  25.980  1.00  0.00     0.316 C 
BRANCH  20  21
ATOM     21  C   UNL A   1      33.468  25.226  25.676  1.00  0.00     0.430 C 
ATOM     22  F   UNL A   1      34.399  26.149  26.020  1.00  0.00    -0.167 F 
ATOM     23  F   UNL A   1      33.767  24.104  26.373  1.00  0.00    -0.167 F 
ATOM     24  F   UNL A   1      33.641  24.945  24.365  1.00  0.00    -0.167 F 
ENDBRANCH  20  21
ENDBRANCH   7   9
ENDBRANCH   6   7
ENDBRANCH   5   6
ENDBRANCH   4   5
ENDBRANCH   3   4
ENDBRANCH   2   3
ENDBRANCH   1   2
BRANCH   1  25
ATOM     25  O   UNL A   1      37.580  21.063  25.394  1.00  0.00    -0.376 OA
BRANCH  25  26
ATOM     26  C   UNL A   1      38.794  21.753  25.657  1.00  0.00     0.202 C 
BRANCH  26  27
ATOM     27  C   UNL A   1      39.830  21.167  26.623  1.00  0.00     0.261 C 
BRANCH  27  28
ATOM     28  O   UNL A   1      40.347  19.888  26.228  1.00  0.00    -0.460 OA
BRANCH  28  29
ATOM     29  C   UNL A   1      41.692  19.840  26.049  1.00  0.00     0.338 C 
ATOM     30  O   UNL A   1      42.344  18.912  25.604  1.00  0.00    -0.246 OA
BRANCH  29  31
ATOM     31  C   UNL A   1      42.260  21.177  26.303  1.00  0.00     0.060 A 
ATOM     32  C   UNL A   1      42.516  21.551  27.628  1.00  0.00     0.016 A 
ATOM     33  C   UNL A   1      42.510  22.063  25.253  1.00  0.00     0.016 A 
ATOM     34  C   UNL A   1      43.022  22.820  27.909  1.00  0.00     0.010 A 
ATOM     35  C   UNL A   1      42.992  23.343  25.539  1.00  0.00     0.010 A 
ATOM     36  C   UNL A   1      43.235  23.732  26.868  1.00  0.00    -0.014 A 
BRANCH  36  37
ATOM     37  C   UNL A   1      43.578  25.139  27.186  1.00  0.00     0.031 A 
ATOM     38  C   UNL A   1      44.978  25.619  26.925  1.00  0.00     0.074 A 
ATOM     39  C   UNL A   1      42.648  25.986  27.664  1.00  0.00     0.049 A 
ATOM     40  N   UNL A   1      45.501  26.797  27.139  1.00  0.00    -0.248 NA
ATOM     41  C   UNL A   1      45.909  24.641  26.341  1.00  0.00     0.031 C 
ATOM     42  C   UNL A   1      41.245  25.649  27.905  1.00  0.00     0.029 A 
ATOM     43  N   UNL A   1      42.744  27.306  28.026  1.00  0.00    -0.354 N 
ATOM     44  C   UNL A   1      46.818  26.710  26.702  1.00  0.00     0.074 A 
ATOM     45  C   UNL A   1      47.023  25.352  26.246  1.00  0.00     0.031 C 
ATOM     46  C   UNL A   1      40.611  26.739  28.373  1.00  0.00     0.029 A 
ATOM     47  C   UNL A   1      41.567  27.839  28.496  1.00  0.00     0.049 A 
ATOM     48  H   UNL A   1      43.579  27.823  27.955  1.00  0.00     0.167 HD
ATOM     49  C   UNL A   1      47.765  27.677  26.673  1.00  0.00     0.034 A 
ATOM     50  C   UNL A   1      41.298  29.068  28.983  1.00  0.00     0.034 A 
ATOM     51  C   UNL A   1      47.560  29.021  27.149  1.00  0.00     0.049 A 
ATOM     52  C   UNL A   1      42.401  30.097  29.046  1.00  0.00     0.074 A 
ATOM     53  C   UNL A   1      48.462  30.070  27.172  1.00  0.00     0.029 A 
ATOM     54  N   UNL A   1      46.377  29.499  27.691  1.00  0.00    -0.354 N 
ATOM     55  N   UNL A   1      43.649  29.991  28.653  1.00  0.00    -0.248 NA
ATOM     56  C   UNL A   1      42.060  31.408  29.618  1.00  0.00     0.031 C 
ATOM     57  C   UNL A   1      47.842  31.165  27.782  1.00  0.00     0.029 A 
ATOM     58  C   UNL A   1      46.533  30.820  28.075  1.00  0.00     0.049 A 
ATOM     59  H   UNL A   1      45.548  28.977  27.788  1.00  0.00     0.167 HD
ATOM     60  C   UNL A   1      44.232  31.230  28.904  1.00  0.00     0.074 A 
ATOM     61  C   UNL A   1      43.204  32.067  29.486  1.00  0.00     0.031 C 
ATOM     62  C   UNL A   1      45.501  31.641  28.661  1.00  0.00     0.034 A 
BRANCH  49  63
ATOM     63  C   UNL A   1      49.120  27.306  26.136  1.00  0.00     0.023 A 
ATOM     64  C   UNL A   1      49.485  27.602  24.812  1.00  0.00     0.031 A 
ATOM     65  C   UNL A   1      50.062  26.670  26.960  1.00  0.00     0.131 A 
ATOM     66  C   UNL A   1      50.750  27.227  24.338  1.00  0.00     0.055 A 
ATOM     67  C   UNL A   1      51.341  26.353  26.501  1.00  0.00     0.041 A 
ATOM     68  F   UNL A   1      49.754  26.348  28.227  1.00  0.00    -0.206 F 
ATOM     69  C   UNL A   1      51.689  26.625  25.181  1.00  0.00     0.022 A 
BRANCH  66  70
ATOM     70  S   UNL A   1      51.129  27.471  22.584  1.00  0.00     0.124 S 
ATOM     71  O   UNL A   1      50.015  26.776  21.943  1.00  0.00    -0.237 OA
ATOM     72  O   UNL A   1      51.130  28.924  22.457  1.00  0.00    -0.237 OA
ATOM     73  O   UNL A   1      52.433  26.831  22.422  1.00  0.00    -0.744 OA
ENDBRANCH  66  70
ENDBRANCH  49  63
BRANCH  50  74
ATOM     74  C   UNL A   1      39.930  29.395  29.471  1.00  0.00     0.023 A 
ATOM     75  C   UNL A   1      39.631  29.380  30.842  1.00  0.00     0.031 A 
ATOM     76  C   UNL A   1      38.897  29.709  28.571  1.00  0.00     0.131 A 
ATOM     77  C   UNL A   1      38.323  29.649  31.274  1.00  0.00     0.055 A 
ATOM     78  C   UNL A   1      37.607  30.014  29.007  1.00  0.00     0.041 A 
ATOM     79  F   UNL A   1      39.135  29.738  27.250  1.00  0.00    -0.206 F 
ATOM     80  C   UNL A   1      37.312  29.978  30.367  1.00  0.00     0.022 A 
BRANCH  77  81
ATOM     81  S   UNL A   1      37.950  29.532  33.045  1.00  0.00     0.124 S 
ATOM     82  O   UNL A   1      39.272  29.700  33.636  1.00  0.00    -0.237 OA
ATOM     83  O   UNL A   1      37.017  30.638  33.233  1.00  0.00    -0.237 OA
ATOM     84  O   UNL A   1      37.368  28.198  33.182  1.00  0.00    -0.744 OA
ENDBRANCH  77  81
ENDBRANCH  50  74
BRANCH  62  85
ATOM     85  C   UNL A   1      45.853  33.070  28.980  1.00  0.00     0.023 A 
ATOM     86  C   UNL A   1      45.686  34.098  28.037  1.00  0.00     0.031 A 
ATOM     87  C   UNL A   1      46.286  33.413  30.272  1.00  0.00     0.131 A 
ATOM     88  C   UNL A   1      45.970  35.424  28.399  1.00  0.00     0.055 A 
ATOM     89  C   UNL A   1      46.526  34.737  30.638  1.00  0.00     0.041 A 
ATOM     90  F   UNL A   1      46.454  32.465  31.209  1.00  0.00    -0.206 F 
ATOM     91  C   UNL A   1      46.370  35.751  29.698  1.00  0.00     0.022 A 
BRANCH  88  92
ATOM     92  S   UNL A   1      45.817  36.725  27.145  1.00  0.00     0.124 S 
ATOM     93  O   UNL A   1      46.515  37.839  27.779  1.00  0.00    -0.237 OA
ATOM     94  O   UNL A   1      46.483  36.132  25.990  1.00  0.00    -0.237 OA
ATOM     95  O   UNL A   1      44.373  36.898  27.003  1.00  0.00    -0.744 OA
ENDBRANCH  88  92
ENDBRANCH  62  85
ENDBRANCH  36  37
ENDBRANCH  29  31
ENDBRANCH  28  29
ENDBRANCH  27  28
ENDBRANCH  26  27
ENDBRANCH  25  26
ENDBRANCH   1  25
TORSDOF 21
ENDMDL
