MODEL 1
REMARK VINA RESULT:     -10.9      0.000      0.000
REMARK SMILES NS(=O)(=O)c1ccc(-n2nc(C(F)F)cc2-c2ccc(C(=O)OCCOCCOCCOC(=O)c3ccc(-c4c5nc(c(-c6cc(S(=O)(=O)[O-])ccc6F)c6ccc([nH]6)c(-c6cc(S(=O)(=O)[O-])ccc6F)c6nc(c(-c7cc(S(=O)(=O)[O-])ccc7F)c7ccc4[nH]7)C=C6)C=C5)cc3)cc2)cc1
REMARK SMILES IDX 27 1 26 2 25 3 24 4 23 5 21 6 22 7 20 8 17 9 18 10 99 11
REMARK SMILES IDX 19 12 98 13 16 14 9 15 10 16 11 17 15 18 8 19 5 20 6 21
REMARK SMILES IDX 101 22 7 23 100 24 2 25 3 26 4 27 1 28 12 31 13 32 14 33
REMARK SMILES IDX 28 34 29 35 30 36 31 37 32 38 33 39 34 40 35 41 36 42 97 43
REMARK SMILES IDX 37 44 96 45 38 46 39 47 40 48 90 49 41 50 95 51 89 52 91 53
REMARK SMILES IDX 42 54 94 55 88 56 87 57 43 59 75 60 55 61 74 62 56 63 59 64
REMARK SMILES IDX 73 65 92 66 57 67 58 68 72 70 93 71 60 72 44 73 45 74 53 75
REMARK SMILES IDX 46 76 52 77 54 78 51 79 47 80 48 81 49 82 50 83 76 84 77 85
REMARK SMILES IDX 85 86 78 87 84 88 86 89 83 90 79 91 80 92 81 93 82 94 61 95
REMARK SMILES IDX 62 96 70 97 63 98 69 99 71 100 68 101 64 102 65 103 66 104
REMARK SMILES IDX 67 105
REMARK H PARENT 1 29 1 30 91 58 59 69
REMARK Flexibility Score: inf
ROOT
ATOM      1  C   UNL A   1      47.044  30.913  29.344  1.00  0.00     0.188 C 
ENDROOT
BRANCH   1   2
ATOM      2  O   UNL A   1      46.200  30.066  30.088  1.00  0.00    -0.376 OA
BRANCH   2   3
ATOM      3  C   UNL A   1      46.680  28.874  30.683  1.00  0.00     0.202 C 
BRANCH   3   4
ATOM      4  C   UNL A   1      45.823  27.732  31.268  1.00  0.00     0.261 C 
BRANCH   4   5
ATOM      5  O   UNL A   1      45.545  26.608  30.432  1.00  0.00    -0.460 OA
BRANCH   5   6
ATOM      6  C   UNL A   1      44.901  25.581  31.036  1.00  0.00     0.338 C 
ATOM      7  O   UNL A   1      44.940  25.283  32.218  1.00  0.00    -0.246 OA
BRANCH   6   8
ATOM      8  C   UNL A   1      43.976  24.937  30.079  1.00  0.00     0.060 A 
ATOM      9  C   UNL A   1      42.077  23.850  28.331  1.00  0.00     0.000 A 
ATOM     10  C   UNL A   1      42.370  25.220  28.293  1.00  0.00     0.011 A 
ATOM     11  C   UNL A   1      42.792  23.019  29.204  1.00  0.00     0.011 A 
ATOM     12  C   UNL A   1      43.307  25.764  29.171  1.00  0.00     0.016 A 
ATOM     13  C   UNL A   1      43.752  23.557  30.071  1.00  0.00     0.016 A 
BRANCH   9  14
ATOM     14  C   UNL A   1      40.928  23.336  27.583  1.00  0.00     0.075 A 
ATOM     15  N   UNL A   1      40.966  22.529  26.450  1.00  0.00    -0.233 N 
ATOM     16  N   UNL A   1      39.799  22.589  25.754  1.00  0.00    -0.166 NA
ATOM     17  C   UNL A   1      38.948  23.248  26.559  1.00  0.00     0.129 A 
ATOM     18  C   UNL A   1      39.612  23.740  27.704  1.00  0.00     0.060 A 
BRANCH  15  19
ATOM     19  C   UNL A   1      42.039  21.724  25.990  1.00  0.00     0.065 A 
ATOM     20  C   UNL A   1      44.217  20.164  25.238  1.00  0.00     0.082 A 
ATOM     21  C   UNL A   1      43.103  19.554  25.819  1.00  0.00     0.024 A 
ATOM     22  C   UNL A   1      44.228  21.539  24.976  1.00  0.00     0.024 A 
ATOM     23  C   UNL A   1      42.017  20.339  26.208  1.00  0.00     0.030 A 
ATOM     24  C   UNL A   1      43.124  22.319  25.332  1.00  0.00     0.030 A 
BRANCH  20  25
ATOM     25  S   UNL A   1      45.657  19.194  24.884  1.00  0.00     0.238 S 
ATOM     26  O   UNL A   1      46.801  19.950  25.313  1.00  0.00    -0.207 OA
ATOM     27  O   UNL A   1      45.515  18.649  23.548  1.00  0.00    -0.207 OA
BRANCH  25  28
ATOM     28  N   UNL A   1      45.521  17.882  25.923  1.00  0.00    -0.225 NA
ATOM     29  H   UNL A   1      46.294  17.238  25.759  1.00  0.00     0.137 HD
ATOM     30  H   UNL A   1      44.636  17.403  25.753  1.00  0.00     0.137 HD
ENDBRANCH  25  28
ENDBRANCH  20  25
ENDBRANCH  15  19
BRANCH  17  31
ATOM     31  C   UNL A   1      37.502  23.459  26.222  1.00  0.00     0.393 C 
ATOM     32  F   UNL A   1      37.320  24.069  25.020  1.00  0.00    -0.203 F 
ATOM     33  F   UNL A   1      36.821  22.281  26.173  1.00  0.00    -0.203 F 
ENDBRANCH  17  31
ENDBRANCH   9  14
ENDBRANCH   6   8
ENDBRANCH   5   6
ENDBRANCH   4   5
ENDBRANCH   3   4
ENDBRANCH   2   3
ENDBRANCH   1   2
BRANCH   1  34
ATOM     34  C   UNL A   1      46.510  31.496  28.021  1.00  0.00     0.188 C 
BRANCH  34  35
ATOM     35  O   UNL A   1      46.344  32.889  27.844  1.00  0.00    -0.376 OA
BRANCH  35  36
ATOM     36  C   UNL A   1      46.833  33.568  26.699  1.00  0.00     0.202 C 
BRANCH  36  37
ATOM     37  C   UNL A   1      46.298  34.899  26.178  1.00  0.00     0.261 C 
BRANCH  37  38
ATOM     38  O   UNL A   1      45.017  35.291  26.631  1.00  0.00    -0.460 OA
BRANCH  38  39
ATOM     39  C   UNL A   1      45.067  36.327  27.496  1.00  0.00     0.338 C 
ATOM     40  O   UNL A   1      45.830  37.280  27.453  1.00  0.00    -0.246 OA
BRANCH  39  41
ATOM     41  C   UNL A   1      44.156  36.078  28.612  1.00  0.00     0.060 A 
ATOM     42  C   UNL A   1      44.489  35.022  29.457  1.00  0.00     0.016 A 
ATOM     43  C   UNL A   1      42.884  36.670  28.623  1.00  0.00     0.016 A 
ATOM     44  C   UNL A   1      43.482  34.427  30.179  1.00  0.00     0.010 A 
ATOM     45  C   UNL A   1      41.877  36.072  29.349  1.00  0.00     0.010 A 
ATOM     46  C   UNL A   1      42.170  34.910  30.055  1.00  0.00    -0.014 A 
BRANCH  46  47
ATOM     47  C   UNL A   1      41.147  34.240  30.832  1.00  0.00     0.031 A 
ATOM     48  C   UNL A   1      41.577  33.998  32.226  1.00  0.00     0.074 A 
ATOM     49  C   UNL A   1      39.926  33.911  30.372  1.00  0.00     0.049 A 
ATOM     50  N   UNL A   1      41.852  32.860  32.763  1.00  0.00    -0.248 NA
ATOM     51  C   UNL A   1      41.942  35.161  33.050  1.00  0.00     0.031 C 
ATOM     52  C   UNL A   1      39.303  34.283  29.103  1.00  0.00     0.029 A 
ATOM     53  N   UNL A   1      38.934  33.230  31.010  1.00  0.00    -0.354 N 
ATOM     54  C   UNL A   1      42.177  33.145  34.080  1.00  0.00     0.074 A 
ATOM     55  C   UNL A   1      42.419  34.561  34.139  1.00  0.00     0.031 C 
ATOM     56  C   UNL A   1      37.977  34.025  29.167  1.00  0.00     0.029 A 
ATOM     57  C   UNL A   1      37.677  33.364  30.429  1.00  0.00     0.049 A 
ATOM     58  H   UNL A   1      39.093  32.687  31.815  1.00  0.00     0.167 HD
ATOM     59  C   UNL A   1      41.933  32.234  35.059  1.00  0.00     0.034 A 
ATOM     60  C   UNL A   1      36.478  33.027  30.984  1.00  0.00     0.034 A 
ATOM     61  C   UNL A   1      41.846  30.895  34.519  1.00  0.00     0.049 A 
ATOM     62  C   UNL A   1      36.762  31.989  32.011  1.00  0.00     0.074 A 
ATOM     63  C   UNL A   1      42.682  30.136  33.716  1.00  0.00     0.029 A 
ATOM     64  N   UNL A   1      40.610  30.290  34.426  1.00  0.00    -0.354 N 
ATOM     65  N   UNL A   1      37.210  30.798  31.718  1.00  0.00    -0.248 NA
ATOM     66  C   UNL A   1      37.031  32.432  33.372  1.00  0.00     0.031 C 
ATOM     67  C   UNL A   1      41.811  29.486  32.793  1.00  0.00     0.029 A 
ATOM     68  C   UNL A   1      40.498  29.797  33.146  1.00  0.00     0.049 A 
ATOM     69  H   UNL A   1      39.937  30.225  35.140  1.00  0.00     0.167 HD
ATOM     70  C   UNL A   1      38.182  30.536  32.673  1.00  0.00     0.074 A 
ATOM     71  C   UNL A   1      37.969  31.542  33.713  1.00  0.00     0.031 C 
ATOM     72  C   UNL A   1      39.247  29.718  32.411  1.00  0.00     0.034 A 
BRANCH  59  73
ATOM     73  C   UNL A   1      41.389  32.623  36.412  1.00  0.00     0.023 A 
ATOM     74  C   UNL A   1      40.056  32.284  36.694  1.00  0.00     0.031 A 
ATOM     75  C   UNL A   1      41.993  33.544  37.303  1.00  0.00     0.131 A 
ATOM     76  C   UNL A   1      39.365  32.908  37.746  1.00  0.00     0.055 A 
ATOM     77  C   UNL A   1      41.325  34.102  38.393  1.00  0.00     0.041 A 
ATOM     78  F   UNL A   1      43.224  34.036  37.120  1.00  0.00    -0.206 F 
ATOM     79  C   UNL A   1      39.992  33.810  38.603  1.00  0.00     0.022 A 
BRANCH  76  80
ATOM     80  S   UNL A   1      37.576  32.660  37.859  1.00  0.00     0.124 S 
ATOM     81  O   UNL A   1      37.113  33.348  36.658  1.00  0.00    -0.237 OA
ATOM     82  O   UNL A   1      37.475  31.205  37.847  1.00  0.00    -0.237 OA
ATOM     83  O   UNL A   1      37.225  33.300  39.124  1.00  0.00    -0.744 OA
ENDBRANCH  76  80
ENDBRANCH  59  73
BRANCH  60  84
ATOM     84  C   UNL A   1      35.197  33.798  30.917  1.00  0.00     0.023 A 
ATOM     85  C   UNL A   1      34.804  34.732  31.905  1.00  0.00     0.031 A 
ATOM     86  C   UNL A   1      34.435  33.799  29.724  1.00  0.00     0.131 A 
ATOM     87  C   UNL A   1      33.707  35.601  31.678  1.00  0.00     0.055 A 
ATOM     88  C   UNL A   1      33.353  34.654  29.509  1.00  0.00     0.041 A 
ATOM     89  F   UNL A   1      34.766  33.025  28.680  1.00  0.00    -0.206 F 
ATOM     90  C   UNL A   1      32.990  35.569  30.482  1.00  0.00     0.022 A 
BRANCH  87  91
ATOM     91  S   UNL A   1      33.244  36.872  32.905  1.00  0.00     0.124 S 
ATOM     92  O   UNL A   1      31.838  36.572  33.147  1.00  0.00    -0.237 OA
ATOM     93  O   UNL A   1      34.165  36.605  34.003  1.00  0.00    -0.237 OA
ATOM     94  O   UNL A   1      33.489  38.132  32.199  1.00  0.00    -0.744 OA
ENDBRANCH  87  91
ENDBRANCH  60  84
BRANCH  72  95
ATOM     95  C   UNL A   1      39.223  28.828  31.180  1.00  0.00     0.023 A 
ATOM     96  C   UNL A   1      39.753  29.163  29.912  1.00  0.00     0.031 A 
ATOM     97  C   UNL A   1      38.735  27.518  31.349  1.00  0.00     0.131 A 
ATOM     98  C   UNL A   1      39.769  28.204  28.876  1.00  0.00     0.055 A 
ATOM     99  C   UNL A   1      38.776  26.566  30.330  1.00  0.00     0.041 A 
ATOM    100  F   UNL A   1      38.233  27.124  32.531  1.00  0.00    -0.206 F 
ATOM    101  C   UNL A   1      39.287  26.908  29.087  1.00  0.00     0.022 A 
BRANCH  98 102
ATOM    102  S   UNL A   1      40.396  28.624  27.216  1.00  0.00     0.124 S 
ATOM    103  O   UNL A   1      39.364  29.497  26.669  1.00  0.00    -0.237 OA
ATOM    104  O   UNL A   1      41.679  29.257  27.514  1.00  0.00    -0.237 OA
ATOM    105  O   UNL A   1      40.504  27.322  26.554  1.00  0.00    -0.744 OA
ENDBRANCH  98 102
ENDBRANCH  72  95
ENDBRANCH  46  47
ENDBRANCH  39  41
ENDBRANCH  38  39
ENDBRANCH  37  38
ENDBRANCH  36  37
ENDBRANCH  35  36
ENDBRANCH  34  35
ENDBRANCH   1  34
TORSDOF 25
ENDMDL
MODEL 2
REMARK VINA RESULT:     -10.0      4.968     11.059
REMARK SMILES NS(=O)(=O)c1ccc(-n2nc(C(F)F)cc2-c2ccc(C(=O)OCCOCCOCCOC(=O)c3ccc(-c4c5nc(c(-c6cc(S(=O)(=O)[O-])ccc6F)c6ccc([nH]6)c(-c6cc(S(=O)(=O)[O-])ccc6F)c6nc(c(-c7cc(S(=O)(=O)[O-])ccc7F)c7ccc4[nH]7)C=C6)C=C5)cc3)cc2)cc1
REMARK SMILES IDX 27 1 26 2 25 3 24 4 23 5 21 6 22 7 20 8 17 9 18 10 99 11
REMARK SMILES IDX 19 12 98 13 16 14 9 15 10 16 11 17 15 18 8 19 5 20 6 21
REMARK SMILES IDX 101 22 7 23 100 24 2 25 3 26 4 27 1 28 12 31 13 32 14 33
REMARK SMILES IDX 28 34 29 35 30 36 31 37 32 38 33 39 34 40 35 41 36 42 97 43
REMARK SMILES IDX 37 44 96 45 38 46 39 47 40 48 90 49 41 50 95 51 89 52 91 53
REMARK SMILES IDX 42 54 94 55 88 56 87 57 43 59 75 60 55 61 74 62 56 63 59 64
REMARK SMILES IDX 73 65 92 66 57 67 58 68 72 70 93 71 60 72 44 73 45 74 53 75
REMARK SMILES IDX 46 76 52 77 54 78 51 79 47 80 48 81 49 82 50 83 76 84 77 85
REMARK SMILES IDX 85 86 78 87 84 88 86 89 83 90 79 91 80 92 81 93 82 94 61 95
REMARK SMILES IDX 62 96 70 97 63 98 69 99 71 100 68 101 64 102 65 103 66 104
REMARK SMILES IDX 67 105
REMARK H PARENT 1 29 1 30 91 58 59 69
REMARK Flexibility Score: inf
ROOT
ATOM      1  C   UNL A   1      33.900  23.029  26.421  1.00  0.00     0.188 C 
ENDROOT
BRANCH   1   2
ATOM      2  O   UNL A   1      32.782  22.303  25.967  1.00  0.00    -0.376 OA
BRANCH   2   3
ATOM      3  C   UNL A   1      32.916  21.216  25.069  1.00  0.00     0.202 C 
BRANCH   3   4
ATOM      4  C   UNL A   1      32.653  21.245  23.549  1.00  0.00     0.261 C 
BRANCH   4   5
ATOM      5  O   UNL A   1      32.031  22.407  22.999  1.00  0.00    -0.460 OA
BRANCH   5   6
ATOM      6  C   UNL A   1      32.857  23.454  22.770  1.00  0.00     0.338 C 
ATOM      7  O   UNL A   1      34.034  23.406  22.451  1.00  0.00    -0.246 OA
BRANCH   6   8
ATOM      8  C   UNL A   1      32.087  24.716  22.792  1.00  0.00     0.060 A 
ATOM      9  C   UNL A   1      30.807  27.207  22.805  1.00  0.00     0.000 A 
ATOM     10  C   UNL A   1      31.605  26.828  21.717  1.00  0.00     0.011 A 
ATOM     11  C   UNL A   1      30.601  26.301  23.854  1.00  0.00     0.011 A 
ATOM     12  C   UNL A   1      32.252  25.593  21.715  1.00  0.00     0.016 A 
ATOM     13  C   UNL A   1      31.229  25.048  23.845  1.00  0.00     0.016 A 
BRANCH   9  14
ATOM     14  C   UNL A   1      30.336  28.590  22.908  1.00  0.00     0.075 A 
ATOM     15  N   UNL A   1      30.663  29.508  23.901  1.00  0.00    -0.233 N 
ATOM     16  N   UNL A   1      29.754  30.518  23.967  1.00  0.00    -0.166 NA
ATOM     17  C   UNL A   1      28.984  30.364  22.877  1.00  0.00     0.129 A 
ATOM     18  C   UNL A   1      29.306  29.170  22.194  1.00  0.00     0.060 A 
BRANCH  15  19
ATOM     19  C   UNL A   1      31.769  29.475  24.788  1.00  0.00     0.065 A 
ATOM     20  C   UNL A   1      33.974  29.570  26.483  1.00  0.00     0.082 A 
ATOM     21  C   UNL A   1      32.720  29.951  26.965  1.00  0.00     0.024 A 
ATOM     22  C   UNL A   1      34.125  29.086  25.178  1.00  0.00     0.024 A 
ATOM     23  C   UNL A   1      31.618  29.916  26.111  1.00  0.00     0.030 A 
ATOM     24  C   UNL A   1      33.013  29.015  24.334  1.00  0.00     0.030 A 
BRANCH  20  25
ATOM     25  S   UNL A   1      35.400  29.758  27.517  1.00  0.00     0.238 S 
ATOM     26  O   UNL A   1      36.535  29.276  26.779  1.00  0.00    -0.207 OA
ATOM     27  O   UNL A   1      35.057  29.292  28.847  1.00  0.00    -0.207 OA
BRANCH  25  28
ATOM     28  N   UNL A   1      35.579  31.422  27.654  1.00  0.00    -0.225 NA
ATOM     29  H   UNL A   1      36.553  31.674  27.489  1.00  0.00     0.137 HD
ATOM     30  H   UNL A   1      35.305  31.717  28.592  1.00  0.00     0.137 HD
ENDBRANCH  25  28
ENDBRANCH  20  25
ENDBRANCH  15  19
BRANCH  17  31
ATOM     31  C   UNL A   1      27.901  31.329  22.499  1.00  0.00     0.393 C 
ATOM     32  F   UNL A   1      28.346  32.610  22.383  1.00  0.00    -0.203 F 
ATOM     33  F   UNL A   1      27.330  31.002  21.307  1.00  0.00    -0.203 F 
ENDBRANCH  17  31
ENDBRANCH   9  14
ENDBRANCH   6   8
ENDBRANCH   5   6
ENDBRANCH   4   5
ENDBRANCH   3   4
ENDBRANCH   2   3
ENDBRANCH   1   2
BRANCH   1  34
ATOM     34  C   UNL A   1      35.267  22.747  25.767  1.00  0.00     0.188 C 
BRANCH  34  35
ATOM     35  O   UNL A   1      36.473  22.889  26.493  1.00  0.00    -0.376 OA
BRANCH  35  36
ATOM     36  C   UNL A   1      37.730  22.531  25.943  1.00  0.00     0.202 C 
BRANCH  36  37
ATOM     37  C   UNL A   1      39.034  23.290  26.177  1.00  0.00     0.261 C 
BRANCH  37  38
ATOM     38  O   UNL A   1      39.056  24.198  27.261  1.00  0.00    -0.460 OA
BRANCH  38  39
ATOM     39  C   UNL A   1      39.985  25.165  27.108  1.00  0.00     0.338 C 
ATOM     40  O   UNL A   1      41.044  25.075  26.506  1.00  0.00    -0.246 OA
BRANCH  39  41
ATOM     41  C   UNL A   1      39.614  26.332  27.908  1.00  0.00     0.060 A 
ATOM     42  C   UNL A   1      39.921  27.576  27.363  1.00  0.00     0.016 A 
ATOM     43  C   UNL A   1      39.263  26.173  29.257  1.00  0.00     0.016 A 
ATOM     44  C   UNL A   1      40.069  28.641  28.221  1.00  0.00     0.010 A 
ATOM     45  C   UNL A   1      39.412  27.242  30.114  1.00  0.00     0.010 A 
ATOM     46  C   UNL A   1      39.889  28.442  29.599  1.00  0.00    -0.014 A 
BRANCH  46  47
ATOM     47  C   UNL A   1      40.067  29.596  30.457  1.00  0.00     0.031 A 
ATOM     48  C   UNL A   1      38.804  30.337  30.659  1.00  0.00     0.074 A 
ATOM     49  C   UNL A   1      41.225  29.942  31.049  1.00  0.00     0.049 A 
ATOM     50  N   UNL A   1      38.511  31.504  30.199  1.00  0.00    -0.248 NA
ATOM     51  C   UNL A   1      37.668  29.620  31.261  1.00  0.00     0.031 C 
ATOM     52  C   UNL A   1      42.475  29.187  31.109  1.00  0.00     0.029 A 
ATOM     53  N   UNL A   1      41.493  31.037  31.814  1.00  0.00    -0.354 N 
ATOM     54  C   UNL A   1      37.238  31.778  30.676  1.00  0.00     0.074 A 
ATOM     55  C   UNL A   1      36.699  30.525  31.131  1.00  0.00     0.031 C 
ATOM     56  C   UNL A   1      43.277  29.730  32.054  1.00  0.00     0.029 A 
ATOM     57  C   UNL A   1      42.650  30.935  32.580  1.00  0.00     0.049 A 
ATOM     58  H   UNL A   1      40.916  31.834  31.825  1.00  0.00     0.167 HD
ATOM     59  C   UNL A   1      36.857  33.059  30.919  1.00  0.00     0.034 A 
ATOM     60  C   UNL A   1      43.019  31.739  33.616  1.00  0.00     0.034 A 
ATOM     61  C   UNL A   1      37.654  33.996  30.156  1.00  0.00     0.049 A 
ATOM     62  C   UNL A   1      42.321  33.038  33.417  1.00  0.00     0.074 A 
ATOM     63  C   UNL A   1      37.961  34.109  28.810  1.00  0.00     0.029 A 
ATOM     64  N   UNL A   1      38.608  34.749  30.808  1.00  0.00    -0.354 N 
ATOM     65  N   UNL A   1      42.574  33.839  32.418  1.00  0.00    -0.248 NA
ATOM     66  C   UNL A   1      41.009  33.206  34.027  1.00  0.00     0.031 C 
ATOM     67  C   UNL A   1      39.345  34.448  28.778  1.00  0.00     0.029 A 
ATOM     68  C   UNL A   1      39.777  34.626  30.092  1.00  0.00     0.049 A 
ATOM     69  H   UNL A   1      38.476  35.275  31.629  1.00  0.00     0.167 HD
ATOM     70  C   UNL A   1      41.330  34.282  31.990  1.00  0.00     0.074 A 
ATOM     71  C   UNL A   1      40.411  33.924  33.070  1.00  0.00     0.031 C 
ATOM     72  C   UNL A   1      41.101  34.639  30.690  1.00  0.00     0.034 A 
BRANCH  59  73
ATOM     73  C   UNL A   1      36.048  33.450  32.131  1.00  0.00     0.023 A 
ATOM     74  C   UNL A   1      34.921  34.262  31.923  1.00  0.00     0.031 A 
ATOM     75  C   UNL A   1      36.476  33.322  33.476  1.00  0.00     0.131 A 
ATOM     76  C   UNL A   1      34.336  34.963  32.990  1.00  0.00     0.055 A 
ATOM     77  C   UNL A   1      35.843  33.961  34.543  1.00  0.00     0.041 A 
ATOM     78  F   UNL A   1      37.584  32.660  33.830  1.00  0.00    -0.206 F 
ATOM     79  C   UNL A   1      34.784  34.813  34.301  1.00  0.00     0.022 A 
BRANCH  76  80
ATOM     80  S   UNL A   1      33.095  36.223  32.606  1.00  0.00     0.124 S 
ATOM     81  O   UNL A   1      33.576  36.719  31.320  1.00  0.00    -0.237 OA
ATOM     82  O   UNL A   1      31.868  35.434  32.573  1.00  0.00    -0.237 OA
ATOM     83  O   UNL A   1      33.206  37.159  33.721  1.00  0.00    -0.744 OA
ENDBRANCH  76  80
ENDBRANCH  59  73
BRANCH  60  84
ATOM     84  C   UNL A   1      43.641  31.323  34.913  1.00  0.00     0.023 A 
ATOM     85  C   UNL A   1      44.967  31.659  35.276  1.00  0.00     0.031 A 
ATOM     86  C   UNL A   1      42.835  30.778  35.940  1.00  0.00     0.131 A 
ATOM     87  C   UNL A   1      45.426  31.448  36.601  1.00  0.00     0.055 A 
ATOM     88  C   UNL A   1      43.294  30.568  37.242  1.00  0.00     0.041 A 
ATOM     89  F   UNL A   1      41.537  30.507  35.743  1.00  0.00    -0.206 F 
ATOM     90  C   UNL A   1      44.590  30.912  37.582  1.00  0.00     0.022 A 
BRANCH  87  91
ATOM     91  S   UNL A   1      47.104  31.958  37.109  1.00  0.00     0.124 S 
ATOM     92  O   UNL A   1      47.575  32.684  35.935  1.00  0.00    -0.237 OA
ATOM     93  O   UNL A   1      46.846  32.752  38.305  1.00  0.00    -0.237 OA
ATOM     94  O   UNL A   1      47.786  30.687  37.358  1.00  0.00    -0.744 OA
ENDBRANCH  87  91
ENDBRANCH  60  84
BRANCH  72  95
ATOM     95  C   UNL A   1      42.279  34.862  29.755  1.00  0.00     0.023 A 
ATOM     96  C   UNL A   1      42.893  36.108  29.489  1.00  0.00     0.031 A 
ATOM     97  C   UNL A   1      42.878  33.716  29.198  1.00  0.00     0.131 A 
ATOM     98  C   UNL A   1      44.053  36.168  28.686  1.00  0.00     0.055 A 
ATOM     99  C   UNL A   1      44.038  33.777  28.427  1.00  0.00     0.041 A 
ATOM    100  F   UNL A   1      42.359  32.497  29.423  1.00  0.00    -0.206 F 
ATOM    101  C   UNL A   1      44.627  35.005  28.162  1.00  0.00     0.022 A 
BRANCH  98 102
ATOM    102  S   UNL A   1      44.835  37.765  28.282  1.00  0.00     0.124 S 
ATOM    103  O   UNL A   1      46.205  37.400  27.941  1.00  0.00    -0.237 OA
ATOM    104  O   UNL A   1      44.008  38.252  27.181  1.00  0.00    -0.237 OA
ATOM    105  O   UNL A   1      44.702  38.531  29.524  1.00  0.00    -0.744 OA
ENDBRANCH  98 102
ENDBRANCH  72  95
ENDBRANCH  46  47
ENDBRANCH  39  41
ENDBRANCH  38  39
ENDBRANCH  37  38
ENDBRANCH  36  37
ENDBRANCH  35  36
ENDBRANCH  34  35
ENDBRANCH   1  34
TORSDOF 25
ENDMDL
MODEL 3
REMARK VINA RESULT:      -9.9      4.726     11.026
REMARK SMILES NS(=O)(=O)c1ccc(-n2nc(C(F)F)cc2-c2ccc(C(=O)OCCOCCOCCOC(=O)c3ccc(-c4c5nc(c(-c6cc(S(=O)(=O)[O-])ccc6F)c6ccc([nH]6)c(-c6cc(S(=O)(=O)[O-])ccc6F)c6nc(c(-c7cc(S(=O)(=O)[O-])ccc7F)c7ccc4[nH]7)C=C6)C=C5)cc3)cc2)cc1
REMARK SMILES IDX 27 1 26 2 25 3 24 4 23 5 21 6 22 7 20 8 17 9 18 10 99 11
REMARK SMILES IDX 19 12 98 13 16 14 9 15 10 16 11 17 15 18 8 19 5 20 6 21
REMARK SMILES IDX 101 22 7 23 100 24 2 25 3 26 4 27 1 28 12 31 13 32 14 33
REMARK SMILES IDX 28 34 29 35 30 36 31 37 32 38 33 39 34 40 35 41 36 42 97 43
REMARK SMILES IDX 37 44 96 45 38 46 39 47 40 48 90 49 41 50 95 51 89 52 91 53
REMARK SMILES IDX 42 54 94 55 88 56 87 57 43 59 75 60 55 61 74 62 56 63 59 64
REMARK SMILES IDX 73 65 92 66 57 67 58 68 72 70 93 71 60 72 44 73 45 74 53 75
REMARK SMILES IDX 46 76 52 77 54 78 51 79 47 80 48 81 49 82 50 83 76 84 77 85
REMARK SMILES IDX 85 86 78 87 84 88 86 89 83 90 79 91 80 92 81 93 82 94 61 95
REMARK SMILES IDX 62 96 70 97 63 98 69 99 71 100 68 101 64 102 65 103 66 104
REMARK SMILES IDX 67 105
REMARK H PARENT 1 29 1 30 91 58 59 69
REMARK Flexibility Score: inf
ROOT
ATOM      1  C   UNL A   1      34.021  22.994  26.471  1.00  0.00     0.188 C 
ENDROOT
BRANCH   1   2
ATOM      2  O   UNL A   1      32.884  22.309  26.001  1.00  0.00    -0.376 OA
BRANCH   2   3
ATOM      3  C   UNL A   1      32.985  21.267  25.047  1.00  0.00     0.202 C 
BRANCH   3   4
ATOM      4  C   UNL A   1      32.632  21.358  23.548  1.00  0.00     0.261 C 
BRANCH   4   5
ATOM      5  O   UNL A   1      31.994  22.547  23.081  1.00  0.00    -0.460 OA
BRANCH   5   6
ATOM      6  C   UNL A   1      32.811  23.611  22.896  1.00  0.00     0.338 C 
ATOM      7  O   UNL A   1      33.998  23.585  22.615  1.00  0.00    -0.246 OA
BRANCH   6   8
ATOM      8  C   UNL A   1      32.021  24.860  22.913  1.00  0.00     0.060 A 
ATOM      9  C   UNL A   1      30.702  27.331  22.915  1.00  0.00     0.000 A 
ATOM     10  C   UNL A   1      31.509  26.962  21.831  1.00  0.00     0.011 A 
ATOM     11  C   UNL A   1      30.508  26.424  23.966  1.00  0.00     0.011 A 
ATOM     12  C   UNL A   1      32.175  25.737  21.834  1.00  0.00     0.016 A 
ATOM     13  C   UNL A   1      31.155  25.182  23.962  1.00  0.00     0.016 A 
BRANCH   9  14
ATOM     14  C   UNL A   1      30.209  28.706  23.013  1.00  0.00     0.075 A 
ATOM     15  N   UNL A   1      30.542  29.642  23.988  1.00  0.00    -0.233 N 
ATOM     16  N   UNL A   1      29.618  30.636  24.063  1.00  0.00    -0.166 NA
ATOM     17  C   UNL A   1      28.826  30.456  22.993  1.00  0.00     0.129 A 
ATOM     18  C   UNL A   1      29.153  29.260  22.317  1.00  0.00     0.060 A 
BRANCH  15  19
ATOM     19  C   UNL A   1      31.669  29.639  24.850  1.00  0.00     0.065 A 
ATOM     20  C   UNL A   1      33.923  29.782  26.474  1.00  0.00     0.082 A 
ATOM     21  C   UNL A   1      32.711  30.303  26.933  1.00  0.00     0.024 A 
ATOM     22  C   UNL A   1      34.005  29.139  25.234  1.00  0.00     0.024 A 
ATOM     23  C   UNL A   1      31.585  30.242  26.113  1.00  0.00     0.030 A 
ATOM     24  C   UNL A   1      32.867  29.045  24.428  1.00  0.00     0.030 A 
BRANCH  20  25
ATOM     25  S   UNL A   1      35.388  29.994  27.449  1.00  0.00     0.238 S 
ATOM     26  O   UNL A   1      35.475  31.385  27.800  1.00  0.00    -0.207 OA
ATOM     27  O   UNL A   1      36.465  29.264  26.808  1.00  0.00    -0.207 OA
BRANCH  25  28
ATOM     28  N   UNL A   1      35.053  29.154  28.863  1.00  0.00    -0.225 NA
ATOM     29  H   UNL A   1      35.816  29.287  29.526  1.00  0.00     0.137 HD
ATOM     30  H   UNL A   1      34.952  28.160  28.653  1.00  0.00     0.137 HD
ENDBRANCH  25  28
ENDBRANCH  20  25
ENDBRANCH  15  19
BRANCH  17  31
ATOM     31  C   UNL A   1      27.717  31.398  22.629  1.00  0.00     0.393 C 
ATOM     32  F   UNL A   1      26.979  31.790  23.704  1.00  0.00    -0.203 F 
ATOM     33  F   UNL A   1      28.191  32.531  22.043  1.00  0.00    -0.203 F 
ENDBRANCH  17  31
ENDBRANCH   9  14
ENDBRANCH   6   8
ENDBRANCH   5   6
ENDBRANCH   4   5
ENDBRANCH   3   4
ENDBRANCH   2   3
ENDBRANCH   1   2
BRANCH   1  34
ATOM     34  C   UNL A   1      35.383  22.677  25.823  1.00  0.00     0.188 C 
BRANCH  34  35
ATOM     35  O   UNL A   1      36.593  22.830  26.539  1.00  0.00    -0.376 OA
BRANCH  35  36
ATOM     36  C   UNL A   1      37.855  22.558  25.955  1.00  0.00     0.202 C 
BRANCH  36  37
ATOM     37  C   UNL A   1      39.084  23.457  26.069  1.00  0.00     0.261 C 
BRANCH  37  38
ATOM     38  O   UNL A   1      39.120  24.347  27.168  1.00  0.00    -0.460 OA
BRANCH  38  39
ATOM     39  C   UNL A   1      39.992  25.362  26.985  1.00  0.00     0.338 C 
ATOM     40  O   UNL A   1      41.006  25.342  26.305  1.00  0.00    -0.246 OA
BRANCH  39  41
ATOM     41  C   UNL A   1      39.630  26.482  27.853  1.00  0.00     0.060 A 
ATOM     42  C   UNL A   1      39.990  27.750  27.405  1.00  0.00     0.016 A 
ATOM     43  C   UNL A   1      39.232  26.242  29.177  1.00  0.00     0.016 A 
ATOM     44  C   UNL A   1      40.142  28.748  28.339  1.00  0.00     0.010 A 
ATOM     45  C   UNL A   1      39.385  27.244  30.109  1.00  0.00     0.010 A 
ATOM     46  C   UNL A   1      39.914  28.461  29.694  1.00  0.00    -0.014 A 
BRANCH  46  47
ATOM     47  C   UNL A   1      40.097  29.547  30.635  1.00  0.00     0.031 A 
ATOM     48  C   UNL A   1      38.877  30.368  30.782  1.00  0.00     0.074 A 
ATOM     49  C   UNL A   1      41.223  29.771  31.339  1.00  0.00     0.049 A 
ATOM     50  N   UNL A   1      38.706  31.578  30.374  1.00  0.00    -0.248 NA
ATOM     51  C   UNL A   1      37.647  29.704  31.243  1.00  0.00     0.031 C 
ATOM     52  C   UNL A   1      42.407  28.922  31.451  1.00  0.00     0.029 A 
ATOM     53  N   UNL A   1      41.500  30.797  32.192  1.00  0.00    -0.354 N 
ATOM     54  C   UNL A   1      37.420  31.918  30.764  1.00  0.00     0.074 A 
ATOM     55  C   UNL A   1      36.758  30.685  31.093  1.00  0.00     0.031 C 
ATOM     56  C   UNL A   1      43.162  29.349  32.490  1.00  0.00     0.029 A 
ATOM     57  C   UNL A   1      42.579  30.565  33.040  1.00  0.00     0.049 A 
ATOM     58  H   UNL A   1      40.981  31.633  32.206  1.00  0.00     0.167 HD
ATOM     59  C   UNL A   1      37.110  33.209  31.056  1.00  0.00     0.034 A 
ATOM     60  C   UNL A   1      42.914  31.278  34.152  1.00  0.00     0.034 A 
ATOM     61  C   UNL A   1      38.032  34.125  30.421  1.00  0.00     0.049 A 
ATOM     62  C   UNL A   1      42.327  32.634  33.980  1.00  0.00     0.074 A 
ATOM     63  C   UNL A   1      38.460  34.293  29.114  1.00  0.00     0.029 A 
ATOM     64  N   UNL A   1      38.977  34.766  31.194  1.00  0.00    -0.354 N 
ATOM     65  N   UNL A   1      42.719  33.471  33.057  1.00  0.00    -0.248 NA
ATOM     66  C   UNL A   1      40.983  32.865  34.491  1.00  0.00     0.031 C 
ATOM     67  C   UNL A   1      39.862  34.528  29.215  1.00  0.00     0.029 A 
ATOM     68  C   UNL A   1      40.192  34.597  30.568  1.00  0.00     0.049 A 
ATOM     69  H   UNL A   1      38.813  35.252  32.034  1.00  0.00     0.167 HD
ATOM     70  C   UNL A   1      41.550  34.029  32.559  1.00  0.00     0.074 A 
ATOM     71  C   UNL A   1      40.520  33.680  33.537  1.00  0.00     0.031 C 
ATOM     72  C   UNL A   1      41.458  34.476  31.270  1.00  0.00     0.034 A 
BRANCH  59  73
ATOM     73  C   UNL A   1      36.230  33.588  32.222  1.00  0.00     0.023 A 
ATOM     74  C   UNL A   1      35.193  34.503  31.978  1.00  0.00     0.031 A 
ATOM     75  C   UNL A   1      36.527  33.340  33.585  1.00  0.00     0.131 A 
ATOM     76  C   UNL A   1      34.572  35.182  33.040  1.00  0.00     0.055 A 
ATOM     77  C   UNL A   1      35.853  33.961  34.638  1.00  0.00     0.041 A 
ATOM     78  F   UNL A   1      37.544  32.567  33.982  1.00  0.00    -0.206 F 
ATOM     79  C   UNL A   1      34.890  34.912  34.369  1.00  0.00     0.022 A 
BRANCH  76  80
ATOM     80  S   UNL A   1      33.472  36.563  32.643  1.00  0.00     0.124 S 
ATOM     81  O   UNL A   1      32.198  36.076  33.163  1.00  0.00    -0.237 OA
ATOM     82  O   UNL A   1      34.091  37.660  33.379  1.00  0.00    -0.237 OA
ATOM     83  O   UNL A   1      33.561  36.659  31.189  1.00  0.00    -0.744 OA
ENDBRANCH  76  80
ENDBRANCH  59  73
BRANCH  60  84
ATOM     84  C   UNL A   1      43.392  30.742  35.465  1.00  0.00     0.023 A 
ATOM     85  C   UNL A   1      43.453  29.359  35.759  1.00  0.00     0.031 A 
ATOM     86  C   UNL A   1      44.039  31.601  36.385  1.00  0.00     0.131 A 
ATOM     87  C   UNL A   1      44.131  28.898  36.916  1.00  0.00     0.055 A 
ATOM     88  C   UNL A   1      44.700  31.142  37.526  1.00  0.00     0.041 A 
ATOM     89  F   UNL A   1      44.129  32.921  36.167  1.00  0.00    -0.206 F 
ATOM     90  C   UNL A   1      44.759  29.785  37.791  1.00  0.00     0.022 A 
BRANCH  87  91
ATOM     91  S   UNL A   1      44.296  27.113  37.262  1.00  0.00     0.124 S 
ATOM     92  O   UNL A   1      44.229  26.531  35.926  1.00  0.00    -0.237 OA
ATOM     93  O   UNL A   1      45.584  27.038  37.940  1.00  0.00    -0.237 OA
ATOM     94  O   UNL A   1      43.141  26.823  38.115  1.00  0.00    -0.744 OA
ENDBRANCH  87  91
ENDBRANCH  60  84
BRANCH  72  95
ATOM     95  C   UNL A   1      42.724  34.664  30.450  1.00  0.00     0.023 A 
ATOM     96  C   UNL A   1      43.143  33.835  29.383  1.00  0.00     0.031 A 
ATOM     97  C   UNL A   1      43.480  35.825  30.700  1.00  0.00     0.131 A 
ATOM     98  C   UNL A   1      44.283  34.181  28.625  1.00  0.00     0.055 A 
ATOM     99  C   UNL A   1      44.590  36.176  29.933  1.00  0.00     0.041 A 
ATOM    100  F   UNL A   1      43.131  36.668  31.687  1.00  0.00    -0.206 F 
ATOM    101  C   UNL A   1      45.000  35.351  28.895  1.00  0.00     0.022 A 
BRANCH  98 102
ATOM    102  S   UNL A   1      44.878  33.104  27.279  1.00  0.00     0.124 S 
ATOM    103  O   UNL A   1      44.260  31.816  27.571  1.00  0.00    -0.237 OA
ATOM    104  O   UNL A   1      44.392  33.792  26.086  1.00  0.00    -0.237 OA
ATOM    105  O   UNL A   1      46.334  33.130  27.442  1.00  0.00    -0.744 OA
ENDBRANCH  98 102
ENDBRANCH  72  95
ENDBRANCH  46  47
ENDBRANCH  39  41
ENDBRANCH  38  39
ENDBRANCH  37  38
ENDBRANCH  36  37
ENDBRANCH  35  36
ENDBRANCH  34  35
ENDBRANCH   1  34
TORSDOF 25
ENDMDL
