MODEL 1
REMARK VINA RESULT:     -10.6      0.000      0.000
REMARK SMILES O=C(C[C@H]1N=NC(=O)c2ccccc21)N[C@@H](CC1=c2ccccc2=NC1)C(=O)OCCOCCOCCOC(=O)c1ccc(-c2c3nc(c(-c4cc(S(=O)(=O)[O-])ccc4F)c4ccc([nH]4)c(-c4cc(S(=O)(=O)[O-])ccc4F)c4nc(c(-c5cc(S(=O)(=O)[O-])ccc5F)c5ccc2[nH]5)C=C4)C=C3)cc1
REMARK SMILES IDX 33 1 32 2 31 3 30 4 29 5 27 6 28 7 16 8 15 9 1 10 2 11 3 13
REMARK SMILES IDX 4 14 5 15 14 16 6 17 9 18 13 19 7 20 10 21 12 22 8 23 11 24
REMARK SMILES IDX 17 25 18 26 19 27 26 28 20 29 24 30 25 31 21 32 23 33 22 34
REMARK SMILES IDX 34 35 35 36 36 37 37 38 38 39 39 40 40 41 41 42 42 43 103 44
REMARK SMILES IDX 43 45 102 46 44 47 45 48 46 49 96 50 47 51 101 52 95 53
REMARK SMILES IDX 97 54 48 55 100 56 94 57 93 58 49 60 81 61 61 62 80 63 62 64
REMARK SMILES IDX 65 65 79 66 98 67 63 68 64 69 78 71 99 72 66 73 50 74 51 75
REMARK SMILES IDX 59 76 52 77 58 78 60 79 57 80 53 81 54 82 55 83 56 84 82 85
REMARK SMILES IDX 83 86 91 87 84 88 90 89 92 90 89 91 85 92 86 93 87 94 88 95
REMARK SMILES IDX 67 96 68 97 76 98 69 99 75 100 77 101 74 102 70 103 71 104
REMARK SMILES IDX 72 105 73 106
REMARK H PARENT 15 12 97 59 65 70
REMARK Flexibility Score: inf
ROOT
ATOM      1  C   UNL A   1      35.077  32.841  28.424  1.00  0.00     0.188 C 
ENDROOT
BRANCH   1   2
ATOM      2  O   UNL A   1      34.990  31.648  27.659  1.00  0.00    -0.376 OA
BRANCH   2   3
ATOM      3  C   UNL A   1      33.706  31.143  27.320  1.00  0.00     0.202 C 
BRANCH   3   4
ATOM      4  C   UNL A   1      33.552  29.629  27.320  1.00  0.00     0.261 C 
BRANCH   4   5
ATOM      5  O   UNL A   1      32.445  29.225  26.491  1.00  0.00    -0.462 OA
BRANCH   5   6
ATOM      6  C   UNL A   1      31.763  28.150  26.955  1.00  0.00     0.329 C 
ATOM      7  O   UNL A   1      31.151  28.134  28.018  1.00  0.00    -0.250 OA
BRANCH   6   8
ATOM      8  C   UNL A   1      31.947  26.888  26.113  1.00  0.00     0.196 C 
BRANCH   8   9
ATOM      9  N   UNL A   1      32.462  25.600  26.638  1.00  0.00    -0.342 N 
ATOM     10  O   UNL A   1      34.163  25.480  25.123  1.00  0.00    -0.275 OA
ATOM     11  C   UNL A   1      33.499  24.943  26.006  1.00  0.00     0.223 C 
ATOM     12  H   UNL A   1      32.059  25.210  27.448  1.00  0.00     0.164 HD
BRANCH  11  13
ATOM     13  C   UNL A   1      33.739  23.488  26.373  1.00  0.00     0.134 C 
BRANCH  13  14
ATOM     14  C   UNL A   1      34.629  22.659  25.434  1.00  0.00     0.169 C 
ATOM     15  N   UNL A   1      36.002  22.835  25.968  1.00  0.00    -0.177 NA
ATOM     16  C   UNL A   1      34.267  21.205  25.249  1.00  0.00    -0.008 A 
ATOM     17  N   UNL A   1      36.921  22.009  25.775  1.00  0.00    -0.111 NA
ATOM     18  C   UNL A   1      35.317  20.313  24.998  1.00  0.00     0.049 A 
ATOM     19  C   UNL A   1      32.961  20.709  25.202  1.00  0.00     0.007 A 
ATOM     20  C   UNL A   1      36.702  20.803  25.145  1.00  0.00     0.295 C 
ATOM     21  C   UNL A   1      35.074  18.981  24.629  1.00  0.00     0.014 A 
ATOM     22  C   UNL A   1      32.718  19.367  24.877  1.00  0.00     0.000 A 
ATOM     23  O   UNL A   1      37.627  20.093  24.747  1.00  0.00    -0.265 OA
ATOM     24  C   UNL A   1      33.767  18.513  24.555  1.00  0.00     0.001 A 
ENDBRANCH  13  14
ENDBRANCH  11  13
ENDBRANCH   8   9
BRANCH   8  25
ATOM     25  C   UNL A   1      30.593  26.706  25.405  1.00  0.00     0.070 C 
BRANCH  25  26
ATOM     26  C   UNL A   1      30.497  26.210  23.982  1.00  0.00    -0.037 C 
ATOM     27  C   UNL A   1      30.855  25.067  23.395  1.00  0.00     0.001 A 
ATOM     28  C   UNL A   1      30.474  27.276  22.925  1.00  0.00     0.174 C 
ATOM     29  C   UNL A   1      30.878  23.658  23.623  1.00  0.00     0.010 A 
ATOM     30  C   UNL A   1      31.775  25.667  22.389  1.00  0.00     0.065 A 
ATOM     31  N   UNL A   1      31.603  26.913  22.058  1.00  0.00    -0.280 NA
ATOM     32  C   UNL A   1      31.788  22.905  22.981  1.00  0.00     0.001 A 
ATOM     33  C   UNL A   1      32.913  24.823  21.963  1.00  0.00     0.028 A 
ATOM     34  C   UNL A   1      32.895  23.516  22.270  1.00  0.00     0.002 A 
ENDBRANCH  25  26
ENDBRANCH   8  25
ENDBRANCH   6   8
ENDBRANCH   5   6
ENDBRANCH   4   5
ENDBRANCH   3   4
ENDBRANCH   2   3
ENDBRANCH   1   2
BRANCH   1  35
ATOM     35  C   UNL A   1      34.019  33.945  28.210  1.00  0.00     0.188 C 
BRANCH  35  36
ATOM     36  O   UNL A   1      34.418  35.302  28.095  1.00  0.00    -0.376 OA
BRANCH  36  37
ATOM     37  C   UNL A   1      33.629  36.251  28.812  1.00  0.00     0.202 C 
BRANCH  37  38
ATOM     38  C   UNL A   1      32.743  35.696  29.931  1.00  0.00     0.261 C 
BRANCH  38  39
ATOM     39  O   UNL A   1      33.260  36.043  31.229  1.00  0.00    -0.460 OA
BRANCH  39  40
ATOM     40  C   UNL A   1      33.263  35.031  32.128  1.00  0.00     0.338 C 
ATOM     41  O   UNL A   1      32.370  34.757  32.911  1.00  0.00    -0.246 OA
BRANCH  40  42
ATOM     42  C   UNL A   1      34.507  34.244  32.008  1.00  0.00     0.060 A 
ATOM     43  C   UNL A   1      35.633  34.837  31.446  1.00  0.00     0.016 A 
ATOM     44  C   UNL A   1      34.614  32.983  32.607  1.00  0.00     0.016 A 
ATOM     45  C   UNL A   1      36.863  34.171  31.503  1.00  0.00     0.010 A 
ATOM     46  C   UNL A   1      35.846  32.335  32.699  1.00  0.00     0.010 A 
ATOM     47  C   UNL A   1      36.987  32.931  32.162  1.00  0.00    -0.014 A 
BRANCH  47  48
ATOM     48  C   UNL A   1      38.331  32.352  32.412  1.00  0.00     0.031 A 
ATOM     49  C   UNL A   1      39.101  32.647  33.664  1.00  0.00     0.074 A 
ATOM     50  C   UNL A   1      38.876  31.568  31.461  1.00  0.00     0.049 A 
ATOM     51  N   UNL A   1      40.149  32.027  34.140  1.00  0.00    -0.248 NA
ATOM     52  C   UNL A   1      38.664  33.795  34.473  1.00  0.00     0.031 C 
ATOM     53  C   UNL A   1      38.302  31.346  30.132  1.00  0.00     0.029 A 
ATOM     54  N   UNL A   1      40.014  30.800  31.464  1.00  0.00    -0.354 N 
ATOM     55  C   UNL A   1      40.471  32.679  35.323  1.00  0.00     0.074 A 
ATOM     56  C   UNL A   1      39.570  33.804  35.442  1.00  0.00     0.031 C 
ATOM     57  C   UNL A   1      39.054  30.452  29.474  1.00  0.00     0.029 A 
ATOM     58  C   UNL A   1      40.159  30.032  30.331  1.00  0.00     0.049 A 
ATOM     59  H   UNL A   1      40.663  30.799  32.204  1.00  0.00     0.167 HD
ATOM     60  C   UNL A   1      41.401  32.336  36.246  1.00  0.00     0.034 A 
ATOM     61  C   UNL A   1      41.047  29.059  30.038  1.00  0.00     0.034 A 
ATOM     62  C   UNL A   1      42.297  31.219  36.086  1.00  0.00     0.049 A 
ATOM     63  C   UNL A   1      42.034  28.640  31.099  1.00  0.00     0.074 A 
ATOM     64  C   UNL A   1      43.222  30.726  36.989  1.00  0.00     0.029 A 
ATOM     65  N   UNL A   1      42.389  30.430  34.947  1.00  0.00    -0.354 N 
ATOM     66  N   UNL A   1      42.192  29.122  32.311  1.00  0.00    -0.248 NA
ATOM     67  C   UNL A   1      42.936  27.527  30.777  1.00  0.00     0.031 C 
ATOM     68  C   UNL A   1      43.913  29.680  36.373  1.00  0.00     0.029 A 
ATOM     69  C   UNL A   1      43.372  29.470  35.115  1.00  0.00     0.049 A 
ATOM     70  H   UNL A   1      41.836  30.538  34.140  1.00  0.00     0.167 HD
ATOM     71  C   UNL A   1      43.191  28.353  32.903  1.00  0.00     0.074 A 
ATOM     72  C   UNL A   1      43.580  27.359  31.926  1.00  0.00     0.031 C 
ATOM     73  C   UNL A   1      43.739  28.468  34.140  1.00  0.00     0.034 A 
BRANCH  60  74
ATOM     74  C   UNL A   1      41.461  33.117  37.537  1.00  0.00     0.023 A 
ATOM     75  C   UNL A   1      40.649  32.767  38.632  1.00  0.00     0.031 A 
ATOM     76  C   UNL A   1      42.231  34.293  37.631  1.00  0.00     0.131 A 
ATOM     77  C   UNL A   1      40.607  33.599  39.759  1.00  0.00     0.055 A 
ATOM     78  C   UNL A   1      42.218  35.093  38.773  1.00  0.00     0.041 A 
ATOM     79  F   UNL A   1      43.013  34.679  36.610  1.00  0.00    -0.206 F 
ATOM     80  C   UNL A   1      41.394  34.753  39.840  1.00  0.00     0.022 A 
BRANCH  77  81
ATOM     81  S   UNL A   1      39.487  33.254  41.145  1.00  0.00     0.124 S 
ATOM     82  O   UNL A   1      38.938  31.953  40.770  1.00  0.00    -0.237 OA
ATOM     83  O   UNL A   1      40.405  33.238  42.280  1.00  0.00    -0.237 OA
ATOM     84  O   UNL A   1      38.538  34.361  41.114  1.00  0.00    -0.744 OA
ENDBRANCH  77  81
ENDBRANCH  60  74
BRANCH  61  85
ATOM     85  C   UNL A   1      40.922  28.334  28.739  1.00  0.00     0.023 A 
ATOM     86  C   UNL A   1      40.239  27.107  28.654  1.00  0.00     0.031 A 
ATOM     87  C   UNL A   1      41.592  28.796  27.593  1.00  0.00     0.131 A 
ATOM     88  C   UNL A   1      40.291  26.360  27.469  1.00  0.00     0.055 A 
ATOM     89  C   UNL A   1      41.586  28.081  26.394  1.00  0.00     0.041 A 
ATOM     90  F   UNL A   1      42.279  29.948  27.630  1.00  0.00    -0.206 F 
ATOM     91  C   UNL A   1      40.945  26.847  26.333  1.00  0.00     0.022 A 
BRANCH  88  92
ATOM     92  S   UNL A   1      39.630  24.672  27.402  1.00  0.00     0.124 S 
ATOM     93  O   UNL A   1      40.761  23.882  27.877  1.00  0.00    -0.237 OA
ATOM     94  O   UNL A   1      38.493  24.761  28.315  1.00  0.00    -0.237 OA
ATOM     95  O   UNL A   1      39.281  24.495  25.996  1.00  0.00    -0.744 OA
ENDBRANCH  88  92
ENDBRANCH  61  85
BRANCH  73  96
ATOM     96  C   UNL A   1      44.829  27.505  34.545  1.00  0.00     0.023 A 
ATOM     97  C   UNL A   1      44.491  26.225  35.023  1.00  0.00     0.031 A 
ATOM     98  C   UNL A   1      46.170  27.915  34.631  1.00  0.00     0.131 A 
ATOM     99  C   UNL A   1      45.473  25.421  35.617  1.00  0.00     0.055 A 
ATOM    100  C   UNL A   1      47.155  27.090  35.176  1.00  0.00     0.041 A 
ATOM    101  F   UNL A   1      46.540  29.133  34.202  1.00  0.00    -0.206 F 
ATOM    102  C   UNL A   1      46.804  25.844  35.689  1.00  0.00     0.022 A 
BRANCH  99 103
ATOM    103  S   UNL A   1      45.041  23.849  36.412  1.00  0.00     0.124 S 
ATOM    104  O   UNL A   1      44.596  24.290  37.732  1.00  0.00    -0.237 OA
ATOM    105  O   UNL A   1      43.989  23.340  35.536  1.00  0.00    -0.237 OA
ATOM    106  O   UNL A   1      46.289  23.092  36.399  1.00  0.00    -0.744 OA
ENDBRANCH  99 103
ENDBRANCH  73  96
ENDBRANCH  47  48
ENDBRANCH  40  42
ENDBRANCH  39  40
ENDBRANCH  38  39
ENDBRANCH  37  38
ENDBRANCH  36  37
ENDBRANCH  35  36
ENDBRANCH   1  35
TORSDOF 25
ENDMDL
MODEL 2
REMARK VINA RESULT:      -8.7      8.679     12.312
REMARK SMILES O=C(C[C@H]1N=NC(=O)c2ccccc21)N[C@@H](CC1=c2ccccc2=NC1)C(=O)OCCOCCOCCOC(=O)c1ccc(-c2c3nc(c(-c4cc(S(=O)(=O)[O-])ccc4F)c4ccc([nH]4)c(-c4cc(S(=O)(=O)[O-])ccc4F)c4nc(c(-c5cc(S(=O)(=O)[O-])ccc5F)c5ccc2[nH]5)C=C4)C=C3)cc1
REMARK SMILES IDX 33 1 32 2 31 3 30 4 29 5 27 6 28 7 16 8 15 9 1 10 2 11 3 13
REMARK SMILES IDX 4 14 5 15 14 16 6 17 9 18 13 19 7 20 10 21 12 22 8 23 11 24
REMARK SMILES IDX 17 25 18 26 19 27 26 28 20 29 24 30 25 31 21 32 23 33 22 34
REMARK SMILES IDX 34 35 35 36 36 37 37 38 38 39 39 40 40 41 41 42 42 43 103 44
REMARK SMILES IDX 43 45 102 46 44 47 45 48 46 49 96 50 47 51 101 52 95 53
REMARK SMILES IDX 97 54 48 55 100 56 94 57 93 58 49 60 81 61 61 62 80 63 62 64
REMARK SMILES IDX 65 65 79 66 98 67 63 68 64 69 78 71 99 72 66 73 50 74 51 75
REMARK SMILES IDX 59 76 52 77 58 78 60 79 57 80 53 81 54 82 55 83 56 84 82 85
REMARK SMILES IDX 83 86 91 87 84 88 90 89 92 90 89 91 85 92 86 93 87 94 88 95
REMARK SMILES IDX 67 96 68 97 76 98 69 99 75 100 77 101 74 102 70 103 71 104
REMARK SMILES IDX 72 105 73 106
REMARK H PARENT 15 12 97 59 65 70
REMARK Flexibility Score: inf
ROOT
ATOM      1  C   UNL A   1      39.686  26.667  29.128  1.00  0.00     0.188 C 
ENDROOT
BRANCH   1   2
ATOM      2  O   UNL A   1      39.470  25.289  28.858  1.00  0.00    -0.376 OA
BRANCH   2   3
ATOM      3  C   UNL A   1      38.730  24.926  27.700  1.00  0.00     0.202 C 
BRANCH   3   4
ATOM      4  C   UNL A   1      39.328  23.825  26.833  1.00  0.00     0.261 C 
BRANCH   4   5
ATOM      5  O   UNL A   1      38.526  23.606  25.657  1.00  0.00    -0.462 OA
BRANCH   5   6
ATOM      6  C   UNL A   1      37.926  22.392  25.608  1.00  0.00     0.329 C 
ATOM      7  O   UNL A   1      38.519  21.328  25.757  1.00  0.00    -0.250 OA
BRANCH   6   8
ATOM      8  C   UNL A   1      36.457  22.443  25.191  1.00  0.00     0.196 C 
BRANCH   8   9
ATOM      9  N   UNL A   1      35.871  23.490  24.321  1.00  0.00    -0.342 N 
ATOM     10  O   UNL A   1      34.735  24.496  26.025  1.00  0.00    -0.275 OA
ATOM     11  C   UNL A   1      34.951  24.392  24.820  1.00  0.00     0.223 C 
ATOM     12  H   UNL A   1      36.141  23.544  23.375  1.00  0.00     0.164 HD
BRANCH  11  13
ATOM     13  C   UNL A   1      34.136  25.195  23.820  1.00  0.00     0.134 C 
BRANCH  13  14
ATOM     14  C   UNL A   1      32.745  25.673  24.263  1.00  0.00     0.169 C 
ATOM     15  N   UNL A   1      32.005  24.428  24.583  1.00  0.00    -0.177 NA
ATOM     16  C   UNL A   1      32.688  26.680  25.387  1.00  0.00    -0.008 A 
ATOM     17  N   UNL A   1      31.033  24.394  25.369  1.00  0.00    -0.111 NA
ATOM     18  C   UNL A   1      31.568  26.638  26.226  1.00  0.00     0.049 A 
ATOM     19  C   UNL A   1      33.612  27.712  25.580  1.00  0.00     0.007 A 
ATOM     20  C   UNL A   1      30.640  25.496  26.097  1.00  0.00     0.295 C 
ATOM     21  C   UNL A   1      31.328  27.639  27.179  1.00  0.00     0.014 A 
ATOM     22  C   UNL A   1      33.396  28.689  26.561  1.00  0.00     0.000 A 
ATOM     23  O   UNL A   1      29.560  25.540  26.689  1.00  0.00    -0.265 OA
ATOM     24  C   UNL A   1      32.241  28.675  27.335  1.00  0.00     0.001 A 
ENDBRANCH  13  14
ENDBRANCH  11  13
ENDBRANCH   8   9
BRANCH   8  25
ATOM     25  C   UNL A   1      36.171  21.033  24.646  1.00  0.00     0.070 C 
BRANCH  25  26
ATOM     26  C   UNL A   1      34.981  20.226  25.107  1.00  0.00    -0.037 C 
ATOM     27  C   UNL A   1      34.473  19.056  24.716  1.00  0.00     0.001 A 
ATOM     28  C   UNL A   1      33.872  21.013  25.744  1.00  0.00     0.174 C 
ATOM     29  C   UNL A   1      34.875  17.756  24.284  1.00  0.00     0.010 A 
ATOM     30  C   UNL A   1      33.115  19.562  24.369  1.00  0.00     0.065 A 
ATOM     31  N   UNL A   1      32.700  20.658  24.932  1.00  0.00    -0.280 NA
ATOM     32  C   UNL A   1      34.048  17.040  23.502  1.00  0.00     0.001 A 
ATOM     33  C   UNL A   1      32.411  18.844  23.282  1.00  0.00     0.028 A 
ATOM     34  C   UNL A   1      32.887  17.653  22.885  1.00  0.00     0.002 A 
ENDBRANCH  25  26
ENDBRANCH   8  25
ENDBRANCH   6   8
ENDBRANCH   5   6
ENDBRANCH   4   5
ENDBRANCH   3   4
ENDBRANCH   2   3
ENDBRANCH   1   2
BRANCH   1  35
ATOM     35  C   UNL A   1      39.422  27.697  28.009  1.00  0.00     0.188 C 
BRANCH  35  36
ATOM     36  O   UNL A   1      40.479  28.518  27.533  1.00  0.00    -0.376 OA
BRANCH  36  37
ATOM     37  C   UNL A   1      40.976  28.205  26.231  1.00  0.00     0.202 C 
BRANCH  37  38
ATOM     38  C   UNL A   1      41.002  26.723  25.846  1.00  0.00     0.261 C 
BRANCH  38  39
ATOM     39  O   UNL A   1      42.121  26.425  24.992  1.00  0.00    -0.460 OA
BRANCH  39  40
ATOM     40  C   UNL A   1      42.810  25.309  25.329  1.00  0.00     0.338 C 
ATOM     41  O   UNL A   1      42.405  24.162  25.262  1.00  0.00    -0.246 OA
BRANCH  40  42
ATOM     42  C   UNL A   1      44.177  25.664  25.762  1.00  0.00     0.060 A 
ATOM     43  C   UNL A   1      45.144  24.667  25.842  1.00  0.00     0.016 A 
ATOM     44  C   UNL A   1      44.549  27.005  25.919  1.00  0.00     0.016 A 
ATOM     45  C   UNL A   1      46.480  25.020  26.063  1.00  0.00     0.010 A 
ATOM     46  C   UNL A   1      45.886  27.361  26.100  1.00  0.00     0.010 A 
ATOM     47  C   UNL A   1      46.868  26.372  26.157  1.00  0.00    -0.014 A 
BRANCH  47  48
ATOM     48  C   UNL A   1      48.308  26.736  26.161  1.00  0.00     0.031 A 
ATOM     49  C   UNL A   1      49.079  26.906  27.435  1.00  0.00     0.074 A 
ATOM     50  C   UNL A   1      48.915  26.951  24.977  1.00  0.00     0.049 A 
ATOM     51  N   UNL A   1      50.374  26.964  27.600  1.00  0.00    -0.248 NA
ATOM     52  C   UNL A   1      48.308  27.057  28.679  1.00  0.00     0.031 C 
ATOM     53  C   UNL A   1      48.232  26.984  23.682  1.00  0.00     0.029 A 
ATOM     54  N   UNL A   1      50.234  27.161  24.663  1.00  0.00    -0.354 N 
ATOM     55  C   UNL A   1      50.577  27.115  28.966  1.00  0.00     0.074 A 
ATOM     56  C   UNL A   1      49.271  27.240  29.573  1.00  0.00     0.031 C 
ATOM     57  C   UNL A   1      49.143  27.137  22.711  1.00  0.00     0.029 A 
ATOM     58  C   UNL A   1      50.474  27.208  23.308  1.00  0.00     0.049 A 
ATOM     59  H   UNL A   1      50.941  27.267  25.340  1.00  0.00     0.167 HD
ATOM     60  C   UNL A   1      51.746  27.099  29.650  1.00  0.00     0.034 A 
ATOM     61  C   UNL A   1      51.636  27.245  22.623  1.00  0.00     0.034 A 
ATOM     62  C   UNL A   1      53.033  26.993  29.010  1.00  0.00     0.049 A 
ATOM     63  C   UNL A   1      52.930  27.159  23.393  1.00  0.00     0.074 A 
ATOM     64  C   UNL A   1      54.278  26.883  29.602  1.00  0.00     0.029 A 
ATOM     65  N   UNL A   1      53.241  26.995  27.637  1.00  0.00    -0.354 N 
ATOM     66  N   UNL A   1      53.111  27.083  24.691  1.00  0.00    -0.248 NA
ATOM     67  C   UNL A   1      54.175  27.126  22.614  1.00  0.00     0.031 C 
ATOM     68  C   UNL A   1      55.240  26.880  28.591  1.00  0.00     0.029 A 
ATOM     69  C   UNL A   1      54.596  26.913  27.364  1.00  0.00     0.049 A 
ATOM     70  H   UNL A   1      52.530  27.046  26.959  1.00  0.00     0.167 HD
ATOM     71  C   UNL A   1      54.485  26.965  24.883  1.00  0.00     0.074 A 
ATOM     72  C   UNL A   1      55.085  26.953  23.565  1.00  0.00     0.031 C 
ATOM     73  C   UNL A   1      55.183  26.881  26.044  1.00  0.00     0.034 A 
BRANCH  60  74
ATOM     74  C   UNL A   1      51.702  27.126  31.159  1.00  0.00     0.023 A 
ATOM     75  C   UNL A   1      51.721  28.345  31.861  1.00  0.00     0.031 A 
ATOM     76  C   UNL A   1      51.776  25.932  31.902  1.00  0.00     0.131 A 
ATOM     77  C   UNL A   1      51.839  28.341  33.258  1.00  0.00     0.055 A 
ATOM     78  C   UNL A   1      51.849  25.933  33.294  1.00  0.00     0.041 A 
ATOM     79  F   UNL A   1      51.774  24.741  31.280  1.00  0.00    -0.206 F 
ATOM     80  C   UNL A   1      51.892  27.143  33.978  1.00  0.00     0.022 A 
BRANCH  77  81
ATOM     81  S   UNL A   1      51.987  29.887  34.197  1.00  0.00     0.124 S 
ATOM     82  O   UNL A   1      50.679  29.972  34.842  1.00  0.00    -0.237 OA
ATOM     83  O   UNL A   1      53.103  29.593  35.090  1.00  0.00    -0.237 OA
ATOM     84  O   UNL A   1      52.242  30.896  33.175  1.00  0.00    -0.744 OA
ENDBRANCH  77  81
ENDBRANCH  60  74
BRANCH  61  85
ATOM     85  C   UNL A   1      51.596  27.218  21.131  1.00  0.00     0.023 A 
ATOM     86  C   UNL A   1      51.412  26.011  20.431  1.00  0.00     0.031 A 
ATOM     87  C   UNL A   1      51.867  28.378  20.385  1.00  0.00     0.131 A 
ATOM     88  C   UNL A   1      51.560  25.984  19.037  1.00  0.00     0.055 A 
ATOM     89  C   UNL A   1      51.947  28.360  18.991  1.00  0.00     0.041 A 
ATOM     90  F   UNL A   1      52.075  29.549  21.007  1.00  0.00    -0.206 F 
ATOM     91  C   UNL A   1      51.808  27.153  18.311  1.00  0.00     0.022 A 
BRANCH  88  92
ATOM     92  S   UNL A   1      51.569  24.412  18.132  1.00  0.00     0.124 S 
ATOM     93  O   UNL A   1      51.124  23.470  19.152  1.00  0.00    -0.237 OA
ATOM     94  O   UNL A   1      50.614  24.680  17.059  1.00  0.00    -0.237 OA
ATOM     95  O   UNL A   1      52.957  24.271  17.703  1.00  0.00    -0.744 OA
ENDBRANCH  88  92
ENDBRANCH  61  85
BRANCH  73  96
ATOM     96  C   UNL A   1      56.688  26.769  25.982  1.00  0.00     0.023 A 
ATOM     97  C   UNL A   1      57.290  25.509  25.803  1.00  0.00     0.031 A 
ATOM     98  C   UNL A   1      57.515  27.865  26.281  1.00  0.00     0.131 A 
ATOM     99  C   UNL A   1      58.672  25.365  25.979  1.00  0.00     0.055 A 
ATOM    100  C   UNL A   1      58.898  27.727  26.404  1.00  0.00     0.041 A 
ATOM    101  F   UNL A   1      56.987  29.085  26.475  1.00  0.00    -0.206 F 
ATOM    102  C   UNL A   1      59.479  26.469  26.271  1.00  0.00     0.022 A 
BRANCH  99 103
ATOM    103  S   UNL A   1      59.456  23.730  25.942  1.00  0.00     0.124 S 
ATOM    104  O   UNL A   1      58.299  22.842  25.853  1.00  0.00    -0.237 OA
ATOM    105  O   UNL A   1      60.277  23.809  24.737  1.00  0.00    -0.237 OA
ATOM    106  O   UNL A   1      60.193  23.664  27.200  1.00  0.00    -0.744 OA
ENDBRANCH  99 103
ENDBRANCH  73  96
ENDBRANCH  47  48
ENDBRANCH  40  42
ENDBRANCH  39  40
ENDBRANCH  38  39
ENDBRANCH  37  38
ENDBRANCH  36  37
ENDBRANCH  35  36
ENDBRANCH   1  35
TORSDOF 25
ENDMDL
MODEL 3
REMARK VINA RESULT:      -8.6      5.825     11.249
REMARK SMILES O=C(C[C@H]1N=NC(=O)c2ccccc21)N[C@@H](CC1=c2ccccc2=NC1)C(=O)OCCOCCOCCOC(=O)c1ccc(-c2c3nc(c(-c4cc(S(=O)(=O)[O-])ccc4F)c4ccc([nH]4)c(-c4cc(S(=O)(=O)[O-])ccc4F)c4nc(c(-c5cc(S(=O)(=O)[O-])ccc5F)c5ccc2[nH]5)C=C4)C=C3)cc1
REMARK SMILES IDX 33 1 32 2 31 3 30 4 29 5 27 6 28 7 16 8 15 9 1 10 2 11 3 13
REMARK SMILES IDX 4 14 5 15 14 16 6 17 9 18 13 19 7 20 10 21 12 22 8 23 11 24
REMARK SMILES IDX 17 25 18 26 19 27 26 28 20 29 24 30 25 31 21 32 23 33 22 34
REMARK SMILES IDX 34 35 35 36 36 37 37 38 38 39 39 40 40 41 41 42 42 43 103 44
REMARK SMILES IDX 43 45 102 46 44 47 45 48 46 49 96 50 47 51 101 52 95 53
REMARK SMILES IDX 97 54 48 55 100 56 94 57 93 58 49 60 81 61 61 62 80 63 62 64
REMARK SMILES IDX 65 65 79 66 98 67 63 68 64 69 78 71 99 72 66 73 50 74 51 75
REMARK SMILES IDX 59 76 52 77 58 78 60 79 57 80 53 81 54 82 55 83 56 84 82 85
REMARK SMILES IDX 83 86 91 87 84 88 90 89 92 90 89 91 85 92 86 93 87 94 88 95
REMARK SMILES IDX 67 96 68 97 76 98 69 99 75 100 77 101 74 102 70 103 71 104
REMARK SMILES IDX 72 105 73 106
REMARK H PARENT 15 12 97 59 65 70
REMARK Flexibility Score: inf
ROOT
ATOM      1  C   UNL A   1      47.762  25.256  36.031  1.00  0.00     0.188 C 
ENDROOT
BRANCH   1   2
ATOM      2  O   UNL A   1      47.650  26.203  34.978  1.00  0.00    -0.376 OA
BRANCH   2   3
ATOM      3  C   UNL A   1      47.532  25.731  33.642  1.00  0.00     0.202 C 
BRANCH   3   4
ATOM      4  C   UNL A   1      46.216  25.058  33.276  1.00  0.00     0.261 C 
BRANCH   4   5
ATOM      5  O   UNL A   1      46.088  24.924  31.848  1.00  0.00    -0.462 OA
BRANCH   5   6
ATOM      6  C   UNL A   1      44.826  24.677  31.420  1.00  0.00     0.329 C 
ATOM      7  O   UNL A   1      44.122  23.771  31.855  1.00  0.00    -0.250 OA
BRANCH   6   8
ATOM      8  C   UNL A   1      44.397  25.527  30.226  1.00  0.00     0.196 C 
BRANCH   8   9
ATOM      9  N   UNL A   1      43.824  24.980  28.973  1.00  0.00    -0.342 N 
ATOM     10  O   UNL A   1      45.678  25.452  27.731  1.00  0.00    -0.275 OA
ATOM     11  C   UNL A   1      44.505  25.089  27.777  1.00  0.00     0.223 C 
ATOM     12  H   UNL A   1      42.946  24.533  28.995  1.00  0.00     0.164 HD
BRANCH  11  13
ATOM     13  C   UNL A   1      43.728  24.835  26.496  1.00  0.00     0.134 C 
BRANCH  13  14
ATOM     14  C   UNL A   1      44.213  23.695  25.588  1.00  0.00     0.169 C 
ATOM     15  N   UNL A   1      45.685  23.673  25.769  1.00  0.00    -0.177 NA
ATOM     16  C   UNL A   1      43.588  22.336  25.795  1.00  0.00    -0.008 A 
ATOM     17  N   UNL A   1      46.383  22.655  25.565  1.00  0.00    -0.111 NA
ATOM     18  C   UNL A   1      44.386  21.218  25.522  1.00  0.00     0.049 A 
ATOM     19  C   UNL A   1      42.249  22.118  26.131  1.00  0.00     0.007 A 
ATOM     20  C   UNL A   1      45.825  21.431  25.265  1.00  0.00     0.295 C 
ATOM     21  C   UNL A   1      43.850  19.922  25.503  1.00  0.00     0.014 A 
ATOM     22  C   UNL A   1      41.722  20.819  26.155  1.00  0.00     0.000 A 
ATOM     23  O   UNL A   1      46.497  20.490  24.840  1.00  0.00    -0.265 OA
ATOM     24  C   UNL A   1      42.508  19.727  25.807  1.00  0.00     0.001 A 
ENDBRANCH  13  14
ENDBRANCH  11  13
ENDBRANCH   8   9
BRANCH   8  25
ATOM     25  C   UNL A   1      43.486  26.605  30.839  1.00  0.00     0.070 C 
BRANCH  25  26
ATOM     26  C   UNL A   1      42.814  27.658  29.990  1.00  0.00    -0.037 C 
ATOM     27  C   UNL A   1      41.565  27.801  29.544  1.00  0.00     0.001 A 
ATOM     28  C   UNL A   1      43.719  28.414  29.059  1.00  0.00     0.174 C 
ATOM     29  C   UNL A   1      40.209  27.618  29.952  1.00  0.00     0.010 A 
ATOM     30  C   UNL A   1      41.900  27.840  28.093  1.00  0.00     0.065 A 
ATOM     31  N   UNL A   1      43.100  28.199  27.744  1.00  0.00    -0.280 NA
ATOM     32  C   UNL A   1      39.267  27.404  29.017  1.00  0.00     0.001 A 
ATOM     33  C   UNL A   1      40.869  27.310  27.172  1.00  0.00     0.028 A 
ATOM     34  C   UNL A   1      39.630  27.103  27.646  1.00  0.00     0.002 A 
ENDBRANCH  25  26
ENDBRANCH   8  25
ENDBRANCH   6   8
ENDBRANCH   5   6
ENDBRANCH   4   5
ENDBRANCH   3   4
ENDBRANCH   2   3
ENDBRANCH   1   2
BRANCH   1  35
ATOM     35  C   UNL A   1      47.050  25.542  37.371  1.00  0.00     0.188 C 
BRANCH  35  36
ATOM     36  O   UNL A   1      46.512  24.473  38.133  1.00  0.00    -0.376 OA
BRANCH  36  37
ATOM     37  C   UNL A   1      45.125  24.571  38.459  1.00  0.00     0.202 C 
BRANCH  37  38
ATOM     38  C   UNL A   1      44.205  25.128  37.369  1.00  0.00     0.261 C 
BRANCH  38  39
ATOM     39  O   UNL A   1      43.088  25.836  37.939  1.00  0.00    -0.460 OA
BRANCH  39  40
ATOM     40  C   UNL A   1      41.901  25.606  37.330  1.00  0.00     0.338 C 
ATOM     41  O   UNL A   1      41.106  24.725  37.606  1.00  0.00    -0.246 OA
BRANCH  40  42
ATOM     42  C   UNL A   1      41.660  26.619  36.282  1.00  0.00     0.060 A 
ATOM     43  C   UNL A   1      41.779  27.968  36.601  1.00  0.00     0.016 A 
ATOM     44  C   UNL A   1      41.489  26.235  34.946  1.00  0.00     0.016 A 
ATOM     45  C   UNL A   1      41.743  28.923  35.580  1.00  0.00     0.010 A 
ATOM     46  C   UNL A   1      41.492  27.184  33.923  1.00  0.00     0.010 A 
ATOM     47  C   UNL A   1      41.636  28.537  34.228  1.00  0.00    -0.014 A 
BRANCH  47  48
ATOM     48  C   UNL A   1      41.830  29.539  33.149  1.00  0.00     0.031 A 
ATOM     49  C   UNL A   1      40.675  30.254  32.516  1.00  0.00     0.074 A 
ATOM     50  C   UNL A   1      43.083  29.774  32.713  1.00  0.00     0.049 A 
ATOM     51  N   UNL A   1      40.694  31.322  31.762  1.00  0.00    -0.248 NA
ATOM     52  C   UNL A   1      39.332  29.693  32.727  1.00  0.00     0.031 C 
ATOM     53  C   UNL A   1      44.267  29.020  33.130  1.00  0.00     0.029 A 
ATOM     54  N   UNL A   1      43.577  30.717  31.848  1.00  0.00    -0.354 N 
ATOM     55  C   UNL A   1      39.368  31.587  31.444  1.00  0.00     0.074 A 
ATOM     56  C   UNL A   1      38.580  30.511  32.003  1.00  0.00     0.031 C 
ATOM     57  C   UNL A   1      45.355  29.569  32.571  1.00  0.00     0.029 A 
ATOM     58  C   UNL A   1      44.951  30.715  31.761  1.00  0.00     0.049 A 
ATOM     59  H   UNL A   1      43.005  31.336  31.338  1.00  0.00     0.167 HD
ATOM     60  C   UNL A   1      38.858  32.657  30.789  1.00  0.00     0.034 A 
ATOM     61  C   UNL A   1      45.793  31.572  31.147  1.00  0.00     0.034 A 
ATOM     62  C   UNL A   1      39.676  33.701  30.226  1.00  0.00     0.049 A 
ATOM     63  C   UNL A   1      45.217  32.796  30.480  1.00  0.00     0.074 A 
ATOM     64  C   UNL A   1      39.268  34.873  29.615  1.00  0.00     0.029 A 
ATOM     65  N   UNL A   1      41.064  33.695  30.196  1.00  0.00    -0.354 N 
ATOM     66  N   UNL A   1      43.959  33.156  30.368  1.00  0.00    -0.248 NA
ATOM     67  C   UNL A   1      46.165  33.748  29.886  1.00  0.00     0.031 C 
ATOM     68  C   UNL A   1      40.406  35.544  29.162  1.00  0.00     0.029 A 
ATOM     69  C   UNL A   1      41.528  34.830  29.554  1.00  0.00     0.049 A 
ATOM     70  H   UNL A   1      41.633  32.987  30.575  1.00  0.00     0.167 HD
ATOM     71  C   UNL A   1      43.967  34.388  29.719  1.00  0.00     0.074 A 
ATOM     72  C   UNL A   1      45.356  34.722  29.486  1.00  0.00     0.031 C 
ATOM     73  C   UNL A   1      42.918  35.165  29.345  1.00  0.00     0.034 A 
BRANCH  60  74
ATOM     74  C   UNL A   1      37.358  32.802  30.700  1.00  0.00     0.023 A 
ATOM     75  C   UNL A   1      36.634  33.466  31.707  1.00  0.00     0.031 A 
ATOM     76  C   UNL A   1      36.632  32.160  29.676  1.00  0.00     0.131 A 
ATOM     77  C   UNL A   1      35.233  33.450  31.682  1.00  0.00     0.055 A 
ATOM     78  C   UNL A   1      35.240  32.185  29.633  1.00  0.00     0.041 A 
ATOM     79  F   UNL A   1      37.273  31.501  28.697  1.00  0.00    -0.206 F 
ATOM     80  C   UNL A   1      34.533  32.823  30.646  1.00  0.00     0.022 A 
BRANCH  77  81
ATOM     81  S   UNL A   1      34.257  34.190  33.021  1.00  0.00     0.124 S 
ATOM     82  O   UNL A   1      33.108  33.289  33.090  1.00  0.00    -0.237 OA
ATOM     83  O   UNL A   1      35.179  34.110  34.149  1.00  0.00    -0.237 OA
ATOM     84  O   UNL A   1      33.962  35.535  32.539  1.00  0.00    -0.744 OA
ENDBRANCH  77  81
ENDBRANCH  60  74
BRANCH  61  85
ATOM     85  C   UNL A   1      47.265  31.359  31.281  1.00  0.00     0.023 A 
ATOM     86  C   UNL A   1      48.011  30.767  30.245  1.00  0.00     0.031 A 
ATOM     87  C   UNL A   1      47.921  31.629  32.495  1.00  0.00     0.131 A 
ATOM     88  C   UNL A   1      49.349  30.413  30.464  1.00  0.00     0.055 A 
ATOM     89  C   UNL A   1      49.272  31.336  32.686  1.00  0.00     0.041 A 
ATOM     90  F   UNL A   1      47.247  32.169  33.522  1.00  0.00    -0.206 F 
ATOM     91  C   UNL A   1      49.990  30.710  31.671  1.00  0.00     0.022 A 
BRANCH  88  92
ATOM     92  S   UNL A   1      50.266  29.435  29.241  1.00  0.00     0.124 S 
ATOM     93  O   UNL A   1      51.300  30.372  28.815  1.00  0.00    -0.237 OA
ATOM     94  O   UNL A   1      50.729  28.308  30.048  1.00  0.00    -0.237 OA
ATOM     95  O   UNL A   1      49.258  29.106  28.239  1.00  0.00    -0.744 OA
ENDBRANCH  88  92
ENDBRANCH  61  85
BRANCH  73  96
ATOM     96  C   UNL A   1      43.196  36.468  28.635  1.00  0.00     0.023 A 
ATOM     97  C   UNL A   1      43.558  37.608  29.380  1.00  0.00     0.031 A 
ATOM     98  C   UNL A   1      42.925  36.627  27.266  1.00  0.00     0.131 A 
ATOM     99  C   UNL A   1      43.586  38.865  28.762  1.00  0.00     0.055 A 
ATOM    100  C   UNL A   1      43.004  37.873  26.643  1.00  0.00     0.041 A 
ATOM    101  F   UNL A   1      42.562  35.574  26.517  1.00  0.00    -0.206 F 
ATOM    102  C   UNL A   1      43.318  39.001  27.396  1.00  0.00     0.022 A 
BRANCH  99 103
ATOM    103  S   UNL A   1      43.862  40.376  29.725  1.00  0.00     0.124 S 
ATOM    104  O   UNL A   1      43.039  41.347  29.008  1.00  0.00    -0.237 OA
ATOM    105  O   UNL A   1      43.368  39.994  31.046  1.00  0.00    -0.237 OA
ATOM    106  O   UNL A   1      45.302  40.595  29.633  1.00  0.00    -0.744 OA
ENDBRANCH  99 103
ENDBRANCH  73  96
ENDBRANCH  47  48
ENDBRANCH  40  42
ENDBRANCH  39  40
ENDBRANCH  38  39
ENDBRANCH  37  38
ENDBRANCH  36  37
ENDBRANCH  35  36
ENDBRANCH   1  35
TORSDOF 25
ENDMDL
