MODEL 1
REMARK VINA RESULT:     -10.9      0.000      0.000
REMARK SMILES CC1=C(C)C[C@@H](C(=O)OCCOCCOCCOC(=O)c2ccc(-c3c4nc(c(-c5cc(S(=O)(=O)[O-])ccc5F)c5ccc([nH]5)c(-c5cc(S(=O)(=O)[O-])ccc5F)c5nc(c(-c6cc(S(=O)(=O)[O-])ccc6F)c6ccc3[nH]6)C=C5)C=C4)cc2)[C@@H](C(=O)NCC[NH+]2CCOCC2)C1
REMARK SMILES IDX 13 1 12 2 11 3 10 4 9 5 7 6 8 7 6 8 1 9 2 10 3 11 96 12 4 13
REMARK SMILES IDX 5 14 84 15 85 16 86 17 87 18 88 20 89 21 90 22 91 23 95 24
REMARK SMILES IDX 92 26 94 27 93 28 14 29 15 30 16 31 17 32 18 33 19 34 20 35
REMARK SMILES IDX 21 36 22 37 83 38 23 39 82 40 24 41 25 42 26 43 76 44 27 45
REMARK SMILES IDX 81 46 75 47 77 48 28 49 80 50 74 51 73 52 29 54 61 55 41 56
REMARK SMILES IDX 60 57 42 58 45 59 59 60 78 61 43 62 44 63 58 65 79 66 46 67
REMARK SMILES IDX 30 68 31 69 39 70 32 71 38 72 40 73 37 74 33 75 34 76 35 77
REMARK SMILES IDX 36 78 62 79 63 80 71 81 64 82 70 83 72 84 69 85 65 86 66 87
REMARK SMILES IDX 67 88 68 89 47 90 48 91 56 92 49 93 55 94 57 95 54 96 50 97
REMARK SMILES IDX 51 98 52 99 53 100
REMARK H PARENT 87 19 90 25 77 53 45 64
REMARK Flexibility Score: inf
ROOT
ATOM      1  C   UNL A   1      30.473  27.436  22.919  1.00  0.00     0.188 C 
ENDROOT
BRANCH   1   2
ATOM      2  O   UNL A   1      31.369  26.944  21.932  1.00  0.00    -0.376 OA
BRANCH   2   3
ATOM      3  C   UNL A   1      32.387  26.114  22.491  1.00  0.00     0.202 C 
BRANCH   3   4
ATOM      4  C   UNL A   1      32.079  24.607  22.491  1.00  0.00     0.261 C 
BRANCH   4   5
ATOM      5  O   UNL A   1      31.426  24.151  23.705  1.00  0.00    -0.463 OA
BRANCH   5   6
ATOM      6  C   UNL A   1      32.017  23.095  24.317  1.00  0.00     0.310 C 
ATOM      7  O   UNL A   1      31.907  21.935  23.932  1.00  0.00    -0.252 OA
BRANCH   6   8
ATOM      8  C   UNL A   1      32.715  23.406  25.630  1.00  0.00     0.116 C 
ATOM      9  C   UNL A   1      33.927  27.650  25.834  1.00  0.00     0.039 C 
ATOM     10  C   UNL A   1      33.456  26.220  25.959  1.00  0.00    -0.074 C 
ATOM     11  C   UNL A   1      32.207  25.837  26.287  1.00  0.00    -0.073 C 
ATOM     12  C   UNL A   1      34.554  25.217  25.668  1.00  0.00     0.045 C 
ATOM     13  C   UNL A   1      31.046  26.756  26.563  1.00  0.00     0.039 C 
ATOM     14  C   UNL A   1      31.860  24.381  26.441  1.00  0.00     0.046 C 
ATOM     15  C   UNL A   1      34.219  23.696  25.670  1.00  0.00     0.097 C 
BRANCH  15  16
ATOM     16  C   UNL A   1      35.100  22.991  24.630  1.00  0.00     0.224 C 
ATOM     17  O   UNL A   1      35.798  23.641  23.845  1.00  0.00    -0.275 OA
ATOM     18  N   UNL A   1      35.203  21.644  24.510  1.00  0.00    -0.350 N 
ATOM     19  H   UNL A   1      35.606  21.359  23.658  1.00  0.00     0.163 HD
BRANCH  18  20
ATOM     20  C   UNL A   1      34.845  20.536  25.372  1.00  0.00     0.177 C 
BRANCH  20  21
ATOM     21  C   UNL A   1      35.001  19.127  24.747  1.00  0.00     0.283 C 
BRANCH  21  22
ATOM     22  N   UNL A   1      34.051  18.053  25.148  1.00  0.00    -0.330 N 
ATOM     23  C   UNL A   1      34.319  16.752  24.478  1.00  0.00     0.291 C 
ATOM     24  C   UNL A   1      32.668  18.407  24.715  1.00  0.00     0.291 C 
ATOM     25  H   UNL A   1      34.161  17.970  26.158  1.00  0.00     0.348 HD
ATOM     26  C   UNL A   1      34.124  16.753  22.946  1.00  0.00     0.221 C 
ATOM     27  C   UNL A   1      32.510  18.466  23.184  1.00  0.00     0.221 C 
ATOM     28  O   UNL A   1      32.809  17.199  22.583  1.00  0.00    -0.370 OA
ENDBRANCH  21  22
ENDBRANCH  20  21
ENDBRANCH  18  20
ENDBRANCH  15  16
ENDBRANCH   6   8
ENDBRANCH   5   6
ENDBRANCH   4   5
ENDBRANCH   3   4
ENDBRANCH   2   3
ENDBRANCH   1   2
BRANCH   1  29
ATOM     29  C   UNL A   1      30.500  28.942  23.181  1.00  0.00     0.188 C 
BRANCH  29  30
ATOM     30  O   UNL A   1      30.504  29.331  24.545  1.00  0.00    -0.376 OA
BRANCH  30  31
ATOM     31  C   UNL A   1      31.642  30.095  24.944  1.00  0.00     0.202 C 
BRANCH  31  32
ATOM     32  C   UNL A   1      31.314  31.196  25.963  1.00  0.00     0.261 C 
BRANCH  32  33
ATOM     33  O   UNL A   1      32.209  31.153  27.096  1.00  0.00    -0.460 OA
BRANCH  33  34
ATOM     34  C   UNL A   1      32.930  32.271  27.359  1.00  0.00     0.338 C 
ATOM     35  O   UNL A   1      32.540  33.426  27.250  1.00  0.00    -0.246 OA
BRANCH  34  36
ATOM     36  C   UNL A   1      34.275  31.912  27.869  1.00  0.00     0.060 A 
ATOM     37  C   UNL A   1      34.537  30.582  28.227  1.00  0.00     0.016 A 
ATOM     38  C   UNL A   1      35.264  32.884  28.049  1.00  0.00     0.016 A 
ATOM     39  C   UNL A   1      35.794  30.217  28.723  1.00  0.00     0.010 A 
ATOM     40  C   UNL A   1      36.512  32.523  28.571  1.00  0.00     0.010 A 
ATOM     41  C   UNL A   1      36.788  31.188  28.912  1.00  0.00    -0.014 A 
BRANCH  41  42
ATOM     42  C   UNL A   1      38.025  30.874  29.675  1.00  0.00     0.031 A 
ATOM     43  C   UNL A   1      38.968  29.870  29.080  1.00  0.00     0.074 A 
ATOM     44  C   UNL A   1      38.283  31.411  30.881  1.00  0.00     0.049 A 
ATOM     45  N   UNL A   1      40.037  29.326  29.596  1.00  0.00    -0.248 NA
ATOM     46  C   UNL A   1      38.659  29.426  27.713  1.00  0.00     0.031 C 
ATOM     47  C   UNL A   1      37.492  32.458  31.517  1.00  0.00     0.029 A 
ATOM     48  N   UNL A   1      39.267  31.136  31.801  1.00  0.00    -0.354 N 
ATOM     49  C   UNL A   1      40.531  28.474  28.615  1.00  0.00     0.074 A 
ATOM     50  C   UNL A   1      39.632  28.563  27.485  1.00  0.00     0.031 C 
ATOM     51  C   UNL A   1      37.980  32.698  32.748  1.00  0.00     0.029 A 
ATOM     52  C   UNL A   1      39.107  31.800  32.998  1.00  0.00     0.049 A 
ATOM     53  H   UNL A   1      40.016  30.523  31.622  1.00  0.00     0.167 HD
ATOM     54  C   UNL A   1      41.629  27.682  28.660  1.00  0.00     0.034 A 
ATOM     55  C   UNL A   1      39.770  31.669  34.170  1.00  0.00     0.034 A 
ATOM     56  C   UNL A   1      42.467  27.555  29.825  1.00  0.00     0.049 A 
ATOM     57  C   UNL A   1      40.910  30.678  34.248  1.00  0.00     0.074 A 
ATOM     58  C   UNL A   1      43.590  26.767  29.995  1.00  0.00     0.029 A 
ATOM     59  N   UNL A   1      42.249  28.207  31.033  1.00  0.00    -0.354 N 
ATOM     60  N   UNL A   1      41.375  29.882  33.312  1.00  0.00    -0.248 NA
ATOM     61  C   UNL A   1      41.618  30.568  35.532  1.00  0.00     0.031 C 
ATOM     62  C   UNL A   1      43.993  26.868  31.330  1.00  0.00     0.029 A 
ATOM     63  C   UNL A   1      43.189  27.804  31.966  1.00  0.00     0.049 A 
ATOM     64  H   UNL A   1      41.532  28.861  31.200  1.00  0.00     0.167 HD
ATOM     65  C   UNL A   1      42.454  29.208  33.883  1.00  0.00     0.074 A 
ATOM     66  C   UNL A   1      42.566  29.686  35.245  1.00  0.00     0.031 C 
ATOM     67  C   UNL A   1      43.286  28.291  33.324  1.00  0.00     0.034 A 
BRANCH  54  68
ATOM     68  C   UNL A   1      41.900  26.827  27.447  1.00  0.00     0.023 A 
ATOM     69  C   UNL A   1      41.502  25.479  27.389  1.00  0.00     0.031 A 
ATOM     70  C   UNL A   1      42.647  27.340  26.373  1.00  0.00     0.131 A 
ATOM     71  C   UNL A   1      41.936  24.668  26.329  1.00  0.00     0.055 A 
ATOM     72  C   UNL A   1      42.994  26.551  25.276  1.00  0.00     0.041 A 
ATOM     73  F   UNL A   1      43.082  28.610  26.388  1.00  0.00    -0.206 F 
ATOM     74  C   UNL A   1      42.657  25.201  25.259  1.00  0.00     0.022 A 
BRANCH  71  75
ATOM     75  S   UNL A   1      41.709  22.873  26.467  1.00  0.00     0.124 S 
ATOM     76  O   UNL A   1      42.441  22.577  27.696  1.00  0.00    -0.237 OA
ATOM     77  O   UNL A   1      40.258  22.743  26.539  1.00  0.00    -0.237 OA
ATOM     78  O   UNL A   1      42.323  22.356  25.245  1.00  0.00    -0.744 OA
ENDBRANCH  71  75
ENDBRANCH  54  68
BRANCH  55  79
ATOM     79  C   UNL A   1      39.343  32.442  35.377  1.00  0.00     0.023 A 
ATOM     80  C   UNL A   1      39.771  33.761  35.600  1.00  0.00     0.031 A 
ATOM     81  C   UNL A   1      38.526  31.846  36.356  1.00  0.00     0.131 A 
ATOM     82  C   UNL A   1      39.408  34.427  36.785  1.00  0.00     0.055 A 
ATOM     83  C   UNL A   1      38.128  32.529  37.509  1.00  0.00     0.041 A 
ATOM     84  F   UNL A   1      38.090  30.585  36.202  1.00  0.00    -0.206 F 
ATOM     85  C   UNL A   1      38.578  33.825  37.732  1.00  0.00     0.022 A 
BRANCH  82  86
ATOM     86  S   UNL A   1      40.097  36.076  37.109  1.00  0.00     0.124 S 
ATOM     87  O   UNL A   1      39.253  36.540  38.204  1.00  0.00    -0.237 OA
ATOM     88  O   UNL A   1      41.481  35.763  37.452  1.00  0.00    -0.237 OA
ATOM     89  O   UNL A   1      39.916  36.777  35.839  1.00  0.00    -0.744 OA
ENDBRANCH  82  86
ENDBRANCH  55  79
BRANCH  67  90
ATOM     90  C   UNL A   1      44.439  27.786  34.157  1.00  0.00     0.023 A 
ATOM     91  C   UNL A   1      44.366  26.597  34.902  1.00  0.00     0.031 A 
ATOM     92  C   UNL A   1      45.661  28.488  34.147  1.00  0.00     0.131 A 
ATOM     93  C   UNL A   1      45.486  26.159  35.626  1.00  0.00     0.055 A 
ATOM     94  C   UNL A   1      46.787  28.015  34.819  1.00  0.00     0.041 A 
ATOM     95  F   UNL A   1      45.785  29.631  33.455  1.00  0.00    -0.206 F 
ATOM     96  C   UNL A   1      46.702  26.847  35.569  1.00  0.00     0.022 A 
BRANCH  93  97
ATOM     97  S   UNL A   1      45.324  24.702  36.694  1.00  0.00     0.124 S 
ATOM     98  O   UNL A   1      45.283  25.304  38.022  1.00  0.00    -0.237 OA
ATOM     99  O   UNL A   1      44.078  24.105  36.224  1.00  0.00    -0.237 OA
ATOM    100  O   UNL A   1      46.530  23.927  36.403  1.00  0.00    -0.744 OA
ENDBRANCH  93  97
ENDBRANCH  67  90
ENDBRANCH  41  42
ENDBRANCH  34  36
ENDBRANCH  33  34
ENDBRANCH  32  33
ENDBRANCH  31  32
ENDBRANCH  30  31
ENDBRANCH  29  30
ENDBRANCH   1  29
TORSDOF 24
ENDMDL
MODEL 2
REMARK VINA RESULT:     -10.3      5.496     10.334
REMARK SMILES CC1=C(C)C[C@@H](C(=O)OCCOCCOCCOC(=O)c2ccc(-c3c4nc(c(-c5cc(S(=O)(=O)[O-])ccc5F)c5ccc([nH]5)c(-c5cc(S(=O)(=O)[O-])ccc5F)c5nc(c(-c6cc(S(=O)(=O)[O-])ccc6F)c6ccc3[nH]6)C=C5)C=C4)cc2)[C@@H](C(=O)NCC[NH+]2CCOCC2)C1
REMARK SMILES IDX 13 1 12 2 11 3 10 4 9 5 7 6 8 7 6 8 1 9 2 10 3 11 96 12 4 13
REMARK SMILES IDX 5 14 84 15 85 16 86 17 87 18 88 20 89 21 90 22 91 23 95 24
REMARK SMILES IDX 92 26 94 27 93 28 14 29 15 30 16 31 17 32 18 33 19 34 20 35
REMARK SMILES IDX 21 36 22 37 83 38 23 39 82 40 24 41 25 42 26 43 76 44 27 45
REMARK SMILES IDX 81 46 75 47 77 48 28 49 80 50 74 51 73 52 29 54 61 55 41 56
REMARK SMILES IDX 60 57 42 58 45 59 59 60 78 61 43 62 44 63 58 65 79 66 46 67
REMARK SMILES IDX 30 68 31 69 39 70 32 71 38 72 40 73 37 74 33 75 34 76 35 77
REMARK SMILES IDX 36 78 62 79 63 80 71 81 64 82 70 83 72 84 69 85 65 86 66 87
REMARK SMILES IDX 67 88 68 89 47 90 48 91 56 92 49 93 55 94 57 95 54 96 50 97
REMARK SMILES IDX 51 98 52 99 53 100
REMARK H PARENT 87 19 90 25 77 53 45 64
REMARK Flexibility Score: inf
ROOT
ATOM      1  C   UNL A   1      35.905  21.088  25.070  1.00  0.00     0.188 C 
ENDROOT
BRANCH   1   2
ATOM      2  O   UNL A   1      35.544  21.735  26.282  1.00  0.00    -0.376 OA
BRANCH   2   3
ATOM      3  C   UNL A   1      35.734  23.148  26.218  1.00  0.00     0.202 C 
BRANCH   3   4
ATOM      4  C   UNL A   1      35.614  23.764  24.813  1.00  0.00     0.261 C 
BRANCH   4   5
ATOM      5  O   UNL A   1      34.267  24.194  24.485  1.00  0.00    -0.463 OA
BRANCH   5   6
ATOM      6  C   UNL A   1      33.561  23.337  23.705  1.00  0.00     0.310 C 
ATOM      7  O   UNL A   1      34.068  22.633  22.836  1.00  0.00    -0.252 OA
BRANCH   6   8
ATOM      8  C   UNL A   1      32.051  23.405  23.856  1.00  0.00     0.116 C 
ATOM      9  C   UNL A   1      30.800  27.196  25.747  1.00  0.00     0.039 C 
ATOM     10  C   UNL A   1      31.069  25.926  24.975  1.00  0.00    -0.074 C 
ATOM     11  C   UNL A   1      31.304  25.854  23.651  1.00  0.00    -0.073 C 
ATOM     12  C   UNL A   1      31.054  24.694  25.857  1.00  0.00     0.045 C 
ATOM     13  C   UNL A   1      31.369  27.021  22.702  1.00  0.00     0.039 C 
ATOM     14  C   UNL A   1      31.503  24.526  22.972  1.00  0.00     0.046 C 
ATOM     15  C   UNL A   1      31.395  23.306  25.237  1.00  0.00     0.097 C 
BRANCH  15  16
ATOM     16  C   UNL A   1      32.105  22.450  26.294  1.00  0.00     0.224 C 
ATOM     17  O   UNL A   1      32.313  22.888  27.430  1.00  0.00    -0.275 OA
ATOM     18  N   UNL A   1      32.521  21.177  26.085  1.00  0.00    -0.350 N 
ATOM     19  H   UNL A   1      33.161  20.860  26.763  1.00  0.00     0.163 HD
BRANCH  18  20
ATOM     20  C   UNL A   1      32.222  20.183  25.073  1.00  0.00     0.177 C 
BRANCH  20  21
ATOM     21  C   UNL A   1      32.729  18.750  25.374  1.00  0.00     0.283 C 
BRANCH  21  22
ATOM     22  N   UNL A   1      32.166  17.612  24.599  1.00  0.00    -0.330 N 
ATOM     23  C   UNL A   1      32.357  16.295  25.266  1.00  0.00     0.291 C 
ATOM     24  C   UNL A   1      32.891  17.469  23.302  1.00  0.00     0.291 C 
ATOM     25  H   UNL A   1      31.175  17.826  24.498  1.00  0.00     0.348 HD
ATOM     26  C   UNL A   1      33.826  15.845  25.416  1.00  0.00     0.221 C 
ATOM     27  C   UNL A   1      34.372  17.083  23.476  1.00  0.00     0.221 C 
ATOM     28  O   UNL A   1      34.503  15.824  24.151  1.00  0.00    -0.370 OA
ENDBRANCH  21  22
ENDBRANCH  20  21
ENDBRANCH  18  20
ENDBRANCH  15  16
ENDBRANCH   6   8
ENDBRANCH   5   6
ENDBRANCH   4   5
ENDBRANCH   3   4
ENDBRANCH   2   3
ENDBRANCH   1   2
BRANCH   1  29
ATOM     29  C   UNL A   1      37.222  20.312  25.070  1.00  0.00     0.188 C 
BRANCH  29  30
ATOM     30  O   UNL A   1      38.400  21.094  24.961  1.00  0.00    -0.376 OA
BRANCH  30  31
ATOM     31  C   UNL A   1      39.306  20.961  26.057  1.00  0.00     0.202 C 
BRANCH  31  32
ATOM     32  C   UNL A   1      39.936  19.565  26.164  1.00  0.00     0.261 C 
BRANCH  32  33
ATOM     33  O   UNL A   1      41.125  19.456  25.351  1.00  0.00    -0.460 OA
BRANCH  33  34
ATOM     34  C   UNL A   1      42.320  19.498  25.991  1.00  0.00     0.338 C 
ATOM     35  O   UNL A   1      43.067  18.550  26.193  1.00  0.00    -0.246 OA
BRANCH  34  36
ATOM     36  C   UNL A   1      42.651  20.890  26.380  1.00  0.00     0.060 A 
ATOM     37  C   UNL A   1      42.991  21.814  25.382  1.00  0.00     0.016 A 
ATOM     38  C   UNL A   1      42.683  21.279  27.723  1.00  0.00     0.016 A 
ATOM     39  C   UNL A   1      43.321  23.132  25.721  1.00  0.00     0.010 A 
ATOM     40  C   UNL A   1      43.039  22.589  28.062  1.00  0.00     0.010 A 
ATOM     41  C   UNL A   1      43.360  23.526  27.065  1.00  0.00    -0.014 A 
BRANCH  41  42
ATOM     42  C   UNL A   1      43.956  24.830  27.460  1.00  0.00     0.031 A 
ATOM     43  C   UNL A   1      43.024  25.895  27.956  1.00  0.00     0.074 A 
ATOM     44  C   UNL A   1      45.271  25.090  27.330  1.00  0.00     0.049 A 
ATOM     45  N   UNL A   1      43.264  27.148  28.234  1.00  0.00    -0.248 NA
ATOM     46  C   UNL A   1      41.629  25.481  28.170  1.00  0.00     0.031 C 
ATOM     47  C   UNL A   1      46.283  24.113  26.947  1.00  0.00     0.029 A 
ATOM     48  N   UNL A   1      45.980  26.258  27.482  1.00  0.00    -0.354 N 
ATOM     49  C   UNL A   1      42.050  27.675  28.658  1.00  0.00     0.074 A 
ATOM     50  C   UNL A   1      41.075  26.609  28.580  1.00  0.00     0.031 C 
ATOM     51  C   UNL A   1      47.473  24.729  26.832  1.00  0.00     0.029 A 
ATOM     52  C   UNL A   1      47.303  26.155  27.111  1.00  0.00     0.049 A 
ATOM     53  H   UNL A   1      45.581  27.090  27.824  1.00  0.00     0.167 HD
ATOM     54  C   UNL A   1      41.773  28.937  29.064  1.00  0.00     0.034 A 
ATOM     55  C   UNL A   1      48.253  27.107  26.975  1.00  0.00     0.034 A 
ATOM     56  C   UNL A   1      42.745  30.000  29.063  1.00  0.00     0.049 A 
ATOM     57  C   UNL A   1      47.893  28.540  27.300  1.00  0.00     0.074 A 
ATOM     58  C   UNL A   1      42.574  31.323  29.428  1.00  0.00     0.029 A 
ATOM     59  N   UNL A   1      44.062  29.870  28.638  1.00  0.00    -0.354 N 
ATOM     60  N   UNL A   1      46.743  29.028  27.708  1.00  0.00    -0.248 NA
ATOM     61  C   UNL A   1      48.952  29.549  27.154  1.00  0.00     0.031 C 
ATOM     62  C   UNL A   1      43.755  32.010  29.135  1.00  0.00     0.029 A 
ATOM     63  C   UNL A   1      44.701  31.098  28.688  1.00  0.00     0.049 A 
ATOM     64  H   UNL A   1      44.479  29.029  28.344  1.00  0.00     0.167 HD
ATOM     65  C   UNL A   1      46.953  30.392  27.905  1.00  0.00     0.074 A 
ATOM     66  C   UNL A   1      48.336  30.650  27.566  1.00  0.00     0.031 C 
ATOM     67  C   UNL A   1      46.084  31.339  28.344  1.00  0.00     0.034 A 
BRANCH  54  68
ATOM     68  C   UNL A   1      40.341  29.234  29.433  1.00  0.00     0.023 A 
ATOM     69  C   UNL A   1      39.912  29.258  30.772  1.00  0.00     0.031 A 
ATOM     70  C   UNL A   1      39.373  29.403  28.429  1.00  0.00     0.131 A 
ATOM     71  C   UNL A   1      38.543  29.349  31.065  1.00  0.00     0.055 A 
ATOM     72  C   UNL A   1      38.023  29.589  28.731  1.00  0.00     0.041 A 
ATOM     73  F   UNL A   1      39.718  29.357  27.132  1.00  0.00    -0.206 F 
ATOM     74  C   UNL A   1      37.598  29.541  30.055  1.00  0.00     0.022 A 
BRANCH  71  75
ATOM     75  S   UNL A   1      38.000  29.020  32.766  1.00  0.00     0.124 S 
ATOM     76  O   UNL A   1      38.024  27.560  32.805  1.00  0.00    -0.237 OA
ATOM     77  O   UNL A   1      39.019  29.698  33.558  1.00  0.00    -0.237 OA
ATOM     78  O   UNL A   1      36.667  29.616  32.820  1.00  0.00    -0.744 OA
ENDBRANCH  71  75
ENDBRANCH  54  68
BRANCH  55  79
ATOM     79  C   UNL A   1      49.612  26.759  26.454  1.00  0.00     0.023 A 
ATOM     80  C   UNL A   1      50.029  27.134  25.166  1.00  0.00     0.031 A 
ATOM     81  C   UNL A   1      50.503  25.997  27.234  1.00  0.00     0.131 A 
ATOM     82  C   UNL A   1      51.285  26.723  24.687  1.00  0.00     0.055 A 
ATOM     83  C   UNL A   1      51.770  25.632  26.770  1.00  0.00     0.041 A 
ATOM     84  F   UNL A   1      50.158  25.602  28.469  1.00  0.00    -0.206 F 
ATOM     85  C   UNL A   1      52.163  25.987  25.485  1.00  0.00     0.022 A 
BRANCH  82  86
ATOM     86  S   UNL A   1      51.735  27.102  22.968  1.00  0.00     0.124 S 
ATOM     87  O   UNL A   1      51.983  28.537  23.036  1.00  0.00    -0.237 OA
ATOM     88  O   UNL A   1      52.907  26.255  22.769  1.00  0.00    -0.237 OA
ATOM     89  O   UNL A   1      50.548  26.707  22.211  1.00  0.00    -0.744 OA
ENDBRANCH  82  86
ENDBRANCH  55  79
BRANCH  67  90
ATOM     90  C   UNL A   1      46.613  32.737  28.552  1.00  0.00     0.023 A 
ATOM     91  C   UNL A   1      46.672  33.681  27.513  1.00  0.00     0.031 A 
ATOM     92  C   UNL A   1      47.005  33.145  29.842  1.00  0.00     0.131 A 
ATOM     93  C   UNL A   1      47.137  34.979  27.777  1.00  0.00     0.055 A 
ATOM     94  C   UNL A   1      47.409  34.453  30.110  1.00  0.00     0.041 A 
ATOM     95  F   UNL A   1      46.973  32.282  30.870  1.00  0.00    -0.206 F 
ATOM     96  C   UNL A   1      47.482  35.377  29.073  1.00  0.00     0.022 A 
BRANCH  93  97
ATOM     97  S   UNL A   1      47.341  36.136  26.395  1.00  0.00     0.124 S 
ATOM     98  O   UNL A   1      48.460  35.545  25.670  1.00  0.00    -0.237 OA
ATOM     99  O   UNL A   1      46.042  36.067  25.733  1.00  0.00    -0.237 OA
ATOM    100  O   UNL A   1      47.632  37.410  27.053  1.00  0.00    -0.744 OA
ENDBRANCH  93  97
ENDBRANCH  67  90
ENDBRANCH  41  42
ENDBRANCH  34  36
ENDBRANCH  33  34
ENDBRANCH  32  33
ENDBRANCH  31  32
ENDBRANCH  30  31
ENDBRANCH  29  30
ENDBRANCH   1  29
TORSDOF 24
ENDMDL
MODEL 3
REMARK VINA RESULT:     -10.1      5.001      8.410
REMARK SMILES CC1=C(C)C[C@@H](C(=O)OCCOCCOCCOC(=O)c2ccc(-c3c4nc(c(-c5cc(S(=O)(=O)[O-])ccc5F)c5ccc([nH]5)c(-c5cc(S(=O)(=O)[O-])ccc5F)c5nc(c(-c6cc(S(=O)(=O)[O-])ccc6F)c6ccc3[nH]6)C=C5)C=C4)cc2)[C@@H](C(=O)NCC[NH+]2CCOCC2)C1
REMARK SMILES IDX 13 1 12 2 11 3 10 4 9 5 7 6 8 7 6 8 1 9 2 10 3 11 96 12 4 13
REMARK SMILES IDX 5 14 84 15 85 16 86 17 87 18 88 20 89 21 90 22 91 23 95 24
REMARK SMILES IDX 92 26 94 27 93 28 14 29 15 30 16 31 17 32 18 33 19 34 20 35
REMARK SMILES IDX 21 36 22 37 83 38 23 39 82 40 24 41 25 42 26 43 76 44 27 45
REMARK SMILES IDX 81 46 75 47 77 48 28 49 80 50 74 51 73 52 29 54 61 55 41 56
REMARK SMILES IDX 60 57 42 58 45 59 59 60 78 61 43 62 44 63 58 65 79 66 46 67
REMARK SMILES IDX 30 68 31 69 39 70 32 71 38 72 40 73 37 74 33 75 34 76 35 77
REMARK SMILES IDX 36 78 62 79 63 80 71 81 64 82 70 83 72 84 69 85 65 86 66 87
REMARK SMILES IDX 67 88 68 89 47 90 48 91 56 92 49 93 55 94 57 95 54 96 50 97
REMARK SMILES IDX 51 98 52 99 53 100
REMARK H PARENT 87 19 90 25 77 53 45 64
REMARK Flexibility Score: inf
ROOT
ATOM      1  C   UNL A   1      36.032  21.669  25.223  1.00  0.00     0.188 C 
ENDROOT
BRANCH   1   2
ATOM      2  O   UNL A   1      36.106  22.782  26.102  1.00  0.00    -0.376 OA
BRANCH   2   3
ATOM      3  C   UNL A   1      35.611  23.979  25.502  1.00  0.00     0.202 C 
BRANCH   3   4
ATOM      4  C   UNL A   1      35.144  23.837  24.043  1.00  0.00     0.261 C 
BRANCH   4   5
ATOM      5  O   UNL A   1      33.745  24.172  23.850  1.00  0.00    -0.463 OA
BRANCH   5   6
ATOM      6  C   UNL A   1      32.950  23.138  23.477  1.00  0.00     0.310 C 
ATOM      7  O   UNL A   1      33.243  22.337  22.594  1.00  0.00    -0.252 OA
BRANCH   6   8
ATOM      8  C   UNL A   1      31.571  23.108  24.115  1.00  0.00     0.116 C 
ATOM      9  C   UNL A   1      30.754  26.836  26.339  1.00  0.00     0.039 C 
ATOM     10  C   UNL A   1      30.841  25.575  25.512  1.00  0.00    -0.074 C 
ATOM     11  C   UNL A   1      30.634  25.499  24.184  1.00  0.00    -0.073 C 
ATOM     12  C   UNL A   1      31.199  24.358  26.342  1.00  0.00     0.045 C 
ATOM     13  C   UNL A   1      30.306  26.653  23.274  1.00  0.00     0.039 C 
ATOM     14  C   UNL A   1      30.690  24.177  23.468  1.00  0.00     0.046 C 
ATOM     15  C   UNL A   1      31.412  22.987  25.634  1.00  0.00     0.097 C 
BRANCH  15  16
ATOM     16  C   UNL A   1      32.485  22.195  26.394  1.00  0.00     0.224 C 
ATOM     17  O   UNL A   1      33.018  22.661  27.406  1.00  0.00    -0.275 OA
ATOM     18  N   UNL A   1      32.899  20.953  26.047  1.00  0.00    -0.350 N 
ATOM     19  H   UNL A   1      33.745  20.690  26.477  1.00  0.00     0.163 HD
BRANCH  18  20
ATOM     20  C   UNL A   1      32.360  19.928  25.175  1.00  0.00     0.177 C 
BRANCH  20  21
ATOM     21  C   UNL A   1      32.641  18.467  25.607  1.00  0.00     0.283 C 
BRANCH  21  22
ATOM     22  N   UNL A   1      32.128  17.356  24.761  1.00  0.00    -0.330 N 
ATOM     23  C   UNL A   1      32.455  16.008  25.300  1.00  0.00     0.291 C 
ATOM     24  C   UNL A   1      32.792  17.383  23.425  1.00  0.00     0.291 C 
ATOM     25  H   UNL A   1      31.119  17.497  24.725  1.00  0.00     0.348 HD
ATOM     26  C   UNL A   1      33.960  15.668  25.342  1.00  0.00     0.221 C 
ATOM     27  C   UNL A   1      34.305  17.105  23.496  1.00  0.00     0.221 C 
ATOM     28  O   UNL A   1      34.568  15.809  24.050  1.00  0.00    -0.370 OA
ENDBRANCH  21  22
ENDBRANCH  20  21
ENDBRANCH  18  20
ENDBRANCH  15  16
ENDBRANCH   6   8
ENDBRANCH   5   6
ENDBRANCH   4   5
ENDBRANCH   3   4
ENDBRANCH   2   3
ENDBRANCH   1   2
BRANCH   1  29
ATOM     29  C   UNL A   1      37.356  21.012  24.833  1.00  0.00     0.188 C 
BRANCH  29  30
ATOM     30  O   UNL A   1      38.521  21.792  25.049  1.00  0.00    -0.376 OA
BRANCH  30  31
ATOM     31  C   UNL A   1      39.324  21.371  26.152  1.00  0.00     0.202 C 
BRANCH  31  32
ATOM     32  C   UNL A   1      39.734  19.893  26.081  1.00  0.00     0.261 C 
BRANCH  32  33
ATOM     33  O   UNL A   1      41.067  19.739  25.543  1.00  0.00    -0.460 OA
BRANCH  33  34
ATOM     34  C   UNL A   1      42.099  19.789  26.421  1.00  0.00     0.338 C 
ATOM     35  O   UNL A   1      42.663  18.830  26.932  1.00  0.00    -0.246 OA
BRANCH  34  36
ATOM     36  C   UNL A   1      42.515  21.193  26.652  1.00  0.00     0.060 A 
ATOM     37  C   UNL A   1      42.511  21.700  27.959  1.00  0.00     0.016 A 
ATOM     38  C   UNL A   1      42.857  22.032  25.586  1.00  0.00     0.016 A 
ATOM     39  C   UNL A   1      42.887  23.026  28.206  1.00  0.00     0.010 A 
ATOM     40  C   UNL A   1      43.206  23.365  25.831  1.00  0.00     0.010 A 
ATOM     41  C   UNL A   1      43.225  23.873  27.142  1.00  0.00    -0.014 A 
BRANCH  41  42
ATOM     42  C   UNL A   1      43.370  25.338  27.351  1.00  0.00     0.031 A 
ATOM     43  C   UNL A   1      44.744  25.924  27.214  1.00  0.00     0.074 A 
ATOM     44  C   UNL A   1      42.334  26.120  27.707  1.00  0.00     0.049 A 
ATOM     45  N   UNL A   1      45.162  27.133  27.472  1.00  0.00    -0.248 NA
ATOM     46  C   UNL A   1      45.785  25.014  26.712  1.00  0.00     0.031 C 
ATOM     47  C   UNL A   1      40.944  25.686  27.783  1.00  0.00     0.029 A 
ATOM     48  N   UNL A   1      42.290  27.438  28.097  1.00  0.00    -0.354 N 
ATOM     49  C   UNL A   1      46.517  27.132  27.163  1.00  0.00     0.074 A 
ATOM     50  C   UNL A   1      46.849  25.796  26.718  1.00  0.00     0.031 C 
ATOM     51  C   UNL A   1      40.189  26.695  28.252  1.00  0.00     0.029 A 
ATOM     52  C   UNL A   1      41.048  27.845  28.535  1.00  0.00     0.049 A 
ATOM     53  H   UNL A   1      43.071  28.035  28.066  1.00  0.00     0.167 HD
ATOM     54  C   UNL A   1      47.404  28.152  27.255  1.00  0.00     0.034 A 
ATOM     55  C   UNL A   1      40.660  28.996  29.129  1.00  0.00     0.034 A 
ATOM     56  C   UNL A   1      47.065  29.453  27.771  1.00  0.00     0.049 A 
ATOM     57  C   UNL A   1      41.694  30.078  29.352  1.00  0.00     0.074 A 
ATOM     58  C   UNL A   1      47.885  30.554  27.934  1.00  0.00     0.029 A 
ATOM     59  N   UNL A   1      45.811  29.814  28.247  1.00  0.00    -0.354 N 
ATOM     60  N   UNL A   1      42.972  30.071  29.049  1.00  0.00    -0.248 NA
ATOM     61  C   UNL A   1      41.238  31.322  29.989  1.00  0.00     0.031 C 
ATOM     62  C   UNL A   1      47.153  31.547  28.593  1.00  0.00     0.029 A 
ATOM     63  C   UNL A   1      45.846  31.106  28.745  1.00  0.00     0.049 A 
ATOM     64  H   UNL A   1      45.013  29.237  28.231  1.00  0.00     0.167 HD
ATOM     65  C   UNL A   1      43.462  31.322  29.421  1.00  0.00     0.074 A 
ATOM     66  C   UNL A   1      42.344  32.055  29.977  1.00  0.00     0.031 C 
ATOM     67  C   UNL A   1      44.718  31.823  29.298  1.00  0.00     0.034 A 
BRANCH  54  68
ATOM     68  C   UNL A   1      48.834  27.844  26.883  1.00  0.00     0.023 A 
ATOM     69  C   UNL A   1      49.318  28.044  25.578  1.00  0.00     0.031 A 
ATOM     70  C   UNL A   1      49.697  27.256  27.823  1.00  0.00     0.131 A 
ATOM     71  C   UNL A   1      50.592  27.572  25.226  1.00  0.00     0.055 A 
ATOM     72  C   UNL A   1      50.998  26.874  27.490  1.00  0.00     0.041 A 
ATOM     73  F   UNL A   1      49.280  27.010  29.075  1.00  0.00    -0.206 F 
ATOM     74  C   UNL A   1      51.445  27.012  26.179  1.00  0.00     0.022 A 
BRANCH  71  75
ATOM     75  S   UNL A   1      51.039  27.525  23.468  1.00  0.00     0.124 S 
ATOM     76  O   UNL A   1      52.304  26.795  23.505  1.00  0.00    -0.237 OA
ATOM     77  O   UNL A   1      49.910  26.818  22.874  1.00  0.00    -0.237 OA
ATOM     78  O   UNL A   1      51.153  28.936  23.106  1.00  0.00    -0.744 OA
ENDBRANCH  71  75
ENDBRANCH  54  68
BRANCH  55  79
ATOM     79  C   UNL A   1      39.255  29.168  29.611  1.00  0.00     0.023 A 
ATOM     80  C   UNL A   1      38.314  29.924  28.892  1.00  0.00     0.031 A 
ATOM     81  C   UNL A   1      38.845  28.609  30.837  1.00  0.00     0.131 A 
ATOM     82  C   UNL A   1      37.025  30.124  29.417  1.00  0.00     0.055 A 
ATOM     83  C   UNL A   1      37.548  28.771  31.330  1.00  0.00     0.041 A 
ATOM     84  F   UNL A   1      39.702  27.883  31.572  1.00  0.00    -0.206 F 
ATOM     85  C   UNL A   1      36.632  29.541  30.623  1.00  0.00     0.022 A 
BRANCH  82  86
ATOM     86  S   UNL A   1      35.880  31.223  28.534  1.00  0.00     0.124 S 
ATOM     87  O   UNL A   1      35.481  30.392  27.405  1.00  0.00    -0.237 OA
ATOM     88  O   UNL A   1      34.856  31.469  29.546  1.00  0.00    -0.237 OA
ATOM     89  O   UNL A   1      36.709  32.380  28.198  1.00  0.00    -0.744 OA
ENDBRANCH  82  86
ENDBRANCH  55  79
BRANCH  67  90
ATOM     90  C   UNL A   1      44.948  33.258  29.708  1.00  0.00     0.023 A 
ATOM     91  C   UNL A   1      44.702  34.336  28.842  1.00  0.00     0.031 A 
ATOM     92  C   UNL A   1      45.361  33.545  31.024  1.00  0.00     0.131 A 
ATOM     93  C   UNL A   1      44.897  35.651  29.294  1.00  0.00     0.055 A 
ATOM     94  C   UNL A   1      45.494  34.855  31.485  1.00  0.00     0.041 A 
ATOM     95  F   UNL A   1      45.613  32.552  31.892  1.00  0.00    -0.206 F 
ATOM     96  C   UNL A   1      45.267  35.917  30.616  1.00  0.00     0.022 A 
BRANCH  93  97
ATOM     97  S   UNL A   1      44.714  37.018  28.117  1.00  0.00     0.124 S 
ATOM     98  O   UNL A   1      45.346  36.474  26.920  1.00  0.00    -0.237 OA
ATOM     99  O   UNL A   1      43.266  37.188  28.054  1.00  0.00    -0.237 OA
ATOM    100  O   UNL A   1      45.438  38.119  28.753  1.00  0.00    -0.744 OA
ENDBRANCH  93  97
ENDBRANCH  67  90
ENDBRANCH  41  42
ENDBRANCH  34  36
ENDBRANCH  33  34
ENDBRANCH  32  33
ENDBRANCH  31  32
ENDBRANCH  30  31
ENDBRANCH  29  30
ENDBRANCH   1  29
TORSDOF 24
ENDMDL
