MODEL 1
REMARK VINA RESULT:     -10.2      0.000      0.000
REMARK SMILES C[C@@H]1CN(S(=O)(=O)c2ccc(Cl)c(C(=O)OCCOCCOCCOC(=O)c3ccc(-c4c5nc(c(-c6cc(S(=O)(=O)[O-])ccc6F)c6ccc([nH]6)c(-c6cc(S(=O)(=O)[O-])ccc6F)c6nc(c(-c7cc(S(=O)(=O)[O-])ccc7F)c7ccc4[nH]7)C=C6)C=C5)cc3)c2Cl)C[C@H]1C
REMARK SMILES IDX 21 1 20 2 19 3 18 4 17 5 16 6 14 7 15 8 13 9 8 10 9 11 91 12
REMARK SMILES IDX 10 13 92 14 11 15 12 16 5 17 6 18 7 19 4 20 1 21 2 22 3 23
REMARK SMILES IDX 94 24 93 25 95 26 22 27 23 28 24 29 25 30 26 31 27 32 28 33
REMARK SMILES IDX 29 34 90 35 30 36 89 37 31 38 32 39 33 40 83 41 34 42 88 43
REMARK SMILES IDX 82 44 84 45 35 46 87 47 81 48 80 49 36 51 68 52 48 53 67 54
REMARK SMILES IDX 49 55 52 56 66 57 85 58 50 59 51 60 65 62 86 63 53 64 37 65
REMARK SMILES IDX 38 66 46 67 39 68 45 69 47 70 44 71 40 72 41 73 42 74 43 75
REMARK SMILES IDX 69 76 70 77 78 78 71 79 77 80 79 81 76 82 72 83 73 84 74 85
REMARK SMILES IDX 75 86 54 87 55 88 63 89 56 90 62 91 64 92 61 93 57 94 58 95
REMARK SMILES IDX 59 96 60 97
REMARK H PARENT 84 50 52 61
REMARK Flexibility Score: inf
ROOT
ATOM      1  C   UNL A   1      40.873  21.225  27.340  1.00  0.00     0.188 C 
ENDROOT
BRANCH   1   2
ATOM      2  C   UNL A   1      39.975  21.441  26.102  1.00  0.00     0.188 C 
BRANCH   2   3
ATOM      3  O   UNL A   1      38.915  22.372  26.177  1.00  0.00    -0.376 OA
BRANCH   3   4
ATOM      4  C   UNL A   1      37.761  22.227  25.366  1.00  0.00     0.202 C 
BRANCH   4   5
ATOM      5  C   UNL A   1      37.095  20.878  25.054  1.00  0.00     0.261 C 
BRANCH   5   6
ATOM      6  O   UNL A   1      35.781  20.968  24.500  1.00  0.00    -0.460 OA
BRANCH   6   7
ATOM      7  C   UNL A   1      34.801  21.408  25.330  1.00  0.00     0.341 C 
ATOM      8  O   UNL A   1      34.735  21.266  26.536  1.00  0.00    -0.246 OA
BRANCH   7   9
ATOM      9  C   UNL A   1      33.807  22.133  24.513  1.00  0.00     0.098 A 
ATOM     10  C   UNL A   1      32.956  24.175  23.507  1.00  0.00     0.102 A 
ATOM     11  C   UNL A   1      32.012  23.402  22.806  1.00  0.00     0.025 A 
ATOM     12  C   UNL A   1      33.877  23.541  24.360  1.00  0.00     0.077 A 
ATOM     13  C   UNL A   1      31.928  22.025  22.995  1.00  0.00     0.023 A 
ATOM     14  Cl  UNL A   1      35.102  24.408  25.221  1.00  0.00    -0.082 Cl
ATOM     15  C   UNL A   1      32.818  21.388  23.854  1.00  0.00     0.057 A 
ATOM     16  Cl  UNL A   1      32.627  19.682  24.058  1.00  0.00    -0.083 Cl
BRANCH  10  17
ATOM     17  S   UNL A   1      32.954  25.928  23.129  1.00  0.00     0.244 S 
ATOM     18  O   UNL A   1      31.591  26.275  22.784  1.00  0.00    -0.207 OA
ATOM     19  O   UNL A   1      34.025  26.221  22.205  1.00  0.00    -0.207 OA
BRANCH  17  20
ATOM     20  N   UNL A   1      33.291  26.657  24.633  1.00  0.00    -0.197 NA
ATOM     21  C   UNL A   1      31.404  27.972  27.584  1.00  0.00     0.009 C 
ATOM     22  C   UNL A   1      31.891  27.917  26.143  1.00  0.00     0.005 C 
ATOM     23  C   UNL A   1      32.277  26.503  25.714  1.00  0.00     0.106 C 
ATOM     24  C   UNL A   1      33.172  28.705  25.882  1.00  0.00     0.005 C 
ATOM     25  C   UNL A   1      33.641  28.114  24.547  1.00  0.00     0.106 C 
ATOM     26  C   UNL A   1      32.950  30.210  25.822  1.00  0.00     0.009 C 
ENDBRANCH  17  20
ENDBRANCH  10  17
ENDBRANCH   7   9
ENDBRANCH   6   7
ENDBRANCH   5   6
ENDBRANCH   4   5
ENDBRANCH   3   4
ENDBRANCH   2   3
ENDBRANCH   1   2
BRANCH   1  27
ATOM     27  O   UNL A   1      41.124  19.929  27.849  1.00  0.00    -0.376 OA
BRANCH  27  28
ATOM     28  C   UNL A   1      42.316  19.248  27.490  1.00  0.00     0.202 C 
BRANCH  28  29
ATOM     29  C   UNL A   1      42.555  18.674  26.085  1.00  0.00     0.261 C 
BRANCH  29  30
ATOM     30  O   UNL A   1      42.843  19.626  25.055  1.00  0.00    -0.460 OA
BRANCH  30  31
ATOM     31  C   UNL A   1      44.156  19.730  24.725  1.00  0.00     0.338 C 
ATOM     32  O   UNL A   1      44.838  18.896  24.156  1.00  0.00    -0.246 OA
BRANCH  31  33
ATOM     33  C   UNL A   1      44.612  21.107  24.990  1.00  0.00     0.060 A 
ATOM     34  C   UNL A   1      45.105  21.414  26.265  1.00  0.00     0.016 A 
ATOM     35  C   UNL A   1      44.519  22.094  24.007  1.00  0.00     0.016 A 
ATOM     36  C   UNL A   1      45.492  22.718  26.571  1.00  0.00     0.010 A 
ATOM     37  C   UNL A   1      44.878  23.407  24.325  1.00  0.00     0.010 A 
ATOM     38  C   UNL A   1      45.338  23.730  25.615  1.00  0.00    -0.014 A 
BRANCH  38  39
ATOM     39  C   UNL A   1      45.469  25.150  26.023  1.00  0.00     0.031 A 
ATOM     40  C   UNL A   1      46.833  25.783  25.975  1.00  0.00     0.074 A 
ATOM     41  C   UNL A   1      44.400  25.869  26.409  1.00  0.00     0.049 A 
ATOM     42  N   UNL A   1      47.211  26.980  26.341  1.00  0.00    -0.248 NA
ATOM     43  C   UNL A   1      47.919  24.944  25.443  1.00  0.00     0.031 C 
ATOM     44  C   UNL A   1      43.021  25.385  26.435  1.00  0.00     0.029 A 
ATOM     45  N   UNL A   1      44.313  27.162  26.861  1.00  0.00    -0.354 N 
ATOM     46  C   UNL A   1      48.577  27.038  26.088  1.00  0.00     0.074 A 
ATOM     47  C   UNL A   1      48.967  25.742  25.576  1.00  0.00     0.031 C 
ATOM     48  C   UNL A   1      42.225  26.366  26.897  1.00  0.00     0.029 A 
ATOM     49  C   UNL A   1      43.042  27.531  27.234  1.00  0.00     0.049 A 
ATOM     50  H   UNL A   1      45.087  27.767  26.915  1.00  0.00     0.167 HD
ATOM     51  C   UNL A   1      49.426  28.082  26.258  1.00  0.00     0.034 A 
ATOM     52  C   UNL A   1      42.597  28.670  27.805  1.00  0.00     0.034 A 
ATOM     53  C   UNL A   1      49.024  29.363  26.785  1.00  0.00     0.049 A 
ATOM     54  C   UNL A   1      43.581  29.782  28.086  1.00  0.00     0.074 A 
ATOM     55  C   UNL A   1      49.798  30.492  26.992  1.00  0.00     0.029 A 
ATOM     56  N   UNL A   1      47.738  29.683  27.204  1.00  0.00    -0.354 N 
ATOM     57  N   UNL A   1      44.871  29.832  27.838  1.00  0.00    -0.248 NA
ATOM     58  C   UNL A   1      43.045  30.997  28.717  1.00  0.00     0.031 C 
ATOM     59  C   UNL A   1      49.002  31.463  27.606  1.00  0.00     0.029 A 
ATOM     60  C   UNL A   1      47.708  30.977  27.704  1.00  0.00     0.049 A 
ATOM     61  H   UNL A   1      46.962  29.080  27.154  1.00  0.00     0.167 HD
ATOM     62  C   UNL A   1      45.290  31.095  28.250  1.00  0.00     0.074 A 
ATOM     63  C   UNL A   1      44.116  31.779  28.751  1.00  0.00     0.031 C 
ATOM     64  C   UNL A   1      46.531  31.645  28.209  1.00  0.00     0.034 A 
BRANCH  51  65
ATOM     65  C   UNL A   1      50.880  27.852  25.924  1.00  0.00     0.023 A 
ATOM     66  C   UNL A   1      51.371  27.978  24.612  1.00  0.00     0.031 A 
ATOM     67  C   UNL A   1      51.784  27.464  26.929  1.00  0.00     0.131 A 
ATOM     68  C   UNL A   1      52.705  27.651  24.329  1.00  0.00     0.055 A 
ATOM     69  C   UNL A   1      53.131  27.219  26.655  1.00  0.00     0.041 A 
ATOM     70  F   UNL A   1      51.369  27.302  28.196  1.00  0.00    -0.206 F 
ATOM     71  C   UNL A   1      53.596  27.297  25.346  1.00  0.00     0.022 A 
BRANCH  68  72
ATOM     72  S   UNL A   1      53.227  27.553  22.594  1.00  0.00     0.124 S 
ATOM     73  O   UNL A   1      52.126  28.232  21.915  1.00  0.00    -0.237 OA
ATOM     74  O   UNL A   1      54.503  28.258  22.607  1.00  0.00    -0.237 OA
ATOM     75  O   UNL A   1      53.311  26.116  22.342  1.00  0.00    -0.744 OA
ENDBRANCH  68  72
ENDBRANCH  51  65
BRANCH  52  76
ATOM     76  C   UNL A   1      41.164  28.811  28.197  1.00  0.00     0.023 A 
ATOM     77  C   UNL A   1      40.749  28.605  29.523  1.00  0.00     0.031 A 
ATOM     78  C   UNL A   1      40.177  29.084  27.233  1.00  0.00     0.131 A 
ATOM     79  C   UNL A   1      39.381  28.628  29.839  1.00  0.00     0.055 A 
ATOM     80  C   UNL A   1      38.823  29.161  27.563  1.00  0.00     0.041 A 
ATOM     81  F   UNL A   1      40.516  29.279  25.949  1.00  0.00    -0.206 F 
ATOM     82  C   UNL A   1      38.416  28.918  28.872  1.00  0.00     0.022 A 
BRANCH  79  83
ATOM     83  S   UNL A   1      38.870  28.173  31.520  1.00  0.00     0.124 S 
ATOM     84  O   UNL A   1      40.107  28.362  32.269  1.00  0.00    -0.237 OA
ATOM     85  O   UNL A   1      37.806  29.135  31.787  1.00  0.00    -0.237 OA
ATOM     86  O   UNL A   1      38.432  26.786  31.380  1.00  0.00    -0.744 OA
ENDBRANCH  79  83
ENDBRANCH  52  76
BRANCH  64  87
ATOM     87  C   UNL A   1      46.669  33.077  28.673  1.00  0.00     0.023 A 
ATOM     88  C   UNL A   1      46.512  34.164  27.795  1.00  0.00     0.031 A 
ATOM     89  C   UNL A   1      46.965  33.356  30.020  1.00  0.00     0.131 A 
ATOM     90  C   UNL A   1      46.704  35.475  28.262  1.00  0.00     0.055 A 
ATOM     91  C   UNL A   1      47.091  34.663  30.492  1.00  0.00     0.041 A 
ATOM     92  F   UNL A   1      47.129  32.359  30.905  1.00  0.00    -0.206 F 
ATOM     93  C   UNL A   1      46.973  35.731  29.609  1.00  0.00     0.022 A 
BRANCH  90  94
ATOM     94  S   UNL A   1      46.685  36.840  27.066  1.00  0.00     0.124 S 
ATOM     95  O   UNL A   1      47.082  36.168  25.834  1.00  0.00    -0.237 OA
ATOM     96  O   UNL A   1      45.299  37.292  27.129  1.00  0.00    -0.237 OA
ATOM     97  O   UNL A   1      47.667  37.779  27.605  1.00  0.00    -0.744 OA
ENDBRANCH  90  94
ENDBRANCH  64  87
ENDBRANCH  38  39
ENDBRANCH  31  33
ENDBRANCH  30  31
ENDBRANCH  29  30
ENDBRANCH  28  29
ENDBRANCH  27  28
ENDBRANCH   1  27
TORSDOF 22
ENDMDL
MODEL 2
REMARK VINA RESULT:     -10.1      1.642      2.083
REMARK SMILES C[C@@H]1CN(S(=O)(=O)c2ccc(Cl)c(C(=O)OCCOCCOCCOC(=O)c3ccc(-c4c5nc(c(-c6cc(S(=O)(=O)[O-])ccc6F)c6ccc([nH]6)c(-c6cc(S(=O)(=O)[O-])ccc6F)c6nc(c(-c7cc(S(=O)(=O)[O-])ccc7F)c7ccc4[nH]7)C=C6)C=C5)cc3)c2Cl)C[C@H]1C
REMARK SMILES IDX 21 1 20 2 19 3 18 4 17 5 16 6 14 7 15 8 13 9 8 10 9 11 91 12
REMARK SMILES IDX 10 13 92 14 11 15 12 16 5 17 6 18 7 19 4 20 1 21 2 22 3 23
REMARK SMILES IDX 94 24 93 25 95 26 22 27 23 28 24 29 25 30 26 31 27 32 28 33
REMARK SMILES IDX 29 34 90 35 30 36 89 37 31 38 32 39 33 40 83 41 34 42 88 43
REMARK SMILES IDX 82 44 84 45 35 46 87 47 81 48 80 49 36 51 68 52 48 53 67 54
REMARK SMILES IDX 49 55 52 56 66 57 85 58 50 59 51 60 65 62 86 63 53 64 37 65
REMARK SMILES IDX 38 66 46 67 39 68 45 69 47 70 44 71 40 72 41 73 42 74 43 75
REMARK SMILES IDX 69 76 70 77 78 78 71 79 77 80 79 81 76 82 72 83 73 84 74 85
REMARK SMILES IDX 75 86 54 87 55 88 63 89 56 90 62 91 64 92 61 93 57 94 58 95
REMARK SMILES IDX 59 96 60 97
REMARK H PARENT 84 50 52 61
REMARK Flexibility Score: inf
ROOT
ATOM      1  C   UNL A   1      40.419  20.656  26.269  1.00  0.00     0.188 C 
ENDROOT
BRANCH   1   2
ATOM      2  C   UNL A   1      39.015  21.082  25.783  1.00  0.00     0.188 C 
BRANCH   2   3
ATOM      3  O   UNL A   1      38.580  22.404  26.020  1.00  0.00    -0.376 OA
BRANCH   3   4
ATOM      4  C   UNL A   1      37.229  22.776  25.797  1.00  0.00     0.202 C 
BRANCH   4   5
ATOM      5  C   UNL A   1      36.117  21.783  25.425  1.00  0.00     0.261 C 
BRANCH   5   6
ATOM      6  O   UNL A   1      35.270  22.202  24.353  1.00  0.00    -0.460 OA
BRANCH   6   7
ATOM      7  C   UNL A   1      33.935  22.041  24.535  1.00  0.00     0.341 C 
ATOM      8  O   UNL A   1      33.307  20.999  24.522  1.00  0.00    -0.246 OA
BRANCH   7   9
ATOM      9  C   UNL A   1      33.348  23.373  24.788  1.00  0.00     0.098 A 
ATOM     10  C   UNL A   1      32.473  25.500  24.006  1.00  0.00     0.102 A 
ATOM     11  C   UNL A   1      32.065  25.784  25.323  1.00  0.00     0.025 A 
ATOM     12  C   UNL A   1      33.109  24.278  23.724  1.00  0.00     0.077 A 
ATOM     13  C   UNL A   1      32.342  24.905  26.366  1.00  0.00     0.023 A 
ATOM     14  Cl  UNL A   1      33.597  23.827  22.127  1.00  0.00    -0.082 Cl
ATOM     15  C   UNL A   1      32.990  23.702  26.105  1.00  0.00     0.057 A 
ATOM     16  Cl  UNL A   1      33.324  22.679  27.459  1.00  0.00    -0.083 Cl
BRANCH  10  17
ATOM     17  S   UNL A   1      32.016  26.721  22.774  1.00  0.00     0.244 S 
ATOM     18  O   UNL A   1      31.321  26.007  21.723  1.00  0.00    -0.207 OA
ATOM     19  O   UNL A   1      33.167  27.531  22.451  1.00  0.00    -0.207 OA
BRANCH  17  20
ATOM     20  N   UNL A   1      30.859  27.681  23.579  1.00  0.00    -0.197 NA
ATOM     21  C   UNL A   1      27.210  28.463  23.316  1.00  0.00     0.009 C 
ATOM     22  C   UNL A   1      28.674  28.448  22.899  1.00  0.00     0.005 C 
ATOM     23  C   UNL A   1      29.433  27.260  23.486  1.00  0.00     0.106 C 
ATOM     24  C   UNL A   1      29.483  29.641  23.402  1.00  0.00     0.005 C 
ATOM     25  C   UNL A   1      30.923  29.140  23.235  1.00  0.00     0.106 C 
ATOM     26  C   UNL A   1      29.205  30.924  22.631  1.00  0.00     0.009 C 
ENDBRANCH  17  20
ENDBRANCH  10  17
ENDBRANCH   7   9
ENDBRANCH   6   7
ENDBRANCH   5   6
ENDBRANCH   4   5
ENDBRANCH   3   4
ENDBRANCH   2   3
ENDBRANCH   1   2
BRANCH   1  27
ATOM     27  O   UNL A   1      41.019  19.455  25.821  1.00  0.00    -0.376 OA
BRANCH  27  28
ATOM     28  C   UNL A   1      42.300  19.083  26.303  1.00  0.00     0.202 C 
BRANCH  28  29
ATOM     29  C   UNL A   1      43.437  18.625  25.377  1.00  0.00     0.261 C 
BRANCH  29  30
ATOM     30  O   UNL A   1      43.830  19.549  24.356  1.00  0.00    -0.460 OA
BRANCH  30  31
ATOM     31  C   UNL A   1      45.034  20.145  24.557  1.00  0.00     0.338 C 
ATOM     32  O   UNL A   1      46.124  19.736  24.197  1.00  0.00    -0.246 OA
BRANCH  31  33
ATOM     33  C   UNL A   1      44.819  21.488  25.127  1.00  0.00     0.060 A 
ATOM     34  C   UNL A   1      44.416  22.520  24.269  1.00  0.00     0.016 A 
ATOM     35  C   UNL A   1      45.049  21.737  26.481  1.00  0.00     0.016 A 
ATOM     36  C   UNL A   1      44.258  23.816  24.759  1.00  0.00     0.010 A 
ATOM     37  C   UNL A   1      44.920  23.042  26.964  1.00  0.00     0.010 A 
ATOM     38  C   UNL A   1      44.553  24.091  26.100  1.00  0.00    -0.014 A 
BRANCH  38  39
ATOM     39  C   UNL A   1      44.669  25.500  26.551  1.00  0.00     0.031 A 
ATOM     40  C   UNL A   1      46.015  26.167  26.467  1.00  0.00     0.074 A 
ATOM     41  C   UNL A   1      43.603  26.180  27.008  1.00  0.00     0.049 A 
ATOM     42  N   UNL A   1      46.382  27.359  26.857  1.00  0.00    -0.248 NA
ATOM     43  C   UNL A   1      47.095  25.372  25.859  1.00  0.00     0.031 C 
ATOM     44  C   UNL A   1      42.237  25.662  27.076  1.00  0.00     0.029 A 
ATOM     45  N   UNL A   1      43.507  27.454  27.508  1.00  0.00    -0.354 N 
ATOM     46  C   UNL A   1      47.734  27.459  26.547  1.00  0.00     0.074 A 
ATOM     47  C   UNL A   1      48.130  26.190  25.974  1.00  0.00     0.031 C 
ATOM     48  C   UNL A   1      41.441  26.608  27.606  1.00  0.00     0.029 A 
ATOM     49  C   UNL A   1      42.245  27.781  27.947  1.00  0.00     0.049 A 
ATOM     50  H   UNL A   1      44.268  28.076  27.549  1.00  0.00     0.167 HD
ATOM     51  C   UNL A   1      48.566  28.516  26.717  1.00  0.00     0.034 A 
ATOM     52  C   UNL A   1      41.800  28.888  28.576  1.00  0.00     0.034 A 
ATOM     53  C   UNL A   1      48.159  29.769  27.304  1.00  0.00     0.049 A 
ATOM     54  C   UNL A   1      42.771  30.014  28.852  1.00  0.00     0.074 A 
ATOM     55  C   UNL A   1      48.916  30.908  27.517  1.00  0.00     0.029 A 
ATOM     56  N   UNL A   1      46.886  30.044  27.789  1.00  0.00    -0.354 N 
ATOM     57  N   UNL A   1      44.047  30.103  28.551  1.00  0.00    -0.248 NA
ATOM     58  C   UNL A   1      42.236  31.193  29.547  1.00  0.00     0.031 C 
ATOM     59  C   UNL A   1      48.126  31.839  28.198  1.00  0.00     0.029 A 
ATOM     60  C   UNL A   1      46.849  31.319  28.334  1.00  0.00     0.049 A 
ATOM     61  H   UNL A   1      46.123  29.424  27.751  1.00  0.00     0.167 HD
ATOM     62  C   UNL A   1      44.455  31.361  28.988  1.00  0.00     0.074 A 
ATOM     63  C   UNL A   1      43.289  31.999  29.563  1.00  0.00     0.031 C 
ATOM     64  C   UNL A   1      45.681  31.941  28.913  1.00  0.00     0.034 A 
BRANCH  51  65
ATOM     65  C   UNL A   1      50.009  28.332  26.313  1.00  0.00     0.023 A 
ATOM     66  C   UNL A   1      50.464  28.643  25.019  1.00  0.00     0.031 A 
ATOM     67  C   UNL A   1      50.937  27.802  27.226  1.00  0.00     0.131 A 
ATOM     68  C   UNL A   1      51.789  28.357  24.654  1.00  0.00     0.055 A 
ATOM     69  C   UNL A   1      52.275  27.595  26.882  1.00  0.00     0.041 A 
ATOM     70  F   UNL A   1      50.556  27.461  28.468  1.00  0.00    -0.206 F 
ATOM     71  C   UNL A   1      52.704  27.858  25.584  1.00  0.00     0.022 A 
BRANCH  68  72
ATOM     72  S   UNL A   1      52.262  28.507  22.909  1.00  0.00     0.124 S 
ATOM     73  O   UNL A   1      53.585  29.117  23.012  1.00  0.00    -0.237 OA
ATOM     74  O   UNL A   1      52.229  27.123  22.453  1.00  0.00    -0.237 OA
ATOM     75  O   UNL A   1      51.228  29.374  22.347  1.00  0.00    -0.744 OA
ENDBRANCH  68  72
ENDBRANCH  51  65
BRANCH  52  76
ATOM     76  C   UNL A   1      40.383  28.982  29.034  1.00  0.00     0.023 A 
ATOM     77  C   UNL A   1      40.047  28.850  30.391  1.00  0.00     0.031 A 
ATOM     78  C   UNL A   1      39.335  29.133  28.108  1.00  0.00     0.131 A 
ATOM     79  C   UNL A   1      38.697  28.823  30.779  1.00  0.00     0.055 A 
ATOM     80  C   UNL A   1      37.997  29.163  28.505  1.00  0.00     0.041 A 
ATOM     81  F   UNL A   1      39.598  29.253  26.798  1.00  0.00    -0.206 F 
ATOM     82  C   UNL A   1      37.671  28.993  29.847  1.00  0.00     0.022 A 
BRANCH  79  83
ATOM     83  S   UNL A   1      38.298  28.464  32.512  1.00  0.00     0.124 S 
ATOM     84  O   UNL A   1      38.197  27.009  32.498  1.00  0.00    -0.237 OA
ATOM     85  O   UNL A   1      39.450  29.020  33.213  1.00  0.00    -0.237 OA
ATOM     86  O   UNL A   1      37.038  29.174  32.726  1.00  0.00    -0.744 OA
ENDBRANCH  79  83
ENDBRANCH  52  76
BRANCH  64  87
ATOM     87  C   UNL A   1      45.807  33.360  29.419  1.00  0.00     0.023 A 
ATOM     88  C   UNL A   1      45.509  34.470  28.610  1.00  0.00     0.031 A 
ATOM     89  C   UNL A   1      46.236  33.602  30.738  1.00  0.00     0.131 A 
ATOM     90  C   UNL A   1      45.694  35.770  29.109  1.00  0.00     0.055 A 
ATOM     91  C   UNL A   1      46.356  34.894  31.248  1.00  0.00     0.041 A 
ATOM     92  F   UNL A   1      46.537  32.581  31.556  1.00  0.00    -0.206 F 
ATOM     93  C   UNL A   1      46.097  35.988  30.429  1.00  0.00     0.022 A 
BRANCH  90  94
ATOM     94  S   UNL A   1      45.487  37.177  27.981  1.00  0.00     0.124 S 
ATOM     95  O   UNL A   1      45.786  38.309  28.850  1.00  0.00    -0.237 OA
ATOM     96  O   UNL A   1      46.471  36.892  26.942  1.00  0.00    -0.237 OA
ATOM     97  O   UNL A   1      44.092  37.072  27.557  1.00  0.00    -0.744 OA
ENDBRANCH  90  94
ENDBRANCH  64  87
ENDBRANCH  38  39
ENDBRANCH  31  33
ENDBRANCH  30  31
ENDBRANCH  29  30
ENDBRANCH  28  29
ENDBRANCH  27  28
ENDBRANCH   1  27
TORSDOF 22
ENDMDL
MODEL 3
REMARK VINA RESULT:      -9.8      7.121     12.145
REMARK SMILES C[C@@H]1CN(S(=O)(=O)c2ccc(Cl)c(C(=O)OCCOCCOCCOC(=O)c3ccc(-c4c5nc(c(-c6cc(S(=O)(=O)[O-])ccc6F)c6ccc([nH]6)c(-c6cc(S(=O)(=O)[O-])ccc6F)c6nc(c(-c7cc(S(=O)(=O)[O-])ccc7F)c7ccc4[nH]7)C=C6)C=C5)cc3)c2Cl)C[C@H]1C
REMARK SMILES IDX 21 1 20 2 19 3 18 4 17 5 16 6 14 7 15 8 13 9 8 10 9 11 91 12
REMARK SMILES IDX 10 13 92 14 11 15 12 16 5 17 6 18 7 19 4 20 1 21 2 22 3 23
REMARK SMILES IDX 94 24 93 25 95 26 22 27 23 28 24 29 25 30 26 31 27 32 28 33
REMARK SMILES IDX 29 34 90 35 30 36 89 37 31 38 32 39 33 40 83 41 34 42 88 43
REMARK SMILES IDX 82 44 84 45 35 46 87 47 81 48 80 49 36 51 68 52 48 53 67 54
REMARK SMILES IDX 49 55 52 56 66 57 85 58 50 59 51 60 65 62 86 63 53 64 37 65
REMARK SMILES IDX 38 66 46 67 39 68 45 69 47 70 44 71 40 72 41 73 42 74 43 75
REMARK SMILES IDX 69 76 70 77 78 78 71 79 77 80 79 81 76 82 72 83 73 84 74 85
REMARK SMILES IDX 75 86 54 87 55 88 63 89 56 90 62 91 64 92 61 93 57 94 58 95
REMARK SMILES IDX 59 96 60 97
REMARK H PARENT 84 50 52 61
REMARK Flexibility Score: inf
ROOT
ATOM      1  C   UNL A   1      35.678  33.231  28.150  1.00  0.00     0.188 C 
ENDROOT
BRANCH   1   2
ATOM      2  C   UNL A   1      35.546  32.194  29.287  1.00  0.00     0.188 C 
BRANCH   2   3
ATOM      3  O   UNL A   1      35.386  30.830  28.956  1.00  0.00    -0.376 OA
BRANCH   3   4
ATOM      4  C   UNL A   1      35.093  30.434  27.626  1.00  0.00     0.202 C 
BRANCH   4   5
ATOM      5  C   UNL A   1      33.671  30.183  27.100  1.00  0.00     0.261 C 
BRANCH   5   6
ATOM      6  O   UNL A   1      33.603  29.685  25.762  1.00  0.00    -0.460 OA
BRANCH   6   7
ATOM      7  C   UNL A   1      32.364  29.420  25.275  1.00  0.00     0.341 C 
ATOM      8  O   UNL A   1      31.401  30.163  25.259  1.00  0.00    -0.246 OA
BRANCH   7   9
ATOM      9  C   UNL A   1      32.378  28.049  24.725  1.00  0.00     0.098 A 
ATOM     10  C   UNL A   1      31.908  25.672  24.912  1.00  0.00     0.102 A 
ATOM     11  C   UNL A   1      32.252  25.527  23.555  1.00  0.00     0.025 A 
ATOM     12  C   UNL A   1      31.954  26.945  25.507  1.00  0.00     0.077 A 
ATOM     13  C   UNL A   1      32.705  26.611  22.809  1.00  0.00     0.023 A 
ATOM     14  Cl  UNL A   1      31.499  27.222  27.153  1.00  0.00    -0.082 Cl
ATOM     15  C   UNL A   1      32.777  27.872  23.391  1.00  0.00     0.057 A 
ATOM     16  Cl  UNL A   1      33.379  29.160  22.407  1.00  0.00    -0.083 Cl
BRANCH  10  17
ATOM     17  S   UNL A   1      31.316  24.186  25.723  1.00  0.00     0.244 S 
ATOM     18  O   UNL A   1      30.857  23.298  24.675  1.00  0.00    -0.207 OA
ATOM     19  O   UNL A   1      30.423  24.550  26.798  1.00  0.00    -0.207 OA
BRANCH  17  20
ATOM     20  N   UNL A   1      32.735  23.501  26.376  1.00  0.00    -0.197 NA
ATOM     21  C   UNL A   1      36.432  23.693  25.836  1.00  0.00     0.009 C 
ATOM     22  C   UNL A   1      34.983  23.362  25.507  1.00  0.00     0.005 C 
ATOM     23  C   UNL A   1      33.999  24.276  26.236  1.00  0.00     0.106 C 
ATOM     24  C   UNL A   1      34.538  21.972  25.954  1.00  0.00     0.005 C 
ATOM     25  C   UNL A   1      33.010  22.100  25.913  1.00  0.00     0.106 C 
ATOM     26  C   UNL A   1      35.067  20.857  25.062  1.00  0.00     0.009 C 
ENDBRANCH  17  20
ENDBRANCH  10  17
ENDBRANCH   7   9
ENDBRANCH   6   7
ENDBRANCH   5   6
ENDBRANCH   4   5
ENDBRANCH   3   4
ENDBRANCH   2   3
ENDBRANCH   1   2
BRANCH   1  27
ATOM     27  O   UNL A   1      34.552  33.944  27.671  1.00  0.00    -0.376 OA
BRANCH  27  28
ATOM     28  C   UNL A   1      34.325  35.276  28.102  1.00  0.00     0.202 C 
BRANCH  28  29
ATOM     29  C   UNL A   1      33.349  35.627  29.235  1.00  0.00     0.261 C 
BRANCH  29  30
ATOM     30  O   UNL A   1      33.152  34.621  30.235  1.00  0.00    -0.460 OA
BRANCH  30  31
ATOM     31  C   UNL A   1      33.081  35.087  31.508  1.00  0.00     0.338 C 
ATOM     32  O   UNL A   1      32.144  35.668  32.026  1.00  0.00    -0.246 OA
BRANCH  31  33
ATOM     33  C   UNL A   1      34.258  34.614  32.262  1.00  0.00     0.060 A 
ATOM     34  C   UNL A   1      35.493  35.234  32.029  1.00  0.00     0.016 A 
ATOM     35  C   UNL A   1      34.154  33.547  33.156  1.00  0.00     0.016 A 
ATOM     36  C   UNL A   1      36.638  34.777  32.678  1.00  0.00     0.010 A 
ATOM     37  C   UNL A   1      35.309  33.071  33.783  1.00  0.00     0.010 A 
ATOM     38  C   UNL A   1      36.559  33.664  33.525  1.00  0.00    -0.014 A 
BRANCH  38  39
ATOM     39  C   UNL A   1      37.805  33.001  33.983  1.00  0.00     0.031 A 
ATOM     40  C   UNL A   1      38.333  31.843  33.180  1.00  0.00     0.074 A 
ATOM     41  C   UNL A   1      38.464  33.426  35.075  1.00  0.00     0.049 A 
ATOM     42  N   UNL A   1      39.357  31.065  33.411  1.00  0.00    -0.248 NA
ATOM     43  C   UNL A   1      37.596  31.520  31.947  1.00  0.00     0.031 C 
ATOM     44  C   UNL A   1      38.087  34.575  35.895  1.00  0.00     0.029 A 
ATOM     45  N   UNL A   1      39.591  32.931  35.684  1.00  0.00    -0.354 N 
ATOM     46  C   UNL A   1      39.389  30.159  32.357  1.00  0.00     0.074 A 
ATOM     47  C   UNL A   1      38.255  30.458  31.509  1.00  0.00     0.031 C 
ATOM     48  C   UNL A   1      38.959  34.687  36.914  1.00  0.00     0.029 A 
ATOM     49  C   UNL A   1      39.932  33.598  36.837  1.00  0.00     0.049 A 
ATOM     50  H   UNL A   1      40.105  32.171  35.329  1.00  0.00     0.167 HD
ATOM     51  C   UNL A   1      40.287  29.172  32.115  1.00  0.00     0.034 A 
ATOM     52  C   UNL A   1      40.902  33.341  37.738  1.00  0.00     0.034 A 
ATOM     53  C   UNL A   1      41.404  28.877  32.979  1.00  0.00     0.049 A 
ATOM     54  C   UNL A   1      41.828  32.168  37.504  1.00  0.00     0.074 A 
ATOM     55  C   UNL A   1      42.379  27.906  32.826  1.00  0.00     0.029 A 
ATOM     56  N   UNL A   1      41.686  29.538  34.169  1.00  0.00    -0.354 N 
ATOM     57  N   UNL A   1      41.854  31.318  36.502  1.00  0.00    -0.248 NA
ATOM     58  C   UNL A   1      42.861  31.927  38.521  1.00  0.00     0.031 C 
ATOM     59  C   UNL A   1      43.201  27.929  33.957  1.00  0.00     0.029 A 
ATOM     60  C   UNL A   1      42.796  28.970  34.777  1.00  0.00     0.049 A 
ATOM     61  H   UNL A   1      41.173  30.297  34.527  1.00  0.00     0.167 HD
ATOM     62  C   UNL A   1      42.928  30.467  36.752  1.00  0.00     0.074 A 
ATOM     63  C   UNL A   1      43.530  30.912  37.992  1.00  0.00     0.031 C 
ATOM     64  C   UNL A   1      43.382  29.417  36.019  1.00  0.00     0.034 A 
BRANCH  51  65
ATOM     65  C   UNL A   1      40.056  28.311  30.897  1.00  0.00     0.023 A 
ATOM     66  C   UNL A   1      40.734  28.540  29.685  1.00  0.00     0.031 A 
ATOM     67  C   UNL A   1      39.117  27.266  30.937  1.00  0.00     0.131 A 
ATOM     68  C   UNL A   1      40.411  27.783  28.549  1.00  0.00     0.055 A 
ATOM     69  C   UNL A   1      38.858  26.463  29.824  1.00  0.00     0.041 A 
ATOM     70  F   UNL A   1      38.420  27.016  32.057  1.00  0.00    -0.206 F 
ATOM     71  C   UNL A   1      39.496  26.730  28.616  1.00  0.00     0.022 A 
BRANCH  68  72
ATOM     72  S   UNL A   1      41.094  28.289  26.945  1.00  0.00     0.124 S 
ATOM     73  O   UNL A   1      42.355  28.911  27.343  1.00  0.00    -0.237 OA
ATOM     74  O   UNL A   1      41.202  27.021  26.234  1.00  0.00    -0.237 OA
ATOM     75  O   UNL A   1      40.091  29.214  26.422  1.00  0.00    -0.744 OA
ENDBRANCH  68  72
ENDBRANCH  51  65
BRANCH  52  76
ATOM     76  C   UNL A   1      41.030  34.170  38.972  1.00  0.00     0.023 A 
ATOM     77  C   UNL A   1      40.146  34.009  40.052  1.00  0.00     0.031 A 
ATOM     78  C   UNL A   1      41.997  35.187  39.059  1.00  0.00     0.131 A 
ATOM     79  C   UNL A   1      40.216  34.883  41.149  1.00  0.00     0.055 A 
ATOM     80  C   UNL A   1      42.099  36.017  40.177  1.00  0.00     0.041 A 
ATOM     81  F   UNL A   1      42.860  35.392  38.052  1.00  0.00    -0.206 F 
ATOM     82  C   UNL A   1      41.194  35.877  41.225  1.00  0.00     0.022 A 
BRANCH  79  83
ATOM     83  S   UNL A   1      38.941  34.766  42.435  1.00  0.00     0.124 S 
ATOM     84  O   UNL A   1      39.609  35.389  43.573  1.00  0.00    -0.237 OA
ATOM     85  O   UNL A   1      37.841  35.522  41.846  1.00  0.00    -0.237 OA
ATOM     86  O   UNL A   1      38.711  33.328  42.558  1.00  0.00    -0.744 OA
ENDBRANCH  79  83
ENDBRANCH  52  76
BRANCH  64  87
ATOM     87  C   UNL A   1      44.624  28.712  36.515  1.00  0.00     0.023 A 
ATOM     88  C   UNL A   1      44.557  27.596  37.368  1.00  0.00     0.031 A 
ATOM     89  C   UNL A   1      45.896  29.169  36.126  1.00  0.00     0.131 A 
ATOM     90  C   UNL A   1      45.740  27.008  37.845  1.00  0.00     0.055 A 
ATOM     91  C   UNL A   1      47.067  28.541  36.553  1.00  0.00     0.041 A 
ATOM     92  F   UNL A   1      46.022  30.232  35.316  1.00  0.00    -0.206 F 
ATOM     93  C   UNL A   1      46.993  27.462  37.428  1.00  0.00     0.022 A 
BRANCH  90  94
ATOM     94  S   UNL A   1      45.621  25.696  39.093  1.00  0.00     0.124 S 
ATOM     95  O   UNL A   1      44.953  26.383  40.193  1.00  0.00    -0.237 OA
ATOM     96  O   UNL A   1      44.834  24.678  38.404  1.00  0.00    -0.237 OA
ATOM     97  O   UNL A   1      47.016  25.335  39.343  1.00  0.00    -0.744 OA
ENDBRANCH  90  94
ENDBRANCH  64  87
ENDBRANCH  38  39
ENDBRANCH  31  33
ENDBRANCH  30  31
ENDBRANCH  29  30
ENDBRANCH  28  29
ENDBRANCH  27  28
ENDBRANCH   1  27
TORSDOF 22
ENDMDL
