MODEL 1
REMARK VINA RESULT:     -11.8      0.000      0.000
REMARK SMILES Cc1cc(S(F)(F)(F)(F)F)cc2c1O[C@H](C(F)(F)F)C(C(=O)OCCOCCOCCOC(=O)c1ccc(-c3c4nc(c(-c5cc(S(=O)(=O)[O-])ccc5F)c5ccc([nH]5)c(-c5cc(S(=O)(=O)[O-])ccc5F)c5nc(c(-c6cc(S(=O)(=O)[O-])ccc6F)c6ccc3[nH]6)C=C5)C=C4)cc1)=C2
REMARK SMILES IDX 28 1 27 2 26 3 25 4 24 5 23 6 21 7 22 8 20 9 1 10 2 11 3 12
REMARK SMILES IDX 13 13 4 14 12 15 14 16 11 17 98 18 15 19 5 20 6 21 7 22 8 23
REMARK SMILES IDX 9 24 10 25 16 26 17 27 18 28 19 29 29 30 30 31 31 32 32 33
REMARK SMILES IDX 33 34 34 35 35 36 36 37 97 38 37 39 96 40 38 41 39 42 40 43
REMARK SMILES IDX 90 44 41 45 95 46 89 47 91 48 42 49 94 50 88 51 87 52 43 54
REMARK SMILES IDX 75 55 55 56 74 57 56 58 59 59 73 60 92 61 57 62 58 63 72 65
REMARK SMILES IDX 93 66 60 67 44 68 45 69 53 70 46 71 52 72 54 73 51 74 47 75
REMARK SMILES IDX 48 76 49 77 50 78 76 79 77 80 85 81 78 82 84 83 86 84 83 85
REMARK SMILES IDX 79 86 80 87 81 88 82 89 61 90 62 91 70 92 63 93 69 94 71 95
REMARK SMILES IDX 68 96 64 97 65 98 66 99 67 100
REMARK H PARENT 91 53 59 64
REMARK Flexibility Score: inf
ROOT
ATOM      1  C   UNL A   1      36.564  22.289  25.400  1.00  0.00     0.188 C 
ENDROOT
BRANCH   1   2
ATOM      2  C   UNL A   1      35.410  21.591  26.101  1.00  0.00     0.188 C 
BRANCH   2   3
ATOM      3  O   UNL A   1      34.453  21.173  25.138  1.00  0.00    -0.376 OA
BRANCH   3   4
ATOM      4  C   UNL A   1      33.329  20.612  25.802  1.00  0.00     0.202 C 
BRANCH   4   5
ATOM      5  C   UNL A   1      32.058  21.262  25.282  1.00  0.00     0.261 C 
BRANCH   5   6
ATOM      6  O   UNL A   1      32.191  22.675  25.335  1.00  0.00    -0.460 OA
BRANCH   6   7
ATOM      7  C   UNL A   1      31.815  23.466  24.219  1.00  0.00     0.338 C 
ATOM      8  O   UNL A   1      31.620  22.919  23.089  1.00  0.00    -0.246 OA
BRANCH   7   9
ATOM      9  C   UNL A   1      31.642  24.968  24.375  1.00  0.00     0.087 C 
ATOM     10  C   UNL A   1      32.000  29.868  25.880  1.00  0.00     0.048 C 
ATOM     11  C   UNL A   1      31.197  29.104  24.840  1.00  0.00    -0.007 A 
ATOM     12  C   UNL A   1      30.303  29.765  24.027  1.00  0.00     0.031 A 
ATOM     13  C   UNL A   1      31.360  27.726  24.699  1.00  0.00     0.130 A 
ATOM     14  C   UNL A   1      29.561  29.075  23.078  1.00  0.00     0.108 A 
ATOM     15  C   UNL A   1      30.606  27.027  23.729  1.00  0.00     0.019 A 
ATOM     16  O   UNL A   1      32.296  26.963  25.534  1.00  0.00    -0.475 OA
ATOM     17  C   UNL A   1      29.708  27.725  22.919  1.00  0.00     0.036 A 
ATOM     18  C   UNL A   1      30.796  25.583  23.604  1.00  0.00     0.027 C 
ATOM     19  C   UNL A   1      32.399  25.632  25.343  1.00  0.00     0.316 C 
BRANCH  14  20
ATOM     20  S   UNL A   1      28.384  29.974  22.037  1.00  0.00     0.310 S 
ATOM     21  F   UNL A   1      28.403  31.119  23.135  1.00  0.00    -0.094 F 
ATOM     22  F   UNL A   1      27.164  29.347  22.812  1.00  0.00    -0.094 F 
ATOM     23  F   UNL A   1      27.428  30.874  21.203  1.00  0.00    -0.094 F 
ATOM     24  F   UNL A   1      29.626  30.690  21.373  1.00  0.00    -0.094 F 
ATOM     25  F   UNL A   1      29.370  29.148  22.957  1.00  0.00    -0.094 F 
ENDBRANCH  14  20
BRANCH  19  26
ATOM     26  C   UNL A   1      33.811  25.491  24.799  1.00  0.00     0.430 C 
ATOM     27  F   UNL A   1      34.390  26.688  24.754  1.00  0.00    -0.167 F 
ATOM     28  F   UNL A   1      34.514  24.688  25.591  1.00  0.00    -0.167 F 
ATOM     29  F   UNL A   1      33.764  24.976  23.573  1.00  0.00    -0.167 F 
ENDBRANCH  19  26
ENDBRANCH   7   9
ENDBRANCH   6   7
ENDBRANCH   5   6
ENDBRANCH   4   5
ENDBRANCH   3   4
ENDBRANCH   2   3
ENDBRANCH   1   2
BRANCH   1  30
ATOM     30  O   UNL A   1      37.429  21.317  24.832  1.00  0.00    -0.376 OA
BRANCH  30  31
ATOM     31  C   UNL A   1      38.582  21.175  25.648  1.00  0.00     0.202 C 
BRANCH  31  32
ATOM     32  C   UNL A   1      39.176  19.790  25.451  1.00  0.00     0.261 C 
BRANCH  32  33
ATOM     33  O   UNL A   1      39.992  19.461  26.565  1.00  0.00    -0.460 OA
BRANCH  33  34
ATOM     34  C   UNL A   1      41.371  19.803  26.561  1.00  0.00     0.338 C 
ATOM     35  O   UNL A   1      42.248  18.904  26.365  1.00  0.00    -0.246 OA
BRANCH  34  36
ATOM     36  C   UNL A   1      41.797  21.244  26.793  1.00  0.00     0.060 A 
ATOM     37  C   UNL A   1      42.175  22.052  25.727  1.00  0.00     0.016 A 
ATOM     38  C   UNL A   1      41.667  21.795  27.980  1.00  0.00     0.016 A 
ATOM     39  C   UNL A   1      41.907  23.433  25.856  1.00  0.00     0.010 A 
ATOM     40  C   UNL A   1      41.913  23.160  28.167  1.00  0.00     0.010 A 
ATOM     41  C   UNL A   1      42.029  23.970  27.136  1.00  0.00    -0.014 A 
BRANCH  41  42
ATOM     42  C   UNL A   1      42.292  25.453  27.337  1.00  0.00     0.031 A 
ATOM     43  C   UNL A   1      41.408  26.246  28.071  1.00  0.00     0.074 A 
ATOM     44  C   UNL A   1      43.530  25.884  26.890  1.00  0.00     0.049 A 
ATOM     45  N   UNL A   1      41.595  27.499  28.489  1.00  0.00    -0.248 NA
ATOM     46  C   UNL A   1      40.080  25.802  28.519  1.00  0.00     0.031 C 
ATOM     47  C   UNL A   1      44.431  25.087  26.156  1.00  0.00     0.029 A 
ATOM     48  N   UNL A   1      44.106  27.123  27.060  1.00  0.00    -0.354 N 
ATOM     49  C   UNL A   1      40.532  27.918  29.178  1.00  0.00     0.074 A 
ATOM     50  C   UNL A   1      39.540  26.834  29.202  1.00  0.00     0.031 C 
ATOM     51  C   UNL A   1      45.529  25.837  25.879  1.00  0.00     0.029 A 
ATOM     52  C   UNL A   1      45.333  27.116  26.435  1.00  0.00     0.049 A 
ATOM     53  H   UNL A   1      43.709  27.882  27.545  1.00  0.00     0.167 HD
ATOM     54  C   UNL A   1      40.351  29.160  29.790  1.00  0.00     0.034 A 
ATOM     55  C   UNL A   1      46.243  28.158  26.341  1.00  0.00     0.034 A 
ATOM     56  C   UNL A   1      41.281  30.186  29.733  1.00  0.00     0.049 A 
ATOM     57  C   UNL A   1      46.038  29.420  26.903  1.00  0.00     0.074 A 
ATOM     58  C   UNL A   1      41.118  31.441  30.351  1.00  0.00     0.029 A 
ATOM     59  N   UNL A   1      42.497  30.188  29.087  1.00  0.00    -0.354 N 
ATOM     60  N   UNL A   1      44.993  29.825  27.626  1.00  0.00    -0.248 NA
ATOM     61  C   UNL A   1      46.980  30.539  26.783  1.00  0.00     0.031 C 
ATOM     62  C   UNL A   1      42.218  32.193  30.073  1.00  0.00     0.029 A 
ATOM     63  C   UNL A   1      43.084  31.421  29.277  1.00  0.00     0.049 A 
ATOM     64  H   UNL A   1      42.882  29.439  28.578  1.00  0.00     0.167 HD
ATOM     65  C   UNL A   1      45.162  31.093  28.008  1.00  0.00     0.074 A 
ATOM     66  C   UNL A   1      46.440  31.573  27.465  1.00  0.00     0.031 C 
ATOM     67  C   UNL A   1      44.303  31.867  28.792  1.00  0.00     0.034 A 
BRANCH  54  68
ATOM     68  C   UNL A   1      39.064  29.400  30.562  1.00  0.00     0.023 A 
ATOM     69  C   UNL A   1      38.079  30.240  30.031  1.00  0.00     0.031 A 
ATOM     70  C   UNL A   1      38.892  28.810  31.726  1.00  0.00     0.131 A 
ATOM     71  C   UNL A   1      37.082  30.662  30.778  1.00  0.00     0.055 A 
ATOM     72  C   UNL A   1      37.705  29.047  32.418  1.00  0.00     0.041 A 
ATOM     73  F   UNL A   1      39.825  28.009  32.229  1.00  0.00    -0.206 F 
ATOM     74  C   UNL A   1      37.025  30.245  32.104  1.00  0.00     0.022 A 
BRANCH  71  75
ATOM     75  S   UNL A   1      35.813  31.759  30.097  1.00  0.00     0.124 S 
ATOM     76  O   UNL A   1      35.170  31.098  28.875  1.00  0.00    -0.237 OA
ATOM     77  O   UNL A   1      34.742  32.022  31.158  1.00  0.00    -0.237 OA
ATOM     78  O   UNL A   1      36.530  33.240  29.631  1.00  0.00    -0.744 OA
ENDBRANCH  71  75
ENDBRANCH  54  68
BRANCH  55  79
ATOM     79  C   UNL A   1      47.537  27.912  25.584  1.00  0.00     0.023 A 
ATOM     80  C   UNL A   1      47.545  27.948  24.185  1.00  0.00     0.031 A 
ATOM     81  C   UNL A   1      48.642  27.668  26.257  1.00  0.00     0.131 A 
ATOM     82  C   UNL A   1      48.578  27.498  23.505  1.00  0.00     0.055 A 
ATOM     83  C   UNL A   1      49.817  27.443  25.542  1.00  0.00     0.041 A 
ATOM     84  F   UNL A   1      48.637  27.636  27.587  1.00  0.00    -0.206 F 
ATOM     85  C   UNL A   1      49.665  26.993  24.212  1.00  0.00     0.022 A 
BRANCH  82  86
ATOM     86  S   UNL A   1      48.585  27.533  21.696  1.00  0.00     0.124 S 
ATOM     87  O   UNL A   1      48.849  26.124  21.159  1.00  0.00    -0.237 OA
ATOM     88  O   UNL A   1      47.227  28.026  21.190  1.00  0.00    -0.237 OA
ATOM     89  O   UNL A   1      49.814  28.589  21.150  1.00  0.00    -0.744 OA
ENDBRANCH  82  86
ENDBRANCH  55  79
BRANCH  67  90
ATOM     90  C   UNL A   1      44.732  33.284  29.131  1.00  0.00     0.023 A 
ATOM     91  C   UNL A   1      44.241  34.428  28.491  1.00  0.00     0.031 A 
ATOM     92  C   UNL A   1      45.544  33.385  30.162  1.00  0.00     0.131 A 
ATOM     93  C   UNL A   1      44.766  35.611  28.731  1.00  0.00     0.055 A 
ATOM     94  C   UNL A   1      45.906  34.659  30.597  1.00  0.00     0.041 A 
ATOM     95  F   UNL A   1      46.008  32.299  30.772  1.00  0.00    -0.206 F 
ATOM     96  C   UNL A   1      45.813  35.697  29.642  1.00  0.00     0.022 A 
BRANCH  93  97
ATOM     97  S   UNL A   1      44.140  37.090  27.896  1.00  0.00     0.124 S 
ATOM     98  O   UNL A   1      43.197  37.846  28.833  1.00  0.00    -0.237 OA
ATOM     99  O   UNL A   1      45.314  37.995  27.514  1.00  0.00    -0.237 OA
ATOM    100  O   UNL A   1      43.293  36.631  26.483  1.00  0.00    -0.744 OA
ENDBRANCH  93  97
ENDBRANCH  67  90
ENDBRANCH  41  42
ENDBRANCH  34  36
ENDBRANCH  33  34
ENDBRANCH  32  33
ENDBRANCH  31  32
ENDBRANCH  30  31
ENDBRANCH   1  30
TORSDOF 22
ENDMDL
MODEL 2
REMARK VINA RESULT:     -11.7      0.919      7.093
REMARK SMILES Cc1cc(S(F)(F)(F)(F)F)cc2c1O[C@H](C(F)(F)F)C(C(=O)OCCOCCOCCOC(=O)c1ccc(-c3c4nc(c(-c5cc(S(=O)(=O)[O-])ccc5F)c5ccc([nH]5)c(-c5cc(S(=O)(=O)[O-])ccc5F)c5nc(c(-c6cc(S(=O)(=O)[O-])ccc6F)c6ccc3[nH]6)C=C5)C=C4)cc1)=C2
REMARK SMILES IDX 28 1 27 2 26 3 25 4 24 5 23 6 21 7 22 8 20 9 1 10 2 11 3 12
REMARK SMILES IDX 13 13 4 14 12 15 14 16 11 17 98 18 15 19 5 20 6 21 7 22 8 23
REMARK SMILES IDX 9 24 10 25 16 26 17 27 18 28 19 29 29 30 30 31 31 32 32 33
REMARK SMILES IDX 33 34 34 35 35 36 36 37 97 38 37 39 96 40 38 41 39 42 40 43
REMARK SMILES IDX 90 44 41 45 95 46 89 47 91 48 42 49 94 50 88 51 87 52 43 54
REMARK SMILES IDX 75 55 55 56 74 57 56 58 59 59 73 60 92 61 57 62 58 63 72 65
REMARK SMILES IDX 93 66 60 67 44 68 45 69 53 70 46 71 52 72 54 73 51 74 47 75
REMARK SMILES IDX 48 76 49 77 50 78 76 79 77 80 85 81 78 82 84 83 86 84 83 85
REMARK SMILES IDX 79 86 80 87 81 88 82 89 61 90 62 91 70 92 63 93 69 94 71 95
REMARK SMILES IDX 68 96 64 97 65 98 66 99 67 100
REMARK H PARENT 91 53 59 64
REMARK Flexibility Score: inf
ROOT
ATOM      1  C   UNL A   1      35.850  22.324  25.598  1.00  0.00     0.188 C 
ENDROOT
BRANCH   1   2
ATOM      2  C   UNL A   1      34.430  21.844  25.850  1.00  0.00     0.188 C 
BRANCH   2   3
ATOM      3  O   UNL A   1      33.787  21.593  24.609  1.00  0.00    -0.376 OA
BRANCH   3   4
ATOM      4  C   UNL A   1      32.405  21.354  24.834  1.00  0.00     0.202 C 
BRANCH   4   5
ATOM      5  C   UNL A   1      31.747  22.627  25.341  1.00  0.00     0.261 C 
BRANCH   5   6
ATOM      6  O   UNL A   1      31.020  23.238  24.285  1.00  0.00    -0.460 OA
BRANCH   6   7
ATOM      7  C   UNL A   1      31.627  24.253  23.500  1.00  0.00     0.338 C 
ATOM      8  O   UNL A   1      32.303  23.942  22.470  1.00  0.00    -0.246 OA
BRANCH   7   9
ATOM      9  C   UNL A   1      31.468  25.713  23.891  1.00  0.00     0.087 C 
ATOM     10  C   UNL A   1      31.793  30.288  26.208  1.00  0.00     0.048 C 
ATOM     11  C   UNL A   1      31.057  29.727  25.002  1.00  0.00    -0.007 A 
ATOM     12  C   UNL A   1      30.235  30.538  24.250  1.00  0.00     0.031 A 
ATOM     13  C   UNL A   1      31.207  28.387  24.647  1.00  0.00     0.130 A 
ATOM     14  C   UNL A   1      29.554  30.034  23.149  1.00  0.00     0.108 A 
ATOM     15  C   UNL A   1      30.516  27.879  23.523  1.00  0.00     0.019 A 
ATOM     16  O   UNL A   1      32.067  27.472  25.407  1.00  0.00    -0.475 OA
ATOM     17  C   UNL A   1      29.691  28.725  22.780  1.00  0.00     0.036 A 
ATOM     18  C   UNL A   1      30.691  26.470  23.174  1.00  0.00     0.027 C 
ATOM     19  C   UNL A   1      32.162  26.188  25.005  1.00  0.00     0.316 C 
BRANCH  14  20
ATOM     20  S   UNL A   1      28.472  31.124  22.193  1.00  0.00     0.310 S 
ATOM     21  F   UNL A   1      27.301  30.700  23.175  1.00  0.00    -0.094 F 
ATOM     22  F   UNL A   1      28.030  29.931  21.263  1.00  0.00    -0.094 F 
ATOM     23  F   UNL A   1      27.460  32.078  21.497  1.00  0.00    -0.094 F 
ATOM     24  F   UNL A   1      28.827  32.266  23.225  1.00  0.00    -0.094 F 
ATOM     25  F   UNL A   1      29.421  30.136  22.982  1.00  0.00    -0.094 F 
ENDBRANCH  14  20
BRANCH  19  26
ATOM     26  C   UNL A   1      33.608  26.099  24.546  1.00  0.00     0.430 C 
ATOM     27  F   UNL A   1      34.372  26.846  25.338  1.00  0.00    -0.167 F 
ATOM     28  F   UNL A   1      34.015  24.835  24.601  1.00  0.00    -0.167 F 
ATOM     29  F   UNL A   1      33.703  26.541  23.294  1.00  0.00    -0.167 F 
ENDBRANCH  19  26
ENDBRANCH   7   9
ENDBRANCH   6   7
ENDBRANCH   5   6
ENDBRANCH   4   5
ENDBRANCH   3   4
ENDBRANCH   2   3
ENDBRANCH   1   2
BRANCH   1  30
ATOM     30  O   UNL A   1      36.576  21.313  24.915  1.00  0.00    -0.376 OA
BRANCH  30  31
ATOM     31  C   UNL A   1      37.939  21.358  25.312  1.00  0.00     0.202 C 
BRANCH  31  32
ATOM     32  C   UNL A   1      38.545  19.968  25.205  1.00  0.00     0.261 C 
BRANCH  32  33
ATOM     33  O   UNL A   1      39.381  19.727  26.327  1.00  0.00    -0.460 OA
BRANCH  33  34
ATOM     34  C   UNL A   1      40.790  19.854  26.204  1.00  0.00     0.338 C 
ATOM     35  O   UNL A   1      41.478  18.887  25.749  1.00  0.00    -0.246 OA
BRANCH  34  36
ATOM     36  C   UNL A   1      41.475  21.147  26.617  1.00  0.00     0.060 A 
ATOM     37  C   UNL A   1      41.971  22.024  25.659  1.00  0.00     0.016 A 
ATOM     38  C   UNL A   1      41.472  21.531  27.874  1.00  0.00     0.016 A 
ATOM     39  C   UNL A   1      41.960  23.397  25.994  1.00  0.00     0.010 A 
ATOM     40  C   UNL A   1      41.966  22.788  28.241  1.00  0.00     0.010 A 
ATOM     41  C   UNL A   1      42.205  23.708  27.330  1.00  0.00    -0.014 A 
BRANCH  41  42
ATOM     42  C   UNL A   1      42.737  25.075  27.727  1.00  0.00     0.031 A 
ATOM     43  C   UNL A   1      44.043  25.457  27.412  1.00  0.00     0.074 A 
ATOM     44  C   UNL A   1      41.786  25.932  28.253  1.00  0.00     0.049 A 
ATOM     45  N   UNL A   1      44.584  26.672  27.522  1.00  0.00    -0.248 NA
ATOM     46  C   UNL A   1      45.064  24.542  26.884  1.00  0.00     0.031 C 
ATOM     47  C   UNL A   1      40.464  25.557  28.566  1.00  0.00     0.029 A 
ATOM     48  N   UNL A   1      41.930  27.266  28.566  1.00  0.00    -0.354 N 
ATOM     49  C   UNL A   1      45.852  26.651  27.106  1.00  0.00     0.074 A 
ATOM     50  C   UNL A   1      46.181  25.279  26.695  1.00  0.00     0.031 C 
ATOM     51  C   UNL A   1      39.825  26.644  29.070  1.00  0.00     0.029 A 
ATOM     52  C   UNL A   1      40.735  27.718  29.081  1.00  0.00     0.049 A 
ATOM     53  H   UNL A   1      42.746  27.803  28.443  1.00  0.00     0.167 HD
ATOM     54  C   UNL A   1      46.746  27.722  27.050  1.00  0.00     0.034 A 
ATOM     55  C   UNL A   1      40.438  28.991  29.542  1.00  0.00     0.034 A 
ATOM     56  C   UNL A   1      46.434  29.005  27.471  1.00  0.00     0.049 A 
ATOM     57  C   UNL A   1      41.350  30.049  29.541  1.00  0.00     0.074 A 
ATOM     58  C   UNL A   1      47.320  30.097  27.414  1.00  0.00     0.029 A 
ATOM     59  N   UNL A   1      45.247  29.452  28.008  1.00  0.00    -0.354 N 
ATOM     60  N   UNL A   1      42.604  30.037  29.088  1.00  0.00    -0.248 NA
ATOM     61  C   UNL A   1      41.056  31.393  30.056  1.00  0.00     0.031 C 
ATOM     62  C   UNL A   1      46.679  31.186  27.919  1.00  0.00     0.029 A 
ATOM     63  C   UNL A   1      45.384  30.791  28.300  1.00  0.00     0.049 A 
ATOM     64  H   UNL A   1      44.439  28.908  28.157  1.00  0.00     0.167 HD
ATOM     65  C   UNL A   1      43.158  31.242  29.237  1.00  0.00     0.074 A 
ATOM     66  C   UNL A   1      42.172  32.130  29.869  1.00  0.00     0.031 C 
ATOM     67  C   UNL A   1      44.445  31.638  28.868  1.00  0.00     0.034 A 
BRANCH  54  68
ATOM     68  C   UNL A   1      48.138  27.466  26.497  1.00  0.00     0.023 A 
ATOM     69  C   UNL A   1      48.363  27.533  25.117  1.00  0.00     0.031 A 
ATOM     70  C   UNL A   1      49.120  27.184  27.328  1.00  0.00     0.131 A 
ATOM     71  C   UNL A   1      49.481  27.073  24.596  1.00  0.00     0.055 A 
ATOM     72  C   UNL A   1      50.387  26.950  26.798  1.00  0.00     0.041 A 
ATOM     73  F   UNL A   1      48.907  27.125  28.639  1.00  0.00    -0.206 F 
ATOM     74  C   UNL A   1      50.435  26.530  25.450  1.00  0.00     0.022 A 
BRANCH  71  75
ATOM     75  S   UNL A   1      49.769  27.147  22.810  1.00  0.00     0.124 S 
ATOM     76  O   UNL A   1      49.575  28.584  22.321  1.00  0.00    -0.237 OA
ATOM     77  O   UNL A   1      51.198  26.692  22.505  1.00  0.00    -0.237 OA
ATOM     78  O   UNL A   1      48.660  26.119  22.011  1.00  0.00    -0.744 OA
ENDBRANCH  71  75
ENDBRANCH  54  68
BRANCH  55  79
ATOM     79  C   UNL A   1      39.040  29.250  30.079  1.00  0.00     0.023 A 
ATOM     80  C   UNL A   1      38.101  29.920  29.287  1.00  0.00     0.031 A 
ATOM     81  C   UNL A   1      38.728  28.838  31.290  1.00  0.00     0.131 A 
ATOM     82  C   UNL A   1      36.981  30.375  29.808  1.00  0.00     0.055 A 
ATOM     83  C   UNL A   1      37.441  29.088  31.763  1.00  0.00     0.041 A 
ATOM     84  F   UNL A   1      39.618  28.199  32.043  1.00  0.00    -0.206 F 
ATOM     85  C   UNL A   1      36.752  30.166  31.164  1.00  0.00     0.022 A 
BRANCH  82  86
ATOM     86  S   UNL A   1      35.772  31.252  28.787  1.00  0.00     0.124 S 
ATOM     87  O   UNL A   1      36.475  32.358  27.998  1.00  0.00    -0.237 OA
ATOM     88  O   UNL A   1      35.116  30.268  27.815  1.00  0.00    -0.237 OA
ATOM     89  O   UNL A   1      34.573  31.945  29.792  1.00  0.00    -0.744 OA
ENDBRANCH  82  86
ENDBRANCH  55  79
BRANCH  67  90
ATOM     90  C   UNL A   1      44.841  33.087  29.104  1.00  0.00     0.023 A 
ATOM     91  C   UNL A   1      44.622  34.120  28.186  1.00  0.00     0.031 A 
ATOM     92  C   UNL A   1      45.328  33.340  30.301  1.00  0.00     0.131 A 
ATOM     93  C   UNL A   1      45.125  35.319  28.391  1.00  0.00     0.055 A 
ATOM     94  C   UNL A   1      45.623  34.662  30.628  1.00  0.00     0.041 A 
ATOM     95  F   UNL A   1      45.533  32.358  31.174  1.00  0.00    -0.206 F 
ATOM     96  C   UNL A   1      45.869  35.536  29.545  1.00  0.00     0.022 A 
BRANCH  93  97
ATOM     97  S   UNL A   1      44.852  36.654  27.199  1.00  0.00     0.124 S 
ATOM     98  O   UNL A   1      45.945  36.616  26.130  1.00  0.00    -0.237 OA
ATOM     99  O   UNL A   1      43.484  36.476  26.538  1.00  0.00    -0.237 OA
ATOM    100  O   UNL A   1      44.901  38.160  28.009  1.00  0.00    -0.744 OA
ENDBRANCH  93  97
ENDBRANCH  67  90
ENDBRANCH  41  42
ENDBRANCH  34  36
ENDBRANCH  33  34
ENDBRANCH  32  33
ENDBRANCH  31  32
ENDBRANCH  30  31
ENDBRANCH   1  30
TORSDOF 22
ENDMDL
MODEL 3
REMARK VINA RESULT:     -11.5      2.453      7.330
REMARK SMILES Cc1cc(S(F)(F)(F)(F)F)cc2c1O[C@H](C(F)(F)F)C(C(=O)OCCOCCOCCOC(=O)c1ccc(-c3c4nc(c(-c5cc(S(=O)(=O)[O-])ccc5F)c5ccc([nH]5)c(-c5cc(S(=O)(=O)[O-])ccc5F)c5nc(c(-c6cc(S(=O)(=O)[O-])ccc6F)c6ccc3[nH]6)C=C5)C=C4)cc1)=C2
REMARK SMILES IDX 28 1 27 2 26 3 25 4 24 5 23 6 21 7 22 8 20 9 1 10 2 11 3 12
REMARK SMILES IDX 13 13 4 14 12 15 14 16 11 17 98 18 15 19 5 20 6 21 7 22 8 23
REMARK SMILES IDX 9 24 10 25 16 26 17 27 18 28 19 29 29 30 30 31 31 32 32 33
REMARK SMILES IDX 33 34 34 35 35 36 36 37 97 38 37 39 96 40 38 41 39 42 40 43
REMARK SMILES IDX 90 44 41 45 95 46 89 47 91 48 42 49 94 50 88 51 87 52 43 54
REMARK SMILES IDX 75 55 55 56 74 57 56 58 59 59 73 60 92 61 57 62 58 63 72 65
REMARK SMILES IDX 93 66 60 67 44 68 45 69 53 70 46 71 52 72 54 73 51 74 47 75
REMARK SMILES IDX 48 76 49 77 50 78 76 79 77 80 85 81 78 82 84 83 86 84 83 85
REMARK SMILES IDX 79 86 80 87 81 88 82 89 61 90 62 91 70 92 63 93 69 94 71 95
REMARK SMILES IDX 68 96 64 97 65 98 66 99 67 100
REMARK H PARENT 91 53 59 64
REMARK Flexibility Score: inf
ROOT
ATOM      1  C   UNL A   1      36.518  21.827  25.740  1.00  0.00     0.188 C 
ENDROOT
BRANCH   1   2
ATOM      2  C   UNL A   1      35.189  21.792  26.477  1.00  0.00     0.188 C 
BRANCH   2   3
ATOM      3  O   UNL A   1      34.280  20.956  25.776  1.00  0.00    -0.376 OA
BRANCH   3   4
ATOM      4  C   UNL A   1      32.964  21.177  26.262  1.00  0.00     0.202 C 
BRANCH   4   5
ATOM      5  C   UNL A   1      32.034  21.463  25.095  1.00  0.00     0.261 C 
BRANCH   5   6
ATOM      6  O   UNL A   1      31.452  22.748  25.256  1.00  0.00    -0.460 OA
BRANCH   6   7
ATOM      7  C   UNL A   1      31.270  23.592  24.129  1.00  0.00     0.338 C 
ATOM      8  O   UNL A   1      31.102  23.084  22.976  1.00  0.00    -0.246 OA
BRANCH   7   9
ATOM      9  C   UNL A   1      31.273  25.102  24.301  1.00  0.00     0.087 C 
ATOM     10  C   UNL A   1      32.326  29.926  25.721  1.00  0.00     0.048 C 
ATOM     11  C   UNL A   1      31.316  29.256  24.803  1.00  0.00    -0.007 A 
ATOM     12  C   UNL A   1      30.391  30.012  24.118  1.00  0.00     0.031 A 
ATOM     13  C   UNL A   1      31.318  27.871  24.648  1.00  0.00     0.130 A 
ATOM     14  C   UNL A   1      29.461  29.409  23.281  1.00  0.00     0.108 A 
ATOM     15  C   UNL A   1      30.373  27.261  23.792  1.00  0.00     0.019 A 
ATOM     16  O   UNL A   1      32.277  27.009  25.351  1.00  0.00    -0.475 OA
ATOM     17  C   UNL A   1      29.448  28.053  23.109  1.00  0.00     0.036 A 
ATOM     18  C   UNL A   1      30.396  25.806  23.649  1.00  0.00     0.027 C 
ATOM     19  C   UNL A   1      32.217  25.677  25.153  1.00  0.00     0.316 C 
BRANCH  14  20
ATOM     20  S   UNL A   1      28.250  30.432  22.406  1.00  0.00     0.310 S 
ATOM     21  F   UNL A   1      29.091  31.694  22.874  1.00  0.00    -0.094 F 
ATOM     22  F   UNL A   1      27.394  30.604  23.717  1.00  0.00    -0.094 F 
ATOM     23  F   UNL A   1      27.321  31.413  21.637  1.00  0.00    -0.094 F 
ATOM     24  F   UNL A   1      29.201  30.357  21.147  1.00  0.00    -0.094 F 
ATOM     25  F   UNL A   1      29.266  29.525  23.209  1.00  0.00    -0.094 F 
ENDBRANCH  14  20
BRANCH  19  26
ATOM     26  C   UNL A   1      33.521  25.399  24.422  1.00  0.00     0.430 C 
ATOM     27  F   UNL A   1      33.285  25.303  23.116  1.00  0.00    -0.167 F 
ATOM     28  F   UNL A   1      34.376  26.392  24.647  1.00  0.00    -0.167 F 
ATOM     29  F   UNL A   1      34.042  24.257  24.863  1.00  0.00    -0.167 F 
ENDBRANCH  19  26
ENDBRANCH   7   9
ENDBRANCH   6   7
ENDBRANCH   5   6
ENDBRANCH   4   5
ENDBRANCH   3   4
ENDBRANCH   2   3
ENDBRANCH   1   2
BRANCH   1  30
ATOM     30  O   UNL A   1      36.775  20.553  25.169  1.00  0.00    -0.376 OA
BRANCH  30  31
ATOM     31  C   UNL A   1      38.125  20.493  24.733  1.00  0.00     0.202 C 
BRANCH  31  32
ATOM     32  C   UNL A   1      38.811  19.294  25.370  1.00  0.00     0.261 C 
BRANCH  32  33
ATOM     33  O   UNL A   1      39.653  19.735  26.425  1.00  0.00    -0.460 OA
BRANCH  33  34
ATOM     34  C   UNL A   1      41.057  19.817  26.226  1.00  0.00     0.338 C 
ATOM     35  O   UNL A   1      41.681  18.849  25.689  1.00  0.00    -0.246 OA
BRANCH  34  36
ATOM     36  C   UNL A   1      41.813  21.064  26.656  1.00  0.00     0.060 A 
ATOM     37  C   UNL A   1      42.370  21.918  25.710  1.00  0.00     0.016 A 
ATOM     38  C   UNL A   1      41.818  21.439  27.916  1.00  0.00     0.016 A 
ATOM     39  C   UNL A   1      42.437  23.286  26.056  1.00  0.00     0.010 A 
ATOM     40  C   UNL A   1      42.382  22.662  28.297  1.00  0.00     0.010 A 
ATOM     41  C   UNL A   1      42.685  23.573  27.397  1.00  0.00    -0.014 A 
BRANCH  41  42
ATOM     42  C   UNL A   1      43.292  24.903  27.809  1.00  0.00     0.031 A 
ATOM     43  C   UNL A   1      44.664  25.135  27.689  1.00  0.00     0.074 A 
ATOM     44  C   UNL A   1      42.369  25.881  28.137  1.00  0.00     0.049 A 
ATOM     45  N   UNL A   1      45.308  26.295  27.828  1.00  0.00    -0.248 NA
ATOM     46  C   UNL A   1      45.651  24.092  27.374  1.00  0.00     0.031 C 
ATOM     47  C   UNL A   1      40.982  25.657  28.252  1.00  0.00     0.029 A 
ATOM     48  N   UNL A   1      42.604  27.210  28.407  1.00  0.00    -0.354 N 
ATOM     49  C   UNL A   1      46.616  26.123  27.621  1.00  0.00     0.074 A 
ATOM     50  C   UNL A   1      46.856  24.703  27.332  1.00  0.00     0.031 C 
ATOM     51  C   UNL A   1      40.392  26.832  28.596  1.00  0.00     0.029 A 
ATOM     52  C   UNL A   1      41.399  27.810  28.703  1.00  0.00     0.049 A 
ATOM     53  H   UNL A   1      43.482  27.656  28.391  1.00  0.00     0.167 HD
ATOM     54  C   UNL A   1      47.617  27.096  27.659  1.00  0.00     0.034 A 
ATOM     55  C   UNL A   1      41.173  29.132  29.051  1.00  0.00     0.034 A 
ATOM     56  C   UNL A   1      47.383  28.427  27.965  1.00  0.00     0.049 A 
ATOM     57  C   UNL A   1      42.182  30.093  29.147  1.00  0.00     0.074 A 
ATOM     58  C   UNL A   1      48.379  29.422  27.999  1.00  0.00     0.029 A 
ATOM     59  N   UNL A   1      46.182  29.021  28.284  1.00  0.00    -0.354 N 
ATOM     60  N   UNL A   1      43.482  29.929  28.901  1.00  0.00    -0.248 NA
ATOM     61  C   UNL A   1      41.957  31.488  29.545  1.00  0.00     0.031 C 
ATOM     62  C   UNL A   1      47.788  30.598  28.345  1.00  0.00     0.029 A 
ATOM     63  C   UNL A   1      46.414  30.356  28.533  1.00  0.00     0.049 A 
ATOM     64  H   UNL A   1      45.308  28.570  28.328  1.00  0.00     0.167 HD
ATOM     65  C   UNL A   1      44.132  31.082  29.080  1.00  0.00     0.074 A 
ATOM     66  C   UNL A   1      43.161  32.099  29.505  1.00  0.00     0.031 C 
ATOM     67  C   UNL A   1      45.496  31.325  28.903  1.00  0.00     0.034 A 
BRANCH  54  68
ATOM     68  C   UNL A   1      49.042  26.671  27.348  1.00  0.00     0.023 A 
ATOM     69  C   UNL A   1      50.005  26.665  28.363  1.00  0.00     0.031 A 
ATOM     70  C   UNL A   1      49.354  26.311  26.120  1.00  0.00     0.131 A 
ATOM     71  C   UNL A   1      51.284  26.550  28.075  1.00  0.00     0.055 A 
ATOM     72  C   UNL A   1      50.668  25.929  25.857  1.00  0.00     0.041 A 
ATOM     73  F   UNL A   1      48.439  26.313  25.156  1.00  0.00    -0.206 F 
ATOM     74  C   UNL A   1      51.654  26.424  26.740  1.00  0.00     0.022 A 
BRANCH  71  75
ATOM     75  S   UNL A   1      52.533  26.555  29.386  1.00  0.00     0.124 S 
ATOM     76  O   UNL A   1      52.684  27.973  29.942  1.00  0.00    -0.237 OA
ATOM     77  O   UNL A   1      52.098  25.610  30.509  1.00  0.00    -0.237 OA
ATOM     78  O   UNL A   1      54.030  26.031  28.749  1.00  0.00    -0.744 OA
ENDBRANCH  71  75
ENDBRANCH  54  68
BRANCH  55  79
ATOM     79  C   UNL A   1      39.744  29.560  29.346  1.00  0.00     0.023 A 
ATOM     80  C   UNL A   1      39.318  29.704  30.671  1.00  0.00     0.031 A 
ATOM     81  C   UNL A   1      38.922  29.793  28.345  1.00  0.00     0.131 A 
ATOM     82  C   UNL A   1      38.039  29.825  30.957  1.00  0.00     0.055 A 
ATOM     83  C   UNL A   1      37.616  30.182  28.638  1.00  0.00     0.041 A 
ATOM     84  F   UNL A   1      39.326  29.660  27.085  1.00  0.00    -0.206 F 
ATOM     85  C   UNL A   1      37.124  29.816  29.910  1.00  0.00     0.022 A 
BRANCH  82  86
ATOM     86  S   UNL A   1      37.485  29.999  32.671  1.00  0.00     0.124 S 
ATOM     87  O   UNL A   1      36.253  30.906  32.720  1.00  0.00    -0.237 OA
ATOM     88  O   UNL A   1      37.128  28.622  33.234  1.00  0.00    -0.237 OA
ATOM     89  O   UNL A   1      38.738  30.691  33.608  1.00  0.00    -0.744 OA
ENDBRANCH  82  86
ENDBRANCH  55  79
BRANCH  67  90
ATOM     90  C   UNL A   1      46.002  32.740  29.132  1.00  0.00     0.023 A 
ATOM     91  C   UNL A   1      46.049  33.727  28.142  1.00  0.00     0.031 A 
ATOM     92  C   UNL A   1      46.313  33.021  30.380  1.00  0.00     0.131 A 
ATOM     93  C   UNL A   1      46.639  34.882  28.370  1.00  0.00     0.055 A 
ATOM     94  C   UNL A   1      46.694  34.326  30.688  1.00  0.00     0.041 A 
ATOM     95  F   UNL A   1      46.266  32.084  31.322  1.00  0.00    -0.206 F 
ATOM     96  C   UNL A   1      47.205  35.099  29.621  1.00  0.00     0.022 A 
BRANCH  93  97
ATOM     97  S   UNL A   1      46.710  36.156  27.086  1.00  0.00     0.124 S 
ATOM     98  O   UNL A   1      45.801  37.324  27.475  1.00  0.00    -0.237 OA
ATOM     99  O   UNL A   1      48.150  36.655  26.943  1.00  0.00    -0.237 OA
ATOM    100  O   UNL A   1      46.185  35.496  25.598  1.00  0.00    -0.744 OA
ENDBRANCH  93  97
ENDBRANCH  67  90
ENDBRANCH  41  42
ENDBRANCH  34  36
ENDBRANCH  33  34
ENDBRANCH  32  33
ENDBRANCH  31  32
ENDBRANCH  30  31
ENDBRANCH   1  30
TORSDOF 22
ENDMDL
