MODEL 1
REMARK VINA RESULT:     -11.6      0.000      0.000
REMARK SMILES COc1ccc(/C=C2/C(=O)N(c3ccccc3)C(=O)N=C2OCCOCCOCCOC(=O)c2ccc(-c3c4nc(c(-c5cc(S(=O)(=O)[O-])ccc5F)c5ccc([nH]5)c(-c5cc(S(=O)(=O)[O-])ccc5F)c5nc(c(-c6cc(S(=O)(=O)[O-])ccc6F)c6ccc3[nH]6)C=C5)C=C4)cc2)cc1C(=O)[O-]
REMARK SMILES IDX 27 1 26 2 25 3 24 4 23 5 22 6 21 7 7 8 8 9 9 10 10 11 11 12
REMARK SMILES IDX 20 13 18 14 19 15 6 16 3 17 4 18 98 19 5 20 97 21 2 22 1 23
REMARK SMILES IDX 99 24 100 25 101 26 12 27 13 28 17 29 14 30 16 31 15 32
REMARK SMILES IDX 28 33 29 34 30 35 31 36 32 37 33 38 34 39 35 40 96 41 36 42
REMARK SMILES IDX 95 43 37 44 38 45 39 46 89 47 40 48 94 49 88 50 90 51 41 52
REMARK SMILES IDX 93 53 87 54 86 55 42 57 74 58 54 59 73 60 55 61 58 62 72 63
REMARK SMILES IDX 91 64 56 65 57 66 71 68 92 69 59 70 43 71 44 72 52 73 45 74
REMARK SMILES IDX 51 75 53 76 50 77 46 78 47 79 48 80 49 81 75 82 76 83 84 84
REMARK SMILES IDX 77 85 83 86 85 87 82 88 78 89 79 90 80 91 81 92 60 93 61 94
REMARK SMILES IDX 69 95 62 96 68 97 70 98 67 99 63 100 64 101 65 102 66 103
REMARK H PARENT 90 56 58 67
REMARK Flexibility Score: inf
ROOT
ATOM      1  C   UNL A   1      31.945  29.174  26.976  1.00  0.00     0.188 C 
ENDROOT
BRANCH   1   2
ATOM      2  C   UNL A   1      32.749  27.922  26.575  1.00  0.00     0.188 C 
BRANCH   2   3
ATOM      3  O   UNL A   1      32.090  26.677  26.414  1.00  0.00    -0.376 OA
BRANCH   3   4
ATOM      4  C   UNL A   1      30.673  26.624  26.505  1.00  0.00     0.201 C 
BRANCH   4   5
ATOM      5  C   UNL A   1      30.021  25.326  26.053  1.00  0.00     0.260 C 
BRANCH   5   6
ATOM      6  O   UNL A   1      30.062  25.229  24.611  1.00  0.00    -0.475 OA
BRANCH   6   7
ATOM      7  C   UNL A   1      29.709  26.290  23.867  1.00  0.00     0.231 C 
ATOM      8  C   UNL A   1      32.099  26.519  22.940  1.00  0.00     0.027 C 
ATOM      9  C   UNL A   1      30.818  26.927  23.140  1.00  0.00     0.103 C 
ATOM     10  C   UNL A   1      30.466  28.293  22.596  1.00  0.00     0.272 C 
ATOM     11  O   UNL A   1      31.300  28.954  21.977  1.00  0.00    -0.268 OA
ATOM     12  N   UNL A   1      29.179  28.730  22.894  1.00  0.00    -0.226 N 
ATOM     13  N   UNL A   1      28.502  26.708  23.916  1.00  0.00    -0.156 NA
ATOM     14  C   UNL A   1      28.161  27.902  23.367  1.00  0.00     0.358 C 
ATOM     15  O   UNL A   1      26.973  28.215  23.333  1.00  0.00    -0.245 OA
BRANCH   8  16
ATOM     16  C   UNL A   1      32.939  25.347  23.325  1.00  0.00    -0.024 A 
ATOM     17  C   UNL A   1      34.419  22.986  23.929  1.00  0.00     0.127 A 
ATOM     18  C   UNL A   1      34.978  24.249  24.106  1.00  0.00     0.048 A 
ATOM     19  C   UNL A   1      33.073  22.892  23.577  1.00  0.00     0.040 A 
ATOM     20  C   UNL A   1      34.226  25.407  23.860  1.00  0.00     0.012 A 
ATOM     21  C   UNL A   1      32.363  24.062  23.223  1.00  0.00     0.022 A 
BRANCH  17  22
ATOM     22  O   UNL A   1      35.249  21.928  24.187  1.00  0.00    -0.496 OA
ATOM     23  C   UNL A   1      35.974  22.103  25.406  1.00  0.00     0.278 C 
ENDBRANCH  17  22
BRANCH  19  24
ATOM     24  C   UNL A   1      32.303  21.629  23.634  1.00  0.00     0.075 C 
ATOM     25  O   UNL A   1      31.851  21.111  24.639  1.00  0.00    -0.545 OA
ATOM     26  O   UNL A   1      32.252  20.999  22.446  1.00  0.00    -0.545 OA
ENDBRANCH  19  24
ENDBRANCH   8  16
BRANCH  12  27
ATOM     27  C   UNL A   1      28.817  30.080  22.622  1.00  0.00     0.054 A 
ATOM     28  C   UNL A   1      28.364  30.413  21.337  1.00  0.00     0.027 A 
ATOM     29  C   UNL A   1      29.002  31.083  23.574  1.00  0.00     0.027 A 
ATOM     30  C   UNL A   1      28.098  31.742  21.010  1.00  0.00     0.002 A 
ATOM     31  C   UNL A   1      28.775  32.417  23.226  1.00  0.00     0.002 A 
ATOM     32  C   UNL A   1      28.323  32.745  21.947  1.00  0.00     0.000 A 
ENDBRANCH  12  27
ENDBRANCH   6   7
ENDBRANCH   5   6
ENDBRANCH   4   5
ENDBRANCH   3   4
ENDBRANCH   2   3
ENDBRANCH   1   2
BRANCH   1  33
ATOM     33  O   UNL A   1      32.397  30.467  26.602  1.00  0.00    -0.376 OA
BRANCH  33  34
ATOM     34  C   UNL A   1      31.438  31.485  26.349  1.00  0.00     0.202 C 
BRANCH  34  35
ATOM     35  C   UNL A   1      31.687  32.861  26.965  1.00  0.00     0.261 C 
BRANCH  35  36
ATOM     36  O   UNL A   1      33.078  33.222  26.943  1.00  0.00    -0.460 OA
BRANCH  36  37
ATOM     37  C   UNL A   1      33.582  33.668  28.122  1.00  0.00     0.338 C 
ATOM     38  O   UNL A   1      33.035  34.423  28.907  1.00  0.00    -0.246 OA
BRANCH  37  39
ATOM     39  C   UNL A   1      34.835  32.947  28.434  1.00  0.00     0.060 A 
ATOM     40  C   UNL A   1      34.727  31.631  28.902  1.00  0.00     0.016 A 
ATOM     41  C   UNL A   1      36.092  33.540  28.289  1.00  0.00     0.016 A 
ATOM     42  C   UNL A   1      35.872  30.919  29.258  1.00  0.00     0.010 A 
ATOM     43  C   UNL A   1      37.240  32.831  28.668  1.00  0.00     0.010 A 
ATOM     44  C   UNL A   1      37.134  31.527  29.177  1.00  0.00    -0.014 A 
BRANCH  44  45
ATOM     45  C   UNL A   1      38.304  30.855  29.799  1.00  0.00     0.031 A 
ATOM     46  C   UNL A   1      38.637  31.180  31.230  1.00  0.00     0.074 A 
ATOM     47  C   UNL A   1      39.030  29.942  29.129  1.00  0.00     0.049 A 
ATOM     48  N   UNL A   1      39.580  30.697  31.997  1.00  0.00    -0.248 NA
ATOM     49  C   UNL A   1      37.789  32.192  31.879  1.00  0.00     0.031 C 
ATOM     50  C   UNL A   1      38.784  29.514  27.754  1.00  0.00     0.029 A 
ATOM     51  N   UNL A   1      40.102  29.183  29.531  1.00  0.00    -0.354 N 
ATOM     52  C   UNL A   1      39.446  31.349  33.217  1.00  0.00     0.074 A 
ATOM     53  C   UNL A   1      38.333  32.267  33.082  1.00  0.00     0.031 C 
ATOM     54  C   UNL A   1      39.649  28.532  27.443  1.00  0.00     0.029 A 
ATOM     55  C   UNL A   1      40.548  28.300  28.573  1.00  0.00     0.049 A 
ATOM     56  H   UNL A   1      40.513  29.262  30.422  1.00  0.00     0.167 HD
ATOM     57  C   UNL A   1      40.191  31.213  34.342  1.00  0.00     0.034 A 
ATOM     58  C   UNL A   1      41.570  27.418  28.605  1.00  0.00     0.034 A 
ATOM     59  C   UNL A   1      41.332  30.340  34.451  1.00  0.00     0.049 A 
ATOM     60  C   UNL A   1      42.430  27.336  29.848  1.00  0.00     0.074 A 
ATOM     61  C   UNL A   1      42.183  30.161  35.528  1.00  0.00     0.029 A 
ATOM     62  N   UNL A   1      41.800  29.512  33.438  1.00  0.00    -0.354 N 
ATOM     63  N   UNL A   1      42.297  27.966  30.994  1.00  0.00    -0.248 NA
ATOM     64  C   UNL A   1      43.588  26.432  29.795  1.00  0.00     0.031 C 
ATOM     65  C   UNL A   1      43.202  29.282  35.144  1.00  0.00     0.029 A 
ATOM     66  C   UNL A   1      42.945  28.849  33.854  1.00  0.00     0.049 A 
ATOM     67  H   UNL A   1      41.378  29.411  32.555  1.00  0.00     0.167 HD
ATOM     68  C   UNL A   1      43.349  27.524  31.795  1.00  0.00     0.074 A 
ATOM     69  C   UNL A   1      44.086  26.553  31.018  1.00  0.00     0.031 C 
ATOM     70  C   UNL A   1      43.682  27.894  33.059  1.00  0.00     0.034 A 
BRANCH  57  71
ATOM     71  C   UNL A   1      39.838  32.108  35.503  1.00  0.00     0.023 A 
ATOM     72  C   UNL A   1      38.962  31.689  36.520  1.00  0.00     0.031 A 
ATOM     73  C   UNL A   1      40.331  33.423  35.557  1.00  0.00     0.131 A 
ATOM     74  C   UNL A   1      38.547  32.601  37.503  1.00  0.00     0.055 A 
ATOM     75  C   UNL A   1      39.976  34.301  36.581  1.00  0.00     0.041 A 
ATOM     76  F   UNL A   1      41.148  33.886  34.596  1.00  0.00    -0.206 F 
ATOM     77  C   UNL A   1      39.066  33.898  37.553  1.00  0.00     0.022 A 
BRANCH  74  78
ATOM     78  S   UNL A   1      37.201  32.120  38.619  1.00  0.00     0.124 S 
ATOM     79  O   UNL A   1      36.103  32.951  38.132  1.00  0.00    -0.237 OA
ATOM     80  O   UNL A   1      37.080  30.688  38.370  1.00  0.00    -0.237 OA
ATOM     81  O   UNL A   1      37.707  32.483  39.942  1.00  0.00    -0.744 OA
ENDBRANCH  74  78
ENDBRANCH  57  71
BRANCH  58  82
ATOM     82  C   UNL A   1      41.889  26.567  27.420  1.00  0.00     0.023 A 
ATOM     83  C   UNL A   1      41.512  25.214  27.377  1.00  0.00     0.031 A 
ATOM     84  C   UNL A   1      42.652  27.068  26.350  1.00  0.00     0.131 A 
ATOM     85  C   UNL A   1      41.941  24.398  26.318  1.00  0.00     0.055 A 
ATOM     86  C   UNL A   1      43.024  26.269  25.268  1.00  0.00     0.041 A 
ATOM     87  F   UNL A   1      43.057  28.348  26.346  1.00  0.00    -0.206 F 
ATOM     88  C   UNL A   1      42.681  24.920  25.255  1.00  0.00     0.022 A 
BRANCH  85  89
ATOM     89  S   UNL A   1      41.616  22.614  26.403  1.00  0.00     0.124 S 
ATOM     90  O   UNL A   1      42.400  22.115  25.280  1.00  0.00    -0.237 OA
ATOM     91  O   UNL A   1      42.114  22.275  27.732  1.00  0.00    -0.237 OA
ATOM     92  O   UNL A   1      40.166  22.523  26.241  1.00  0.00    -0.744 OA
ENDBRANCH  85  89
ENDBRANCH  58  82
BRANCH  70  93
ATOM     93  C   UNL A   1      44.886  27.226  33.683  1.00  0.00     0.023 A 
ATOM     94  C   UNL A   1      46.182  27.755  33.542  1.00  0.00     0.031 A 
ATOM     95  C   UNL A   1      44.731  26.049  34.437  1.00  0.00     0.131 A 
ATOM     96  C   UNL A   1      47.278  27.082  34.106  1.00  0.00     0.055 A 
ATOM     97  C   UNL A   1      45.818  25.414  35.042  1.00  0.00     0.041 A 
ATOM     98  F   UNL A   1      43.518  25.501  34.606  1.00  0.00    -0.206 F 
ATOM     99  C   UNL A   1      47.101  25.925  34.870  1.00  0.00     0.022 A 
BRANCH  96 100
ATOM    100  S   UNL A   1      48.951  27.699  33.772  1.00  0.00     0.124 S 
ATOM    101  O   UNL A   1      49.480  26.676  32.876  1.00  0.00    -0.237 OA
ATOM    102  O   UNL A   1      48.689  29.001  33.167  1.00  0.00    -0.237 OA
ATOM    103  O   UNL A   1      49.571  27.747  35.094  1.00  0.00    -0.744 OA
ENDBRANCH  96 100
ENDBRANCH  70  93
ENDBRANCH  44  45
ENDBRANCH  37  39
ENDBRANCH  36  37
ENDBRANCH  35  36
ENDBRANCH  34  35
ENDBRANCH  33  34
ENDBRANCH   1  33
TORSDOF 23
ENDMDL
MODEL 2
REMARK VINA RESULT:     -11.3      2.598      5.448
REMARK SMILES COc1ccc(/C=C2/C(=O)N(c3ccccc3)C(=O)N=C2OCCOCCOCCOC(=O)c2ccc(-c3c4nc(c(-c5cc(S(=O)(=O)[O-])ccc5F)c5ccc([nH]5)c(-c5cc(S(=O)(=O)[O-])ccc5F)c5nc(c(-c6cc(S(=O)(=O)[O-])ccc6F)c6ccc3[nH]6)C=C5)C=C4)cc2)cc1C(=O)[O-]
REMARK SMILES IDX 27 1 26 2 25 3 24 4 23 5 22 6 21 7 7 8 8 9 9 10 10 11 11 12
REMARK SMILES IDX 20 13 18 14 19 15 6 16 3 17 4 18 98 19 5 20 97 21 2 22 1 23
REMARK SMILES IDX 99 24 100 25 101 26 12 27 13 28 17 29 14 30 16 31 15 32
REMARK SMILES IDX 28 33 29 34 30 35 31 36 32 37 33 38 34 39 35 40 96 41 36 42
REMARK SMILES IDX 95 43 37 44 38 45 39 46 89 47 40 48 94 49 88 50 90 51 41 52
REMARK SMILES IDX 93 53 87 54 86 55 42 57 74 58 54 59 73 60 55 61 58 62 72 63
REMARK SMILES IDX 91 64 56 65 57 66 71 68 92 69 59 70 43 71 44 72 52 73 45 74
REMARK SMILES IDX 51 75 53 76 50 77 46 78 47 79 48 80 49 81 75 82 76 83 84 84
REMARK SMILES IDX 77 85 83 86 85 87 82 88 78 89 79 90 80 91 81 92 60 93 61 94
REMARK SMILES IDX 69 95 62 96 68 97 70 98 67 99 63 100 64 101 65 102 66 103
REMARK H PARENT 90 56 58 67
REMARK Flexibility Score: inf
ROOT
ATOM      1  C   UNL A   1      31.589  26.924  26.971  1.00  0.00     0.188 C 
ENDROOT
BRANCH   1   2
ATOM      2  C   UNL A   1      31.447  25.455  26.524  1.00  0.00     0.188 C 
BRANCH   2   3
ATOM      3  O   UNL A   1      32.190  24.440  27.179  1.00  0.00    -0.376 OA
BRANCH   3   4
ATOM      4  C   UNL A   1      33.060  23.613  26.418  1.00  0.00     0.201 C 
BRANCH   4   5
ATOM      5  C   UNL A   1      34.370  24.247  25.975  1.00  0.00     0.260 C 
BRANCH   5   6
ATOM      6  O   UNL A   1      34.725  23.774  24.656  1.00  0.00    -0.475 OA
BRANCH   6   7
ATOM      7  C   UNL A   1      34.560  22.476  24.351  1.00  0.00     0.231 C 
ATOM      8  C   UNL A   1      32.526  23.015  22.869  1.00  0.00     0.027 C 
ATOM      9  C   UNL A   1      33.374  22.185  23.530  1.00  0.00     0.103 C 
ATOM     10  C   UNL A   1      33.026  20.714  23.489  1.00  0.00     0.272 C 
ATOM     11  O   UNL A   1      32.049  20.320  22.852  1.00  0.00    -0.268 OA
ATOM     12  N   UNL A   1      33.854  19.893  24.250  1.00  0.00    -0.226 N 
ATOM     13  N   UNL A   1      35.359  21.615  24.854  1.00  0.00    -0.156 NA
ATOM     14  C   UNL A   1      35.090  20.287  24.761  1.00  0.00     0.358 C 
ATOM     15  O   UNL A   1      35.938  19.488  25.154  1.00  0.00    -0.245 OA
BRANCH   8  16
ATOM     16  C   UNL A   1      32.380  24.488  22.673  1.00  0.00    -0.024 A 
ATOM     17  C   UNL A   1      31.971  27.302  22.475  1.00  0.00     0.127 A 
ATOM     18  C   UNL A   1      33.081  26.696  21.894  1.00  0.00     0.048 A 
ATOM     19  C   UNL A   1      30.986  26.495  23.043  1.00  0.00     0.040 A 
ATOM     20  C   UNL A   1      33.248  25.304  21.948  1.00  0.00     0.012 A 
ATOM     21  C   UNL A   1      31.223  25.110  23.190  1.00  0.00     0.022 A 
BRANCH  17  22
ATOM     22  O   UNL A   1      31.918  28.667  22.371  1.00  0.00    -0.496 OA
ATOM     23  C   UNL A   1      33.066  29.292  22.950  1.00  0.00     0.278 C 
ENDBRANCH  17  22
BRANCH  19  24
ATOM     24  C   UNL A   1      29.648  26.996  23.432  1.00  0.00     0.075 C 
ATOM     25  O   UNL A   1      29.126  28.022  23.038  1.00  0.00    -0.545 OA
ATOM     26  O   UNL A   1      29.081  26.257  24.403  1.00  0.00    -0.545 OA
ENDBRANCH  19  24
ENDBRANCH   8  16
BRANCH  12  27
ATOM     27  C   UNL A   1      33.490  18.533  24.458  1.00  0.00     0.054 A 
ATOM     28  C   UNL A   1      32.747  18.199  25.600  1.00  0.00     0.027 A 
ATOM     29  C   UNL A   1      33.944  17.525  23.606  1.00  0.00     0.027 A 
ATOM     30  C   UNL A   1      32.461  16.864  25.885  1.00  0.00     0.002 A 
ATOM     31  C   UNL A   1      33.690  16.188  23.921  1.00  0.00     0.002 A 
ATOM     32  C   UNL A   1      32.951  15.859  25.058  1.00  0.00     0.000 A 
ENDBRANCH  12  27
ENDBRANCH   6   7
ENDBRANCH   5   6
ENDBRANCH   4   5
ENDBRANCH   3   4
ENDBRANCH   2   3
ENDBRANCH   1   2
BRANCH   1  33
ATOM     33  O   UNL A   1      32.180  27.881  26.106  1.00  0.00    -0.376 OA
BRANCH  33  34
ATOM     34  C   UNL A   1      31.762  29.237  26.193  1.00  0.00     0.202 C 
BRANCH  34  35
ATOM     35  C   UNL A   1      32.435  30.119  27.244  1.00  0.00     0.261 C 
BRANCH  35  36
ATOM     36  O   UNL A   1      33.636  30.734  26.749  1.00  0.00    -0.460 OA
BRANCH  36  37
ATOM     37  C   UNL A   1      34.276  31.550  27.624  1.00  0.00     0.338 C 
ATOM     38  O   UNL A   1      33.803  32.518  28.195  1.00  0.00    -0.246 OA
BRANCH  37  39
ATOM     39  C   UNL A   1      35.602  30.986  27.956  1.00  0.00     0.060 A 
ATOM     40  C   UNL A   1      35.741  29.593  27.927  1.00  0.00     0.016 A 
ATOM     41  C   UNL A   1      36.690  31.793  28.302  1.00  0.00     0.016 A 
ATOM     42  C   UNL A   1      36.955  29.003  28.277  1.00  0.00     0.010 A 
ATOM     43  C   UNL A   1      37.902  31.199  28.675  1.00  0.00     0.010 A 
ATOM     44  C   UNL A   1      38.034  29.801  28.688  1.00  0.00    -0.014 A 
BRANCH  44  45
ATOM     45  C   UNL A   1      39.222  29.153  29.301  1.00  0.00     0.031 A 
ATOM     46  C   UNL A   1      39.635  29.581  30.684  1.00  0.00     0.074 A 
ATOM     47  C   UNL A   1      39.896  28.176  28.669  1.00  0.00     0.049 A 
ATOM     48  N   UNL A   1      40.607  29.137  31.438  1.00  0.00    -0.248 NA
ATOM     49  C   UNL A   1      38.839  30.658  31.293  1.00  0.00     0.031 C 
ATOM     50  C   UNL A   1      39.571  27.649  27.346  1.00  0.00     0.029 A 
ATOM     51  N   UNL A   1      40.973  27.426  29.075  1.00  0.00    -0.354 N 
ATOM     52  C   UNL A   1      40.548  29.885  32.609  1.00  0.00     0.074 A 
ATOM     53  C   UNL A   1      39.446  30.813  32.458  1.00  0.00     0.031 C 
ATOM     54  C   UNL A   1      40.401  26.626  27.070  1.00  0.00     0.029 A 
ATOM     55  C   UNL A   1      41.353  26.463  28.167  1.00  0.00     0.049 A 
ATOM     56  H   UNL A   1      41.431  27.565  29.935  1.00  0.00     0.167 HD
ATOM     57  C   UNL A   1      41.348  29.819  33.702  1.00  0.00     0.034 A 
ATOM     58  C   UNL A   1      42.359  25.563  28.217  1.00  0.00     0.034 A 
ATOM     59  C   UNL A   1      42.477  28.932  33.821  1.00  0.00     0.049 A 
ATOM     60  C   UNL A   1      43.281  25.559  29.418  1.00  0.00     0.074 A 
ATOM     61  C   UNL A   1      43.379  28.819  34.865  1.00  0.00     0.029 A 
ATOM     62  N   UNL A   1      42.877  28.019  32.854  1.00  0.00    -0.354 N 
ATOM     63  N   UNL A   1      43.219  26.278  30.516  1.00  0.00    -0.248 NA
ATOM     64  C   UNL A   1      44.419  24.628  29.378  1.00  0.00     0.031 C 
ATOM     65  C   UNL A   1      44.361  27.890  34.499  1.00  0.00     0.029 A 
ATOM     66  C   UNL A   1      44.030  27.365  33.262  1.00  0.00     0.049 A 
ATOM     67  H   UNL A   1      42.408  27.858  32.003  1.00  0.00     0.167 HD
ATOM     68  C   UNL A   1      44.303  25.877  31.296  1.00  0.00     0.074 A 
ATOM     69  C   UNL A   1      44.981  24.832  30.560  1.00  0.00     0.031 C 
ATOM     70  C   UNL A   1      44.707  26.335  32.508  1.00  0.00     0.034 A 
BRANCH  57  71
ATOM     71  C   UNL A   1      41.072  30.809  34.806  1.00  0.00     0.023 A 
ATOM     72  C   UNL A   1      39.917  30.723  35.604  1.00  0.00     0.031 A 
ATOM     73  C   UNL A   1      41.941  31.892  35.017  1.00  0.00     0.131 A 
ATOM     74  C   UNL A   1      39.626  31.744  36.521  1.00  0.00     0.055 A 
ATOM     75  C   UNL A   1      41.686  32.863  35.986  1.00  0.00     0.041 A 
ATOM     76  F   UNL A   1      43.044  32.040  34.265  1.00  0.00    -0.206 F 
ATOM     77  C   UNL A   1      40.515  32.802  36.734  1.00  0.00     0.022 A 
BRANCH  74  78
ATOM     78  S   UNL A   1      37.996  31.755  37.318  1.00  0.00     0.124 S 
ATOM     79  O   UNL A   1      37.687  30.329  37.373  1.00  0.00    -0.237 OA
ATOM     80  O   UNL A   1      38.274  32.401  38.595  1.00  0.00    -0.237 OA
ATOM     81  O   UNL A   1      37.168  32.528  36.394  1.00  0.00    -0.744 OA
ENDBRANCH  74  78
ENDBRANCH  57  71
BRANCH  58  82
ATOM     82  C   UNL A   1      42.601  24.616  27.087  1.00  0.00     0.023 A 
ATOM     83  C   UNL A   1      42.099  23.304  27.122  1.00  0.00     0.031 A 
ATOM     84  C   UNL A   1      43.410  24.979  25.996  1.00  0.00     0.131 A 
ATOM     85  C   UNL A   1      42.454  22.389  26.117  1.00  0.00     0.055 A 
ATOM     86  C   UNL A   1      43.710  24.085  24.967  1.00  0.00     0.041 A 
ATOM     87  F   UNL A   1      43.934  26.214  25.919  1.00  0.00    -0.206 F 
ATOM     88  C   UNL A   1      43.243  22.776  25.031  1.00  0.00     0.022 A 
BRANCH  85  89
ATOM     89  S   UNL A   1      41.963  20.652  26.306  1.00  0.00     0.124 S 
ATOM     90  O   UNL A   1      42.766  20.004  25.276  1.00  0.00    -0.237 OA
ATOM     91  O   UNL A   1      42.347  20.373  27.686  1.00  0.00    -0.237 OA
ATOM     92  O   UNL A   1      40.524  20.674  26.053  1.00  0.00    -0.744 OA
ENDBRANCH  85  89
ENDBRANCH  58  82
BRANCH  70  93
ATOM     93  C   UNL A   1      45.930  25.691  33.121  1.00  0.00     0.023 A 
ATOM     94  C   UNL A   1      45.832  24.572  33.968  1.00  0.00     0.031 A 
ATOM     95  C   UNL A   1      47.212  26.201  32.846  1.00  0.00     0.131 A 
ATOM     96  C   UNL A   1      46.990  24.028  34.546  1.00  0.00     0.055 A 
ATOM     97  C   UNL A   1      48.365  25.622  33.380  1.00  0.00     0.041 A 
ATOM     98  F   UNL A   1      47.365  27.267  32.044  1.00  0.00    -0.206 F 
ATOM     99  C   UNL A   1      48.257  24.536  34.244  1.00  0.00     0.022 A 
BRANCH  96 100
ATOM    100  S   UNL A   1      46.818  22.689  35.758  1.00  0.00     0.124 S 
ATOM    101  O   UNL A   1      47.489  23.247  36.927  1.00  0.00    -0.237 OA
ATOM    102  O   UNL A   1      45.369  22.547  35.864  1.00  0.00    -0.237 OA
ATOM    103  O   UNL A   1      47.504  21.563  35.127  1.00  0.00    -0.744 OA
ENDBRANCH  96 100
ENDBRANCH  70  93
ENDBRANCH  44  45
ENDBRANCH  37  39
ENDBRANCH  36  37
ENDBRANCH  35  36
ENDBRANCH  34  35
ENDBRANCH  33  34
ENDBRANCH   1  33
TORSDOF 23
ENDMDL
MODEL 3
REMARK VINA RESULT:     -10.8      3.053      5.722
REMARK SMILES COc1ccc(/C=C2/C(=O)N(c3ccccc3)C(=O)N=C2OCCOCCOCCOC(=O)c2ccc(-c3c4nc(c(-c5cc(S(=O)(=O)[O-])ccc5F)c5ccc([nH]5)c(-c5cc(S(=O)(=O)[O-])ccc5F)c5nc(c(-c6cc(S(=O)(=O)[O-])ccc6F)c6ccc3[nH]6)C=C5)C=C4)cc2)cc1C(=O)[O-]
REMARK SMILES IDX 27 1 26 2 25 3 24 4 23 5 22 6 21 7 7 8 8 9 9 10 10 11 11 12
REMARK SMILES IDX 20 13 18 14 19 15 6 16 3 17 4 18 98 19 5 20 97 21 2 22 1 23
REMARK SMILES IDX 99 24 100 25 101 26 12 27 13 28 17 29 14 30 16 31 15 32
REMARK SMILES IDX 28 33 29 34 30 35 31 36 32 37 33 38 34 39 35 40 96 41 36 42
REMARK SMILES IDX 95 43 37 44 38 45 39 46 89 47 40 48 94 49 88 50 90 51 41 52
REMARK SMILES IDX 93 53 87 54 86 55 42 57 74 58 54 59 73 60 55 61 58 62 72 63
REMARK SMILES IDX 91 64 56 65 57 66 71 68 92 69 59 70 43 71 44 72 52 73 45 74
REMARK SMILES IDX 51 75 53 76 50 77 46 78 47 79 48 80 49 81 75 82 76 83 84 84
REMARK SMILES IDX 77 85 83 86 85 87 82 88 78 89 79 90 80 91 81 92 60 93 61 94
REMARK SMILES IDX 69 95 62 96 68 97 70 98 67 99 63 100 64 101 65 102 66 103
REMARK H PARENT 90 56 58 67
REMARK Flexibility Score: inf
ROOT
ATOM      1  C   UNL A   1      35.002  29.911  27.373  1.00  0.00     0.188 C 
ENDROOT
BRANCH   1   2
ATOM      2  C   UNL A   1      33.966  28.945  26.766  1.00  0.00     0.188 C 
BRANCH   2   3
ATOM      3  O   UNL A   1      34.389  27.717  26.198  1.00  0.00    -0.376 OA
BRANCH   3   4
ATOM      4  C   UNL A   1      33.462  26.646  26.084  1.00  0.00     0.201 C 
BRANCH   4   5
ATOM      5  C   UNL A   1      34.046  25.289  25.724  1.00  0.00     0.260 C 
BRANCH   5   6
ATOM      6  O   UNL A   1      33.007  24.283  25.747  1.00  0.00    -0.475 OA
BRANCH   6   7
ATOM      7  C   UNL A   1      33.245  23.074  25.212  1.00  0.00     0.231 C 
ATOM      8  C   UNL A   1      31.617  23.538  23.274  1.00  0.00     0.027 C 
ATOM      9  C   UNL A   1      32.429  22.755  24.030  1.00  0.00     0.103 C 
ATOM     10  C   UNL A   1      32.467  21.290  23.660  1.00  0.00     0.272 C 
ATOM     11  O   UNL A   1      31.821  20.870  22.699  1.00  0.00    -0.268 OA
ATOM     12  N   UNL A   1      33.231  20.490  24.505  1.00  0.00    -0.226 N 
ATOM     13  N   UNL A   1      34.061  22.286  25.800  1.00  0.00    -0.156 NA
ATOM     14  C   UNL A   1      34.153  20.984  25.427  1.00  0.00     0.358 C 
ATOM     15  O   UNL A   1      35.029  20.288  25.936  1.00  0.00    -0.245 OA
BRANCH   8  16
ATOM     16  C   UNL A   1      31.180  24.966  23.269  1.00  0.00    -0.024 A 
ATOM     17  C   UNL A   1      30.503  27.731  23.113  1.00  0.00     0.127 A 
ATOM     18  C   UNL A   1      29.579  26.789  23.558  1.00  0.00     0.048 A 
ATOM     19  C   UNL A   1      31.814  27.321  22.870  1.00  0.00     0.040 A 
ATOM     20  C   UNL A   1      29.935  25.439  23.685  1.00  0.00     0.012 A 
ATOM     21  C   UNL A   1      32.127  25.943  22.892  1.00  0.00     0.022 A 
BRANCH  17  22
ATOM     22  O   UNL A   1      30.041  29.017  23.017  1.00  0.00    -0.496 OA
ATOM     23  C   UNL A   1      28.707  29.069  22.508  1.00  0.00     0.278 C 
ENDBRANCH  17  22
BRANCH  19  24
ATOM     24  C   UNL A   1      32.937  28.264  22.670  1.00  0.00     0.075 C 
ATOM     25  O   UNL A   1      33.131  29.290  23.296  1.00  0.00    -0.545 OA
ATOM     26  O   UNL A   1      33.694  27.950  21.602  1.00  0.00    -0.545 OA
ENDBRANCH  19  24
ENDBRANCH   8  16
BRANCH  12  27
ATOM     27  C   UNL A   1      33.161  19.073  24.380  1.00  0.00     0.054 A 
ATOM     28  C   UNL A   1      32.552  18.334  25.404  1.00  0.00     0.027 A 
ATOM     29  C   UNL A   1      33.773  18.411  23.316  1.00  0.00     0.027 A 
ATOM     30  C   UNL A   1      32.556  16.940  25.362  1.00  0.00     0.002 A 
ATOM     31  C   UNL A   1      33.811  17.014  23.302  1.00  0.00     0.002 A 
ATOM     32  C   UNL A   1      33.204  16.281  24.322  1.00  0.00     0.000 A 
ENDBRANCH  12  27
ENDBRANCH   6   7
ENDBRANCH   5   6
ENDBRANCH   4   5
ENDBRANCH   3   4
ENDBRANCH   2   3
ENDBRANCH   1   2
BRANCH   1  33
ATOM     33  O   UNL A   1      34.598  31.183  27.858  1.00  0.00    -0.376 OA
BRANCH  33  34
ATOM     34  C   UNL A   1      33.264  31.614  27.628  1.00  0.00     0.202 C 
BRANCH  34  35
ATOM     35  C   UNL A   1      33.038  33.100  27.348  1.00  0.00     0.261 C 
BRANCH  35  36
ATOM     36  O   UNL A   1      32.562  33.804  28.508  1.00  0.00    -0.460 OA
BRANCH  36  37
ATOM     37  C   UNL A   1      33.374  34.791  28.964  1.00  0.00     0.338 C 
ATOM     38  O   UNL A   1      33.167  35.991  28.898  1.00  0.00    -0.246 OA
BRANCH  37  39
ATOM     39  C   UNL A   1      34.484  34.204  29.746  1.00  0.00     0.060 A 
ATOM     40  C   UNL A   1      35.791  34.516  29.352  1.00  0.00     0.016 A 
ATOM     41  C   UNL A   1      34.261  33.355  30.834  1.00  0.00     0.016 A 
ATOM     42  C   UNL A   1      36.877  33.954  30.022  1.00  0.00     0.010 A 
ATOM     43  C   UNL A   1      35.353  32.774  31.492  1.00  0.00     0.010 A 
ATOM     44  C   UNL A   1      36.665  33.050  31.075  1.00  0.00    -0.014 A 
BRANCH  44  45
ATOM     45  C   UNL A   1      37.812  32.268  31.601  1.00  0.00     0.031 A 
ATOM     46  C   UNL A   1      38.291  32.553  32.999  1.00  0.00     0.074 A 
ATOM     47  C   UNL A   1      38.391  31.293  30.877  1.00  0.00     0.049 A 
ATOM     48  N   UNL A   1      39.243  31.979  33.687  1.00  0.00    -0.248 NA
ATOM     49  C   UNL A   1      37.599  33.638  33.712  1.00  0.00     0.031 C 
ATOM     50  C   UNL A   1      37.993  30.897  29.528  1.00  0.00     0.029 A 
ATOM     51  N   UNL A   1      39.415  30.433  31.192  1.00  0.00    -0.354 N 
ATOM     52  C   UNL A   1      39.272  32.636  34.913  1.00  0.00     0.074 A 
ATOM     53  C   UNL A   1      38.244  33.655  34.866  1.00  0.00     0.031 C 
ATOM     54  C   UNL A   1      38.733  29.838  29.151  1.00  0.00     0.029 A 
ATOM     55  C   UNL A   1      39.695  29.517  30.204  1.00  0.00     0.049 A 
ATOM     56  H   UNL A   1      39.903  30.469  32.046  1.00  0.00     0.167 HD
ATOM     57  C   UNL A   1      40.091  32.424  35.973  1.00  0.00     0.034 A 
ATOM     58  C   UNL A   1      40.628  28.541  30.155  1.00  0.00     0.034 A 
ATOM     59  C   UNL A   1      41.149  31.446  35.991  1.00  0.00     0.049 A 
ATOM     60  C   UNL A   1      41.575  28.372  31.323  1.00  0.00     0.074 A 
ATOM     61  C   UNL A   1      42.064  31.182  36.995  1.00  0.00     0.029 A 
ATOM     62  N   UNL A   1      41.450  30.582  34.946  1.00  0.00    -0.354 N 
ATOM     63  N   UNL A   1      41.597  29.006  32.474  1.00  0.00    -0.248 NA
ATOM     64  C   UNL A   1      42.634  27.362  31.179  1.00  0.00     0.031 C 
ATOM     65  C   UNL A   1      42.960  30.212  36.531  1.00  0.00     0.029 A 
ATOM     66  C   UNL A   1      42.558  29.811  35.268  1.00  0.00     0.049 A 
ATOM     67  H   UNL A   1      40.951  30.525  34.100  1.00  0.00     0.167 HD
ATOM     68  C   UNL A   1      42.664  28.464  33.188  1.00  0.00     0.074 A 
ATOM     69  C   UNL A   1      43.239  27.429  32.356  1.00  0.00     0.031 C 
ATOM     70  C   UNL A   1      43.133  28.794  34.419  1.00  0.00     0.034 A 
BRANCH  57  71
ATOM     71  C   UNL A   1      39.920  33.343  37.156  1.00  0.00     0.023 A 
ATOM     72  C   UNL A   1      40.821  34.391  37.415  1.00  0.00     0.031 A 
ATOM     73  C   UNL A   1      38.880  33.125  38.075  1.00  0.00     0.131 A 
ATOM     74  C   UNL A   1      40.710  35.130  38.603  1.00  0.00     0.055 A 
ATOM     75  C   UNL A   1      38.728  33.915  39.216  1.00  0.00     0.041 A 
ATOM     76  F   UNL A   1      38.007  32.121  37.894  1.00  0.00    -0.206 F 
ATOM     77  C   UNL A   1      39.655  34.914  39.493  1.00  0.00     0.022 A 
BRANCH  74  78
ATOM     78  S   UNL A   1      42.050  36.270  39.044  1.00  0.00     0.124 S 
ATOM     79  O   UNL A   1      41.514  37.547  38.582  1.00  0.00    -0.237 OA
ATOM     80  O   UNL A   1      42.146  36.100  40.489  1.00  0.00    -0.237 OA
ATOM     81  O   UNL A   1      43.191  35.769  38.279  1.00  0.00    -0.744 OA
ENDBRANCH  74  78
ENDBRANCH  57  71
BRANCH  58  82
ATOM     82  C   UNL A   1      40.766  27.669  28.950  1.00  0.00     0.023 A 
ATOM     83  C   UNL A   1      41.696  27.969  27.940  1.00  0.00     0.031 A 
ATOM     84  C   UNL A   1      39.910  26.571  28.747  1.00  0.00     0.131 A 
ATOM     85  C   UNL A   1      41.713  27.218  26.754  1.00  0.00     0.055 A 
ATOM     86  C   UNL A   1      39.972  25.789  27.593  1.00  0.00     0.041 A 
ATOM     87  F   UNL A   1      38.988  26.248  29.668  1.00  0.00    -0.206 F 
ATOM     88  C   UNL A   1      40.868  26.119  26.580  1.00  0.00     0.022 A 
BRANCH  85  89
ATOM     89  S   UNL A   1      42.778  27.765  25.390  1.00  0.00     0.124 S 
ATOM     90  O   UNL A   1      41.920  28.730  24.713  1.00  0.00    -0.237 OA
ATOM     91  O   UNL A   1      43.926  28.318  26.100  1.00  0.00    -0.237 OA
ATOM     92  O   UNL A   1      43.041  26.534  24.647  1.00  0.00    -0.744 OA
ENDBRANCH  85  89
ENDBRANCH  58  82
BRANCH  70  93
ATOM     93  C   UNL A   1      44.315  28.012  34.944  1.00  0.00     0.023 A 
ATOM     94  C   UNL A   1      44.171  26.717  35.476  1.00  0.00     0.031 A 
ATOM     95  C   UNL A   1      45.606  28.568  34.904  1.00  0.00     0.131 A 
ATOM     96  C   UNL A   1      45.289  26.041  35.988  1.00  0.00     0.055 A 
ATOM     97  C   UNL A   1      46.724  27.870  35.364  1.00  0.00     0.041 A 
ATOM     98  F   UNL A   1      45.804  29.799  34.406  1.00  0.00    -0.206 F 
ATOM     99  C   UNL A   1      46.567  26.603  35.920  1.00  0.00     0.022 A 
BRANCH  96 100
ATOM    100  S   UNL A   1      45.046  24.444  36.812  1.00  0.00     0.124 S 
ATOM    101  O   UNL A   1      44.592  24.849  38.138  1.00  0.00    -0.237 OA
ATOM    102  O   UNL A   1      44.043  23.804  35.964  1.00  0.00    -0.237 OA
ATOM    103  O   UNL A   1      46.371  23.829  36.770  1.00  0.00    -0.744 OA
ENDBRANCH  96 100
ENDBRANCH  70  93
ENDBRANCH  44  45
ENDBRANCH  37  39
ENDBRANCH  36  37
ENDBRANCH  35  36
ENDBRANCH  34  35
ENDBRANCH  33  34
ENDBRANCH   1  33
TORSDOF 23
ENDMDL
