MODEL 1
REMARK VINA RESULT:     -11.2      0.000      0.000
REMARK SMILES O=C(OCCOCCOCCOC(=O)[C@H]1CC[C@H](CN2C(=O)c3cccnc3C2=O)O1)c1ccc(-c2c3nc(c(-c4cc(S(=O)(=O)[O-])ccc4F)c4ccc([nH]4)c(-c4cc(S(=O)(=O)[O-])ccc4F)c4nc(c(-c5cc(S(=O)(=O)[O-])ccc5F)c5ccc2[nH]5)C=C4)C=C3)cc1
REMARK SMILES IDX 7 1 6 2 5 3 4 4 3 5 2 6 1 7 32 8 33 9 94 10 34 11 93 12
REMARK SMILES IDX 35 13 36 14 37 15 87 16 38 17 92 18 86 19 88 20 39 21 91 22
REMARK SMILES IDX 85 23 84 24 40 26 72 27 52 28 71 29 53 30 56 31 70 32 89 33
REMARK SMILES IDX 54 34 55 35 69 37 90 38 57 39 41 40 42 41 50 42 43 43 49 44
REMARK SMILES IDX 51 45 48 46 44 47 45 48 46 49 47 50 73 51 74 52 82 53 75 54
REMARK SMILES IDX 81 55 83 56 80 57 76 58 77 59 78 60 79 61 58 62 59 63 67 64
REMARK SMILES IDX 60 65 66 66 68 67 65 68 61 69 62 70 63 71 64 72 8 73 9 74
REMARK SMILES IDX 10 75 11 76 12 77 13 78 14 79 15 80 16 81 31 82 17 83 18 84
REMARK SMILES IDX 19 85 20 86 21 87 29 88 22 89 23 90 28 91 30 92 24 93 27 94
REMARK SMILES IDX 25 95 26 96
REMARK H PARENT 88 25 56 36
REMARK Flexibility Score: inf
ROOT
ATOM      1  C   UNL A   1      33.648  34.190  28.375  1.00  0.00     0.188 C 
ENDROOT
BRANCH   1   2
ATOM      2  O   UNL A   1      32.862  34.567  29.507  1.00  0.00    -0.376 OA
BRANCH   2   3
ATOM      3  C   UNL A   1      33.598  35.330  30.474  1.00  0.00     0.202 C 
BRANCH   3   4
ATOM      4  C   UNL A   1      34.082  34.549  31.719  1.00  0.00     0.261 C 
BRANCH   4   5
ATOM      5  O   UNL A   1      34.588  33.224  31.448  1.00  0.00    -0.460 OA
BRANCH   5   6
ATOM      6  C   UNL A   1      35.479  32.465  32.144  1.00  0.00     0.338 C 
ATOM      7  O   UNL A   1      35.420  32.482  33.374  1.00  0.00    -0.246 OA
BRANCH   6   8
ATOM      8  C   UNL A   1      36.556  31.645  31.502  1.00  0.00     0.060 A 
ATOM      9  C   UNL A   1      37.425  30.826  32.209  1.00  0.00     0.016 A 
ATOM     10  C   UNL A   1      36.702  31.670  30.105  1.00  0.00     0.016 A 
ATOM     11  C   UNL A   1      38.465  30.142  31.615  1.00  0.00     0.010 A 
ATOM     12  C   UNL A   1      37.711  30.914  29.475  1.00  0.00     0.010 A 
ATOM     13  C   UNL A   1      38.621  30.161  30.243  1.00  0.00    -0.014 A 
BRANCH  13  14
ATOM     14  C   UNL A   1      39.875  29.568  29.716  1.00  0.00     0.031 A 
ATOM     15  C   UNL A   1      41.042  30.515  29.630  1.00  0.00     0.074 A 
ATOM     16  C   UNL A   1      40.007  28.228  29.530  1.00  0.00     0.049 A 
ATOM     17  N   UNL A   1      42.223  30.322  29.119  1.00  0.00    -0.248 NA
ATOM     18  C   UNL A   1      40.872  31.848  30.249  1.00  0.00     0.031 C 
ATOM     19  C   UNL A   1      38.994  27.217  29.863  1.00  0.00     0.029 A 
ATOM     20  N   UNL A   1      41.013  27.454  29.002  1.00  0.00    -0.354 N 
ATOM     21  C   UNL A   1      42.952  31.465  29.428  1.00  0.00     0.074 A 
ATOM     22  C   UNL A   1      42.057  32.404  30.056  1.00  0.00     0.031 C 
ATOM     23  C   UNL A   1      39.346  26.013  29.380  1.00  0.00     0.029 A 
ATOM     24  C   UNL A   1      40.627  26.139  28.719  1.00  0.00     0.049 A 
ATOM     25  H   UNL A   1      41.922  27.794  28.837  1.00  0.00     0.167 HD
ATOM     26  C   UNL A   1      44.278  31.664  29.257  1.00  0.00     0.034 A 
ATOM     27  C   UNL A   1      41.230  25.206  27.942  1.00  0.00     0.034 A 
ATOM     28  C   UNL A   1      45.098  30.684  28.595  1.00  0.00     0.049 A 
ATOM     29  C   UNL A   1      42.616  25.582  27.509  1.00  0.00     0.074 A 
ATOM     30  C   UNL A   1      46.416  30.773  28.201  1.00  0.00     0.029 A 
ATOM     31  N   UNL A   1      44.649  29.414  28.229  1.00  0.00    -0.354 N 
ATOM     32  N   UNL A   1      43.279  26.698  27.734  1.00  0.00    -0.248 NA
ATOM     33  C   UNL A   1      43.356  24.562  26.772  1.00  0.00     0.031 C 
ATOM     34  C   UNL A   1      46.741  29.586  27.534  1.00  0.00     0.029 A 
ATOM     35  C   UNL A   1      45.651  28.727  27.573  1.00  0.00     0.049 A 
ATOM     36  H   UNL A   1      43.749  29.060  28.413  1.00  0.00     0.167 HD
ATOM     37  C   UNL A   1      44.520  26.519  27.152  1.00  0.00     0.074 A 
ATOM     38  C   UNL A   1      44.523  25.167  26.614  1.00  0.00     0.031 C 
ATOM     39  C   UNL A   1      45.560  27.385  27.049  1.00  0.00     0.034 A 
BRANCH  26  40
ATOM     40  C   UNL A   1      44.862  32.962  29.754  1.00  0.00     0.023 A 
ATOM     41  C   UNL A   1      44.834  34.131  28.967  1.00  0.00     0.031 A 
ATOM     42  C   UNL A   1      45.504  33.030  31.002  1.00  0.00     0.131 A 
ATOM     43  C   UNL A   1      45.475  35.298  29.414  1.00  0.00     0.055 A 
ATOM     44  C   UNL A   1      46.081  34.215  31.471  1.00  0.00     0.041 A 
ATOM     45  F   UNL A   1      45.603  31.940  31.778  1.00  0.00    -0.206 F 
ATOM     46  C   UNL A   1      46.077  35.355  30.673  1.00  0.00     0.022 A 
BRANCH  43  47
ATOM     47  S   UNL A   1      45.622  36.706  28.277  1.00  0.00     0.124 S 
ATOM     48  O   UNL A   1      45.245  36.098  27.003  1.00  0.00    -0.237 OA
ATOM     49  O   UNL A   1      44.672  37.664  28.832  1.00  0.00    -0.237 OA
ATOM     50  O   UNL A   1      47.028  37.090  28.385  1.00  0.00    -0.744 OA
ENDBRANCH  43  47
ENDBRANCH  26  40
BRANCH  27  51
ATOM     51  C   UNL A   1      40.574  23.951  27.398  1.00  0.00     0.023 A 
ATOM     52  C   UNL A   1      41.150  22.676  27.462  1.00  0.00     0.031 A 
ATOM     53  C   UNL A   1      39.417  24.031  26.590  1.00  0.00     0.131 A 
ATOM     54  C   UNL A   1      40.515  21.580  26.815  1.00  0.00     0.055 A 
ATOM     55  C   UNL A   1      38.692  22.929  26.133  1.00  0.00     0.041 A 
ATOM     56  F   UNL A   1      39.003  25.194  26.085  1.00  0.00    -0.206 F 
ATOM     57  C   UNL A   1      39.242  21.676  26.253  1.00  0.00     0.022 A 
BRANCH  54  58
ATOM     58  S   UNL A   1      41.492  20.103  26.405  1.00  0.00     0.124 S 
ATOM     59  O   UNL A   1      42.516  20.669  25.532  1.00  0.00    -0.237 OA
ATOM     60  O   UNL A   1      41.943  19.652  27.716  1.00  0.00    -0.237 OA
ATOM     61  O   UNL A   1      40.532  19.223  25.740  1.00  0.00    -0.744 OA
ENDBRANCH  54  58
ENDBRANCH  27  51
BRANCH  39  62
ATOM     62  C   UNL A   1      46.755  26.843  26.331  1.00  0.00     0.023 A 
ATOM     63  C   UNL A   1      47.785  26.213  27.042  1.00  0.00     0.031 A 
ATOM     64  C   UNL A   1      46.890  27.022  24.947  1.00  0.00     0.131 A 
ATOM     65  C   UNL A   1      48.957  25.855  26.372  1.00  0.00     0.055 A 
ATOM     66  C   UNL A   1      48.028  26.592  24.273  1.00  0.00     0.041 A 
ATOM     67  F   UNL A   1      45.922  27.625  24.237  1.00  0.00    -0.206 F 
ATOM     68  C   UNL A   1      49.079  26.024  24.990  1.00  0.00     0.022 A 
BRANCH  65  69
ATOM     69  S   UNL A   1      50.368  25.307  27.365  1.00  0.00     0.124 S 
ATOM     70  O   UNL A   1      49.802  24.180  28.098  1.00  0.00    -0.237 OA
ATOM     71  O   UNL A   1      51.351  24.972  26.340  1.00  0.00    -0.237 OA
ATOM     72  O   UNL A   1      50.688  26.480  28.174  1.00  0.00    -0.744 OA
ENDBRANCH  65  69
ENDBRANCH  39  62
ENDBRANCH  13  14
ENDBRANCH   6   8
ENDBRANCH   5   6
ENDBRANCH   4   5
ENDBRANCH   3   4
ENDBRANCH   2   3
ENDBRANCH   1   2
BRANCH   1  73
ATOM     73  C   UNL A   1      33.081  33.009  27.585  1.00  0.00     0.188 C 
BRANCH  73  74
ATOM     74  O   UNL A   1      31.753  33.124  27.086  1.00  0.00    -0.376 OA
BRANCH  74  75
ATOM     75  C   UNL A   1      31.189  31.975  26.464  1.00  0.00     0.202 C 
BRANCH  75  76
ATOM     76  C   UNL A   1      32.111  30.793  26.111  1.00  0.00     0.261 C 
BRANCH  76  77
ATOM     77  O   UNL A   1      31.558  29.826  25.204  1.00  0.00    -0.461 OA
BRANCH  77  78
ATOM     78  C   UNL A   1      32.436  28.911  24.697  1.00  0.00     0.335 C 
ATOM     79  O   UNL A   1      33.555  29.189  24.276  1.00  0.00    -0.249 OA
BRANCH  78  80
ATOM     80  C   UNL A   1      31.898  27.460  24.743  1.00  0.00     0.228 C 
ATOM     81  C   UNL A   1      30.419  27.260  24.465  1.00  0.00     0.047 C 
ATOM     82  O   UNL A   1      32.577  26.597  23.818  1.00  0.00    -0.361 OA
ATOM     83  C   UNL A   1      30.421  27.076  22.977  1.00  0.00     0.037 C 
ATOM     84  C   UNL A   1      31.678  26.269  22.732  1.00  0.00     0.139 C 
BRANCH  84  85
ATOM     85  C   UNL A   1      31.409  24.746  22.722  1.00  0.00     0.161 C 
BRANCH  85  86
ATOM     86  N   UNL A   1      32.354  23.969  23.512  1.00  0.00    -0.270 N 
ATOM     87  C   UNL A   1      33.588  23.502  23.156  1.00  0.00     0.263 C 
ATOM     88  C   UNL A   1      32.013  23.550  24.762  1.00  0.00     0.280 C 
ATOM     89  O   UNL A   1      34.192  23.669  22.117  1.00  0.00    -0.269 OA
ATOM     90  C   UNL A   1      34.089  22.703  24.280  1.00  0.00     0.071 A 
ATOM     91  C   UNL A   1      33.124  22.710  25.246  1.00  0.00     0.141 A 
ATOM     92  O   UNL A   1      30.965  23.877  25.296  1.00  0.00    -0.267 OA
ATOM     93  C   UNL A   1      35.254  21.991  24.496  1.00  0.00     0.018 A 
ATOM     94  N   UNL A   1      33.197  22.045  26.409  1.00  0.00    -0.250 NA
ATOM     95  C   UNL A   1      35.379  21.306  25.714  1.00  0.00     0.021 A 
ATOM     96  C   UNL A   1      34.333  21.354  26.629  1.00  0.00     0.112 A 
ENDBRANCH  85  86
ENDBRANCH  84  85
ENDBRANCH  78  80
ENDBRANCH  77  78
ENDBRANCH  76  77
ENDBRANCH  75  76
ENDBRANCH  74  75
ENDBRANCH  73  74
ENDBRANCH   1  73
TORSDOF 22
ENDMDL
MODEL 2
REMARK VINA RESULT:     -10.6      1.776      2.122
REMARK SMILES O=C(OCCOCCOCCOC(=O)[C@H]1CC[C@H](CN2C(=O)c3cccnc3C2=O)O1)c1ccc(-c2c3nc(c(-c4cc(S(=O)(=O)[O-])ccc4F)c4ccc([nH]4)c(-c4cc(S(=O)(=O)[O-])ccc4F)c4nc(c(-c5cc(S(=O)(=O)[O-])ccc5F)c5ccc2[nH]5)C=C4)C=C3)cc1
REMARK SMILES IDX 7 1 6 2 5 3 4 4 3 5 2 6 1 7 32 8 33 9 94 10 34 11 93 12
REMARK SMILES IDX 35 13 36 14 37 15 87 16 38 17 92 18 86 19 88 20 39 21 91 22
REMARK SMILES IDX 85 23 84 24 40 26 72 27 52 28 71 29 53 30 56 31 70 32 89 33
REMARK SMILES IDX 54 34 55 35 69 37 90 38 57 39 41 40 42 41 50 42 43 43 49 44
REMARK SMILES IDX 51 45 48 46 44 47 45 48 46 49 47 50 73 51 74 52 82 53 75 54
REMARK SMILES IDX 81 55 83 56 80 57 76 58 77 59 78 60 79 61 58 62 59 63 67 64
REMARK SMILES IDX 60 65 66 66 68 67 65 68 61 69 62 70 63 71 64 72 8 73 9 74
REMARK SMILES IDX 10 75 11 76 12 77 13 78 14 79 15 80 16 81 31 82 17 83 18 84
REMARK SMILES IDX 19 85 20 86 21 87 29 88 22 89 23 90 28 91 30 92 24 93 27 94
REMARK SMILES IDX 25 95 26 96
REMARK H PARENT 88 25 56 36
REMARK Flexibility Score: inf
ROOT
ATOM      1  C   UNL A   1      34.621  33.990  28.390  1.00  0.00     0.188 C 
ENDROOT
BRANCH   1   2
ATOM      2  O   UNL A   1      33.678  33.966  29.463  1.00  0.00    -0.376 OA
BRANCH   2   3
ATOM      3  C   UNL A   1      33.960  34.935  30.483  1.00  0.00     0.202 C 
BRANCH   3   4
ATOM      4  C   UNL A   1      34.115  34.376  31.917  1.00  0.00     0.261 C 
BRANCH   4   5
ATOM      5  O   UNL A   1      34.487  32.982  31.991  1.00  0.00    -0.460 OA
BRANCH   5   6
ATOM      6  C   UNL A   1      35.538  32.387  32.619  1.00  0.00     0.338 C 
ATOM      7  O   UNL A   1      35.647  32.535  33.836  1.00  0.00    -0.246 OA
BRANCH   6   8
ATOM      8  C   UNL A   1      36.596  31.600  31.907  1.00  0.00     0.060 A 
ATOM      9  C   UNL A   1      37.409  30.663  32.531  1.00  0.00     0.016 A 
ATOM     10  C   UNL A   1      36.781  31.782  30.527  1.00  0.00     0.016 A 
ATOM     11  C   UNL A   1      38.435  30.007  31.884  1.00  0.00     0.010 A 
ATOM     12  C   UNL A   1      37.773  31.059  29.834  1.00  0.00     0.010 A 
ATOM     13  C   UNL A   1      38.628  30.179  30.527  1.00  0.00    -0.014 A 
BRANCH  13  14
ATOM     14  C   UNL A   1      39.870  29.595  29.962  1.00  0.00     0.031 A 
ATOM     15  C   UNL A   1      41.043  30.535  29.889  1.00  0.00     0.074 A 
ATOM     16  C   UNL A   1      39.988  28.261  29.728  1.00  0.00     0.049 A 
ATOM     17  N   UNL A   1      42.214  30.351  29.354  1.00  0.00    -0.248 NA
ATOM     18  C   UNL A   1      40.893  31.849  30.555  1.00  0.00     0.031 C 
ATOM     19  C   UNL A   1      38.972  27.248  30.043  1.00  0.00     0.029 A 
ATOM     20  N   UNL A   1      40.979  27.498  29.159  1.00  0.00    -0.354 N 
ATOM     21  C   UNL A   1      42.957  31.478  29.690  1.00  0.00     0.074 A 
ATOM     22  C   UNL A   1      42.079  32.402  30.362  1.00  0.00     0.031 C 
ATOM     23  C   UNL A   1      39.307  26.057  29.515  1.00  0.00     0.029 A 
ATOM     24  C   UNL A   1      40.578  26.196  28.839  1.00  0.00     0.049 A 
ATOM     25  H   UNL A   1      41.888  27.836  28.992  1.00  0.00     0.167 HD
ATOM     26  C   UNL A   1      44.282  31.672  29.505  1.00  0.00     0.034 A 
ATOM     27  C   UNL A   1      41.162  25.285  28.022  1.00  0.00     0.034 A 
ATOM     28  C   UNL A   1      45.083  30.708  28.798  1.00  0.00     0.049 A 
ATOM     29  C   UNL A   1      42.544  25.665  27.580  1.00  0.00     0.074 A 
ATOM     30  C   UNL A   1      46.396  30.801  28.387  1.00  0.00     0.029 A 
ATOM     31  N   UNL A   1      44.619  29.456  28.397  1.00  0.00    -0.354 N 
ATOM     32  N   UNL A   1      43.220  26.768  27.832  1.00  0.00    -0.248 NA
ATOM     33  C   UNL A   1      43.265  24.665  26.798  1.00  0.00     0.031 C 
ATOM     34  C   UNL A   1      46.702  29.635  27.676  1.00  0.00     0.029 A 
ATOM     35  C   UNL A   1      45.605  28.784  27.703  1.00  0.00     0.049 A 
ATOM     36  H   UNL A   1      43.719  29.102  28.582  1.00  0.00     0.167 HD
ATOM     37  C   UNL A   1      44.450  26.599  27.226  1.00  0.00     0.074 A 
ATOM     38  C   UNL A   1      44.434  25.266  26.643  1.00  0.00     0.031 C 
ATOM     39  C   UNL A   1      45.495  27.460  27.135  1.00  0.00     0.034 A 
BRANCH  26  40
ATOM     40  C   UNL A   1      44.884  32.948  30.036  1.00  0.00     0.023 A 
ATOM     41  C   UNL A   1      45.522  32.995  31.292  1.00  0.00     0.031 A 
ATOM     42  C   UNL A   1      44.776  34.148  29.314  1.00  0.00     0.131 A 
ATOM     43  C   UNL A   1      45.983  34.219  31.805  1.00  0.00     0.055 A 
ATOM     44  C   UNL A   1      45.297  35.352  29.799  1.00  0.00     0.041 A 
ATOM     45  F   UNL A   1      44.139  34.178  28.133  1.00  0.00    -0.206 F 
ATOM     46  C   UNL A   1      45.898  35.394  31.055  1.00  0.00     0.022 A 
BRANCH  43  47
ATOM     47  S   UNL A   1      46.585  34.280  33.517  1.00  0.00     0.124 S 
ATOM     48  O   UNL A   1      45.355  34.046  34.270  1.00  0.00    -0.237 OA
ATOM     49  O   UNL A   1      47.566  33.203  33.547  1.00  0.00    -0.237 OA
ATOM     50  O   UNL A   1      47.136  35.628  33.639  1.00  0.00    -0.744 OA
ENDBRANCH  43  47
ENDBRANCH  26  40
BRANCH  27  51
ATOM     51  C   UNL A   1      40.488  24.054  27.447  1.00  0.00     0.023 A 
ATOM     52  C   UNL A   1      41.027  22.763  27.513  1.00  0.00     0.031 A 
ATOM     53  C   UNL A   1      39.357  24.173  26.607  1.00  0.00     0.131 A 
ATOM     54  C   UNL A   1      40.381  21.691  26.837  1.00  0.00     0.055 A 
ATOM     55  C   UNL A   1      38.616  23.097  26.118  1.00  0.00     0.041 A 
ATOM     56  F   UNL A   1      38.989  25.352  26.103  1.00  0.00    -0.206 F 
ATOM     57  C   UNL A   1      39.128  21.828  26.240  1.00  0.00     0.022 A 
BRANCH  54  58
ATOM     58  S   UNL A   1      41.329  20.192  26.439  1.00  0.00     0.124 S 
ATOM     59  O   UNL A   1      40.278  19.313  25.937  1.00  0.00    -0.237 OA
ATOM     60  O   UNL A   1      42.286  20.678  25.454  1.00  0.00    -0.237 OA
ATOM     61  O   UNL A   1      41.906  19.793  27.723  1.00  0.00    -0.744 OA
ENDBRANCH  54  58
ENDBRANCH  27  51
BRANCH  39  62
ATOM     62  C   UNL A   1      46.675  26.934  26.382  1.00  0.00     0.023 A 
ATOM     63  C   UNL A   1      47.721  26.291  27.058  1.00  0.00     0.031 A 
ATOM     64  C   UNL A   1      46.780  27.140  24.999  1.00  0.00     0.131 A 
ATOM     65  C   UNL A   1      48.878  25.948  26.356  1.00  0.00     0.055 A 
ATOM     66  C   UNL A   1      47.903  26.724  24.292  1.00  0.00     0.041 A 
ATOM     67  F   UNL A   1      45.797  27.755  24.322  1.00  0.00    -0.206 F 
ATOM     68  C   UNL A   1      48.970  26.144  24.975  1.00  0.00     0.022 A 
BRANCH  65  69
ATOM     69  S   UNL A   1      50.311  25.382  27.306  1.00  0.00     0.124 S 
ATOM     70  O   UNL A   1      51.242  24.999  26.250  1.00  0.00    -0.237 OA
ATOM     71  O   UNL A   1      50.666  26.576  28.066  1.00  0.00    -0.237 OA
ATOM     72  O   UNL A   1      49.777  24.277  28.098  1.00  0.00    -0.744 OA
ENDBRANCH  65  69
ENDBRANCH  39  62
ENDBRANCH  13  14
ENDBRANCH   6   8
ENDBRANCH   5   6
ENDBRANCH   4   5
ENDBRANCH   3   4
ENDBRANCH   2   3
ENDBRANCH   1   2
BRANCH   1  73
ATOM     73  C   UNL A   1      34.788  32.650  27.673  1.00  0.00     0.188 C 
BRANCH  73  74
ATOM     74  O   UNL A   1      33.723  31.710  27.772  1.00  0.00    -0.376 OA
BRANCH  74  75
ATOM     75  C   UNL A   1      34.008  30.362  27.416  1.00  0.00     0.202 C 
BRANCH  75  76
ATOM     76  C   UNL A   1      33.440  29.807  26.096  1.00  0.00     0.261 C 
BRANCH  76  77
ATOM     77  O   UNL A   1      34.162  28.702  25.529  1.00  0.00    -0.461 OA
BRANCH  77  78
ATOM     78  C   UNL A   1      33.685  28.222  24.342  1.00  0.00     0.335 C 
ATOM     79  O   UNL A   1      33.848  28.778  23.260  1.00  0.00    -0.249 OA
BRANCH  78  80
ATOM     80  C   UNL A   1      32.947  26.870  24.483  1.00  0.00     0.228 C 
ATOM     81  C   UNL A   1      33.149  26.101  25.776  1.00  0.00     0.047 C 
ATOM     82  O   UNL A   1      31.524  27.008  24.343  1.00  0.00    -0.361 OA
ATOM     83  C   UNL A   1      32.039  26.649  26.622  1.00  0.00     0.037 C 
ATOM     84  C   UNL A   1      30.902  26.809  25.635  1.00  0.00     0.139 C 
BRANCH  84  85
ATOM     85  C   UNL A   1      29.984  25.566  25.586  1.00  0.00     0.161 C 
BRANCH  85  86
ATOM     86  N   UNL A   1      30.653  24.350  25.144  1.00  0.00    -0.270 N 
ATOM     87  C   UNL A   1      30.958  23.954  23.872  1.00  0.00     0.263 C 
ATOM     88  C   UNL A   1      30.994  23.393  26.050  1.00  0.00     0.280 C 
ATOM     89  O   UNL A   1      30.780  24.548  22.828  1.00  0.00    -0.269 OA
ATOM     90  C   UNL A   1      31.546  22.614  23.965  1.00  0.00     0.071 A 
ATOM     91  C   UNL A   1      31.546  22.260  25.284  1.00  0.00     0.141 A 
ATOM     92  O   UNL A   1      30.840  23.548  27.251  1.00  0.00    -0.267 OA
ATOM     93  C   UNL A   1      32.033  21.721  23.029  1.00  0.00     0.018 A 
ATOM     94  N   UNL A   1      31.964  21.078  25.762  1.00  0.00    -0.250 NA
ATOM     95  C   UNL A   1      32.506  20.485  23.494  1.00  0.00     0.021 A 
ATOM     96  C   UNL A   1      32.446  20.206  24.856  1.00  0.00     0.112 A 
ENDBRANCH  85  86
ENDBRANCH  84  85
ENDBRANCH  78  80
ENDBRANCH  77  78
ENDBRANCH  76  77
ENDBRANCH  75  76
ENDBRANCH  74  75
ENDBRANCH  73  74
ENDBRANCH   1  73
TORSDOF 22
ENDMDL
MODEL 3
REMARK VINA RESULT:     -10.2      4.825      6.664
REMARK SMILES O=C(OCCOCCOCCOC(=O)[C@H]1CC[C@H](CN2C(=O)c3cccnc3C2=O)O1)c1ccc(-c2c3nc(c(-c4cc(S(=O)(=O)[O-])ccc4F)c4ccc([nH]4)c(-c4cc(S(=O)(=O)[O-])ccc4F)c4nc(c(-c5cc(S(=O)(=O)[O-])ccc5F)c5ccc2[nH]5)C=C4)C=C3)cc1
REMARK SMILES IDX 7 1 6 2 5 3 4 4 3 5 2 6 1 7 32 8 33 9 94 10 34 11 93 12
REMARK SMILES IDX 35 13 36 14 37 15 87 16 38 17 92 18 86 19 88 20 39 21 91 22
REMARK SMILES IDX 85 23 84 24 40 26 72 27 52 28 71 29 53 30 56 31 70 32 89 33
REMARK SMILES IDX 54 34 55 35 69 37 90 38 57 39 41 40 42 41 50 42 43 43 49 44
REMARK SMILES IDX 51 45 48 46 44 47 45 48 46 49 47 50 73 51 74 52 82 53 75 54
REMARK SMILES IDX 81 55 83 56 80 57 76 58 77 59 78 60 79 61 58 62 59 63 67 64
REMARK SMILES IDX 60 65 66 66 68 67 65 68 61 69 62 70 63 71 64 72 8 73 9 74
REMARK SMILES IDX 10 75 11 76 12 77 13 78 14 79 15 80 16 81 31 82 17 83 18 84
REMARK SMILES IDX 19 85 20 86 21 87 29 88 22 89 23 90 28 91 30 92 24 93 27 94
REMARK SMILES IDX 25 95 26 96
REMARK H PARENT 88 25 56 36
REMARK Flexibility Score: inf
ROOT
ATOM      1  C   UNL A   1      34.769  33.588  28.053  1.00  0.00     0.188 C 
ENDROOT
BRANCH   1   2
ATOM      2  O   UNL A   1      33.520  34.191  28.401  1.00  0.00    -0.376 OA
BRANCH   2   3
ATOM      3  C   UNL A   1      33.583  35.623  28.457  1.00  0.00     0.202 C 
BRANCH   3   4
ATOM      4  C   UNL A   1      32.730  36.290  29.562  1.00  0.00     0.261 C 
BRANCH   4   5
ATOM      5  O   UNL A   1      32.506  35.475  30.734  1.00  0.00    -0.460 OA
BRANCH   5   6
ATOM      6  C   UNL A   1      33.273  35.308  31.846  1.00  0.00     0.338 C 
ATOM      7  O   UNL A   1      33.004  35.978  32.843  1.00  0.00    -0.246 OA
BRANCH   6   8
ATOM      8  C   UNL A   1      34.454  34.388  31.913  1.00  0.00     0.060 A 
ATOM      9  C   UNL A   1      34.448  33.176  32.589  1.00  0.00     0.016 A 
ATOM     10  C   UNL A   1      35.638  34.736  31.242  1.00  0.00     0.016 A 
ATOM     11  C   UNL A   1      35.567  32.379  32.714  1.00  0.00     0.010 A 
ATOM     12  C   UNL A   1      36.767  33.892  31.294  1.00  0.00     0.010 A 
ATOM     13  C   UNL A   1      36.738  32.711  32.062  1.00  0.00    -0.014 A 
BRANCH  13  14
ATOM     14  C   UNL A   1      37.937  31.910  32.415  1.00  0.00     0.031 A 
ATOM     15  C   UNL A   1      38.624  32.316  33.691  1.00  0.00     0.074 A 
ATOM     16  C   UNL A   1      38.255  30.771  31.746  1.00  0.00     0.049 A 
ATOM     17  N   UNL A   1      39.739  31.882  34.200  1.00  0.00    -0.248 NA
ATOM     18  C   UNL A   1      37.933  33.316  34.537  1.00  0.00     0.031 C 
ATOM     19  C   UNL A   1      37.463  30.167  30.666  1.00  0.00     0.029 A 
ATOM     20  N   UNL A   1      39.322  29.908  31.828  1.00  0.00    -0.354 N 
ATOM     21  C   UNL A   1      39.837  32.487  35.449  1.00  0.00     0.074 A 
ATOM     22  C   UNL A   1      38.743  33.416  35.578  1.00  0.00     0.031 C 
ATOM     23  C   UNL A   1      38.140  29.163  30.082  1.00  0.00     0.029 A 
ATOM     24  C   UNL A   1      39.414  29.017  30.752  1.00  0.00     0.049 A 
ATOM     25  H   UNL A   1      39.962  29.915  32.574  1.00  0.00     0.167 HD
ATOM     26  C   UNL A   1      40.736  32.218  36.423  1.00  0.00     0.034 A 
ATOM     27  C   UNL A   1      40.457  28.253  30.345  1.00  0.00     0.034 A 
ATOM     28  C   UNL A   1      41.816  31.293  36.203  1.00  0.00     0.049 A 
ATOM     29  C   UNL A   1      41.591  28.206  31.326  1.00  0.00     0.074 A 
ATOM     30  C   UNL A   1      42.898  31.010  37.009  1.00  0.00     0.029 A 
ATOM     31  N   UNL A   1      41.936  30.494  35.066  1.00  0.00    -0.354 N 
ATOM     32  N   UNL A   1      41.721  28.840  32.473  1.00  0.00    -0.248 NA
ATOM     33  C   UNL A   1      42.689  27.302  30.993  1.00  0.00     0.031 C 
ATOM     34  C   UNL A   1      43.708  30.095  36.327  1.00  0.00     0.029 A 
ATOM     35  C   UNL A   1      43.098  29.752  35.127  1.00  0.00     0.049 A 
ATOM     36  H   UNL A   1      41.286  30.464  34.326  1.00  0.00     0.167 HD
ATOM     37  C   UNL A   1      42.928  28.419  32.999  1.00  0.00     0.074 A 
ATOM     38  C   UNL A   1      43.456  27.438  32.063  1.00  0.00     0.031 C 
ATOM     39  C   UNL A   1      43.560  28.809  34.135  1.00  0.00     0.034 A 
BRANCH  26  40
ATOM     40  C   UNL A   1      40.586  32.946  37.734  1.00  0.00     0.023 A 
ATOM     41  C   UNL A   1      39.755  32.453  38.760  1.00  0.00     0.031 A 
ATOM     42  C   UNL A   1      41.233  34.174  37.952  1.00  0.00     0.131 A 
ATOM     43  C   UNL A   1      39.556  33.204  39.930  1.00  0.00     0.055 A 
ATOM     44  C   UNL A   1      41.085  34.884  39.148  1.00  0.00     0.041 A 
ATOM     45  F   UNL A   1      42.002  34.718  36.997  1.00  0.00    -0.206 F 
ATOM     46  C   UNL A   1      40.237  34.405  40.142  1.00  0.00     0.022 A 
BRANCH  43  47
ATOM     47  S   UNL A   1      38.301  32.653  41.122  1.00  0.00     0.124 S 
ATOM     48  O   UNL A   1      39.072  32.607  42.362  1.00  0.00    -0.237 OA
ATOM     49  O   UNL A   1      37.296  33.705  41.034  1.00  0.00    -0.237 OA
ATOM     50  O   UNL A   1      37.886  31.350  40.605  1.00  0.00    -0.744 OA
ENDBRANCH  43  47
ENDBRANCH  26  40
BRANCH  27  51
ATOM     51  C   UNL A   1      40.600  27.606  28.981  1.00  0.00     0.023 A 
ATOM     52  C   UNL A   1      40.438  26.235  28.744  1.00  0.00     0.031 A 
ATOM     53  C   UNL A   1      41.123  28.331  27.886  1.00  0.00     0.131 A 
ATOM     54  C   UNL A   1      40.713  25.703  27.455  1.00  0.00     0.055 A 
ATOM     55  C   UNL A   1      41.194  27.850  26.578  1.00  0.00     0.041 A 
ATOM     56  F   UNL A   1      41.724  29.510  28.058  1.00  0.00    -0.206 F 
ATOM     57  C   UNL A   1      40.977  26.513  26.349  1.00  0.00     0.022 A 
BRANCH  54  58
ATOM     58  S   UNL A   1      41.059  23.927  27.281  1.00  0.00     0.124 S 
ATOM     59  O   UNL A   1      41.731  23.641  28.545  1.00  0.00    -0.237 OA
ATOM     60  O   UNL A   1      39.725  23.362  27.120  1.00  0.00    -0.237 OA
ATOM     61  O   UNL A   1      41.914  23.851  26.097  1.00  0.00    -0.744 OA
ENDBRANCH  54  58
ENDBRANCH  27  51
BRANCH  39  62
ATOM     62  C   UNL A   1      44.875  28.140  34.380  1.00  0.00     0.023 A 
ATOM     63  C   UNL A   1      44.935  26.929  35.084  1.00  0.00     0.031 A 
ATOM     64  C   UNL A   1      46.067  28.752  33.969  1.00  0.00     0.131 A 
ATOM     65  C   UNL A   1      46.181  26.406  35.434  1.00  0.00     0.055 A 
ATOM     66  C   UNL A   1      47.303  28.183  34.253  1.00  0.00     0.041 A 
ATOM     67  F   UNL A   1      46.043  29.914  33.295  1.00  0.00    -0.206 F 
ATOM     68  C   UNL A   1      47.366  27.014  35.008  1.00  0.00     0.022 A 
BRANCH  65  69
ATOM     69  S   UNL A   1      46.221  25.003  36.578  1.00  0.00     0.124 S 
ATOM     70  O   UNL A   1      45.740  23.913  35.736  1.00  0.00    -0.237 OA
ATOM     71  O   UNL A   1      47.632  24.949  36.946  1.00  0.00    -0.237 OA
ATOM     72  O   UNL A   1      45.313  25.413  37.647  1.00  0.00    -0.744 OA
ENDBRANCH  65  69
ENDBRANCH  39  62
ENDBRANCH  13  14
ENDBRANCH   6   8
ENDBRANCH   5   6
ENDBRANCH   4   5
ENDBRANCH   3   4
ENDBRANCH   2   3
ENDBRANCH   1   2
BRANCH   1  73
ATOM     73  C   UNL A   1      34.796  32.067  28.213  1.00  0.00     0.188 C 
BRANCH  73  74
ATOM     74  O   UNL A   1      33.585  31.357  27.978  1.00  0.00    -0.376 OA
BRANCH  74  75
ATOM     75  C   UNL A   1      33.603  30.355  26.966  1.00  0.00     0.202 C 
BRANCH  75  76
ATOM     76  C   UNL A   1      32.263  29.847  26.401  1.00  0.00     0.261 C 
BRANCH  76  77
ATOM     77  O   UNL A   1      32.263  28.487  25.939  1.00  0.00    -0.461 OA
BRANCH  77  78
ATOM     78  C   UNL A   1      31.672  27.575  26.766  1.00  0.00     0.335 C 
ATOM     79  O   UNL A   1      31.257  27.834  27.892  1.00  0.00    -0.249 OA
BRANCH  78  80
ATOM     80  C   UNL A   1      31.532  26.173  26.127  1.00  0.00     0.228 C 
ATOM     81  C   UNL A   1      30.128  25.621  25.967  1.00  0.00     0.047 C 
ATOM     82  O   UNL A   1      32.115  26.110  24.816  1.00  0.00    -0.361 OA
ATOM     83  C   UNL A   1      29.761  26.136  24.607  1.00  0.00     0.037 C 
ATOM     84  C   UNL A   1      31.057  26.015  23.833  1.00  0.00     0.139 C 
BRANCH  84  85
ATOM     85  C   UNL A   1      31.168  24.671  23.076  1.00  0.00     0.161 C 
BRANCH  85  86
ATOM     86  N   UNL A   1      32.384  23.923  23.368  1.00  0.00    -0.270 N 
ATOM     87  C   UNL A   1      32.599  22.982  24.336  1.00  0.00     0.263 C 
ATOM     88  C   UNL A   1      33.526  24.182  22.674  1.00  0.00     0.280 C 
ATOM     89  O   UNL A   1      31.813  22.527  25.141  1.00  0.00    -0.269 OA
ATOM     90  C   UNL A   1      34.014  22.603  24.264  1.00  0.00     0.071 A 
ATOM     91  C   UNL A   1      34.585  23.349  23.272  1.00  0.00     0.141 A 
ATOM     92  O   UNL A   1      33.556  24.968  21.741  1.00  0.00    -0.267 OA
ATOM     93  C   UNL A   1      34.800  21.719  24.978  1.00  0.00     0.018 A 
ATOM     94  N   UNL A   1      35.884  23.318  22.939  1.00  0.00    -0.250 NA
ATOM     95  C   UNL A   1      36.159  21.638  24.640  1.00  0.00     0.021 A 
ATOM     96  C   UNL A   1      36.655  22.453  23.627  1.00  0.00     0.112 A 
ENDBRANCH  85  86
ENDBRANCH  84  85
ENDBRANCH  78  80
ENDBRANCH  77  78
ENDBRANCH  76  77
ENDBRANCH  75  76
ENDBRANCH  74  75
ENDBRANCH  73  74
ENDBRANCH   1  73
TORSDOF 22
ENDMDL
