MODEL 1
REMARK VINA RESULT:      -9.5      0.000      0.000
REMARK SMILES CCC(=O)Nc1ccc(NC(=O)[C@@H]2CC=CC[C@@H]2C(=O)OCCOCCOCCOC(=O)c2ccc(-c3c4nc(c(-c5cc(S(=O)(=O)[O-])ccc5F)c5ccc([nH]5)c(-c5cc(S(=O)(=O)[O-])ccc5F)c5nc(c(-c6cc(S(=O)(=O)[O-])ccc6F)c6ccc3[nH]6)C=C5)C=C4)cc2)cc1
REMARK SMILES IDX 25 1 24 2 23 3 22 4 21 5 19 6 20 7 18 8 13 9 14 10 15 11
REMARK SMILES IDX 17 12 16 13 11 14 10 15 12 17 9 18 6 19 7 20 97 21 8 22
REMARK SMILES IDX 96 23 5 24 3 25 4 26 2 28 1 29 26 30 27 31 28 32 29 33 30 34
REMARK SMILES IDX 31 35 32 36 33 37 34 38 95 39 35 40 94 41 36 42 37 43 38 44
REMARK SMILES IDX 88 45 39 46 93 47 87 48 89 49 40 50 92 51 86 52 85 53 41 55
REMARK SMILES IDX 73 56 53 57 72 58 54 59 57 60 71 61 90 62 55 63 56 64 70 66
REMARK SMILES IDX 91 67 58 68 42 69 43 70 51 71 44 72 50 73 52 74 49 75 45 76
REMARK SMILES IDX 46 77 47 78 48 79 74 80 75 81 83 82 76 83 82 84 84 85 81 86
REMARK SMILES IDX 77 87 78 88 79 89 80 90 59 91 60 92 68 93 61 94 67 95 69 96
REMARK SMILES IDX 66 97 62 98 63 99 64 100 65 101
REMARK H PARENT 10 16 5 27 89 54 57 65
REMARK Flexibility Score: inf
ROOT
ATOM      1  C   UNL A   1      32.338  30.335  26.467  1.00  0.00     0.188 C 
ENDROOT
BRANCH   1   2
ATOM      2  O   UNL A   1      31.647  29.099  26.552  1.00  0.00    -0.376 OA
BRANCH   2   3
ATOM      3  C   UNL A   1      32.399  28.033  27.116  1.00  0.00     0.202 C 
BRANCH   3   4
ATOM      4  C   UNL A   1      32.827  26.982  26.089  1.00  0.00     0.261 C 
BRANCH   4   5
ATOM      5  O   UNL A   1      32.052  25.762  26.140  1.00  0.00    -0.463 OA
BRANCH   5   6
ATOM      6  C   UNL A   1      32.548  24.666  25.504  1.00  0.00     0.310 C 
ATOM      7  O   UNL A   1      32.111  23.538  25.687  1.00  0.00    -0.252 OA
BRANCH   6   8
ATOM      8  C   UNL A   1      33.813  25.022  24.707  1.00  0.00     0.116 C 
ATOM      9  C   UNL A   1      34.148  24.453  23.299  1.00  0.00     0.097 C 
ATOM     10  C   UNL A   1      35.016  23.184  23.187  1.00  0.00     0.041 C 
ATOM     11  C   UNL A   1      35.477  22.632  24.495  1.00  0.00    -0.030 C 
ATOM     12  C   UNL A   1      35.001  24.777  25.656  1.00  0.00     0.043 C 
ATOM     13  C   UNL A   1      35.469  23.351  25.624  1.00  0.00    -0.030 C 
BRANCH   9  14
ATOM     14  C   UNL A   1      33.130  24.483  22.179  1.00  0.00     0.228 C 
ATOM     15  N   UNL A   1      32.057  25.303  22.085  1.00  0.00    -0.326 N 
ATOM     16  H   UNL A   1      31.375  24.946  21.471  1.00  0.00     0.169 HD
ATOM     17  O   UNL A   1      33.253  23.668  21.251  1.00  0.00    -0.274 OA
BRANCH  15  18
ATOM     18  C   UNL A   1      31.672  26.530  22.638  1.00  0.00     0.041 A 
ATOM     19  C   UNL A   1      30.491  28.940  23.411  1.00  0.00     0.041 A 
ATOM     20  C   UNL A   1      31.776  28.929  22.891  1.00  0.00     0.028 A 
ATOM     21  C   UNL A   1      29.781  27.762  23.554  1.00  0.00     0.028 A 
ATOM     22  C   UNL A   1      32.378  27.714  22.559  1.00  0.00     0.028 A 
ATOM     23  C   UNL A   1      30.376  26.570  23.172  1.00  0.00     0.028 A 
BRANCH  19  24
ATOM     24  N   UNL A   1      29.926  30.146  23.807  1.00  0.00    -0.326 N 
ATOM     25  C   UNL A   1      29.179  30.962  23.000  1.00  0.00     0.224 C 
ATOM     26  O   UNL A   1      28.718  32.003  23.471  1.00  0.00    -0.275 OA
ATOM     27  H   UNL A   1      30.075  30.435  24.736  1.00  0.00     0.169 HD
BRANCH  25  28
ATOM     28  C   UNL A   1      28.859  30.513  21.579  1.00  0.00     0.097 C 
ATOM     29  C   UNL A   1      28.068  31.521  20.768  1.00  0.00     0.014 C 
ENDBRANCH  25  28
ENDBRANCH  19  24
ENDBRANCH  15  18
ENDBRANCH   9  14
ENDBRANCH   6   8
ENDBRANCH   5   6
ENDBRANCH   4   5
ENDBRANCH   3   4
ENDBRANCH   2   3
ENDBRANCH   1   2
BRANCH   1  30
ATOM     30  C   UNL A   1      33.588  30.469  27.355  1.00  0.00     0.188 C 
BRANCH  30  31
ATOM     31  O   UNL A   1      34.403  31.626  27.258  1.00  0.00    -0.376 OA
BRANCH  31  32
ATOM     32  C   UNL A   1      34.228  32.656  28.213  1.00  0.00     0.202 C 
BRANCH  32  33
ATOM     33  C   UNL A   1      34.403  32.324  29.707  1.00  0.00     0.261 C 
BRANCH  33  34
ATOM     34  O   UNL A   1      34.249  33.403  30.655  1.00  0.00    -0.460 OA
BRANCH  34  35
ATOM     35  C   UNL A   1      34.783  33.201  31.887  1.00  0.00     0.338 C 
ATOM     36  O   UNL A   1      34.224  33.425  32.955  1.00  0.00    -0.246 OA
BRANCH  35  37
ATOM     37  C   UNL A   1      36.111  32.531  31.808  1.00  0.00     0.060 A 
ATOM     38  C   UNL A   1      36.291  31.326  32.501  1.00  0.00     0.016 A 
ATOM     39  C   UNL A   1      37.201  33.087  31.128  1.00  0.00     0.016 A 
ATOM     40  C   UNL A   1      37.532  30.661  32.490  1.00  0.00     0.010 A 
ATOM     41  C   UNL A   1      38.456  32.433  31.143  1.00  0.00     0.010 A 
ATOM     42  C   UNL A   1      38.633  31.203  31.812  1.00  0.00    -0.014 A 
BRANCH  42  43
ATOM     43  C   UNL A   1      39.995  30.596  31.979  1.00  0.00     0.031 A 
ATOM     44  C   UNL A   1      40.386  29.493  31.034  1.00  0.00     0.074 A 
ATOM     45  C   UNL A   1      40.901  31.005  32.893  1.00  0.00     0.049 A 
ATOM     46  N   UNL A   1      41.493  28.799  30.980  1.00  0.00    -0.248 NA
ATOM     47  C   UNL A   1      39.400  29.151  30.000  1.00  0.00     0.031 C 
ATOM     48  C   UNL A   1      40.739  32.139  33.790  1.00  0.00     0.029 A 
ATOM     49  N   UNL A   1      42.148  30.517  33.226  1.00  0.00    -0.354 N 
ATOM     50  C   UNL A   1      41.355  27.962  29.879  1.00  0.00     0.074 A 
ATOM     51  C   UNL A   1      40.037  28.205  29.330  1.00  0.00     0.031 C 
ATOM     52  C   UNL A   1      41.802  32.234  34.605  1.00  0.00     0.029 A 
ATOM     53  C   UNL A   1      42.737  31.156  34.299  1.00  0.00     0.049 A 
ATOM     54  H   UNL A   1      42.580  29.778  32.739  1.00  0.00     0.167 HD
ATOM     55  C   UNL A   1      42.245  27.079  29.364  1.00  0.00     0.034 A 
ATOM     56  C   UNL A   1      43.882  30.904  34.973  1.00  0.00     0.034 A 
ATOM     57  C   UNL A   1      43.524  26.779  29.954  1.00  0.00     0.049 A 
ATOM     58  C   UNL A   1      44.773  29.776  34.501  1.00  0.00     0.074 A 
ATOM     59  C   UNL A   1      44.465  25.852  29.541  1.00  0.00     0.029 A 
ATOM     60  N   UNL A   1      44.034  27.374  31.102  1.00  0.00    -0.354 N 
ATOM     61  N   UNL A   1      44.620  28.986  33.464  1.00  0.00    -0.248 NA
ATOM     62  C   UNL A   1      45.995  29.518  35.276  1.00  0.00     0.031 C 
ATOM     63  C   UNL A   1      45.497  25.823  30.484  1.00  0.00     0.029 A 
ATOM     64  C   UNL A   1      45.254  26.801  31.434  1.00  0.00     0.049 A 
ATOM     65  H   UNL A   1      43.594  28.096  31.605  1.00  0.00     0.167 HD
ATOM     66  C   UNL A   1      45.750  28.169  33.439  1.00  0.00     0.074 A 
ATOM     67  C   UNL A   1      46.575  28.567  34.560  1.00  0.00     0.031 C 
ATOM     68  C   UNL A   1      46.075  27.190  32.558  1.00  0.00     0.034 A 
BRANCH  55  69
ATOM     69  C   UNL A   1      41.799  26.320  28.140  1.00  0.00     0.023 A 
ATOM     70  C   UNL A   1      41.419  24.969  28.215  1.00  0.00     0.031 A 
ATOM     71  C   UNL A   1      41.843  26.928  26.874  1.00  0.00     0.131 A 
ATOM     72  C   UNL A   1      41.190  24.245  27.037  1.00  0.00     0.055 A 
ATOM     73  C   UNL A   1      41.524  26.224  25.713  1.00  0.00     0.041 A 
ATOM     74  F   UNL A   1      42.231  28.206  26.742  1.00  0.00    -0.206 F 
ATOM     75  C   UNL A   1      41.213  24.869  25.788  1.00  0.00     0.022 A 
BRANCH  72  76
ATOM     76  S   UNL A   1      41.047  22.440  27.147  1.00  0.00     0.124 S 
ATOM     77  O   UNL A   1      41.513  22.192  28.510  1.00  0.00    -0.237 OA
ATOM     78  O   UNL A   1      39.625  22.220  26.907  1.00  0.00    -0.237 OA
ATOM     79  O   UNL A   1      41.940  21.962  26.094  1.00  0.00    -0.744 OA
ENDBRANCH  72  76
ENDBRANCH  55  69
BRANCH  56  80
ATOM     80  C   UNL A   1      44.245  31.676  36.206  1.00  0.00     0.023 A 
ATOM     81  C   UNL A   1      43.568  31.494  37.425  1.00  0.00     0.031 A 
ATOM     82  C   UNL A   1      45.219  32.691  36.148  1.00  0.00     0.131 A 
ATOM     83  C   UNL A   1      43.838  32.344  38.514  1.00  0.00     0.055 A 
ATOM     84  C   UNL A   1      45.524  33.495  37.248  1.00  0.00     0.041 A 
ATOM     85  F   UNL A   1      45.884  32.926  35.007  1.00  0.00    -0.206 F 
ATOM     86  C   UNL A   1      44.821  33.333  38.438  1.00  0.00     0.022 A 
BRANCH  83  87
ATOM     87  S   UNL A   1      42.813  32.210  40.007  1.00  0.00     0.124 S 
ATOM     88  O   UNL A   1      42.990  33.527  40.608  1.00  0.00    -0.237 OA
ATOM     89  O   UNL A   1      41.495  31.932  39.444  1.00  0.00    -0.237 OA
ATOM     90  O   UNL A   1      43.421  31.101  40.741  1.00  0.00    -0.744 OA
ENDBRANCH  83  87
ENDBRANCH  56  80
BRANCH  68  91
ATOM     91  C   UNL A   1      47.413  26.508  32.732  1.00  0.00     0.023 A 
ATOM     92  C   UNL A   1      48.585  26.995  32.129  1.00  0.00     0.031 A 
ATOM     93  C   UNL A   1      47.513  25.349  33.526  1.00  0.00     0.131 A 
ATOM     94  C   UNL A   1      49.795  26.299  32.286  1.00  0.00     0.055 A 
ATOM     95  C   UNL A   1      48.731  24.701  33.734  1.00  0.00     0.041 A 
ATOM     96  F   UNL A   1      46.426  24.832  34.121  1.00  0.00    -0.206 F 
ATOM     97  C   UNL A   1      49.879  25.168  33.102  1.00  0.00     0.022 A 
BRANCH  94  98
ATOM     98  S   UNL A   1      51.241  26.834  31.331  1.00  0.00     0.124 S 
ATOM     99  O   UNL A   1      50.623  27.378  30.126  1.00  0.00    -0.237 OA
ATOM    100  O   UNL A   1      51.861  27.808  32.224  1.00  0.00    -0.237 OA
ATOM    101  O   UNL A   1      52.001  25.601  31.136  1.00  0.00    -0.744 OA
ENDBRANCH  94  98
ENDBRANCH  68  91
ENDBRANCH  42  43
ENDBRANCH  35  37
ENDBRANCH  34  35
ENDBRANCH  33  34
ENDBRANCH  32  33
ENDBRANCH  31  32
ENDBRANCH  30  31
ENDBRANCH   1  30
TORSDOF 24
ENDMDL
MODEL 2
REMARK VINA RESULT:      -9.4      5.636     10.015
REMARK SMILES CCC(=O)Nc1ccc(NC(=O)[C@@H]2CC=CC[C@@H]2C(=O)OCCOCCOCCOC(=O)c2ccc(-c3c4nc(c(-c5cc(S(=O)(=O)[O-])ccc5F)c5ccc([nH]5)c(-c5cc(S(=O)(=O)[O-])ccc5F)c5nc(c(-c6cc(S(=O)(=O)[O-])ccc6F)c6ccc3[nH]6)C=C5)C=C4)cc2)cc1
REMARK SMILES IDX 25 1 24 2 23 3 22 4 21 5 19 6 20 7 18 8 13 9 14 10 15 11
REMARK SMILES IDX 17 12 16 13 11 14 10 15 12 17 9 18 6 19 7 20 97 21 8 22
REMARK SMILES IDX 96 23 5 24 3 25 4 26 2 28 1 29 26 30 27 31 28 32 29 33 30 34
REMARK SMILES IDX 31 35 32 36 33 37 34 38 95 39 35 40 94 41 36 42 37 43 38 44
REMARK SMILES IDX 88 45 39 46 93 47 87 48 89 49 40 50 92 51 86 52 85 53 41 55
REMARK SMILES IDX 73 56 53 57 72 58 54 59 57 60 71 61 90 62 55 63 56 64 70 66
REMARK SMILES IDX 91 67 58 68 42 69 43 70 51 71 44 72 50 73 52 74 49 75 45 76
REMARK SMILES IDX 46 77 47 78 48 79 74 80 75 81 83 82 76 83 82 84 84 85 81 86
REMARK SMILES IDX 77 87 78 88 79 89 80 90 59 91 60 92 68 93 61 94 67 95 69 96
REMARK SMILES IDX 66 97 62 98 63 99 64 100 65 101
REMARK H PARENT 10 16 5 27 89 54 57 65
REMARK Flexibility Score: inf
ROOT
ATOM      1  C   UNL A   1      39.108  21.374  25.972  1.00  0.00     0.188 C 
ENDROOT
BRANCH   1   2
ATOM      2  O   UNL A   1      38.559  20.180  25.437  1.00  0.00    -0.376 OA
BRANCH   2   3
ATOM      3  C   UNL A   1      37.263  20.321  24.870  1.00  0.00     0.202 C 
BRANCH   3   4
ATOM      4  C   UNL A   1      36.771  21.771  24.832  1.00  0.00     0.261 C 
BRANCH   4   5
ATOM      5  O   UNL A   1      35.451  21.927  24.262  1.00  0.00    -0.463 OA
BRANCH   5   6
ATOM      6  C   UNL A   1      35.289  22.852  23.277  1.00  0.00     0.310 C 
ATOM      7  O   UNL A   1      36.199  23.200  22.538  1.00  0.00    -0.252 OA
BRANCH   6   8
ATOM      8  C   UNL A   1      33.898  23.502  23.361  1.00  0.00     0.116 C 
ATOM      9  C   UNL A   1      33.111  23.714  24.684  1.00  0.00     0.097 C 
ATOM     10  C   UNL A   1      32.107  22.638  25.144  1.00  0.00     0.041 C 
ATOM     11  C   UNL A   1      31.980  21.474  24.218  1.00  0.00    -0.030 C 
ATOM     12  C   UNL A   1      33.012  22.749  22.351  1.00  0.00     0.043 C 
ATOM     13  C   UNL A   1      32.393  21.517  22.945  1.00  0.00    -0.030 C 
BRANCH   9  14
ATOM     14  C   UNL A   1      33.761  24.361  25.889  1.00  0.00     0.228 C 
ATOM     15  N   UNL A   1      33.906  25.688  26.113  1.00  0.00    -0.326 N 
ATOM     16  H   UNL A   1      34.618  25.875  26.767  1.00  0.00     0.169 HD
ATOM     17  O   UNL A   1      34.241  23.624  26.764  1.00  0.00    -0.274 OA
BRANCH  15  18
ATOM     18  C   UNL A   1      33.298  26.862  25.651  1.00  0.00     0.041 A 
ATOM     19  C   UNL A   1      31.646  28.906  24.705  1.00  0.00     0.041 A 
ATOM     20  C   UNL A   1      32.762  28.519  23.979  1.00  0.00     0.028 A 
ATOM     21  C   UNL A   1      31.339  28.287  25.903  1.00  0.00     0.028 A 
ATOM     22  C   UNL A   1      33.612  27.534  24.487  1.00  0.00     0.028 A 
ATOM     23  C   UNL A   1      32.166  27.276  26.368  1.00  0.00     0.028 A 
BRANCH  19  24
ATOM     24  N   UNL A   1      30.847  29.936  24.229  1.00  0.00    -0.326 N 
ATOM     25  C   UNL A   1      29.898  29.802  23.250  1.00  0.00     0.224 C 
ATOM     26  O   UNL A   1      29.239  30.790  22.920  1.00  0.00    -0.275 OA
ATOM     27  H   UNL A   1      30.971  30.830  24.623  1.00  0.00     0.169 HD
BRANCH  25  28
ATOM     28  C   UNL A   1      29.619  28.421  22.669  1.00  0.00     0.097 C 
ATOM     29  C   UNL A   1      28.622  27.598  23.462  1.00  0.00     0.014 C 
ENDBRANCH  25  28
ENDBRANCH  19  24
ENDBRANCH  15  18
ENDBRANCH   9  14
ENDBRANCH   6   8
ENDBRANCH   5   6
ENDBRANCH   4   5
ENDBRANCH   3   4
ENDBRANCH   2   3
ENDBRANCH   1   2
BRANCH   1  30
ATOM     30  C   UNL A   1      40.643  21.431  26.053  1.00  0.00     0.188 C 
BRANCH  30  31
ATOM     31  O   UNL A   1      41.314  22.671  25.894  1.00  0.00    -0.376 OA
BRANCH  31  32
ATOM     32  C   UNL A   1      42.708  22.656  25.650  1.00  0.00     0.202 C 
BRANCH  32  33
ATOM     33  C   UNL A   1      43.506  23.964  25.808  1.00  0.00     0.261 C 
BRANCH  33  34
ATOM     34  O   UNL A   1      42.920  25.012  26.611  1.00  0.00    -0.460 OA
BRANCH  34  35
ATOM     35  C   UNL A   1      42.356  26.045  25.933  1.00  0.00     0.338 C 
ATOM     36  O   UNL A   1      41.529  25.945  25.034  1.00  0.00    -0.246 OA
BRANCH  35  37
ATOM     37  C   UNL A   1      42.760  27.362  26.501  1.00  0.00     0.060 A 
ATOM     38  C   UNL A   1      43.634  27.374  27.596  1.00  0.00     0.016 A 
ATOM     39  C   UNL A   1      42.254  28.579  26.029  1.00  0.00     0.016 A 
ATOM     40  C   UNL A   1      44.028  28.584  28.197  1.00  0.00     0.010 A 
ATOM     41  C   UNL A   1      42.627  29.793  26.653  1.00  0.00     0.010 A 
ATOM     42  C   UNL A   1      43.531  29.812  27.736  1.00  0.00    -0.014 A 
BRANCH  42  43
ATOM     43  C   UNL A   1      43.794  31.070  28.509  1.00  0.00     0.031 A 
ATOM     44  C   UNL A   1      42.876  31.387  29.658  1.00  0.00     0.074 A 
ATOM     45  C   UNL A   1      44.823  31.910  28.264  1.00  0.00     0.049 A 
ATOM     46  N   UNL A   1      42.880  32.414  30.467  1.00  0.00    -0.248 NA
ATOM     47  C   UNL A   1      41.830  30.394  29.940  1.00  0.00     0.031 C 
ATOM     48  C   UNL A   1      45.876  31.688  27.285  1.00  0.00     0.029 A 
ATOM     49  N   UNL A   1      45.162  33.127  28.820  1.00  0.00    -0.354 N 
ATOM     50  C   UNL A   1      41.863  32.174  31.382  1.00  0.00     0.074 A 
ATOM     51  C   UNL A   1      41.235  30.928  30.993  1.00  0.00     0.031 C 
ATOM     52  C   UNL A   1      46.708  32.742  27.261  1.00  0.00     0.029 A 
ATOM     53  C   UNL A   1      46.249  33.736  28.225  1.00  0.00     0.049 A 
ATOM     54  H   UNL A   1      44.671  33.525  29.575  1.00  0.00     0.167 HD
ATOM     55  C   UNL A   1      41.489  32.913  32.455  1.00  0.00     0.034 A 
ATOM     56  C   UNL A   1      46.808  34.953  28.415  1.00  0.00     0.034 A 
ATOM     57  C   UNL A   1      42.060  34.191  32.797  1.00  0.00     0.049 A 
ATOM     58  C   UNL A   1      46.246  35.854  29.491  1.00  0.00     0.074 A 
ATOM     59  C   UNL A   1      41.703  35.044  33.827  1.00  0.00     0.029 A 
ATOM     60  N   UNL A   1      43.087  34.819  32.104  1.00  0.00    -0.354 N 
ATOM     61  N   UNL A   1      45.274  35.615  30.341  1.00  0.00    -0.248 NA
ATOM     62  C   UNL A   1      46.865  37.179  29.648  1.00  0.00     0.031 C 
ATOM     63  C   UNL A   1      42.448  36.220  33.702  1.00  0.00     0.029 A 
ATOM     64  C   UNL A   1      43.342  36.066  32.657  1.00  0.00     0.049 A 
ATOM     65  H   UNL A   1      43.564  34.435  31.333  1.00  0.00     0.167 HD
ATOM     66  C   UNL A   1      45.198  36.740  31.159  1.00  0.00     0.074 A 
ATOM     67  C   UNL A   1      46.224  37.655  30.705  1.00  0.00     0.031 C 
ATOM     68  C   UNL A   1      44.361  36.984  32.199  1.00  0.00     0.034 A 
BRANCH  55  69
ATOM     69  C   UNL A   1      40.344  32.373  33.272  1.00  0.00     0.023 A 
ATOM     70  C   UNL A   1      39.025  32.808  33.061  1.00  0.00     0.031 A 
ATOM     71  C   UNL A   1      40.588  31.482  34.331  1.00  0.00     0.131 A 
ATOM     72  C   UNL A   1      38.015  32.427  33.956  1.00  0.00     0.055 A 
ATOM     73  C   UNL A   1      39.560  31.035  35.162  1.00  0.00     0.041 A 
ATOM     74  F   UNL A   1      41.834  31.060  34.597  1.00  0.00    -0.206 F 
ATOM     75  C   UNL A   1      38.268  31.523  34.989  1.00  0.00     0.022 A 
BRANCH  72  76
ATOM     76  S   UNL A   1      36.415  33.276  33.863  1.00  0.00     0.124 S 
ATOM     77  O   UNL A   1      35.722  32.487  32.847  1.00  0.00    -0.237 OA
ATOM     78  O   UNL A   1      35.910  33.149  35.226  1.00  0.00    -0.237 OA
ATOM     79  O   UNL A   1      36.771  34.633  33.452  1.00  0.00    -0.744 OA
ENDBRANCH  72  76
ENDBRANCH  55  69
BRANCH  56  80
ATOM     80  C   UNL A   1      47.923  35.441  27.539  1.00  0.00     0.023 A 
ATOM     81  C   UNL A   1      49.252  35.511  27.993  1.00  0.00     0.031 A 
ATOM     82  C   UNL A   1      47.648  35.943  26.253  1.00  0.00     0.131 A 
ATOM     83  C   UNL A   1      50.239  36.115  27.192  1.00  0.00     0.055 A 
ATOM     84  C   UNL A   1      48.642  36.490  25.438  1.00  0.00     0.041 A 
ATOM     85  F   UNL A   1      46.396  35.922  25.772  1.00  0.00    -0.206 F 
ATOM     86  C   UNL A   1      49.946  36.590  25.913  1.00  0.00     0.022 A 
BRANCH  83  87
ATOM     87  S   UNL A   1      51.900  36.365  27.885  1.00  0.00     0.124 S 
ATOM     88  O   UNL A   1      52.749  35.975  26.766  1.00  0.00    -0.237 OA
ATOM     89  O   UNL A   1      51.878  37.788  28.212  1.00  0.00    -0.237 OA
ATOM     90  O   UNL A   1      51.929  35.465  29.036  1.00  0.00    -0.744 OA
ENDBRANCH  83  87
ENDBRANCH  56  80
BRANCH  68  91
ATOM     91  C   UNL A   1      44.552  38.275  32.963  1.00  0.00     0.023 A 
ATOM     92  C   UNL A   1      43.752  39.406  32.733  1.00  0.00     0.031 A 
ATOM     93  C   UNL A   1      45.556  38.367  33.947  1.00  0.00     0.131 A 
ATOM     94  C   UNL A   1      44.000  40.595  33.438  1.00  0.00     0.055 A 
ATOM     95  C   UNL A   1      45.753  39.530  34.693  1.00  0.00     0.041 A 
ATOM     96  F   UNL A   1      46.357  37.321  34.206  1.00  0.00    -0.206 F 
ATOM     97  C   UNL A   1      44.980  40.657  34.432  1.00  0.00     0.022 A 
BRANCH  94  98
ATOM     98  S   UNL A   1      43.088  42.093  32.973  1.00  0.00     0.124 S 
ATOM     99  O   UNL A   1      41.704  41.679  33.176  1.00  0.00    -0.237 OA
ATOM    100  O   UNL A   1      43.604  43.078  33.919  1.00  0.00    -0.237 OA
ATOM    101  O   UNL A   1      43.473  42.312  31.580  1.00  0.00    -0.744 OA
ENDBRANCH  94  98
ENDBRANCH  68  91
ENDBRANCH  42  43
ENDBRANCH  35  37
ENDBRANCH  34  35
ENDBRANCH  33  34
ENDBRANCH  32  33
ENDBRANCH  31  32
ENDBRANCH  30  31
ENDBRANCH   1  30
TORSDOF 24
ENDMDL
MODEL 3
REMARK VINA RESULT:      -9.3      2.449      4.553
REMARK SMILES CCC(=O)Nc1ccc(NC(=O)[C@@H]2CC=CC[C@@H]2C(=O)OCCOCCOCCOC(=O)c2ccc(-c3c4nc(c(-c5cc(S(=O)(=O)[O-])ccc5F)c5ccc([nH]5)c(-c5cc(S(=O)(=O)[O-])ccc5F)c5nc(c(-c6cc(S(=O)(=O)[O-])ccc6F)c6ccc3[nH]6)C=C5)C=C4)cc2)cc1
REMARK SMILES IDX 25 1 24 2 23 3 22 4 21 5 19 6 20 7 18 8 13 9 14 10 15 11
REMARK SMILES IDX 17 12 16 13 11 14 10 15 12 17 9 18 6 19 7 20 97 21 8 22
REMARK SMILES IDX 96 23 5 24 3 25 4 26 2 28 1 29 26 30 27 31 28 32 29 33 30 34
REMARK SMILES IDX 31 35 32 36 33 37 34 38 95 39 35 40 94 41 36 42 37 43 38 44
REMARK SMILES IDX 88 45 39 46 93 47 87 48 89 49 40 50 92 51 86 52 85 53 41 55
REMARK SMILES IDX 73 56 53 57 72 58 54 59 57 60 71 61 90 62 55 63 56 64 70 66
REMARK SMILES IDX 91 67 58 68 42 69 43 70 51 71 44 72 50 73 52 74 49 75 45 76
REMARK SMILES IDX 46 77 47 78 48 79 74 80 75 81 83 82 76 83 82 84 84 85 81 86
REMARK SMILES IDX 77 87 78 88 79 89 80 90 59 91 60 92 68 93 61 94 67 95 69 96
REMARK SMILES IDX 66 97 62 98 63 99 64 100 65 101
REMARK H PARENT 10 16 5 27 89 54 57 65
REMARK Flexibility Score: inf
ROOT
ATOM      1  C   UNL A   1      33.045  30.299  26.989  1.00  0.00     0.188 C 
ENDROOT
BRANCH   1   2
ATOM      2  O   UNL A   1      33.634  29.067  27.371  1.00  0.00    -0.376 OA
BRANCH   2   3
ATOM      3  C   UNL A   1      33.947  28.197  26.292  1.00  0.00     0.202 C 
BRANCH   3   4
ATOM      4  C   UNL A   1      32.892  28.198  25.183  1.00  0.00     0.261 C 
BRANCH   4   5
ATOM      5  O   UNL A   1      31.669  27.511  25.536  1.00  0.00    -0.463 OA
BRANCH   5   6
ATOM      6  C   UNL A   1      31.686  26.150  25.547  1.00  0.00     0.310 C 
ATOM      7  O   UNL A   1      32.275  25.501  26.399  1.00  0.00    -0.252 OA
BRANCH   6   8
ATOM      8  C   UNL A   1      31.041  25.585  24.271  1.00  0.00     0.116 C 
ATOM      9  C   UNL A   1      31.712  25.606  22.869  1.00  0.00     0.097 C 
ATOM     10  C   UNL A   1      31.427  26.784  21.916  1.00  0.00     0.041 C 
ATOM     11  C   UNL A   1      30.482  27.803  22.457  1.00  0.00    -0.030 C 
ATOM     12  C   UNL A   1      29.642  26.222  24.180  1.00  0.00     0.043 C 
ATOM     13  C   UNL A   1      29.668  27.555  23.491  1.00  0.00    -0.030 C 
BRANCH   9  14
ATOM     14  C   UNL A   1      33.130  25.113  22.671  1.00  0.00     0.228 C 
ATOM     15  N   UNL A   1      33.695  24.027  23.248  1.00  0.00    -0.326 N 
ATOM     16  H   UNL A   1      34.678  24.076  23.240  1.00  0.00     0.169 HD
ATOM     17  O   UNL A   1      33.881  25.765  21.929  1.00  0.00    -0.274 OA
BRANCH  15  18
ATOM     18  C   UNL A   1      33.235  22.851  23.852  1.00  0.00     0.041 A 
ATOM     19  C   UNL A   1      32.832  20.373  25.078  1.00  0.00     0.041 A 
ATOM     20  C   UNL A   1      32.253  20.645  23.848  1.00  0.00     0.028 A 
ATOM     21  C   UNL A   1      33.614  21.322  25.711  1.00  0.00     0.028 A 
ATOM     22  C   UNL A   1      32.415  21.905  23.270  1.00  0.00     0.028 A 
ATOM     23  C   UNL A   1      33.805  22.551  25.098  1.00  0.00     0.028 A 
BRANCH  19  24
ATOM     24  N   UNL A   1      32.607  19.143  25.681  1.00  0.00    -0.326 N 
ATOM     25  C   UNL A   1      33.126  17.952  25.247  1.00  0.00     0.224 C 
ATOM     26  O   UNL A   1      32.865  16.925  25.876  1.00  0.00    -0.275 OA
ATOM     27  H   UNL A   1      32.029  19.125  26.478  1.00  0.00     0.169 HD
BRANCH  25  28
ATOM     28  C   UNL A   1      34.087  17.946  24.065  1.00  0.00     0.097 C 
ATOM     29  C   UNL A   1      34.133  16.636  23.302  1.00  0.00     0.014 C 
ENDBRANCH  25  28
ENDBRANCH  19  24
ENDBRANCH  15  18
ENDBRANCH   9  14
ENDBRANCH   6   8
ENDBRANCH   5   6
ENDBRANCH   4   5
ENDBRANCH   3   4
ENDBRANCH   2   3
ENDBRANCH   1   2
BRANCH   1  30
ATOM     30  C   UNL A   1      33.418  31.519  27.851  1.00  0.00     0.188 C 
BRANCH  30  31
ATOM     31  O   UNL A   1      32.786  32.768  27.619  1.00  0.00    -0.376 OA
BRANCH  31  32
ATOM     32  C   UNL A   1      33.198  33.884  28.386  1.00  0.00     0.202 C 
BRANCH  32  33
ATOM     33  C   UNL A   1      34.035  33.644  29.658  1.00  0.00     0.261 C 
BRANCH  33  34
ATOM     34  O   UNL A   1      35.435  33.999  29.615  1.00  0.00    -0.460 OA
BRANCH  34  35
ATOM     35  C   UNL A   1      36.135  33.552  28.540  1.00  0.00     0.338 C 
ATOM     36  O   UNL A   1      35.911  33.840  27.370  1.00  0.00    -0.246 OA
BRANCH  35  37
ATOM     37  C   UNL A   1      37.325  32.755  28.952  1.00  0.00     0.060 A 
ATOM     38  C   UNL A   1      37.176  31.369  29.103  1.00  0.00     0.016 A 
ATOM     39  C   UNL A   1      38.561  33.338  29.255  1.00  0.00     0.016 A 
ATOM     40  C   UNL A   1      38.255  30.566  29.519  1.00  0.00     0.010 A 
ATOM     41  C   UNL A   1      39.634  32.533  29.702  1.00  0.00     0.010 A 
ATOM     42  C   UNL A   1      39.500  31.134  29.825  1.00  0.00    -0.014 A 
BRANCH  42  43
ATOM     43  C   UNL A   1      40.573  30.301  30.462  1.00  0.00     0.031 A 
ATOM     44  C   UNL A   1      40.971  29.029  29.766  1.00  0.00     0.074 A 
ATOM     45  C   UNL A   1      41.228  30.643  31.592  1.00  0.00     0.049 A 
ATOM     46  N   UNL A   1      41.856  28.131  30.117  1.00  0.00    -0.248 NA
ATOM     47  C   UNL A   1      40.294  28.751  28.492  1.00  0.00     0.031 C 
ATOM     48  C   UNL A   1      41.063  31.894  32.315  1.00  0.00     0.029 A 
ATOM     49  N   UNL A   1      42.172  29.969  32.341  1.00  0.00    -0.354 N 
ATOM     50  C   UNL A   1      41.872  27.199  29.086  1.00  0.00     0.074 A 
ATOM     51  C   UNL A   1      40.872  27.619  28.126  1.00  0.00     0.031 C 
ATOM     52  C   UNL A   1      41.823  31.887  33.423  1.00  0.00     0.029 A 
ATOM     53  C   UNL A   1      42.537  30.618  33.504  1.00  0.00     0.049 A 
ATOM     54  H   UNL A   1      42.552  29.103  32.068  1.00  0.00     0.167 HD
ATOM     55  C   UNL A   1      42.652  26.100  28.943  1.00  0.00     0.034 A 
ATOM     56  C   UNL A   1      43.337  30.238  34.527  1.00  0.00     0.034 A 
ATOM     57  C   UNL A   1      43.590  25.637  29.933  1.00  0.00     0.049 A 
ATOM     58  C   UNL A   1      44.049  28.907  34.441  1.00  0.00     0.074 A 
ATOM     59  C   UNL A   1      44.377  24.499  29.906  1.00  0.00     0.029 A 
ATOM     60  N   UNL A   1      43.849  26.268  31.144  1.00  0.00    -0.354 N 
ATOM     61  N   UNL A   1      44.043  28.032  33.462  1.00  0.00    -0.248 NA
ATOM     62  C   UNL A   1      44.889  28.520  35.585  1.00  0.00     0.031 C 
ATOM     63  C   UNL A   1      45.041  24.394  31.133  1.00  0.00     0.029 A 
ATOM     64  C   UNL A   1      44.749  25.517  31.889  1.00  0.00     0.049 A 
ATOM     65  H   UNL A   1      43.453  27.121  31.432  1.00  0.00     0.167 HD
ATOM     66  C   UNL A   1      44.912  27.015  33.855  1.00  0.00     0.074 A 
ATOM     67  C   UNL A   1      45.427  27.388  35.156  1.00  0.00     0.031 C 
ATOM     68  C   UNL A   1      45.258  25.884  33.191  1.00  0.00     0.034 A 
BRANCH  55  69
ATOM     69  C   UNL A   1      42.437  25.288  27.692  1.00  0.00     0.023 A 
ATOM     70  C   UNL A   1      41.562  24.189  27.674  1.00  0.00     0.031 A 
ATOM     71  C   UNL A   1      43.185  25.560  26.533  1.00  0.00     0.131 A 
ATOM     72  C   UNL A   1      41.526  23.347  26.553  1.00  0.00     0.055 A 
ATOM     73  C   UNL A   1      43.075  24.770  25.389  1.00  0.00     0.041 A 
ATOM     74  F   UNL A   1      44.060  26.578  26.508  1.00  0.00    -0.206 F 
ATOM     75  C   UNL A   1      42.256  23.644  25.401  1.00  0.00     0.022 A 
BRANCH  72  76
ATOM     76  S   UNL A   1      40.659  21.760  26.694  1.00  0.00     0.124 S 
ATOM     77  O   UNL A   1      41.458  20.910  25.814  1.00  0.00    -0.237 OA
ATOM     78  O   UNL A   1      40.756  21.472  28.121  1.00  0.00    -0.237 OA
ATOM     79  O   UNL A   1      39.314  22.060  26.207  1.00  0.00    -0.744 OA
ENDBRANCH  72  76
ENDBRANCH  55  69
BRANCH  56  80
ATOM     80  C   UNL A   1      43.475  31.081  35.759  1.00  0.00     0.023 A 
ATOM     81  C   UNL A   1      44.602  31.891  35.986  1.00  0.00     0.031 A 
ATOM     82  C   UNL A   1      42.511  31.006  36.783  1.00  0.00     0.131 A 
ATOM     83  C   UNL A   1      44.760  32.547  37.221  1.00  0.00     0.055 A 
ATOM     84  C   UNL A   1      42.645  31.705  37.985  1.00  0.00     0.041 A 
ATOM     85  F   UNL A   1      41.424  30.235  36.632  1.00  0.00    -0.206 F 
ATOM     86  C   UNL A   1      43.782  32.471  38.215  1.00  0.00     0.022 A 
BRANCH  83  87
ATOM     87  S   UNL A   1      46.315  33.424  37.557  1.00  0.00     0.124 S 
ATOM     88  O   UNL A   1      45.845  34.584  38.305  1.00  0.00    -0.237 OA
ATOM     89  O   UNL A   1      47.065  32.429  38.317  1.00  0.00    -0.237 OA
ATOM     90  O   UNL A   1      46.840  33.711  36.222  1.00  0.00    -0.744 OA
ENDBRANCH  83  87
ENDBRANCH  56  80
BRANCH  68  91
ATOM     91  C   UNL A   1      46.290  24.984  33.832  1.00  0.00     0.023 A 
ATOM     92  C   UNL A   1      47.666  25.130  33.587  1.00  0.00     0.031 A 
ATOM     93  C   UNL A   1      45.882  23.962  34.711  1.00  0.00     0.131 A 
ATOM     94  C   UNL A   1      48.581  24.240  34.172  1.00  0.00     0.055 A 
ATOM     95  C   UNL A   1      46.801  23.124  35.344  1.00  0.00     0.041 A 
ATOM     96  F   UNL A   1      44.581  23.768  34.978  1.00  0.00    -0.206 F 
ATOM     97  C   UNL A   1      48.159  23.252  35.066  1.00  0.00     0.022 A 
BRANCH  94  98
ATOM     98  S   UNL A   1      50.323  24.326  33.676  1.00  0.00     0.124 S 
ATOM     99  O   UNL A   1      50.382  25.618  33.001  1.00  0.00    -0.237 OA
ATOM    100  O   UNL A   1      51.017  24.244  34.958  1.00  0.00    -0.237 OA
ATOM    101  O   UNL A   1      50.491  23.163  32.806  1.00  0.00    -0.744 OA
ENDBRANCH  94  98
ENDBRANCH  68  91
ENDBRANCH  42  43
ENDBRANCH  35  37
ENDBRANCH  34  35
ENDBRANCH  33  34
ENDBRANCH  32  33
ENDBRANCH  31  32
ENDBRANCH  30  31
ENDBRANCH   1  30
TORSDOF 24
ENDMDL
