MODEL 1
REMARK VINA RESULT:     -10.6      0.000      0.000
REMARK SMILES O=C(OCCOCCOCCOC(=O)c1ccccc1C[NH2+]C1CCCC1)c1ccc(-c2c3nc(c(-c4cc(S(=O)(=O)[O-])ccc4F)c4ccc([nH]4)c(-c4cc(S(=O)(=O)[O-])ccc4F)c4nc(c(-c5cc(S(=O)(=O)[O-])ccc5F)c5ccc2[nH]5)C=C4)C=C3)cc1
REMARK SMILES IDX 7 1 6 2 5 3 4 4 3 5 2 6 1 7 28 8 29 9 90 10 30 11 89 12
REMARK SMILES IDX 31 13 32 14 33 15 83 16 34 17 88 18 82 19 84 20 35 21 87 22
REMARK SMILES IDX 81 23 80 24 36 26 68 27 48 28 67 29 49 30 52 31 66 32 85 33
REMARK SMILES IDX 50 34 51 35 65 37 86 38 53 39 37 40 38 41 46 42 39 43 45 44
REMARK SMILES IDX 47 45 44 46 40 47 41 48 42 49 43 50 69 51 70 52 78 53 71 54
REMARK SMILES IDX 77 55 79 56 76 57 72 58 73 59 74 60 75 61 54 62 55 63 63 64
REMARK SMILES IDX 56 65 62 66 64 67 61 68 57 69 58 70 59 71 60 72 8 73 9 74
REMARK SMILES IDX 10 75 11 76 12 77 13 78 14 79 15 80 16 81 20 82 17 83 19 84
REMARK SMILES IDX 18 85 21 86 22 87 23 90 24 91 27 92 25 93 26 94
REMARK H PARENT 84 25 52 36 22 88 22 89
REMARK Flexibility Score: inf
ROOT
ATOM      1  C   UNL A   1      33.232  21.966  25.392  1.00  0.00     0.188 C 
ENDROOT
BRANCH   1   2
ATOM      2  O   UNL A   1      34.642  21.883  25.640  1.00  0.00    -0.376 OA
BRANCH   2   3
ATOM      3  C   UNL A   1      35.344  21.039  24.722  1.00  0.00     0.202 C 
BRANCH   3   4
ATOM      4  C   UNL A   1      36.837  21.361  24.597  1.00  0.00     0.261 C 
BRANCH   4   5
ATOM      5  O   UNL A   1      37.571  20.892  25.738  1.00  0.00    -0.460 OA
BRANCH   5   6
ATOM      6  C   UNL A   1      38.880  21.111  26.025  1.00  0.00     0.338 C 
ATOM      7  O   UNL A   1      39.687  20.209  25.797  1.00  0.00    -0.246 OA
BRANCH   6   8
ATOM      8  C   UNL A   1      39.411  22.410  26.541  1.00  0.00     0.060 A 
ATOM      9  C   UNL A   1      38.928  23.678  26.203  1.00  0.00     0.016 A 
ATOM     10  C   UNL A   1      40.450  22.333  27.484  1.00  0.00     0.016 A 
ATOM     11  C   UNL A   1      39.550  24.836  26.666  1.00  0.00     0.010 A 
ATOM     12  C   UNL A   1      41.035  23.490  28.006  1.00  0.00     0.010 A 
ATOM     13  C   UNL A   1      40.620  24.750  27.557  1.00  0.00    -0.014 A 
BRANCH  13  14
ATOM     14  C   UNL A   1      41.381  25.967  27.918  1.00  0.00     0.031 A 
ATOM     15  C   UNL A   1      40.674  27.064  28.653  1.00  0.00     0.074 A 
ATOM     16  C   UNL A   1      42.693  26.068  27.645  1.00  0.00     0.049 A 
ATOM     17  N   UNL A   1      41.095  28.259  28.967  1.00  0.00    -0.248 NA
ATOM     18  C   UNL A   1      39.306  26.762  29.100  1.00  0.00     0.031 C 
ATOM     19  C   UNL A   1      43.505  25.015  27.045  1.00  0.00     0.029 A 
ATOM     20  N   UNL A   1      43.570  27.108  27.825  1.00  0.00    -0.354 N 
ATOM     21  C   UNL A   1      40.044  28.856  29.652  1.00  0.00     0.074 A 
ATOM     22  C   UNL A   1      38.951  27.906  29.660  1.00  0.00     0.031 C 
ATOM     23  C   UNL A   1      44.754  25.475  26.874  1.00  0.00     0.029 A 
ATOM     24  C   UNL A   1      44.807  26.870  27.276  1.00  0.00     0.049 A 
ATOM     25  H   UNL A   1      43.336  27.940  28.298  1.00  0.00     0.167 HD
ATOM     26  C   UNL A   1      40.004  30.082  30.231  1.00  0.00     0.034 A 
ATOM     27  C   UNL A   1      45.847  27.698  27.059  1.00  0.00     0.034 A 
ATOM     28  C   UNL A   1      41.099  31.017  30.173  1.00  0.00     0.049 A 
ATOM     29  C   UNL A   1      45.738  29.112  27.553  1.00  0.00     0.074 A 
ATOM     30  C   UNL A   1      41.173  32.303  30.675  1.00  0.00     0.029 A 
ATOM     31  N   UNL A   1      42.318  30.764  29.550  1.00  0.00    -0.354 N 
ATOM     32  N   UNL A   1      44.729  29.687  28.168  1.00  0.00    -0.248 NA
ATOM     33  C   UNL A   1      46.898  29.984  27.343  1.00  0.00     0.031 C 
ATOM     34  C   UNL A   1      42.410  32.847  30.304  1.00  0.00     0.029 A 
ATOM     35  C   UNL A   1      43.136  31.880  29.625  1.00  0.00     0.049 A 
ATOM     36  H   UNL A   1      42.563  29.914  29.117  1.00  0.00     0.167 HD
ATOM     37  C   UNL A   1      45.142  30.982  28.446  1.00  0.00     0.074 A 
ATOM     38  C   UNL A   1      46.493  31.105  27.926  1.00  0.00     0.031 C 
ATOM     39  C   UNL A   1      44.474  31.975  29.088  1.00  0.00     0.034 A 
BRANCH  26  40
ATOM     40  C   UNL A   1      38.701  30.467  30.886  1.00  0.00     0.023 A 
ATOM     41  C   UNL A   1      37.715  31.193  30.192  1.00  0.00     0.031 A 
ATOM     42  C   UNL A   1      38.500  30.229  32.256  1.00  0.00     0.131 A 
ATOM     43  C   UNL A   1      36.637  31.756  30.892  1.00  0.00     0.055 A 
ATOM     44  C   UNL A   1      37.377  30.715  32.929  1.00  0.00     0.041 A 
ATOM     45  F   UNL A   1      39.417  29.566  32.976  1.00  0.00    -0.206 F 
ATOM     46  C   UNL A   1      36.450  31.504  32.253  1.00  0.00     0.022 A 
BRANCH  43  47
ATOM     47  S   UNL A   1      35.607  32.989  30.046  1.00  0.00     0.124 S 
ATOM     48  O   UNL A   1      35.914  34.202  30.802  1.00  0.00    -0.237 OA
ATOM     49  O   UNL A   1      36.115  32.941  28.681  1.00  0.00    -0.237 OA
ATOM     50  O   UNL A   1      34.249  32.482  30.225  1.00  0.00    -0.744 OA
ENDBRANCH  43  47
ENDBRANCH  26  40
BRANCH  27  51
ATOM     51  C   UNL A   1      47.015  27.222  26.265  1.00  0.00     0.023 A 
ATOM     52  C   UNL A   1      48.148  26.662  26.873  1.00  0.00     0.031 A 
ATOM     53  C   UNL A   1      46.990  27.298  24.858  1.00  0.00     0.131 A 
ATOM     54  C   UNL A   1      49.214  26.209  26.076  1.00  0.00     0.055 A 
ATOM     55  C   UNL A   1      48.036  26.818  24.070  1.00  0.00     0.041 A 
ATOM     56  F   UNL A   1      45.923  27.814  24.226  1.00  0.00    -0.206 F 
ATOM     57  C   UNL A   1      49.161  26.273  24.681  1.00  0.00     0.022 A 
BRANCH  54  58
ATOM     58  S   UNL A   1      50.698  25.558  26.892  1.00  0.00     0.124 S 
ATOM     59  O   UNL A   1      51.056  26.655  27.784  1.00  0.00    -0.237 OA
ATOM     60  O   UNL A   1      50.184  24.352  27.532  1.00  0.00    -0.237 OA
ATOM     61  O   UNL A   1      51.623  25.327  25.786  1.00  0.00    -0.744 OA
ENDBRANCH  54  58
ENDBRANCH  27  51
BRANCH  39  62
ATOM     62  C   UNL A   1      45.224  33.260  29.301  1.00  0.00     0.023 A 
ATOM     63  C   UNL A   1      45.189  34.298  28.356  1.00  0.00     0.031 A 
ATOM     64  C   UNL A   1      45.973  33.447  30.475  1.00  0.00     0.131 A 
ATOM     65  C   UNL A   1      45.924  35.469  28.588  1.00  0.00     0.055 A 
ATOM     66  C   UNL A   1      46.664  34.631  30.721  1.00  0.00     0.041 A 
ATOM     67  F   UNL A   1      46.035  32.480  31.405  1.00  0.00    -0.206 F 
ATOM     68  C   UNL A   1      46.648  35.649  29.771  1.00  0.00     0.022 A 
BRANCH  65  69
ATOM     69  S   UNL A   1      45.959  36.746  27.301  1.00  0.00     0.124 S 
ATOM     70  O   UNL A   1      44.549  37.113  27.204  1.00  0.00    -0.237 OA
ATOM     71  O   UNL A   1      46.842  37.754  27.879  1.00  0.00    -0.237 OA
ATOM     72  O   UNL A   1      46.499  36.046  26.137  1.00  0.00    -0.744 OA
ENDBRANCH  65  69
ENDBRANCH  39  62
ENDBRANCH  13  14
ENDBRANCH   6   8
ENDBRANCH   5   6
ENDBRANCH   4   5
ENDBRANCH   3   4
ENDBRANCH   2   3
ENDBRANCH   1   2
BRANCH   1  73
ATOM     73  C   UNL A   1      32.924  21.700  23.916  1.00  0.00     0.188 C 
BRANCH  73  74
ATOM     74  O   UNL A   1      31.706  22.282  23.441  1.00  0.00    -0.376 OA
BRANCH  74  75
ATOM     75  C   UNL A   1      31.531  23.676  23.680  1.00  0.00     0.202 C 
BRANCH  75  76
ATOM     76  C   UNL A   1      32.237  24.631  22.710  1.00  0.00     0.261 C 
BRANCH  76  77
ATOM     77  O   UNL A   1      33.273  25.431  23.307  1.00  0.00    -0.460 OA
BRANCH  77  78
ATOM     78  C   UNL A   1      33.435  26.646  22.741  1.00  0.00     0.338 C 
ATOM     79  O   UNL A   1      33.774  26.884  21.578  1.00  0.00    -0.246 OA
BRANCH  78  80
ATOM     80  C   UNL A   1      33.249  27.734  23.712  1.00  0.00     0.068 A 
ATOM     81  C   UNL A   1      34.072  27.797  24.843  1.00  0.00     0.016 A 
ATOM     82  C   UNL A   1      32.125  28.567  23.593  1.00  0.00     0.021 A 
ATOM     83  C   UNL A   1      33.754  28.673  25.882  1.00  0.00     0.001 A 
ATOM     84  C   UNL A   1      31.773  29.372  24.686  1.00  0.00     0.010 A 
ATOM     85  C   UNL A   1      32.591  29.437  25.816  1.00  0.00     0.001 A 
BRANCH  82  86
ATOM     86  C   UNL A   1      31.326  28.641  22.313  1.00  0.00     0.298 C 
BRANCH  86  87
ATOM     87  N   UNL A   1      30.908  30.001  22.000  1.00  0.00    -0.340 N 
ATOM     88  H   UNL A   1      31.220  30.236  21.057  1.00  0.00     0.346 HD
ATOM     89  H   UNL A   1      31.323  30.633  22.684  1.00  0.00     0.346 HD
BRANCH  87  90
ATOM     90  C   UNL A   1      29.455  30.133  22.069  1.00  0.00     0.182 C 
ATOM     91  C   UNL A   1      28.819  28.929  22.757  1.00  0.00     0.065 C 
ATOM     92  C   UNL A   1      28.946  31.297  22.920  1.00  0.00     0.065 C 
ATOM     93  C   UNL A   1      27.400  29.404  23.045  1.00  0.00     0.006 C 
ATOM     94  C   UNL A   1      27.509  30.913  23.273  1.00  0.00     0.006 C 
ENDBRANCH  87  90
ENDBRANCH  86  87
ENDBRANCH  82  86
ENDBRANCH  78  80
ENDBRANCH  77  78
ENDBRANCH  76  77
ENDBRANCH  75  76
ENDBRANCH  74  75
ENDBRANCH  73  74
ENDBRANCH   1  73
TORSDOF 23
ENDMDL
MODEL 2
REMARK VINA RESULT:     -10.3      2.129      7.828
REMARK SMILES O=C(OCCOCCOCCOC(=O)c1ccccc1C[NH2+]C1CCCC1)c1ccc(-c2c3nc(c(-c4cc(S(=O)(=O)[O-])ccc4F)c4ccc([nH]4)c(-c4cc(S(=O)(=O)[O-])ccc4F)c4nc(c(-c5cc(S(=O)(=O)[O-])ccc5F)c5ccc2[nH]5)C=C4)C=C3)cc1
REMARK SMILES IDX 7 1 6 2 5 3 4 4 3 5 2 6 1 7 28 8 29 9 90 10 30 11 89 12
REMARK SMILES IDX 31 13 32 14 33 15 83 16 34 17 88 18 82 19 84 20 35 21 87 22
REMARK SMILES IDX 81 23 80 24 36 26 68 27 48 28 67 29 49 30 52 31 66 32 85 33
REMARK SMILES IDX 50 34 51 35 65 37 86 38 53 39 37 40 38 41 46 42 39 43 45 44
REMARK SMILES IDX 47 45 44 46 40 47 41 48 42 49 43 50 69 51 70 52 78 53 71 54
REMARK SMILES IDX 77 55 79 56 76 57 72 58 73 59 74 60 75 61 54 62 55 63 63 64
REMARK SMILES IDX 56 65 62 66 64 67 61 68 57 69 58 70 59 71 60 72 8 73 9 74
REMARK SMILES IDX 10 75 11 76 12 77 13 78 14 79 15 80 16 81 20 82 17 83 19 84
REMARK SMILES IDX 18 85 21 86 22 87 23 90 24 91 27 92 25 93 26 94
REMARK H PARENT 84 25 52 36 22 88 22 89
REMARK Flexibility Score: inf
ROOT
ATOM      1  C   UNL A   1      36.515  22.422  25.386  1.00  0.00     0.188 C 
ENDROOT
BRANCH   1   2
ATOM      2  O   UNL A   1      36.781  21.058  25.736  1.00  0.00    -0.376 OA
BRANCH   2   3
ATOM      3  C   UNL A   1      37.508  20.334  24.738  1.00  0.00     0.202 C 
BRANCH   3   4
ATOM      4  C   UNL A   1      38.615  19.436  25.301  1.00  0.00     0.261 C 
BRANCH   4   5
ATOM      5  O   UNL A   1      39.221  20.020  26.464  1.00  0.00    -0.460 OA
BRANCH   5   6
ATOM      6  C   UNL A   1      40.439  20.615  26.550  1.00  0.00     0.338 C 
ATOM      7  O   UNL A   1      41.438  19.942  26.295  1.00  0.00    -0.246 OA
BRANCH   6   8
ATOM      8  C   UNL A   1      40.634  22.062  26.874  1.00  0.00     0.060 A 
ATOM      9  C   UNL A   1      40.089  23.136  26.163  1.00  0.00     0.016 A 
ATOM     10  C   UNL A   1      41.392  22.352  28.022  1.00  0.00     0.016 A 
ATOM     11  C   UNL A   1      40.405  24.454  26.489  1.00  0.00     0.010 A 
ATOM     12  C   UNL A   1      41.657  23.672  28.394  1.00  0.00     0.010 A 
ATOM     13  C   UNL A   1      41.206  24.731  27.596  1.00  0.00    -0.014 A 
BRANCH  13  14
ATOM     14  C   UNL A   1      41.674  26.113  27.843  1.00  0.00     0.031 A 
ATOM     15  C   UNL A   1      43.073  26.478  27.450  1.00  0.00     0.074 A 
ATOM     16  C   UNL A   1      40.851  27.041  28.358  1.00  0.00     0.049 A 
ATOM     17  N   UNL A   1      43.739  27.578  27.673  1.00  0.00    -0.248 NA
ATOM     18  C   UNL A   1      43.815  25.459  26.693  1.00  0.00     0.031 C 
ATOM     19  C   UNL A   1      39.439  26.828  28.664  1.00  0.00     0.029 A 
ATOM     20  N   UNL A   1      41.082  28.342  28.727  1.00  0.00    -0.354 N 
ATOM     21  C   UNL A   1      44.981  27.388  27.082  1.00  0.00     0.074 A 
ATOM     22  C   UNL A   1      44.989  26.046  26.536  1.00  0.00     0.031 C 
ATOM     23  C   UNL A   1      38.939  27.948  29.206  1.00  0.00     0.029 A 
ATOM     24  C   UNL A   1      40.007  28.922  29.357  1.00  0.00     0.049 A 
ATOM     25  H   UNL A   1      41.931  28.811  28.558  1.00  0.00     0.167 HD
ATOM     26  C   UNL A   1      46.015  28.262  26.994  1.00  0.00     0.034 A 
ATOM     27  C   UNL A   1      39.907  30.079  30.039  1.00  0.00     0.034 A 
ATOM     28  C   UNL A   1      45.986  29.578  27.580  1.00  0.00     0.049 A 
ATOM     29  C   UNL A   1      41.110  30.976  30.086  1.00  0.00     0.074 A 
ATOM     30  C   UNL A   1      46.977  30.542  27.603  1.00  0.00     0.029 A 
ATOM     31  N   UNL A   1      44.899  30.109  28.269  1.00  0.00    -0.354 N 
ATOM     32  N   UNL A   1      42.297  30.779  29.559  1.00  0.00    -0.248 NA
ATOM     33  C   UNL A   1      40.966  32.249  30.799  1.00  0.00     0.031 C 
ATOM     34  C   UNL A   1      46.512  31.628  28.357  1.00  0.00     0.029 A 
ATOM     35  C   UNL A   1      45.207  31.371  28.751  1.00  0.00     0.049 A 
ATOM     36  H   UNL A   1      44.036  29.653  28.396  1.00  0.00     0.167 HD
ATOM     37  C   UNL A   1      43.036  31.918  29.850  1.00  0.00     0.074 A 
ATOM     38  C   UNL A   1      42.160  32.796  30.605  1.00  0.00     0.031 C 
ATOM     39  C   UNL A   1      44.316  32.218  29.510  1.00  0.00     0.034 A 
BRANCH  26  40
ATOM     40  C   UNL A   1      47.259  27.754  26.309  1.00  0.00     0.023 A 
ATOM     41  C   UNL A   1      47.532  28.055  24.962  1.00  0.00     0.031 A 
ATOM     42  C   UNL A   1      48.108  26.847  26.965  1.00  0.00     0.131 A 
ATOM     43  C   UNL A   1      48.549  27.367  24.283  1.00  0.00     0.055 A 
ATOM     44  C   UNL A   1      49.177  26.234  26.308  1.00  0.00     0.041 A 
ATOM     45  F   UNL A   1      47.883  26.501  28.242  1.00  0.00    -0.206 F 
ATOM     46  C   UNL A   1      49.388  26.473  24.953  1.00  0.00     0.022 A 
BRANCH  43  47
ATOM     47  S   UNL A   1      48.623  27.498  22.473  1.00  0.00     0.124 S 
ATOM     48  O   UNL A   1      47.394  28.232  22.178  1.00  0.00    -0.237 OA
ATOM     49  O   UNL A   1      49.868  28.227  22.260  1.00  0.00    -0.237 OA
ATOM     50  O   UNL A   1      48.629  26.107  22.028  1.00  0.00    -0.744 OA
ENDBRANCH  43  47
ENDBRANCH  26  40
BRANCH  27  51
ATOM     51  C   UNL A   1      38.659  30.384  30.795  1.00  0.00     0.023 A 
ATOM     52  C   UNL A   1      37.641  31.185  30.256  1.00  0.00     0.031 A 
ATOM     53  C   UNL A   1      38.459  29.838  32.078  1.00  0.00     0.131 A 
ATOM     54  C   UNL A   1      36.474  31.424  31.002  1.00  0.00     0.055 A 
ATOM     55  C   UNL A   1      37.286  30.051  32.802  1.00  0.00     0.041 A 
ATOM     56  F   UNL A   1      39.397  29.053  32.634  1.00  0.00    -0.206 F 
ATOM     57  C   UNL A   1      36.285  30.854  32.265  1.00  0.00     0.022 A 
BRANCH  54  58
ATOM     58  S   UNL A   1      35.207  32.524  30.312  1.00  0.00     0.124 S 
ATOM     59  O   UNL A   1      34.739  31.758  29.163  1.00  0.00    -0.237 OA
ATOM     60  O   UNL A   1      34.274  32.644  31.427  1.00  0.00    -0.237 OA
ATOM     61  O   UNL A   1      35.949  33.740  29.989  1.00  0.00    -0.744 OA
ENDBRANCH  54  58
ENDBRANCH  27  51
BRANCH  39  62
ATOM     62  C   UNL A   1      44.817  33.576  29.916  1.00  0.00     0.023 A 
ATOM     63  C   UNL A   1      45.489  33.780  31.131  1.00  0.00     0.031 A 
ATOM     64  C   UNL A   1      44.626  34.676  29.062  1.00  0.00     0.131 A 
ATOM     65  C   UNL A   1      45.917  35.069  31.477  1.00  0.00     0.055 A 
ATOM     66  C   UNL A   1      45.094  35.947  29.391  1.00  0.00     0.041 A 
ATOM     67  F   UNL A   1      43.987  34.527  27.891  1.00  0.00    -0.206 F 
ATOM     68  C   UNL A   1      45.739  36.150  30.608  1.00  0.00     0.022 A 
BRANCH  65  69
ATOM     69  S   UNL A   1      46.677  35.328  33.103  1.00  0.00     0.124 S 
ATOM     70  O   UNL A   1      45.911  34.412  33.943  1.00  0.00    -0.237 OA
ATOM     71  O   UNL A   1      48.069  34.961  32.864  1.00  0.00    -0.237 OA
ATOM     72  O   UNL A   1      46.449  36.748  33.366  1.00  0.00    -0.744 OA
ENDBRANCH  65  69
ENDBRANCH  39  62
ENDBRANCH  13  14
ENDBRANCH   6   8
ENDBRANCH   5   6
ENDBRANCH   4   5
ENDBRANCH   3   4
ENDBRANCH   2   3
ENDBRANCH   1   2
BRANCH   1  73
ATOM     73  C   UNL A   1      35.010  22.657  25.226  1.00  0.00     0.188 C 
BRANCH  73  74
ATOM     74  O   UNL A   1      34.472  22.274  23.957  1.00  0.00    -0.376 OA
BRANCH  74  75
ATOM     75  C   UNL A   1      34.534  23.248  22.918  1.00  0.00     0.202 C 
BRANCH  75  76
ATOM     76  C   UNL A   1      33.272  23.420  22.064  1.00  0.00     0.261 C 
BRANCH  76  77
ATOM     77  O   UNL A   1      32.416  24.501  22.474  1.00  0.00    -0.460 OA
BRANCH  77  78
ATOM     78  C   UNL A   1      32.969  25.726  22.356  1.00  0.00     0.338 C 
ATOM     79  O   UNL A   1      33.605  26.163  21.392  1.00  0.00    -0.246 OA
BRANCH  78  80
ATOM     80  C   UNL A   1      32.821  26.518  23.585  1.00  0.00     0.068 A 
ATOM     81  C   UNL A   1      33.782  26.408  24.598  1.00  0.00     0.016 A 
ATOM     82  C   UNL A   1      31.620  27.213  23.805  1.00  0.00     0.021 A 
ATOM     83  C   UNL A   1      33.532  26.964  25.853  1.00  0.00     0.001 A 
ATOM     84  C   UNL A   1      31.351  27.684  25.099  1.00  0.00     0.010 A 
ATOM     85  C   UNL A   1      32.306  27.575  26.111  1.00  0.00     0.001 A 
BRANCH  82  86
ATOM     86  C   UNL A   1      30.651  27.494  22.683  1.00  0.00     0.298 C 
BRANCH  86  87
ATOM     87  N   UNL A   1      30.707  28.880  22.237  1.00  0.00    -0.340 N 
ATOM     88  H   UNL A   1      31.085  28.911  21.290  1.00  0.00     0.346 HD
ATOM     89  H   UNL A   1      31.304  29.403  22.878  1.00  0.00     0.346 HD
BRANCH  87  90
ATOM     90  C   UNL A   1      29.379  29.488  22.240  1.00  0.00     0.182 C 
ATOM     91  C   UNL A   1      28.368  28.611  22.973  1.00  0.00     0.065 C 
ATOM     92  C   UNL A   1      29.269  30.810  23.001  1.00  0.00     0.065 C 
ATOM     93  C   UNL A   1      27.182  29.546  23.176  1.00  0.00     0.006 C 
ATOM     94  C   UNL A   1      27.780  30.946  23.319  1.00  0.00     0.006 C 
ENDBRANCH  87  90
ENDBRANCH  86  87
ENDBRANCH  82  86
ENDBRANCH  78  80
ENDBRANCH  77  78
ENDBRANCH  76  77
ENDBRANCH  75  76
ENDBRANCH  74  75
ENDBRANCH  73  74
ENDBRANCH   1  73
TORSDOF 23
ENDMDL
MODEL 3
REMARK VINA RESULT:     -10.3      1.917      7.854
REMARK SMILES O=C(OCCOCCOCCOC(=O)c1ccccc1C[NH2+]C1CCCC1)c1ccc(-c2c3nc(c(-c4cc(S(=O)(=O)[O-])ccc4F)c4ccc([nH]4)c(-c4cc(S(=O)(=O)[O-])ccc4F)c4nc(c(-c5cc(S(=O)(=O)[O-])ccc5F)c5ccc2[nH]5)C=C4)C=C3)cc1
REMARK SMILES IDX 7 1 6 2 5 3 4 4 3 5 2 6 1 7 28 8 29 9 90 10 30 11 89 12
REMARK SMILES IDX 31 13 32 14 33 15 83 16 34 17 88 18 82 19 84 20 35 21 87 22
REMARK SMILES IDX 81 23 80 24 36 26 68 27 48 28 67 29 49 30 52 31 66 32 85 33
REMARK SMILES IDX 50 34 51 35 65 37 86 38 53 39 37 40 38 41 46 42 39 43 45 44
REMARK SMILES IDX 47 45 44 46 40 47 41 48 42 49 43 50 69 51 70 52 78 53 71 54
REMARK SMILES IDX 77 55 79 56 76 57 72 58 73 59 74 60 75 61 54 62 55 63 63 64
REMARK SMILES IDX 56 65 62 66 64 67 61 68 57 69 58 70 59 71 60 72 8 73 9 74
REMARK SMILES IDX 10 75 11 76 12 77 13 78 14 79 15 80 16 81 20 82 17 83 19 84
REMARK SMILES IDX 18 85 21 86 22 87 23 90 24 91 27 92 25 93 26 94
REMARK H PARENT 84 25 52 36 22 88 22 89
REMARK Flexibility Score: inf
ROOT
ATOM      1  C   UNL A   1      32.595  22.764  25.439  1.00  0.00     0.188 C 
ENDROOT
BRANCH   1   2
ATOM      2  O   UNL A   1      33.972  23.111  25.637  1.00  0.00    -0.376 OA
BRANCH   2   3
ATOM      3  C   UNL A   1      34.848  22.615  24.620  1.00  0.00     0.202 C 
BRANCH   3   4
ATOM      4  C   UNL A   1      36.282  23.147  24.719  1.00  0.00     0.261 C 
BRANCH   4   5
ATOM      5  O   UNL A   1      36.965  22.602  25.857  1.00  0.00    -0.460 OA
BRANCH   5   6
ATOM      6  C   UNL A   1      38.294  22.664  26.131  1.00  0.00     0.338 C 
ATOM      7  O   UNL A   1      38.997  21.695  25.840  1.00  0.00    -0.246 OA
BRANCH   6   8
ATOM      8  C   UNL A   1      38.968  23.869  26.706  1.00  0.00     0.060 A 
ATOM      9  C   UNL A   1      38.915  24.269  28.044  1.00  0.00     0.016 A 
ATOM     10  C   UNL A   1      39.759  24.626  25.825  1.00  0.00     0.016 A 
ATOM     11  C   UNL A   1      39.502  25.461  28.467  1.00  0.00     0.010 A 
ATOM     12  C   UNL A   1      40.407  25.787  26.257  1.00  0.00     0.010 A 
ATOM     13  C   UNL A   1      40.236  26.237  27.572  1.00  0.00    -0.014 A 
BRANCH  13  14
ATOM     14  C   UNL A   1      40.718  27.577  27.977  1.00  0.00     0.031 A 
ATOM     15  C   UNL A   1      42.188  27.856  27.927  1.00  0.00     0.074 A 
ATOM     16  C   UNL A   1      39.855  28.545  28.329  1.00  0.00     0.049 A 
ATOM     17  N   UNL A   1      42.850  28.903  28.341  1.00  0.00    -0.248 NA
ATOM     18  C   UNL A   1      43.022  26.810  27.316  1.00  0.00     0.031 C 
ATOM     19  C   UNL A   1      38.401  28.421  28.297  1.00  0.00     0.029 A 
ATOM     20  N   UNL A   1      40.073  29.817  28.795  1.00  0.00    -0.354 N 
ATOM     21  C   UNL A   1      44.182  28.644  28.040  1.00  0.00     0.074 A 
ATOM     22  C   UNL A   1      44.234  27.320  27.455  1.00  0.00     0.031 C 
ATOM     23  C   UNL A   1      37.858  29.558  28.757  1.00  0.00     0.029 A 
ATOM     24  C   UNL A   1      38.920  30.452  29.188  1.00  0.00     0.049 A 
ATOM     25  H   UNL A   1      40.965  30.231  28.843  1.00  0.00     0.167 HD
ATOM     26  C   UNL A   1      45.258  29.447  28.226  1.00  0.00     0.034 A 
ATOM     27  C   UNL A   1      38.735  31.594  29.877  1.00  0.00     0.034 A 
ATOM     28  C   UNL A   1      45.175  30.747  28.845  1.00  0.00     0.049 A 
ATOM     29  C   UNL A   1      39.947  32.406  30.233  1.00  0.00     0.074 A 
ATOM     30  C   UNL A   1      46.190  31.640  29.133  1.00  0.00     0.029 A 
ATOM     31  N   UNL A   1      43.993  31.332  29.290  1.00  0.00    -0.354 N 
ATOM     32  N   UNL A   1      41.210  32.143  29.982  1.00  0.00    -0.248 NA
ATOM     33  C   UNL A   1      39.720  33.666  30.948  1.00  0.00     0.031 C 
ATOM     34  C   UNL A   1      45.631  32.734  29.806  1.00  0.00     0.029 A 
ATOM     35  C   UNL A   1      44.258  32.556  29.882  1.00  0.00     0.049 A 
ATOM     36  H   UNL A   1      43.098  30.932  29.199  1.00  0.00     0.167 HD
ATOM     37  C   UNL A   1      41.929  33.220  30.481  1.00  0.00     0.074 A 
ATOM     38  C   UNL A   1      40.957  34.135  31.053  1.00  0.00     0.031 C 
ATOM     39  C   UNL A   1      43.268  33.441  30.453  1.00  0.00     0.034 A 
BRANCH  26  40
ATOM     40  C   UNL A   1      46.594  28.875  27.821  1.00  0.00     0.023 A 
ATOM     41  C   UNL A   1      46.867  28.518  26.488  1.00  0.00     0.031 A 
ATOM     42  C   UNL A   1      47.551  28.553  28.798  1.00  0.00     0.131 A 
ATOM     43  C   UNL A   1      48.008  27.757  26.187  1.00  0.00     0.055 A 
ATOM     44  C   UNL A   1      48.729  27.875  28.477  1.00  0.00     0.041 A 
ATOM     45  F   UNL A   1      47.334  28.844  30.090  1.00  0.00    -0.206 F 
ATOM     46  C   UNL A   1      48.951  27.451  27.170  1.00  0.00     0.022 A 
BRANCH  43  47
ATOM     47  S   UNL A   1      48.130  26.997  24.542  1.00  0.00     0.124 S 
ATOM     48  O   UNL A   1      48.299  28.168  23.685  1.00  0.00    -0.237 OA
ATOM     49  O   UNL A   1      49.296  26.133  24.680  1.00  0.00    -0.237 OA
ATOM     50  O   UNL A   1      46.853  26.303  24.389  1.00  0.00    -0.744 OA
ENDBRANCH  43  47
ENDBRANCH  26  40
BRANCH  27  51
ATOM     51  C   UNL A   1      37.368  31.963  30.341  1.00  0.00     0.023 A 
ATOM     52  C   UNL A   1      36.487  32.706  29.542  1.00  0.00     0.031 A 
ATOM     53  C   UNL A   1      36.913  31.537  31.605  1.00  0.00     0.131 A 
ATOM     54  C   UNL A   1      35.200  33.009  30.019  1.00  0.00     0.055 A 
ATOM     55  C   UNL A   1      35.623  31.812  32.061  1.00  0.00     0.041 A 
ATOM     56  F   UNL A   1      37.712  30.811  32.405  1.00  0.00    -0.206 F 
ATOM     57  C   UNL A   1      34.759  32.558  31.267  1.00  0.00     0.022 A 
BRANCH  54  58
ATOM     58  S   UNL A   1      34.109  34.035  28.995  1.00  0.00     0.124 S 
ATOM     59  O   UNL A   1      33.158  34.537  29.980  1.00  0.00    -0.237 OA
ATOM     60  O   UNL A   1      35.043  35.013  28.448  1.00  0.00    -0.237 OA
ATOM     61  O   UNL A   1      33.561  33.089  28.026  1.00  0.00    -0.744 OA
ENDBRANCH  54  58
ENDBRANCH  27  51
BRANCH  39  62
ATOM     62  C   UNL A   1      43.744  34.751  31.019  1.00  0.00     0.023 A 
ATOM     63  C   UNL A   1      43.780  35.919  30.241  1.00  0.00     0.031 A 
ATOM     64  C   UNL A   1      44.156  34.825  32.360  1.00  0.00     0.131 A 
ATOM     65  C   UNL A   1      44.254  37.111  30.805  1.00  0.00     0.055 A 
ATOM     66  C   UNL A   1      44.583  36.023  32.928  1.00  0.00     0.041 A 
ATOM     67  F   UNL A   1      44.140  33.731  33.140  1.00  0.00    -0.206 F 
ATOM     68  C   UNL A   1      44.641  37.175  32.148  1.00  0.00     0.022 A 
BRANCH  65  69
ATOM     69  S   UNL A   1      44.402  38.578  29.749  1.00  0.00     0.124 S 
ATOM     70  O   UNL A   1      45.848  38.689  29.589  1.00  0.00    -0.237 OA
ATOM     71  O   UNL A   1      43.657  38.185  28.557  1.00  0.00    -0.237 OA
ATOM     72  O   UNL A   1      43.781  39.636  30.544  1.00  0.00    -0.744 OA
ENDBRANCH  65  69
ENDBRANCH  39  62
ENDBRANCH  13  14
ENDBRANCH   6   8
ENDBRANCH   5   6
ENDBRANCH   4   5
ENDBRANCH   3   4
ENDBRANCH   2   3
ENDBRANCH   1   2
BRANCH   1  73
ATOM     73  C   UNL A   1      32.406  22.032  24.107  1.00  0.00     0.188 C 
BRANCH  73  74
ATOM     74  O   UNL A   1      31.491  22.657  23.202  1.00  0.00    -0.376 OA
BRANCH  74  75
ATOM     75  C   UNL A   1      31.581  24.074  23.083  1.00  0.00     0.202 C 
BRANCH  75  76
ATOM     76  C   UNL A   1      32.580  24.613  22.052  1.00  0.00     0.261 C 
BRANCH  76  77
ATOM     77  O   UNL A   1      33.716  25.290  22.618  1.00  0.00    -0.460 OA
BRANCH  77  78
ATOM     78  C   UNL A   1      33.648  26.637  22.560  1.00  0.00     0.338 C 
ATOM     79  O   UNL A   1      34.019  27.359  21.629  1.00  0.00    -0.246 OA
BRANCH  78  80
ATOM     80  C   UNL A   1      33.148  27.217  23.814  1.00  0.00     0.068 A 
ATOM     81  C   UNL A   1      33.884  27.050  24.994  1.00  0.00     0.016 A 
ATOM     82  C   UNL A   1      31.850  27.752  23.846  1.00  0.00     0.021 A 
ATOM     83  C   UNL A   1      33.310  27.384  26.221  1.00  0.00     0.001 A 
ATOM     84  C   UNL A   1      31.260  27.995  25.095  1.00  0.00     0.010 A 
ATOM     85  C   UNL A   1      31.990  27.828  26.273  1.00  0.00     0.001 A 
BRANCH  82  86
ATOM     86  C   UNL A   1      31.107  28.103  22.579  1.00  0.00     0.298 C 
BRANCH  86  87
ATOM     87  N   UNL A   1      30.992  29.542  22.386  1.00  0.00    -0.340 N 
ATOM     88  H   UNL A   1      31.443  29.798  21.507  1.00  0.00     0.346 HD
ATOM     89  H   UNL A   1      31.444  30.012  23.171  1.00  0.00     0.346 HD
BRANCH  87  90
ATOM     90  C   UNL A   1      29.593  29.957  22.342  1.00  0.00     0.182 C 
ATOM     91  C   UNL A   1      28.661  28.810  22.721  1.00  0.00     0.065 C 
ATOM     92  C   UNL A   1      29.200  31.037  23.352  1.00  0.00     0.065 C 
ATOM     93  C   UNL A   1      27.329  29.511  22.960  1.00  0.00     0.006 C 
ATOM     94  C   UNL A   1      27.684  30.902  23.486  1.00  0.00     0.006 C 
ENDBRANCH  87  90
ENDBRANCH  86  87
ENDBRANCH  82  86
ENDBRANCH  78  80
ENDBRANCH  77  78
ENDBRANCH  76  77
ENDBRANCH  75  76
ENDBRANCH  74  75
ENDBRANCH  73  74
ENDBRANCH   1  73
TORSDOF 23
ENDMDL
