MODEL 1
REMARK VINA RESULT:     -10.3      0.000      0.000
REMARK SMILES COc1ccc(C(=O)c2ccccc2)cc1[C@@H](C)C(=O)OCCOCCOCCOC(=O)c1ccc(-c2c3nc(c(-c4cc(S(=O)(=O)[O-])ccc4F)c4ccc([nH]4)c(-c4cc(S(=O)(=O)[O-])ccc4F)c4nc(c(-c5cc(S(=O)(=O)[O-])ccc5F)c5ccc2[nH]5)C=C4)C=C3)cc1
REMARK SMILES IDX 25 1 24 2 23 3 22 4 21 5 19 6 20 7 17 8 18 9 16 10 3 11 4 12
REMARK SMILES IDX 5 13 15 14 6 15 2 16 1 17 7 18 8 19 9 20 10 21 14 22 11 23
REMARK SMILES IDX 13 24 12 25 26 26 27 27 28 28 29 29 30 30 31 31 32 32 33 33
REMARK SMILES IDX 34 34 95 35 35 36 94 37 36 38 37 39 38 40 88 41 39 42 93 43
REMARK SMILES IDX 87 44 89 45 40 46 92 47 86 48 85 49 41 51 73 52 53 53 72 54
REMARK SMILES IDX 54 55 57 56 71 57 90 58 55 59 56 60 70 62 91 63 58 64 42 65
REMARK SMILES IDX 43 66 51 67 44 68 50 69 52 70 49 71 45 72 46 73 47 74 48 75
REMARK SMILES IDX 74 76 75 77 83 78 76 79 82 80 84 81 81 82 77 83 78 84 79 85
REMARK SMILES IDX 80 86 59 87 60 88 68 89 61 90 67 91 69 92 66 93 62 94 63 95
REMARK SMILES IDX 64 96 65 97
REMARK H PARENT 89 50 57 61
REMARK Flexibility Score: inf
ROOT
ATOM      1  C   UNL A   1      34.937  28.677  26.912  1.00  0.00     0.188 C 
ENDROOT
BRANCH   1   2
ATOM      2  O   UNL A   1      34.218  28.179  25.789  1.00  0.00    -0.376 OA
BRANCH   2   3
ATOM      3  C   UNL A   1      33.282  27.127  25.982  1.00  0.00     0.202 C 
BRANCH   3   4
ATOM      4  C   UNL A   1      31.826  27.505  26.280  1.00  0.00     0.261 C 
BRANCH   4   5
ATOM      5  O   UNL A   1      31.043  26.459  26.896  1.00  0.00    -0.463 OA
BRANCH   5   6
ATOM      6  C   UNL A   1      30.079  25.899  26.119  1.00  0.00     0.313 C 
ATOM      7  O   UNL A   1      29.289  25.056  26.536  1.00  0.00    -0.252 OA
BRANCH   6   8
ATOM      8  C   UNL A   1      30.039  26.359  24.660  1.00  0.00     0.130 C 
ATOM      9  C   UNL A   1      28.608  26.211  24.144  1.00  0.00     0.025 C 
BRANCH   8  10
ATOM     10  C   UNL A   1      31.012  25.782  23.634  1.00  0.00     0.009 A 
ATOM     11  C   UNL A   1      31.446  26.557  22.542  1.00  0.00     0.122 A 
ATOM     12  C   UNL A   1      32.322  26.042  21.580  1.00  0.00     0.047 A 
ATOM     13  C   UNL A   1      32.785  24.732  21.691  1.00  0.00     0.016 A 
ATOM     14  C   UNL A   1      31.471  24.453  23.707  1.00  0.00     0.020 A 
ATOM     15  C   UNL A   1      32.351  23.921  22.745  1.00  0.00     0.023 A 
BRANCH  11  16
ATOM     16  O   UNL A   1      30.909  27.802  22.344  1.00  0.00    -0.496 OA
ATOM     17  C   UNL A   1      31.832  28.834  22.692  1.00  0.00     0.278 C 
ENDBRANCH  11  16
BRANCH  15  18
ATOM     18  C   UNL A   1      32.878  22.524  22.824  1.00  0.00     0.193 C 
ATOM     19  O   UNL A   1      32.309  21.603  22.243  1.00  0.00    -0.289 OA
BRANCH  18  20
ATOM     20  C   UNL A   1      34.119  22.217  23.564  1.00  0.00     0.022 A 
ATOM     21  C   UNL A   1      35.225  23.051  23.378  1.00  0.00     0.012 A 
ATOM     22  C   UNL A   1      34.187  21.137  24.451  1.00  0.00     0.012 A 
ATOM     23  C   UNL A   1      36.379  22.843  24.133  1.00  0.00     0.001 A 
ATOM     24  C   UNL A   1      35.337  20.943  25.215  1.00  0.00     0.001 A 
ATOM     25  C   UNL A   1      36.427  21.802  25.062  1.00  0.00     0.000 A 
ENDBRANCH  18  20
ENDBRANCH  15  18
ENDBRANCH   8  10
ENDBRANCH   6   8
ENDBRANCH   5   6
ENDBRANCH   4   5
ENDBRANCH   3   4
ENDBRANCH   2   3
ENDBRANCH   1   2
BRANCH   1  26
ATOM     26  C   UNL A   1      34.585  30.061  27.477  1.00  0.00     0.188 C 
BRANCH  26  27
ATOM     27  O   UNL A   1      33.201  30.348  27.572  1.00  0.00    -0.376 OA
BRANCH  27  28
ATOM     28  C   UNL A   1      32.843  31.692  27.277  1.00  0.00     0.202 C 
BRANCH  28  29
ATOM     29  C   UNL A   1      33.709  32.732  28.003  1.00  0.00     0.261 C 
BRANCH  29  30
ATOM     30  O   UNL A   1      33.278  34.099  27.843  1.00  0.00    -0.460 OA
BRANCH  30  31
ATOM     31  C   UNL A   1      33.369  34.892  28.933  1.00  0.00     0.338 C 
ATOM     32  O   UNL A   1      32.568  35.755  29.273  1.00  0.00    -0.246 OA
BRANCH  31  33
ATOM     33  C   UNL A   1      34.474  34.400  29.782  1.00  0.00     0.060 A 
ATOM     34  C   UNL A   1      35.791  34.564  29.334  1.00  0.00     0.016 A 
ATOM     35  C   UNL A   1      34.225  33.777  31.007  1.00  0.00     0.016 A 
ATOM     36  C   UNL A   1      36.857  34.098  30.105  1.00  0.00     0.010 A 
ATOM     37  C   UNL A   1      35.297  33.293  31.771  1.00  0.00     0.010 A 
ATOM     38  C   UNL A   1      36.622  33.435  31.316  1.00  0.00    -0.014 A 
BRANCH  38  39
ATOM     39  C   UNL A   1      37.754  32.762  32.009  1.00  0.00     0.031 A 
ATOM     40  C   UNL A   1      38.438  31.605  31.327  1.00  0.00     0.074 A 
ATOM     41  C   UNL A   1      38.224  33.211  33.188  1.00  0.00     0.049 A 
ATOM     42  N   UNL A   1      39.435  30.865  31.740  1.00  0.00    -0.248 NA
ATOM     43  C   UNL A   1      37.927  31.243  29.997  1.00  0.00     0.031 C 
ATOM     44  C   UNL A   1      37.699  34.362  33.923  1.00  0.00     0.029 A 
ATOM     45  N   UNL A   1      39.256  32.756  33.974  1.00  0.00    -0.354 N 
ATOM     46  C   UNL A   1      39.673  29.947  30.723  1.00  0.00     0.074 A 
ATOM     47  C   UNL A   1      38.690  30.206  29.690  1.00  0.00     0.031 C 
ATOM     48  C   UNL A   1      38.414  34.520  35.052  1.00  0.00     0.029 A 
ATOM     49  C   UNL A   1      39.417  33.460  35.145  1.00  0.00     0.049 A 
ATOM     50  H   UNL A   1      39.828  31.995  33.721  1.00  0.00     0.167 HD
ATOM     51  C   UNL A   1      40.624  28.982  30.652  1.00  0.00     0.034 A 
ATOM     52  C   UNL A   1      40.255  33.258  36.184  1.00  0.00     0.034 A 
ATOM     53  C   UNL A   1      41.588  28.716  31.693  1.00  0.00     0.049 A 
ATOM     54  C   UNL A   1      41.236  32.108  36.127  1.00  0.00     0.074 A 
ATOM     55  C   UNL A   1      42.584  27.755  31.720  1.00  0.00     0.029 A 
ATOM     56  N   UNL A   1      41.671  29.402  32.897  1.00  0.00    -0.354 N 
ATOM     57  N   UNL A   1      41.440  31.237  35.165  1.00  0.00    -0.248 NA
ATOM     58  C   UNL A   1      42.104  31.921  37.298  1.00  0.00     0.031 C 
ATOM     59  C   UNL A   1      43.216  27.810  32.967  1.00  0.00     0.029 A 
ATOM     60  C   UNL A   1      42.677  28.862  33.687  1.00  0.00     0.049 A 
ATOM     61  H   UNL A   1      41.100  30.162  33.154  1.00  0.00     0.167 HD
ATOM     62  C   UNL A   1      42.480  30.418  35.606  1.00  0.00     0.074 A 
ATOM     63  C   UNL A   1      42.875  30.919  36.906  1.00  0.00     0.031 C 
ATOM     64  C   UNL A   1      43.055  29.350  34.994  1.00  0.00     0.034 A 
BRANCH  51  65
ATOM     65  C   UNL A   1      40.617  28.098  29.426  1.00  0.00     0.023 A 
ATOM     66  C   UNL A   1      41.540  28.271  28.379  1.00  0.00     0.031 A 
ATOM     67  C   UNL A   1      39.646  27.091  29.288  1.00  0.00     0.131 A 
ATOM     68  C   UNL A   1      41.429  27.498  27.213  1.00  0.00     0.055 A 
ATOM     69  C   UNL A   1      39.592  26.270  28.160  1.00  0.00     0.041 A 
ATOM     70  F   UNL A   1      38.722  26.896  30.242  1.00  0.00    -0.206 F 
ATOM     71  C   UNL A   1      40.478  26.480  27.108  1.00  0.00     0.022 A 
BRANCH  68  72
ATOM     72  S   UNL A   1      42.447  27.939  25.779  1.00  0.00     0.124 S 
ATOM     73  O   UNL A   1      43.786  27.962  26.363  1.00  0.00    -0.237 OA
ATOM     74  O   UNL A   1      42.174  26.848  24.851  1.00  0.00    -0.237 OA
ATOM     75  O   UNL A   1      41.927  29.245  25.378  1.00  0.00    -0.744 OA
ENDBRANCH  68  72
ENDBRANCH  51  65
BRANCH  52  76
ATOM     76  C   UNL A   1      40.180  34.116  37.404  1.00  0.00     0.023 A 
ATOM     77  C   UNL A   1      39.438  33.726  38.532  1.00  0.00     0.031 A 
ATOM     78  C   UNL A   1      40.783  35.388  37.423  1.00  0.00     0.131 A 
ATOM     79  C   UNL A   1      39.275  34.616  39.606  1.00  0.00     0.055 A 
ATOM     80  C   UNL A   1      40.669  36.245  38.519  1.00  0.00     0.041 A 
ATOM     81  F   UNL A   1      41.495  35.818  36.369  1.00  0.00    -0.206 F 
ATOM     82  C   UNL A   1      39.898  35.867  39.613  1.00  0.00     0.022 A 
BRANCH  79  83
ATOM     83  S   UNL A   1      38.153  34.158  40.957  1.00  0.00     0.124 S 
ATOM     84  O   UNL A   1      38.995  33.276  41.756  1.00  0.00    -0.237 OA
ATOM     85  O   UNL A   1      37.841  35.456  41.545  1.00  0.00    -0.237 OA
ATOM     86  O   UNL A   1      37.041  33.506  40.268  1.00  0.00    -0.744 OA
ENDBRANCH  79  83
ENDBRANCH  52  76
BRANCH  64  87
ATOM     87  C   UNL A   1      44.204  28.680  35.717  1.00  0.00     0.023 A 
ATOM     88  C   UNL A   1      43.999  27.604  36.599  1.00  0.00     0.031 A 
ATOM     89  C   UNL A   1      45.519  29.154  35.557  1.00  0.00     0.131 A 
ATOM     90  C   UNL A   1      45.072  27.094  37.348  1.00  0.00     0.055 A 
ATOM     91  C   UNL A   1      46.595  28.593  36.248  1.00  0.00     0.041 A 
ATOM     92  F   UNL A   1      45.781  30.181  34.731  1.00  0.00    -0.206 F 
ATOM     93  C   UNL A   1      46.372  27.570  37.165  1.00  0.00     0.022 A 
BRANCH  90  94
ATOM     94  S   UNL A   1      44.723  25.895  38.665  1.00  0.00     0.124 S 
ATOM     95  O   UNL A   1      44.132  24.789  37.918  1.00  0.00    -0.237 OA
ATOM     96  O   UNL A   1      46.049  25.650  39.223  1.00  0.00    -0.237 OA
ATOM     97  O   UNL A   1      43.803  26.611  39.546  1.00  0.00    -0.744 OA
ENDBRANCH  90  94
ENDBRANCH  64  87
ENDBRANCH  38  39
ENDBRANCH  31  33
ENDBRANCH  30  31
ENDBRANCH  29  30
ENDBRANCH  28  29
ENDBRANCH  27  28
ENDBRANCH  26  27
ENDBRANCH   1  26
TORSDOF 24
ENDMDL
MODEL 2
REMARK VINA RESULT:     -10.2      1.015      7.590
REMARK SMILES COc1ccc(C(=O)c2ccccc2)cc1[C@@H](C)C(=O)OCCOCCOCCOC(=O)c1ccc(-c2c3nc(c(-c4cc(S(=O)(=O)[O-])ccc4F)c4ccc([nH]4)c(-c4cc(S(=O)(=O)[O-])ccc4F)c4nc(c(-c5cc(S(=O)(=O)[O-])ccc5F)c5ccc2[nH]5)C=C4)C=C3)cc1
REMARK SMILES IDX 25 1 24 2 23 3 22 4 21 5 19 6 20 7 17 8 18 9 16 10 3 11 4 12
REMARK SMILES IDX 5 13 15 14 6 15 2 16 1 17 7 18 8 19 9 20 10 21 14 22 11 23
REMARK SMILES IDX 13 24 12 25 26 26 27 27 28 28 29 29 30 30 31 31 32 32 33 33
REMARK SMILES IDX 34 34 95 35 35 36 94 37 36 38 37 39 38 40 88 41 39 42 93 43
REMARK SMILES IDX 87 44 89 45 40 46 92 47 86 48 85 49 41 51 73 52 53 53 72 54
REMARK SMILES IDX 54 55 57 56 71 57 90 58 55 59 56 60 70 62 91 63 58 64 42 65
REMARK SMILES IDX 43 66 51 67 44 68 50 69 52 70 49 71 45 72 46 73 47 74 48 75
REMARK SMILES IDX 74 76 75 77 83 78 76 79 82 80 84 81 81 82 77 83 78 84 79 85
REMARK SMILES IDX 80 86 59 87 60 88 68 89 61 90 67 91 69 92 66 93 62 94 63 95
REMARK SMILES IDX 64 96 65 97
REMARK H PARENT 89 50 57 61
REMARK Flexibility Score: inf
ROOT
ATOM      1  C   UNL A   1      34.995  29.149  26.974  1.00  0.00     0.188 C 
ENDROOT
BRANCH   1   2
ATOM      2  O   UNL A   1      34.173  28.642  25.929  1.00  0.00    -0.376 OA
BRANCH   2   3
ATOM      3  C   UNL A   1      33.296  27.558  26.206  1.00  0.00     0.202 C 
BRANCH   3   4
ATOM      4  C   UNL A   1      31.793  27.849  26.280  1.00  0.00     0.261 C 
BRANCH   4   5
ATOM      5  O   UNL A   1      31.009  26.823  26.927  1.00  0.00    -0.463 OA
BRANCH   5   6
ATOM      6  C   UNL A   1      30.343  25.971  26.104  1.00  0.00     0.313 C 
ATOM      7  O   UNL A   1      29.925  24.876  26.470  1.00  0.00    -0.252 OA
BRANCH   6   8
ATOM      8  C   UNL A   1      30.160  26.439  24.658  1.00  0.00     0.130 C 
ATOM      9  C   UNL A   1      28.732  26.114  24.220  1.00  0.00     0.025 C 
BRANCH   8  10
ATOM     10  C   UNL A   1      31.138  26.004  23.568  1.00  0.00     0.009 A 
ATOM     11  C   UNL A   1      31.183  26.680  22.333  1.00  0.00     0.122 A 
ATOM     12  C   UNL A   1      32.057  26.285  21.314  1.00  0.00     0.047 A 
ATOM     13  C   UNL A   1      32.910  25.201  21.510  1.00  0.00     0.016 A 
ATOM     14  C   UNL A   1      31.988  24.894  23.729  1.00  0.00     0.020 A 
ATOM     15  C   UNL A   1      32.871  24.486  22.711  1.00  0.00     0.023 A 
BRANCH  11  16
ATOM     16  O   UNL A   1      30.269  27.667  22.073  1.00  0.00    -0.496 OA
ATOM     17  C   UNL A   1      30.785  28.958  22.397  1.00  0.00     0.278 C 
ENDBRANCH  11  16
BRANCH  15  18
ATOM     18  C   UNL A   1      33.808  23.332  22.876  1.00  0.00     0.193 C 
ATOM     19  O   UNL A   1      34.945  23.373  22.414  1.00  0.00    -0.289 OA
BRANCH  18  20
ATOM     20  C   UNL A   1      33.410  22.129  23.637  1.00  0.00     0.022 A 
ATOM     21  C   UNL A   1      32.491  21.250  23.055  1.00  0.00     0.012 A 
ATOM     22  C   UNL A   1      33.951  21.855  24.898  1.00  0.00     0.012 A 
ATOM     23  C   UNL A   1      32.169  20.060  23.706  1.00  0.00     0.001 A 
ATOM     24  C   UNL A   1      33.637  20.657  25.537  1.00  0.00     0.001 A 
ATOM     25  C   UNL A   1      32.755  19.757  24.936  1.00  0.00     0.000 A 
ENDBRANCH  18  20
ENDBRANCH  15  18
ENDBRANCH   8  10
ENDBRANCH   6   8
ENDBRANCH   5   6
ENDBRANCH   4   5
ENDBRANCH   3   4
ENDBRANCH   2   3
ENDBRANCH   1   2
BRANCH   1  26
ATOM     26  C   UNL A   1      34.450  30.254  27.891  1.00  0.00     0.188 C 
BRANCH  26  27
ATOM     27  O   UNL A   1      33.119  30.662  27.630  1.00  0.00    -0.376 OA
BRANCH  27  28
ATOM     28  C   UNL A   1      32.971  32.017  27.227  1.00  0.00     0.202 C 
BRANCH  28  29
ATOM     29  C   UNL A   1      33.838  32.996  28.032  1.00  0.00     0.261 C 
BRANCH  29  30
ATOM     30  O   UNL A   1      33.239  34.287  28.265  1.00  0.00    -0.460 OA
BRANCH  30  31
ATOM     31  C   UNL A   1      33.339  34.780  29.519  1.00  0.00     0.338 C 
ATOM     32  O   UNL A   1      32.522  35.497  30.086  1.00  0.00    -0.246 OA
BRANCH  31  33
ATOM     33  C   UNL A   1      34.486  34.132  30.190  1.00  0.00     0.060 A 
ATOM     34  C   UNL A   1      35.781  34.434  29.749  1.00  0.00     0.016 A 
ATOM     35  C   UNL A   1      34.296  33.231  31.241  1.00  0.00     0.016 A 
ATOM     36  C   UNL A   1      36.885  33.828  30.353  1.00  0.00     0.010 A 
ATOM     37  C   UNL A   1      35.406  32.610  31.831  1.00  0.00     0.010 A 
ATOM     38  C   UNL A   1      36.709  32.892  31.379  1.00  0.00    -0.014 A 
BRANCH  38  39
ATOM     39  C   UNL A   1      37.880  32.106  31.855  1.00  0.00     0.031 A 
ATOM     40  C   UNL A   1      38.473  32.428  33.201  1.00  0.00     0.074 A 
ATOM     41  C   UNL A   1      38.367  31.071  31.144  1.00  0.00     0.049 A 
ATOM     42  N   UNL A   1      39.494  31.886  33.815  1.00  0.00    -0.248 NA
ATOM     43  C   UNL A   1      37.818  33.506  33.957  1.00  0.00     0.031 C 
ATOM     44  C   UNL A   1      37.844  30.608  29.858  1.00  0.00     0.029 A 
ATOM     45  N   UNL A   1      39.410  30.216  31.407  1.00  0.00    -0.354 N 
ATOM     46  C   UNL A   1      39.606  32.555  35.029  1.00  0.00     0.074 A 
ATOM     47  C   UNL A   1      38.568  33.566  35.045  1.00  0.00     0.031 C 
ATOM     48  C   UNL A   1      38.571  29.554  29.447  1.00  0.00     0.029 A 
ATOM     49  C   UNL A   1      39.637  29.291  30.413  1.00  0.00     0.049 A 
ATOM     50  H   UNL A   1      39.947  30.260  32.232  1.00  0.00     0.167 HD
ATOM     51  C   UNL A   1      40.488  32.345  36.039  1.00  0.00     0.034 A 
ATOM     52  C   UNL A   1      40.606  28.360  30.283  1.00  0.00     0.034 A 
ATOM     53  C   UNL A   1      41.532  31.349  36.008  1.00  0.00     0.049 A 
ATOM     54  C   UNL A   1      41.642  28.216  31.375  1.00  0.00     0.074 A 
ATOM     55  C   UNL A   1      42.481  31.065  36.976  1.00  0.00     0.029 A 
ATOM     56  N   UNL A   1      41.777  30.481  34.952  1.00  0.00    -0.354 N 
ATOM     57  N   UNL A   1      41.747  28.867  32.512  1.00  0.00    -0.248 NA
ATOM     58  C   UNL A   1      42.688  27.206  31.166  1.00  0.00     0.031 C 
ATOM     59  C   UNL A   1      43.342  30.083  36.475  1.00  0.00     0.029 A 
ATOM     60  C   UNL A   1      42.882  29.687  35.230  1.00  0.00     0.049 A 
ATOM     61  H   UNL A   1      41.244  30.434  34.126  1.00  0.00     0.167 HD
ATOM     62  C   UNL A   1      42.853  28.321  33.163  1.00  0.00     0.074 A 
ATOM     63  C   UNL A   1      43.361  27.273  32.304  1.00  0.00     0.031 C 
ATOM     64  C   UNL A   1      43.400  28.656  34.361  1.00  0.00     0.034 A 
BRANCH  51  65
ATOM     65  C   UNL A   1      40.395  33.263  37.235  1.00  0.00     0.023 A 
ATOM     66  C   UNL A   1      39.805  32.853  38.443  1.00  0.00     0.031 A 
ATOM     67  C   UNL A   1      40.872  34.583  37.150  1.00  0.00     0.131 A 
ATOM     68  C   UNL A   1      39.645  33.773  39.492  1.00  0.00     0.055 A 
ATOM     69  C   UNL A   1      40.783  35.469  38.225  1.00  0.00     0.041 A 
ATOM     70  F   UNL A   1      41.421  35.040  36.013  1.00  0.00    -0.206 F 
ATOM     71  C   UNL A   1      40.154  35.070  39.400  1.00  0.00     0.022 A 
BRANCH  68  72
ATOM     72  S   UNL A   1      38.631  33.296  40.917  1.00  0.00     0.124 S 
ATOM     73  O   UNL A   1      38.523  31.851  40.733  1.00  0.00    -0.237 OA
ATOM     74  O   UNL A   1      39.444  33.737  42.044  1.00  0.00    -0.237 OA
ATOM     75  O   UNL A   1      37.387  34.037  40.717  1.00  0.00    -0.744 OA
ENDBRANCH  68  72
ENDBRANCH  51  65
BRANCH  52  76
ATOM     76  C   UNL A   1      40.698  27.519  29.051  1.00  0.00     0.023 A 
ATOM     77  C   UNL A   1      41.621  27.808  28.033  1.00  0.00     0.031 A 
ATOM     78  C   UNL A   1      39.795  26.461  28.838  1.00  0.00     0.131 A 
ATOM     79  C   UNL A   1      41.587  27.083  26.829  1.00  0.00     0.055 A 
ATOM     80  C   UNL A   1      39.805  25.705  27.665  1.00  0.00     0.041 A 
ATOM     81  F   UNL A   1      38.882  26.148  29.772  1.00  0.00    -0.206 F 
ATOM     82  C   UNL A   1      40.695  26.025  26.645  1.00  0.00     0.022 A 
BRANCH  79  83
ATOM     83  S   UNL A   1      42.660  27.610  25.464  1.00  0.00     0.124 S 
ATOM     84  O   UNL A   1      42.680  26.417  24.625  1.00  0.00    -0.237 OA
ATOM     85  O   UNL A   1      41.932  28.757  24.931  1.00  0.00    -0.237 OA
ATOM     86  O   UNL A   1      43.922  27.929  26.127  1.00  0.00    -0.744 OA
ENDBRANCH  79  83
ENDBRANCH  52  76
BRANCH  64  87
ATOM     87  C   UNL A   1      44.591  27.844  34.824  1.00  0.00     0.023 A 
ATOM     88  C   UNL A   1      44.437  26.650  35.550  1.00  0.00     0.031 A 
ATOM     89  C   UNL A   1      45.900  28.297  34.576  1.00  0.00     0.131 A 
ATOM     90  C   UNL A   1      45.565  25.995  36.073  1.00  0.00     0.055 A 
ATOM     91  C   UNL A   1      47.021  27.600  35.033  1.00  0.00     0.041 A 
ATOM     92  F   UNL A   1      46.114  29.432  33.890  1.00  0.00    -0.206 F 
ATOM     93  C   UNL A   1      46.856  26.453  35.804  1.00  0.00     0.022 A 
BRANCH  90  94
ATOM     94  S   UNL A   1      45.314  24.614  37.224  1.00  0.00     0.124 S 
ATOM     95  O   UNL A   1      44.329  25.166  38.148  1.00  0.00    -0.237 OA
ATOM     96  O   UNL A   1      44.837  23.555  36.340  1.00  0.00    -0.237 OA
ATOM     97  O   UNL A   1      46.643  24.395  37.791  1.00  0.00    -0.744 OA
ENDBRANCH  90  94
ENDBRANCH  64  87
ENDBRANCH  38  39
ENDBRANCH  31  33
ENDBRANCH  30  31
ENDBRANCH  29  30
ENDBRANCH  28  29
ENDBRANCH  27  28
ENDBRANCH  26  27
ENDBRANCH   1  26
TORSDOF 24
ENDMDL
MODEL 3
REMARK VINA RESULT:     -10.0      2.402      8.285
REMARK SMILES COc1ccc(C(=O)c2ccccc2)cc1[C@@H](C)C(=O)OCCOCCOCCOC(=O)c1ccc(-c2c3nc(c(-c4cc(S(=O)(=O)[O-])ccc4F)c4ccc([nH]4)c(-c4cc(S(=O)(=O)[O-])ccc4F)c4nc(c(-c5cc(S(=O)(=O)[O-])ccc5F)c5ccc2[nH]5)C=C4)C=C3)cc1
REMARK SMILES IDX 25 1 24 2 23 3 22 4 21 5 19 6 20 7 17 8 18 9 16 10 3 11 4 12
REMARK SMILES IDX 5 13 15 14 6 15 2 16 1 17 7 18 8 19 9 20 10 21 14 22 11 23
REMARK SMILES IDX 13 24 12 25 26 26 27 27 28 28 29 29 30 30 31 31 32 32 33 33
REMARK SMILES IDX 34 34 95 35 35 36 94 37 36 38 37 39 38 40 88 41 39 42 93 43
REMARK SMILES IDX 87 44 89 45 40 46 92 47 86 48 85 49 41 51 73 52 53 53 72 54
REMARK SMILES IDX 54 55 57 56 71 57 90 58 55 59 56 60 70 62 91 63 58 64 42 65
REMARK SMILES IDX 43 66 51 67 44 68 50 69 52 70 49 71 45 72 46 73 47 74 48 75
REMARK SMILES IDX 74 76 75 77 83 78 76 79 82 80 84 81 81 82 77 83 78 84 79 85
REMARK SMILES IDX 80 86 59 87 60 88 68 89 61 90 67 91 69 92 66 93 62 94 63 95
REMARK SMILES IDX 64 96 65 97
REMARK H PARENT 89 50 57 61
REMARK Flexibility Score: inf
ROOT
ATOM      1  C   UNL A   1      31.070  29.252  24.607  1.00  0.00     0.188 C 
ENDROOT
BRANCH   1   2
ATOM      2  O   UNL A   1      31.182  29.298  23.189  1.00  0.00    -0.376 OA
BRANCH   2   3
ATOM      3  C   UNL A   1      30.427  28.381  22.408  1.00  0.00     0.202 C 
BRANCH   3   4
ATOM      4  C   UNL A   1      30.727  26.886  22.563  1.00  0.00     0.261 C 
BRANCH   4   5
ATOM      5  O   UNL A   1      32.083  26.505  22.246  1.00  0.00    -0.463 OA
BRANCH   5   6
ATOM      6  C   UNL A   1      32.551  25.389  22.866  1.00  0.00     0.313 C 
ATOM      7  O   UNL A   1      32.563  24.283  22.333  1.00  0.00    -0.252 OA
BRANCH   6   8
ATOM      8  C   UNL A   1      33.047  25.576  24.302  1.00  0.00     0.130 C 
ATOM      9  C   UNL A   1      33.961  26.800  24.344  1.00  0.00     0.025 C 
BRANCH   8  10
ATOM     10  C   UNL A   1      33.706  24.422  25.055  1.00  0.00     0.009 A 
ATOM     11  C   UNL A   1      33.040  23.787  26.121  1.00  0.00     0.122 A 
ATOM     12  C   UNL A   1      33.634  22.742  26.836  1.00  0.00     0.047 A 
ATOM     13  C   UNL A   1      34.914  22.306  26.500  1.00  0.00     0.016 A 
ATOM     14  C   UNL A   1      35.009  23.984  24.754  1.00  0.00     0.020 A 
ATOM     15  C   UNL A   1      35.619  22.934  25.468  1.00  0.00     0.023 A 
BRANCH  11  16
ATOM     16  O   UNL A   1      31.835  24.279  26.550  1.00  0.00    -0.496 OA
ATOM     17  C   UNL A   1      30.874  23.237  26.722  1.00  0.00     0.278 C 
ENDBRANCH  11  16
BRANCH  15  18
ATOM     18  C   UNL A   1      36.988  22.430  25.140  1.00  0.00     0.193 C 
ATOM     19  O   UNL A   1      37.176  21.710  24.162  1.00  0.00    -0.289 OA
BRANCH  18  20
ATOM     20  C   UNL A   1      38.159  22.818  25.953  1.00  0.00     0.022 A 
ATOM     21  C   UNL A   1      39.123  21.845  26.234  1.00  0.00     0.012 A 
ATOM     22  C   UNL A   1      38.321  24.130  26.413  1.00  0.00     0.012 A 
ATOM     23  C   UNL A   1      40.284  22.204  26.917  1.00  0.00     0.001 A 
ATOM     24  C   UNL A   1      39.491  24.486  27.082  1.00  0.00     0.001 A 
ATOM     25  C   UNL A   1      40.474  23.525  27.324  1.00  0.00     0.000 A 
ENDBRANCH  18  20
ENDBRANCH  15  18
ENDBRANCH   8  10
ENDBRANCH   6   8
ENDBRANCH   5   6
ENDBRANCH   4   5
ENDBRANCH   3   4
ENDBRANCH   2   3
ENDBRANCH   1   2
BRANCH   1  26
ATOM     26  C   UNL A   1      31.302  30.533  25.422  1.00  0.00     0.188 C 
BRANCH  26  27
ATOM     27  O   UNL A   1      31.729  30.337  26.758  1.00  0.00    -0.376 OA
BRANCH  27  28
ATOM     28  C   UNL A   1      32.404  29.110  27.002  1.00  0.00     0.202 C 
BRANCH  28  29
ATOM     29  C   UNL A   1      33.919  29.269  27.194  1.00  0.00     0.261 C 
BRANCH  29  30
ATOM     30  O   UNL A   1      34.427  30.595  26.943  1.00  0.00    -0.460 OA
BRANCH  30  31
ATOM     31  C   UNL A   1      34.714  31.347  28.029  1.00  0.00     0.338 C 
ATOM     32  O   UNL A   1      33.971  32.159  28.568  1.00  0.00    -0.246 OA
BRANCH  31  33
ATOM     33  C   UNL A   1      35.989  30.871  28.607  1.00  0.00     0.060 A 
ATOM     34  C   UNL A   1      35.958  29.804  29.514  1.00  0.00     0.016 A 
ATOM     35  C   UNL A   1      37.205  31.467  28.267  1.00  0.00     0.016 A 
ATOM     36  C   UNL A   1      37.143  29.340  30.089  1.00  0.00     0.010 A 
ATOM     37  C   UNL A   1      38.391  31.011  28.862  1.00  0.00     0.010 A 
ATOM     38  C   UNL A   1      38.366  29.954  29.791  1.00  0.00    -0.014 A 
BRANCH  38  39
ATOM     39  C   UNL A   1      39.576  29.584  30.575  1.00  0.00     0.031 A 
ATOM     40  C   UNL A   1      39.811  30.252  31.904  1.00  0.00     0.074 A 
ATOM     41  C   UNL A   1      40.415  28.617  30.158  1.00  0.00     0.049 A 
ATOM     42  N   UNL A   1      40.795  30.096  32.754  1.00  0.00    -0.248 NA
ATOM     43  C   UNL A   1      38.793  31.222  32.332  1.00  0.00     0.031 C 
ATOM     44  C   UNL A   1      40.267  27.844  28.925  1.00  0.00     0.029 A 
ATOM     45  N   UNL A   1      41.559  28.116  30.731  1.00  0.00    -0.354 N 
ATOM     46  C   UNL A   1      40.517  30.948  33.817  1.00  0.00     0.074 A 
ATOM     47  C   UNL A   1      39.289  31.642  33.485  1.00  0.00     0.031 C 
ATOM     48  C   UNL A   1      41.283  26.967  28.837  1.00  0.00     0.029 A 
ATOM     49  C   UNL A   1      42.178  27.143  29.981  1.00  0.00     0.049 A 
ATOM     50  H   UNL A   1      41.904  28.424  31.601  1.00  0.00     0.167 HD
ATOM     51  C   UNL A   1      41.215  31.133  34.966  1.00  0.00     0.034 A 
ATOM     52  C   UNL A   1      43.344  26.490  30.177  1.00  0.00     0.034 A 
ATOM     53  C   UNL A   1      42.448  30.453  35.282  1.00  0.00     0.049 A 
ATOM     54  C   UNL A   1      44.158  26.791  31.415  1.00  0.00     0.074 A 
ATOM     55  C   UNL A   1      43.236  30.578  36.414  1.00  0.00     0.029 A 
ATOM     56  N   UNL A   1      43.083  29.529  34.462  1.00  0.00    -0.354 N 
ATOM     57  N   UNL A   1      43.892  27.611  32.406  1.00  0.00    -0.248 NA
ATOM     58  C   UNL A   1      45.430  26.070  31.561  1.00  0.00     0.031 C 
ATOM     59  C   UNL A   1      44.380  29.792  36.245  1.00  0.00     0.029 A 
ATOM     60  C   UNL A   1      44.269  29.104  35.048  1.00  0.00     0.049 A 
ATOM     61  H   UNL A   1      42.742  29.219  33.593  1.00  0.00     0.167 HD
ATOM     62  C   UNL A   1      44.951  27.480  33.305  1.00  0.00     0.074 A 
ATOM     63  C   UNL A   1      45.841  26.483  32.749  1.00  0.00     0.031 C 
ATOM     64  C   UNL A   1      45.167  28.125  34.480  1.00  0.00     0.034 A 
BRANCH  51  65
ATOM     65  C   UNL A   1      40.687  32.166  35.933  1.00  0.00     0.023 A 
ATOM     66  C   UNL A   1      39.625  31.887  36.812  1.00  0.00     0.031 A 
ATOM     67  C   UNL A   1      41.232  33.462  35.949  1.00  0.00     0.131 A 
ATOM     68  C   UNL A   1      39.097  32.909  37.617  1.00  0.00     0.055 A 
ATOM     69  C   UNL A   1      40.755  34.451  36.812  1.00  0.00     0.041 A 
ATOM     70  F   UNL A   1      42.229  33.794  35.115  1.00  0.00    -0.206 F 
ATOM     71  C   UNL A   1      39.672  34.182  37.642  1.00  0.00     0.022 A 
BRANCH  68  72
ATOM     72  S   UNL A   1      37.556  32.593  38.520  1.00  0.00     0.124 S 
ATOM     73  O   UNL A   1      37.737  33.419  39.711  1.00  0.00    -0.237 OA
ATOM     74  O   UNL A   1      36.540  33.046  37.577  1.00  0.00    -0.237 OA
ATOM     75  O   UNL A   1      37.588  31.151  38.758  1.00  0.00    -0.744 OA
ENDBRANCH  68  72
ENDBRANCH  51  65
BRANCH  52  76
ATOM     76  C   UNL A   1      43.859  25.525  29.159  1.00  0.00     0.023 A 
ATOM     77  C   UNL A   1      44.394  25.964  27.937  1.00  0.00     0.031 A 
ATOM     78  C   UNL A   1      43.742  24.137  29.364  1.00  0.00     0.131 A 
ATOM     79  C   UNL A   1      44.741  25.029  26.947  1.00  0.00     0.055 A 
ATOM     80  C   UNL A   1      44.145  23.211  28.401  1.00  0.00     0.041 A 
ATOM     81  F   UNL A   1      43.228  23.661  30.509  1.00  0.00    -0.206 F 
ATOM     82  C   UNL A   1      44.634  23.655  27.177  1.00  0.00     0.022 A 
BRANCH  79  83
ATOM     83  S   UNL A   1      45.243  25.635  25.312  1.00  0.00     0.124 S 
ATOM     84  O   UNL A   1      45.298  24.399  24.541  1.00  0.00    -0.237 OA
ATOM     85  O   UNL A   1      44.154  26.550  24.981  1.00  0.00    -0.237 OA
ATOM     86  O   UNL A   1      46.533  26.272  25.566  1.00  0.00    -0.744 OA
ENDBRANCH  79  83
ENDBRANCH  52  76
BRANCH  64  87
ATOM     87  C   UNL A   1      46.404  27.734  35.261  1.00  0.00     0.023 A 
ATOM     88  C   UNL A   1      46.378  26.717  36.232  1.00  0.00     0.031 A 
ATOM     89  C   UNL A   1      47.617  28.421  35.065  1.00  0.00     0.131 A 
ATOM     90  C   UNL A   1      47.512  26.472  37.025  1.00  0.00     0.055 A 
ATOM     91  C   UNL A   1      48.763  28.122  35.804  1.00  0.00     0.041 A 
ATOM     92  F   UNL A   1      47.706  29.405  34.155  1.00  0.00    -0.206 F 
ATOM     93  C   UNL A   1      48.709  27.156  36.805  1.00  0.00     0.022 A 
BRANCH  90  94
ATOM     94  S   UNL A   1      47.358  25.344  38.438  1.00  0.00     0.124 S 
ATOM     95  O   UNL A   1      47.721  24.062  37.843  1.00  0.00    -0.237 OA
ATOM     96  O   UNL A   1      48.317  25.902  39.387  1.00  0.00    -0.237 OA
ATOM     97  O   UNL A   1      45.955  25.472  38.828  1.00  0.00    -0.744 OA
ENDBRANCH  90  94
ENDBRANCH  64  87
ENDBRANCH  38  39
ENDBRANCH  31  33
ENDBRANCH  30  31
ENDBRANCH  29  30
ENDBRANCH  28  29
ENDBRANCH  27  28
ENDBRANCH  26  27
ENDBRANCH   1  26
TORSDOF 24
ENDMDL
