MODEL 1
REMARK VINA RESULT:      -9.0      0.000      0.000
REMARK SMILES CC[C@@H](NC(=O)N1CCO[C@H](CC(=O)OCCOCCOCCOC(=O)c2ccc(-c3c4nc(c(-c5cc(S(=O)(=O)[O-])ccc5F)c5ccc([nH]5)c(-c5cc(S(=O)(=O)[O-])ccc5F)c5nc(c(-c6cc(S(=O)(=O)[O-])ccc6F)c6ccc3[nH]6)C=C5)C=C4)cc2)C1)c1cccs1
REMARK SMILES IDX 19 1 18 2 17 3 16 4 15 5 13 6 14 7 12 8 11 9 7 10 8 11 90 12
REMARK SMILES IDX 9 13 10 14 5 15 4 16 6 18 3 19 2 20 1 21 91 22 92 23 95 24
REMARK SMILES IDX 93 25 94 26 20 27 21 28 22 29 23 30 24 31 25 32 26 33 27 34
REMARK SMILES IDX 28 35 89 36 29 37 88 38 30 39 31 40 32 41 82 42 33 43 87 44
REMARK SMILES IDX 81 45 83 46 34 47 86 48 80 49 79 50 35 52 67 53 47 54 66 55
REMARK SMILES IDX 48 56 51 57 65 58 84 59 49 60 50 61 64 63 85 64 52 65 36 66
REMARK SMILES IDX 37 67 45 68 38 69 44 70 46 71 43 72 39 73 40 74 41 75 42 76
REMARK SMILES IDX 68 77 69 78 77 79 70 80 76 81 78 82 75 83 71 84 72 85 73 86
REMARK SMILES IDX 74 87 53 88 54 89 62 90 55 91 61 92 63 93 60 94 56 95 57 96
REMARK SMILES IDX 58 97 59 98
REMARK H PARENT 4 17 83 51 51 62
REMARK Flexibility Score: inf
ROOT
ATOM      1  C   UNL A   1      40.475  21.666  27.314  1.00  0.00     0.188 C 
ENDROOT
BRANCH   1   2
ATOM      2  O   UNL A   1      39.740  22.836  26.963  1.00  0.00    -0.376 OA
BRANCH   2   3
ATOM      3  C   UNL A   1      38.495  22.512  26.350  1.00  0.00     0.202 C 
BRANCH   3   4
ATOM      4  C   UNL A   1      37.957  23.639  25.455  1.00  0.00     0.261 C 
BRANCH   4   5
ATOM      5  O   UNL A   1      36.549  23.492  25.141  1.00  0.00    -0.463 OA
BRANCH   5   6
ATOM      6  C   UNL A   1      36.223  23.181  23.854  1.00  0.00     0.308 C 
ATOM      7  O   UNL A   1      36.955  23.361  22.890  1.00  0.00    -0.252 OA
BRANCH   6   8
ATOM      8  C   UNL A   1      34.807  22.688  23.724  1.00  0.00     0.156 C 
BRANCH   8   9
ATOM      9  C   UNL A   1      33.770  23.386  22.830  1.00  0.00     0.149 C 
ATOM     10  N   UNL A   1      31.996  23.826  24.458  1.00  0.00    -0.320 N 
ATOM     11  C   UNL A   1      31.006  23.209  23.599  1.00  0.00     0.150 C 
ATOM     12  C   UNL A   1      33.037  24.470  23.658  1.00  0.00     0.154 C 
ATOM     13  C   UNL A   1      31.671  22.122  22.768  1.00  0.00     0.182 C 
ATOM     14  O   UNL A   1      32.852  22.574  22.080  1.00  0.00    -0.374 OA
BRANCH  10  15
ATOM     15  C   UNL A   1      31.938  23.993  25.803  1.00  0.00     0.318 C 
ATOM     16  N   UNL A   1      31.914  25.219  26.385  1.00  0.00    -0.330 N 
ATOM     17  H   UNL A   1      32.623  25.366  27.052  1.00  0.00     0.166 HD
ATOM     18  O   UNL A   1      31.910  23.028  26.571  1.00  0.00    -0.249 OA
BRANCH  16  19
ATOM     19  C   UNL A   1      31.008  26.378  26.191  1.00  0.00     0.124 C 
BRANCH  19  20
ATOM     20  C   UNL A   1      29.765  26.029  25.344  1.00  0.00     0.027 C 
ATOM     21  C   UNL A   1      29.731  26.698  23.975  1.00  0.00     0.006 C 
ENDBRANCH  19  20
BRANCH  19  22
ATOM     22  C   UNL A   1      31.754  27.649  25.833  1.00  0.00     0.027 A 
ATOM     23  C   UNL A   1      32.547  27.900  24.722  1.00  0.00     0.017 A 
ATOM     24  S   UNL A   1      31.906  28.971  26.928  1.00  0.00    -0.147 S 
ATOM     25  C   UNL A   1      32.927  29.270  24.614  1.00  0.00     0.012 A 
ATOM     26  C   UNL A   1      32.585  29.983  25.737  1.00  0.00     0.065 A 
ENDBRANCH  19  22
ENDBRANCH  16  19
ENDBRANCH  10  15
ENDBRANCH   8   9
ENDBRANCH   6   8
ENDBRANCH   5   6
ENDBRANCH   4   5
ENDBRANCH   3   4
ENDBRANCH   2   3
ENDBRANCH   1   2
BRANCH   1  27
ATOM     27  C   UNL A   1      40.997  20.966  26.093  1.00  0.00     0.188 C 
BRANCH  27  28
ATOM     28  O   UNL A   1      41.076  19.547  26.254  1.00  0.00    -0.376 OA
BRANCH  28  29
ATOM     29  C   UNL A   1      42.375  19.115  26.660  1.00  0.00     0.202 C 
BRANCH  29  30
ATOM     30  C   UNL A   1      43.378  18.887  25.510  1.00  0.00     0.261 C 
BRANCH  30  31
ATOM     31  O   UNL A   1      44.504  19.790  25.577  1.00  0.00    -0.460 OA
BRANCH  31  32
ATOM     32  C   UNL A   1      44.514  20.803  24.666  1.00  0.00     0.338 C 
ATOM     33  O   UNL A   1      44.522  20.673  23.450  1.00  0.00    -0.246 OA
BRANCH  32  34
ATOM     34  C   UNL A   1      44.229  22.099  25.351  1.00  0.00     0.060 A 
ATOM     35  C   UNL A   1      43.692  23.148  24.583  1.00  0.00     0.016 A 
ATOM     36  C   UNL A   1      44.388  22.268  26.729  1.00  0.00     0.016 A 
ATOM     37  C   UNL A   1      43.355  24.369  25.175  1.00  0.00     0.010 A 
ATOM     38  C   UNL A   1      44.075  23.501  27.319  1.00  0.00     0.010 A 
ATOM     39  C   UNL A   1      43.595  24.569  26.539  1.00  0.00    -0.014 A 
BRANCH  39  40
ATOM     40  C   UNL A   1      43.648  25.952  27.084  1.00  0.00     0.031 A 
ATOM     41  C   UNL A   1      45.004  26.607  27.142  1.00  0.00     0.074 A 
ATOM     42  C   UNL A   1      42.558  26.616  27.510  1.00  0.00     0.049 A 
ATOM     43  N   UNL A   1      45.363  27.751  27.663  1.00  0.00    -0.248 NA
ATOM     44  C   UNL A   1      46.111  25.849  26.534  1.00  0.00     0.031 C 
ATOM     45  C   UNL A   1      41.184  26.124  27.450  1.00  0.00     0.029 A 
ATOM     46  N   UNL A   1      42.446  27.855  28.096  1.00  0.00    -0.354 N 
ATOM     47  C   UNL A   1      46.735  27.844  27.455  1.00  0.00     0.074 A 
ATOM     48  C   UNL A   1      47.148  26.626  26.793  1.00  0.00     0.031 C 
ATOM     49  C   UNL A   1      40.368  27.045  27.996  1.00  0.00     0.029 A 
ATOM     50  C   UNL A   1      41.164  28.173  28.481  1.00  0.00     0.049 A 
ATOM     51  H   UNL A   1      43.212  28.459  28.228  1.00  0.00     0.167 HD
ATOM     52  C   UNL A   1      47.578  28.854  27.781  1.00  0.00     0.034 A 
ATOM     53  C   UNL A   1      40.697  29.235  29.174  1.00  0.00     0.034 A 
ATOM     54  C   UNL A   1      47.161  30.052  28.462  1.00  0.00     0.049 A 
ATOM     55  C   UNL A   1      41.670  30.306  29.622  1.00  0.00     0.074 A 
ATOM     56  C   UNL A   1      47.926  31.136  28.847  1.00  0.00     0.029 A 
ATOM     57  N   UNL A   1      45.860  30.316  28.873  1.00  0.00    -0.354 N 
ATOM     58  N   UNL A   1      42.968  30.383  29.426  1.00  0.00    -0.248 NA
ATOM     59  C   UNL A   1      41.115  31.435  30.383  1.00  0.00     0.031 C 
ATOM     60  C   UNL A   1      47.106  32.022  29.555  1.00  0.00     0.029 A 
ATOM     61  C   UNL A   1      45.810  31.532  29.538  1.00  0.00     0.049 A 
ATOM     62  H   UNL A   1      45.088  29.727  28.716  1.00  0.00     0.167 HD
ATOM     63  C   UNL A   1      43.372  31.584  30.009  1.00  0.00     0.074 A 
ATOM     64  C   UNL A   1      42.182  32.201  30.555  1.00  0.00     0.031 C 
ATOM     65  C   UNL A   1      44.613  32.132  30.080  1.00  0.00     0.034 A 
BRANCH  52  66
ATOM     66  C   UNL A   1      49.039  28.656  27.460  1.00  0.00     0.023 A 
ATOM     67  C   UNL A   1      49.548  28.857  26.164  1.00  0.00     0.031 A 
ATOM     68  C   UNL A   1      49.926  28.201  28.452  1.00  0.00     0.131 A 
ATOM     69  C   UNL A   1      50.880  28.526  25.877  1.00  0.00     0.055 A 
ATOM     70  C   UNL A   1      51.272  27.955  28.179  1.00  0.00     0.041 A 
ATOM     71  F   UNL A   1      49.493  27.963  29.700  1.00  0.00    -0.206 F 
ATOM     72  C   UNL A   1      51.753  28.101  26.881  1.00  0.00     0.022 A 
BRANCH  69  73
ATOM     73  S   UNL A   1      51.414  28.506  24.142  1.00  0.00     0.124 S 
ATOM     74  O   UNL A   1      52.445  27.471  24.163  1.00  0.00    -0.237 OA
ATOM     75  O   UNL A   1      50.184  28.167  23.437  1.00  0.00    -0.237 OA
ATOM     76  O   UNL A   1      51.909  29.863  23.921  1.00  0.00    -0.744 OA
ENDBRANCH  69  73
ENDBRANCH  52  66
BRANCH  53  77
ATOM     77  C   UNL A   1      39.252  29.331  29.547  1.00  0.00     0.023 A 
ATOM     78  C   UNL A   1      38.390  30.236  28.904  1.00  0.00     0.031 A 
ATOM     79  C   UNL A   1      38.731  28.568  30.606  1.00  0.00     0.131 A 
ATOM     80  C   UNL A   1      37.068  30.386  29.355  1.00  0.00     0.055 A 
ATOM     81  C   UNL A   1      37.400  28.681  31.016  1.00  0.00     0.041 A 
ATOM     82  F   UNL A   1      39.512  27.698  31.266  1.00  0.00    -0.206 F 
ATOM     83  C   UNL A   1      36.563  29.605  30.396  1.00  0.00     0.022 A 
BRANCH  80  84
ATOM     84  S   UNL A   1      36.035  31.686  28.619  1.00  0.00     0.124 S 
ATOM     85  O   UNL A   1      35.403  30.974  27.516  1.00  0.00    -0.237 OA
ATOM     86  O   UNL A   1      35.164  32.049  29.732  1.00  0.00    -0.237 OA
ATOM     87  O   UNL A   1      37.002  32.710  28.230  1.00  0.00    -0.744 OA
ENDBRANCH  80  84
ENDBRANCH  53  77
BRANCH  65  88
ATOM     88  C   UNL A   1      44.737  33.495  30.720  1.00  0.00     0.023 A 
ATOM     89  C   UNL A   1      44.521  34.681  29.998  1.00  0.00     0.031 A 
ATOM     90  C   UNL A   1      45.068  33.603  32.083  1.00  0.00     0.131 A 
ATOM     91  C   UNL A   1      44.686  35.924  30.630  1.00  0.00     0.055 A 
ATOM     92  C   UNL A   1      45.172  34.839  32.721  1.00  0.00     0.041 A 
ATOM     93  F   UNL A   1      45.285  32.502  32.822  1.00  0.00    -0.206 F 
ATOM     94  C   UNL A   1      44.992  36.009  31.991  1.00  0.00     0.022 A 
BRANCH  91  95
ATOM     95  S   UNL A   1      44.577  37.434  29.631  1.00  0.00     0.124 S 
ATOM     96  O   UNL A   1      43.402  37.170  28.808  1.00  0.00    -0.237 OA
ATOM     97  O   UNL A   1      44.424  38.471  30.647  1.00  0.00    -0.237 OA
ATOM     98  O   UNL A   1      45.847  37.461  28.907  1.00  0.00    -0.744 OA
ENDBRANCH  91  95
ENDBRANCH  65  88
ENDBRANCH  39  40
ENDBRANCH  32  34
ENDBRANCH  31  32
ENDBRANCH  30  31
ENDBRANCH  29  30
ENDBRANCH  28  29
ENDBRANCH  27  28
ENDBRANCH   1  27
TORSDOF 25
ENDMDL
MODEL 2
REMARK VINA RESULT:      -8.6      4.609     10.029
REMARK SMILES CC[C@@H](NC(=O)N1CCO[C@H](CC(=O)OCCOCCOCCOC(=O)c2ccc(-c3c4nc(c(-c5cc(S(=O)(=O)[O-])ccc5F)c5ccc([nH]5)c(-c5cc(S(=O)(=O)[O-])ccc5F)c5nc(c(-c6cc(S(=O)(=O)[O-])ccc6F)c6ccc3[nH]6)C=C5)C=C4)cc2)C1)c1cccs1
REMARK SMILES IDX 19 1 18 2 17 3 16 4 15 5 13 6 14 7 12 8 11 9 7 10 8 11 90 12
REMARK SMILES IDX 9 13 10 14 5 15 4 16 6 18 3 19 2 20 1 21 91 22 92 23 95 24
REMARK SMILES IDX 93 25 94 26 20 27 21 28 22 29 23 30 24 31 25 32 26 33 27 34
REMARK SMILES IDX 28 35 89 36 29 37 88 38 30 39 31 40 32 41 82 42 33 43 87 44
REMARK SMILES IDX 81 45 83 46 34 47 86 48 80 49 79 50 35 52 67 53 47 54 66 55
REMARK SMILES IDX 48 56 51 57 65 58 84 59 49 60 50 61 64 63 85 64 52 65 36 66
REMARK SMILES IDX 37 67 45 68 38 69 44 70 46 71 43 72 39 73 40 74 41 75 42 76
REMARK SMILES IDX 68 77 69 78 77 79 70 80 76 81 78 82 75 83 71 84 72 85 73 86
REMARK SMILES IDX 74 87 53 88 54 89 62 90 55 91 61 92 63 93 60 94 56 95 57 96
REMARK SMILES IDX 58 97 59 98
REMARK H PARENT 4 17 83 51 51 62
REMARK Flexibility Score: inf
ROOT
ATOM      1  C   UNL A   1      32.711  31.059  26.962  1.00  0.00     0.188 C 
ENDROOT
BRANCH   1   2
ATOM      2  O   UNL A   1      31.872  29.949  26.654  1.00  0.00    -0.376 OA
BRANCH   2   3
ATOM      3  C   UNL A   1      31.557  29.895  25.265  1.00  0.00     0.202 C 
BRANCH   3   4
ATOM      4  C   UNL A   1      32.694  29.308  24.416  1.00  0.00     0.261 C 
BRANCH   4   5
ATOM      5  O   UNL A   1      32.271  28.935  23.079  1.00  0.00    -0.463 OA
BRANCH   5   6
ATOM      6  C   UNL A   1      32.879  27.857  22.507  1.00  0.00     0.308 C 
ATOM      7  O   UNL A   1      33.967  27.891  21.948  1.00  0.00    -0.252 OA
BRANCH   6   8
ATOM      8  C   UNL A   1      32.012  26.627  22.536  1.00  0.00     0.156 C 
BRANCH   8   9
ATOM      9  C   UNL A   1      31.589  25.947  23.848  1.00  0.00     0.149 C 
ATOM     10  N   UNL A   1      33.214  24.119  23.951  1.00  0.00    -0.320 N 
ATOM     11  C   UNL A   1      32.159  23.146  24.146  1.00  0.00     0.150 C 
ATOM     12  C   UNL A   1      32.849  25.397  24.561  1.00  0.00     0.154 C 
ATOM     13  C   UNL A   1      30.895  23.630  23.452  1.00  0.00     0.182 C 
ATOM     14  O   UNL A   1      30.530  24.977  23.809  1.00  0.00    -0.374 OA
BRANCH  10  15
ATOM     15  C   UNL A   1      34.460  23.905  23.459  1.00  0.00     0.318 C 
ATOM     16  N   UNL A   1      35.582  24.211  24.158  1.00  0.00    -0.330 N 
ATOM     17  H   UNL A   1      36.205  24.809  23.684  1.00  0.00     0.166 HD
ATOM     18  O   UNL A   1      34.635  23.421  22.338  1.00  0.00    -0.249 OA
BRANCH  16  19
ATOM     19  C   UNL A   1      36.035  23.806  25.512  1.00  0.00     0.124 C 
BRANCH  19  20
ATOM     20  C   UNL A   1      37.534  23.440  25.555  1.00  0.00     0.027 C 
ATOM     21  C   UNL A   1      38.367  24.316  26.483  1.00  0.00     0.006 C 
ENDBRANCH  19  20
BRANCH  19  22
ATOM     22  C   UNL A   1      35.071  22.849  26.188  1.00  0.00     0.027 A 
ATOM     23  C   UNL A   1      34.285  23.067  27.311  1.00  0.00     0.017 A 
ATOM     24  S   UNL A   1      34.968  21.183  25.758  1.00  0.00    -0.147 S 
ATOM     25  C   UNL A   1      33.353  22.012  27.544  1.00  0.00     0.012 A 
ATOM     26  C   UNL A   1      33.583  20.938  26.719  1.00  0.00     0.065 A 
ENDBRANCH  19  22
ENDBRANCH  16  19
ENDBRANCH  10  15
ENDBRANCH   8   9
ENDBRANCH   6   8
ENDBRANCH   5   6
ENDBRANCH   4   5
ENDBRANCH   3   4
ENDBRANCH   2   3
ENDBRANCH   1   2
BRANCH   1  27
ATOM     27  C   UNL A   1      31.988  32.359  26.757  1.00  0.00     0.188 C 
BRANCH  27  28
ATOM     28  O   UNL A   1      31.926  33.156  27.942  1.00  0.00    -0.376 OA
BRANCH  28  29
ATOM     29  C   UNL A   1      32.939  34.163  27.977  1.00  0.00     0.202 C 
BRANCH  29  30
ATOM     30  C   UNL A   1      33.819  34.162  29.244  1.00  0.00     0.261 C 
BRANCH  30  31
ATOM     31  O   UNL A   1      34.563  32.933  29.394  1.00  0.00    -0.460 OA
BRANCH  31  32
ATOM     32  C   UNL A   1      35.587  32.743  28.516  1.00  0.00     0.338 C 
ATOM     33  O   UNL A   1      35.695  33.267  27.417  1.00  0.00    -0.246 OA
BRANCH  32  34
ATOM     34  C   UNL A   1      36.704  32.021  29.195  1.00  0.00     0.060 A 
ATOM     35  C   UNL A   1      37.993  32.579  29.118  1.00  0.00     0.016 A 
ATOM     36  C   UNL A   1      36.495  30.879  29.973  1.00  0.00     0.016 A 
ATOM     37  C   UNL A   1      39.073  31.980  29.775  1.00  0.00     0.010 A 
ATOM     38  C   UNL A   1      37.581  30.264  30.611  1.00  0.00     0.010 A 
ATOM     39  C   UNL A   1      38.881  30.788  30.483  1.00  0.00    -0.014 A 
BRANCH  39  40
ATOM     40  C   UNL A   1      40.050  29.931  30.815  1.00  0.00     0.031 A 
ATOM     41  C   UNL A   1      40.842  30.309  32.041  1.00  0.00     0.074 A 
ATOM     42  C   UNL A   1      40.410  28.862  30.081  1.00  0.00     0.049 A 
ATOM     43  N   UNL A   1      41.960  29.814  32.504  1.00  0.00    -0.248 NA
ATOM     44  C   UNL A   1      40.293  31.412  32.847  1.00  0.00     0.031 C 
ATOM     45  C   UNL A   1      39.695  28.353  28.913  1.00  0.00     0.029 A 
ATOM     46  N   UNL A   1      41.488  28.019  30.210  1.00  0.00    -0.354 N 
ATOM     47  C   UNL A   1      42.252  30.552  33.646  1.00  0.00     0.074 A 
ATOM     48  C   UNL A   1      41.214  31.549  33.784  1.00  0.00     0.031 C 
ATOM     49  C   UNL A   1      40.366  27.295  28.421  1.00  0.00     0.029 A 
ATOM     50  C   UNL A   1      41.578  27.076  29.211  1.00  0.00     0.049 A 
ATOM     51  H   UNL A   1      42.136  28.083  30.949  1.00  0.00     0.167 HD
ATOM     52  C   UNL A   1      43.289  30.411  34.507  1.00  0.00     0.034 A 
ATOM     53  C   UNL A   1      42.544  26.168  28.951  1.00  0.00     0.034 A 
ATOM     54  C   UNL A   1      44.330  29.430  34.347  1.00  0.00     0.049 A 
ATOM     55  C   UNL A   1      43.749  26.094  29.866  1.00  0.00     0.074 A 
ATOM     56  C   UNL A   1      45.430  29.201  35.152  1.00  0.00     0.029 A 
ATOM     57  N   UNL A   1      44.408  28.522  33.298  1.00  0.00    -0.354 N 
ATOM     58  N   UNL A   1      44.021  26.801  30.941  1.00  0.00    -0.248 NA
ATOM     59  C   UNL A   1      44.778  25.098  29.532  1.00  0.00     0.031 C 
ATOM     60  C   UNL A   1      46.211  28.206  34.554  1.00  0.00     0.029 A 
ATOM     61  C   UNL A   1      45.555  27.754  33.419  1.00  0.00     0.049 A 
ATOM     62  H   UNL A   1      43.745  28.437  32.575  1.00  0.00     0.167 HD
ATOM     63  C   UNL A   1      45.231  26.307  31.427  1.00  0.00     0.074 A 
ATOM     64  C   UNL A   1      45.633  25.240  30.535  1.00  0.00     0.031 C 
ATOM     65  C   UNL A   1      45.943  26.695  32.517  1.00  0.00     0.034 A 
BRANCH  52  66
ATOM     66  C   UNL A   1      43.366  31.393  35.652  1.00  0.00     0.023 A 
ATOM     67  C   UNL A   1      44.130  32.571  35.568  1.00  0.00     0.031 A 
ATOM     68  C   UNL A   1      42.716  31.113  36.867  1.00  0.00     0.131 A 
ATOM     69  C   UNL A   1      44.289  33.382  36.702  1.00  0.00     0.055 A 
ATOM     70  C   UNL A   1      42.810  31.970  37.965  1.00  0.00     0.041 A 
ATOM     71  F   UNL A   1      41.997  29.989  37.016  1.00  0.00    -0.206 F 
ATOM     72  C   UNL A   1      43.614  33.104  37.892  1.00  0.00     0.022 A 
BRANCH  69  73
ATOM     73  S   UNL A   1      45.517  34.717  36.647  1.00  0.00     0.124 S 
ATOM     74  O   UNL A   1      46.755  33.970  36.431  1.00  0.00    -0.237 OA
ATOM     75  O   UNL A   1      45.055  35.525  35.525  1.00  0.00    -0.237 OA
ATOM     76  O   UNL A   1      45.400  35.345  37.961  1.00  0.00    -0.744 OA
ENDBRANCH  69  73
ENDBRANCH  52  66
BRANCH  53  77
ATOM     77  C   UNL A   1      42.460  25.285  27.748  1.00  0.00     0.023 A 
ATOM     78  C   UNL A   1      41.876  24.009  27.816  1.00  0.00     0.031 A 
ATOM     79  C   UNL A   1      43.033  25.679  26.525  1.00  0.00     0.131 A 
ATOM     80  C   UNL A   1      41.917  23.157  26.700  1.00  0.00     0.055 A 
ATOM     81  C   UNL A   1      43.024  24.850  25.401  1.00  0.00     0.041 A 
ATOM     82  F   UNL A   1      43.619  26.881  26.405  1.00  0.00    -0.206 F 
ATOM     83  C   UNL A   1      42.473  23.574  25.489  1.00  0.00     0.022 A 
BRANCH  80  84
ATOM     84  S   UNL A   1      41.311  21.454  26.876  1.00  0.00     0.124 S 
ATOM     85  O   UNL A   1      42.544  20.727  27.149  1.00  0.00    -0.237 OA
ATOM     86  O   UNL A   1      40.377  21.578  27.990  1.00  0.00    -0.237 OA
ATOM     87  O   UNL A   1      40.695  21.175  25.580  1.00  0.00    -0.744 OA
ENDBRANCH  80  84
ENDBRANCH  53  77
BRANCH  65  88
ATOM     88  C   UNL A   1      47.200  25.920  32.839  1.00  0.00     0.023 A 
ATOM     89  C   UNL A   1      47.200  24.838  33.736  1.00  0.00     0.031 A 
ATOM     90  C   UNL A   1      48.417  26.270  32.227  1.00  0.00     0.131 A 
ATOM     91  C   UNL A   1      48.402  24.175  34.031  1.00  0.00     0.055 A 
ATOM     92  C   UNL A   1      49.597  25.570  32.478  1.00  0.00     0.041 A 
ATOM     93  F   UNL A   1      48.476  27.296  31.362  1.00  0.00    -0.206 F 
ATOM     94  C   UNL A   1      49.596  24.523  33.393  1.00  0.00     0.022 A 
BRANCH  91  95
ATOM     95  S   UNL A   1      48.405  22.901  35.323  1.00  0.00     0.124 S 
ATOM     96  O   UNL A   1      49.760  23.010  35.853  1.00  0.00    -0.237 OA
ATOM     97  O   UNL A   1      47.336  23.351  36.208  1.00  0.00    -0.237 OA
ATOM     98  O   UNL A   1      48.123  21.668  34.591  1.00  0.00    -0.744 OA
ENDBRANCH  91  95
ENDBRANCH  65  88
ENDBRANCH  39  40
ENDBRANCH  32  34
ENDBRANCH  31  32
ENDBRANCH  30  31
ENDBRANCH  29  30
ENDBRANCH  28  29
ENDBRANCH  27  28
ENDBRANCH   1  27
TORSDOF 25
ENDMDL
MODEL 3
REMARK VINA RESULT:      -8.5      6.216     11.736
REMARK SMILES CC[C@@H](NC(=O)N1CCO[C@H](CC(=O)OCCOCCOCCOC(=O)c2ccc(-c3c4nc(c(-c5cc(S(=O)(=O)[O-])ccc5F)c5ccc([nH]5)c(-c5cc(S(=O)(=O)[O-])ccc5F)c5nc(c(-c6cc(S(=O)(=O)[O-])ccc6F)c6ccc3[nH]6)C=C5)C=C4)cc2)C1)c1cccs1
REMARK SMILES IDX 19 1 18 2 17 3 16 4 15 5 13 6 14 7 12 8 11 9 7 10 8 11 90 12
REMARK SMILES IDX 9 13 10 14 5 15 4 16 6 18 3 19 2 20 1 21 91 22 92 23 95 24
REMARK SMILES IDX 93 25 94 26 20 27 21 28 22 29 23 30 24 31 25 32 26 33 27 34
REMARK SMILES IDX 28 35 89 36 29 37 88 38 30 39 31 40 32 41 82 42 33 43 87 44
REMARK SMILES IDX 81 45 83 46 34 47 86 48 80 49 79 50 35 52 67 53 47 54 66 55
REMARK SMILES IDX 48 56 51 57 65 58 84 59 49 60 50 61 64 63 85 64 52 65 36 66
REMARK SMILES IDX 37 67 45 68 38 69 44 70 46 71 43 72 39 73 40 74 41 75 42 76
REMARK SMILES IDX 68 77 69 78 77 79 70 80 76 81 78 82 75 83 71 84 72 85 73 86
REMARK SMILES IDX 74 87 53 88 54 89 62 90 55 91 61 92 63 93 60 94 56 95 57 96
REMARK SMILES IDX 58 97 59 98
REMARK H PARENT 4 17 83 51 51 62
REMARK Flexibility Score: inf
ROOT
ATOM      1  C   UNL A   1      33.159  30.602  27.212  1.00  0.00     0.188 C 
ENDROOT
BRANCH   1   2
ATOM      2  O   UNL A   1      33.025  29.239  26.816  1.00  0.00    -0.376 OA
BRANCH   2   3
ATOM      3  C   UNL A   1      31.805  28.672  27.283  1.00  0.00     0.202 C 
BRANCH   3   4
ATOM      4  C   UNL A   1      31.709  27.161  27.024  1.00  0.00     0.261 C 
BRANCH   4   5
ATOM      5  O   UNL A   1      30.499  26.780  26.320  1.00  0.00    -0.463 OA
BRANCH   5   6
ATOM      6  C   UNL A   1      30.363  25.468  25.973  1.00  0.00     0.308 C 
ATOM      7  O   UNL A   1      29.949  24.593  26.721  1.00  0.00    -0.252 OA
BRANCH   6   8
ATOM      8  C   UNL A   1      30.887  25.183  24.592  1.00  0.00     0.156 C 
BRANCH   8   9
ATOM      9  C   UNL A   1      31.116  26.292  23.552  1.00  0.00     0.149 C 
ATOM     10  N   UNL A   1      32.941  25.313  22.247  1.00  0.00    -0.320 N 
ATOM     11  C   UNL A   1      33.736  26.515  22.391  1.00  0.00     0.150 C 
ATOM     12  C   UNL A   1      31.517  25.644  22.203  1.00  0.00     0.154 C 
ATOM     13  C   UNL A   1      33.392  27.188  23.711  1.00  0.00     0.182 C 
ATOM     14  O   UNL A   1      31.978  27.389  23.895  1.00  0.00    -0.374 OA
BRANCH  10  15
ATOM     15  C   UNL A   1      33.378  24.054  21.989  1.00  0.00     0.318 C 
ATOM     16  N   UNL A   1      33.930  23.265  22.944  1.00  0.00    -0.330 N 
ATOM     17  H   UNL A   1      34.826  22.922  22.720  1.00  0.00     0.166 HD
ATOM     18  O   UNL A   1      33.297  23.563  20.860  1.00  0.00    -0.249 OA
BRANCH  16  19
ATOM     19  C   UNL A   1      33.425  22.830  24.270  1.00  0.00     0.124 C 
BRANCH  19  20
ATOM     20  C   UNL A   1      34.025  23.645  25.435  1.00  0.00     0.027 C 
ATOM     21  C   UNL A   1      33.401  23.351  26.794  1.00  0.00     0.006 C 
ENDBRANCH  19  20
BRANCH  19  22
ATOM     22  C   UNL A   1      33.406  21.320  24.421  1.00  0.00     0.027 A 
ATOM     23  C   UNL A   1      32.317  20.462  24.372  1.00  0.00     0.017 A 
ATOM     24  S   UNL A   1      34.792  20.424  24.917  1.00  0.00    -0.147 S 
ATOM     25  C   UNL A   1      32.698  19.087  24.355  1.00  0.00     0.012 A 
ATOM     26  C   UNL A   1      34.043  18.930  24.588  1.00  0.00     0.065 A 
ENDBRANCH  19  22
ENDBRANCH  16  19
ENDBRANCH  10  15
ENDBRANCH   8   9
ENDBRANCH   6   8
ENDBRANCH   5   6
ENDBRANCH   4   5
ENDBRANCH   3   4
ENDBRANCH   2   3
ENDBRANCH   1   2
BRANCH   1  27
ATOM     27  C   UNL A   1      34.494  30.854  27.850  1.00  0.00     0.188 C 
BRANCH  27  28
ATOM     28  O   UNL A   1      35.140  32.026  27.346  1.00  0.00    -0.376 OA
BRANCH  28  29
ATOM     29  C   UNL A   1      35.396  32.991  28.368  1.00  0.00     0.202 C 
BRANCH  29  30
ATOM     30  C   UNL A   1      34.342  34.110  28.490  1.00  0.00     0.261 C 
BRANCH  30  31
ATOM     31  O   UNL A   1      33.385  33.849  29.540  1.00  0.00    -0.460 OA
BRANCH  31  32
ATOM     32  C   UNL A   1      33.486  34.631  30.651  1.00  0.00     0.338 C 
ATOM     33  O   UNL A   1      32.674  35.469  31.014  1.00  0.00    -0.246 OA
BRANCH  32  34
ATOM     34  C   UNL A   1      34.592  34.128  31.520  1.00  0.00     0.060 A 
ATOM     35  C   UNL A   1      35.612  35.028  31.877  1.00  0.00     0.016 A 
ATOM     36  C   UNL A   1      34.592  32.839  32.060  1.00  0.00     0.016 A 
ATOM     37  C   UNL A   1      36.648  34.634  32.730  1.00  0.00     0.010 A 
ATOM     38  C   UNL A   1      35.644  32.435  32.894  1.00  0.00     0.010 A 
ATOM     39  C   UNL A   1      36.697  33.317  33.201  1.00  0.00    -0.014 A 
BRANCH  39  40
ATOM     40  C   UNL A   1      37.973  32.773  33.738  1.00  0.00     0.031 A 
ATOM     41  C   UNL A   1      38.259  33.027  35.196  1.00  0.00     0.074 A 
ATOM     42  C   UNL A   1      38.850  32.081  32.988  1.00  0.00     0.049 A 
ATOM     43  N   UNL A   1      39.330  32.768  35.899  1.00  0.00    -0.248 NA
ATOM     44  C   UNL A   1      37.181  33.678  35.959  1.00  0.00     0.031 C 
ATOM     45  C   UNL A   1      38.665  31.713  31.586  1.00  0.00     0.029 A 
ATOM     46  N   UNL A   1      40.088  31.577  33.308  1.00  0.00    -0.354 N 
ATOM     47  C   UNL A   1      39.058  33.234  37.182  1.00  0.00     0.074 A 
ATOM     48  C   UNL A   1      37.738  33.822  37.149  1.00  0.00     0.031 C 
ATOM     49  C   UNL A   1      39.761  31.056  31.162  1.00  0.00     0.029 A 
ATOM     50  C   UNL A   1      40.741  30.993  32.247  1.00  0.00     0.049 A 
ATOM     51  H   UNL A   1      40.472  31.627  34.214  1.00  0.00     0.167 HD
ATOM     52  C   UNL A   1      39.836  33.174  38.290  1.00  0.00     0.034 A 
ATOM     53  C   UNL A   1      41.995  30.499  32.157  1.00  0.00     0.034 A 
ATOM     54  C   UNL A   1      41.159  32.607  38.306  1.00  0.00     0.049 A 
ATOM     55  C   UNL A   1      42.889  30.534  33.380  1.00  0.00     0.074 A 
ATOM     56  C   UNL A   1      42.039  32.499  39.367  1.00  0.00     0.029 A 
ATOM     57  N   UNL A   1      41.802  32.066  37.199  1.00  0.00    -0.354 N 
ATOM     58  N   UNL A   1      42.626  30.983  34.588  1.00  0.00    -0.248 NA
ATOM     59  C   UNL A   1      44.249  29.995  33.228  1.00  0.00     0.031 C 
ATOM     60  C   UNL A   1      43.238  31.960  38.888  1.00  0.00     0.029 A 
ATOM     61  C   UNL A   1      43.078  31.653  37.547  1.00  0.00     0.049 A 
ATOM     62  H   UNL A   1      41.408  31.988  36.300  1.00  0.00     0.167 HD
ATOM     63  C   UNL A   1      43.775  30.745  35.342  1.00  0.00     0.074 A 
ATOM     64  C   UNL A   1      44.727  30.109  34.458  1.00  0.00     0.031 C 
ATOM     65  C   UNL A   1      44.019  31.021  36.650  1.00  0.00     0.034 A 
BRANCH  52  66
ATOM     66  C   UNL A   1      39.285  33.803  39.547  1.00  0.00     0.023 A 
ATOM     67  C   UNL A   1      38.458  33.088  40.432  1.00  0.00     0.031 A 
ATOM     68  C   UNL A   1      39.541  35.156  39.832  1.00  0.00     0.131 A 
ATOM     69  C   UNL A   1      37.853  33.750  41.511  1.00  0.00     0.055 A 
ATOM     70  C   UNL A   1      39.005  35.785  40.955  1.00  0.00     0.041 A 
ATOM     71  F   UNL A   1      40.299  35.897  39.007  1.00  0.00    -0.206 F 
ATOM     72  C   UNL A   1      38.141  35.087  41.794  1.00  0.00     0.022 A 
BRANCH  69  73
ATOM     73  S   UNL A   1      36.562  32.883  42.446  1.00  0.00     0.124 S 
ATOM     74  O   UNL A   1      35.595  33.954  42.677  1.00  0.00    -0.237 OA
ATOM     75  O   UNL A   1      36.148  31.838  41.518  1.00  0.00    -0.237 OA
ATOM     76  O   UNL A   1      37.259  32.417  43.643  1.00  0.00    -0.744 OA
ENDBRANCH  69  73
ENDBRANCH  52  66
BRANCH  53  77
ATOM     77  C   UNL A   1      42.521  29.974  30.860  1.00  0.00     0.023 A 
ATOM     78  C   UNL A   1      42.524  28.598  30.574  1.00  0.00     0.031 A 
ATOM     79  C   UNL A   1      43.097  30.841  29.914  1.00  0.00     0.131 A 
ATOM     80  C   UNL A   1      43.130  28.126  29.398  1.00  0.00     0.055 A 
ATOM     81  C   UNL A   1      43.651  30.373  28.720  1.00  0.00     0.041 A 
ATOM     82  F   UNL A   1      43.136  32.164  30.139  1.00  0.00    -0.206 F 
ATOM     83  C   UNL A   1      43.680  29.006  28.462  1.00  0.00     0.022 A 
BRANCH  80  84
ATOM     84  S   UNL A   1      43.273  26.334  29.145  1.00  0.00     0.124 S 
ATOM     85  O   UNL A   1      43.779  25.891  30.438  1.00  0.00    -0.237 OA
ATOM     86  O   UNL A   1      41.897  25.961  28.832  1.00  0.00    -0.237 OA
ATOM     87  O   UNL A   1      44.214  26.220  28.033  1.00  0.00    -0.744 OA
ENDBRANCH  80  84
ENDBRANCH  53  77
BRANCH  65  88
ATOM     88  C   UNL A   1      45.347  30.580  37.218  1.00  0.00     0.023 A 
ATOM     89  C   UNL A   1      46.468  31.428  37.240  1.00  0.00     0.031 A 
ATOM     90  C   UNL A   1      45.486  29.287  37.756  1.00  0.00     0.131 A 
ATOM     91  C   UNL A   1      47.690  30.957  37.744  1.00  0.00     0.055 A 
ATOM     92  C   UNL A   1      46.688  28.845  38.310  1.00  0.00     0.041 A 
ATOM     93  F   UNL A   1      44.449  28.435  37.760  1.00  0.00    -0.206 F 
ATOM     94  C   UNL A   1      47.802  29.677  38.295  1.00  0.00     0.022 A 
BRANCH  91  95
ATOM     95  S   UNL A   1      49.161  32.009  37.597  1.00  0.00     0.124 S 
ATOM     96  O   UNL A   1      49.493  32.264  38.994  1.00  0.00    -0.237 OA
ATOM     97  O   UNL A   1      50.089  31.149  36.868  1.00  0.00    -0.237 OA
ATOM     98  O   UNL A   1      48.680  33.171  36.852  1.00  0.00    -0.744 OA
ENDBRANCH  91  95
ENDBRANCH  65  88
ENDBRANCH  39  40
ENDBRANCH  32  34
ENDBRANCH  31  32
ENDBRANCH  30  31
ENDBRANCH  29  30
ENDBRANCH  28  29
ENDBRANCH  27  28
ENDBRANCH   1  27
TORSDOF 25
ENDMDL
