MODEL 1
REMARK VINA RESULT:      -8.0      0.000      0.000
REMARK SMILES NS(=O)(=O)c1ccc(-n2nc(NC(=O)NCCCC(=O)OCCOCCOCCOC(=O)c3ccc(-c4c5nc(c(-c6cc(S(=O)(=O)[O-])ccc6F)c6ccc([nH]6)c(-c6cc(S(=O)(=O)[O-])ccc6F)c6nc(c(-c7cc(S(=O)(=O)[O-])ccc7F)c7ccc4[nH]7)C=C6)C=C5)cc3)cc2-c2ccccc2)cc1
REMARK SMILES IDX 23 1 22 2 21 3 19 4 20 5 18 6 17 7 16 8 15 9 12 10 13 11
REMARK SMILES IDX 14 13 11 15 9 16 10 17 97 18 96 19 8 20 5 21 6 22 105 23
REMARK SMILES IDX 7 24 104 25 2 26 3 27 4 28 1 29 98 32 99 33 103 34 100 35
REMARK SMILES IDX 102 36 101 37 24 38 25 39 26 40 27 41 28 42 29 43 30 44
REMARK SMILES IDX 31 45 32 46 33 47 34 48 95 49 35 50 94 51 36 52 37 53 38 54
REMARK SMILES IDX 88 55 39 56 93 57 87 58 89 59 40 60 92 61 86 62 85 63 41 65
REMARK SMILES IDX 73 66 53 67 72 68 54 69 57 70 71 71 90 72 55 73 56 74 70 76
REMARK SMILES IDX 91 77 58 78 42 79 43 80 51 81 44 82 50 83 52 84 49 85 45 86
REMARK SMILES IDX 46 87 47 88 48 89 74 90 75 91 83 92 76 93 82 94 84 95 81 96
REMARK SMILES IDX 77 97 78 98 79 99 80 100 59 101 60 102 68 103 61 104 67 105
REMARK SMILES IDX 69 106 66 107 62 108 63 109 64 110 65 111
REMARK H PARENT 12 12 15 14 1 30 1 31 89 64 57 75
REMARK Flexibility Score: inf
ROOT
ATOM      1  C   UNL A   1      48.927  31.958  27.974  1.00  0.00     0.202 C 
ENDROOT
BRANCH   1   2
ATOM      2  C   UNL A   1      47.548  31.273  27.958  1.00  0.00     0.261 C 
BRANCH   2   3
ATOM      3  O   UNL A   1      46.889  31.116  26.684  1.00  0.00    -0.463 OA
BRANCH   3   4
ATOM      4  C   UNL A   1      45.705  31.748  26.538  1.00  0.00     0.305 C 
ATOM      5  O   UNL A   1      44.804  31.350  25.805  1.00  0.00    -0.252 OA
BRANCH   4   6
ATOM      6  C   UNL A   1      45.599  33.073  27.280  1.00  0.00     0.124 C 
BRANCH   6   7
ATOM      7  C   UNL A   1      44.924  34.327  26.716  1.00  0.00     0.033 C 
BRANCH   7   8
ATOM      8  C   UNL A   1      45.601  35.219  25.670  1.00  0.00     0.118 C 
BRANCH   8   9
ATOM      9  N   UNL A   1      46.949  34.907  25.305  1.00  0.00    -0.338 N 
ATOM     10  N   UNL A   1      47.996  37.066  25.234  1.00  0.00    -0.291 N 
ATOM     11  C   UNL A   1      48.017  35.721  25.215  1.00  0.00     0.320 C 
ATOM     12  H   UNL A   1      48.825  37.438  24.855  1.00  0.00     0.173 HD
ATOM     13  O   UNL A   1      49.105  35.175  24.987  1.00  0.00    -0.248 OA
ATOM     14  H   UNL A   1      47.120  33.962  25.089  1.00  0.00     0.165 HD
BRANCH  10  15
ATOM     15  C   UNL A   1      47.136  38.071  25.635  1.00  0.00     0.157 A 
ATOM     16  N   UNL A   1      45.684  39.271  26.642  1.00  0.00    -0.231 N 
ATOM     17  N   UNL A   1      46.409  38.126  26.752  1.00  0.00    -0.149 NA
ATOM     18  C   UNL A   1      46.083  40.058  25.573  1.00  0.00     0.076 A 
ATOM     19  C   UNL A   1      47.015  39.288  24.909  1.00  0.00     0.078 A 
BRANCH  16  20
ATOM     20  C   UNL A   1      44.816  39.682  27.674  1.00  0.00     0.065 A 
ATOM     21  C   UNL A   1      43.030  40.771  29.484  1.00  0.00     0.082 A 
ATOM     22  C   UNL A   1      42.662  39.649  28.723  1.00  0.00     0.024 A 
ATOM     23  C   UNL A   1      44.239  41.410  29.267  1.00  0.00     0.024 A 
ATOM     24  C   UNL A   1      43.560  39.089  27.820  1.00  0.00     0.030 A 
ATOM     25  C   UNL A   1      45.143  40.854  28.364  1.00  0.00     0.030 A 
BRANCH  21  26
ATOM     26  S   UNL A   1      41.889  41.468  30.626  1.00  0.00     0.238 S 
ATOM     27  O   UNL A   1      42.280  40.909  31.875  1.00  0.00    -0.207 OA
ATOM     28  O   UNL A   1      40.553  41.402  30.076  1.00  0.00    -0.207 OA
BRANCH  26  29
ATOM     29  N   UNL A   1      42.288  43.097  30.790  1.00  0.00    -0.225 NA
ATOM     30  H   UNL A   1      42.343  43.336  31.780  1.00  0.00     0.137 HD
ATOM     31  H   UNL A   1      41.573  43.669  30.341  1.00  0.00     0.137 HD
ENDBRANCH  26  29
ENDBRANCH  21  26
ENDBRANCH  16  20
BRANCH  18  32
ATOM     32  C   UNL A   1      45.599  41.423  25.332  1.00  0.00     0.000 A 
ATOM     33  C   UNL A   1      46.446  42.527  25.539  1.00  0.00     0.010 A 
ATOM     34  C   UNL A   1      44.265  41.659  24.987  1.00  0.00     0.010 A 
ATOM     35  C   UNL A   1      45.950  43.830  25.507  1.00  0.00     0.001 A 
ATOM     36  C   UNL A   1      43.777  42.968  24.921  1.00  0.00     0.001 A 
ATOM     37  C   UNL A   1      44.612  44.049  25.205  1.00  0.00     0.000 A 
ENDBRANCH  18  32
ENDBRANCH  10  15
ENDBRANCH   8   9
ENDBRANCH   7   8
ENDBRANCH   6   7
ENDBRANCH   4   6
ENDBRANCH   3   4
ENDBRANCH   2   3
ENDBRANCH   1   2
BRANCH   1  38
ATOM     38  O   UNL A   1      49.104  33.104  28.781  1.00  0.00    -0.376 OA
BRANCH  38  39
ATOM     39  C   UNL A   1      49.320  32.958  30.182  1.00  0.00     0.188 C 
BRANCH  39  40
ATOM     40  C   UNL A   1      48.465  33.753  31.194  1.00  0.00     0.188 C 
BRANCH  40  41
ATOM     41  O   UNL A   1      49.103  34.836  31.819  1.00  0.00    -0.376 OA
BRANCH  41  42
ATOM     42  C   UNL A   1      48.519  36.064  31.448  1.00  0.00     0.202 C 
BRANCH  42  43
ATOM     43  C   UNL A   1      47.298  35.986  30.538  1.00  0.00     0.261 C 
BRANCH  43  44
ATOM     44  O   UNL A   1      46.364  37.122  30.330  1.00  0.00    -0.460 OA
BRANCH  44  45
ATOM     45  C   UNL A   1      45.343  37.785  30.948  1.00  0.00     0.338 C 
ATOM     46  O   UNL A   1      45.222  38.908  31.394  1.00  0.00    -0.246 OA
BRANCH  45  47
ATOM     47  C   UNL A   1      44.251  36.819  31.045  1.00  0.00     0.060 A 
ATOM     48  C   UNL A   1      43.868  36.321  32.291  1.00  0.00     0.016 A 
ATOM     49  C   UNL A   1      43.806  36.259  29.853  1.00  0.00     0.016 A 
ATOM     50  C   UNL A   1      43.268  35.072  32.336  1.00  0.00     0.010 A 
ATOM     51  C   UNL A   1      43.287  34.993  29.904  1.00  0.00     0.010 A 
ATOM     52  C   UNL A   1      43.091  34.365  31.142  1.00  0.00    -0.014 A 
BRANCH  52  53
ATOM     53  C   UNL A   1      42.391  33.087  31.116  1.00  0.00     0.031 A 
ATOM     54  C   UNL A   1      40.959  33.315  31.406  1.00  0.00     0.074 A 
ATOM     55  C   UNL A   1      42.847  31.899  30.670  1.00  0.00     0.049 A 
ATOM     56  N   UNL A   1      40.419  33.292  32.582  1.00  0.00    -0.248 NA
ATOM     57  C   UNL A   1      40.126  33.973  30.380  1.00  0.00     0.031 C 
ATOM     58  C   UNL A   1      44.159  31.493  30.199  1.00  0.00     0.029 A 
ATOM     59  N   UNL A   1      42.132  30.761  30.470  1.00  0.00    -0.354 N 
ATOM     60  C   UNL A   1      39.100  33.639  32.348  1.00  0.00     0.074 A 
ATOM     61  C   UNL A   1      39.128  34.416  31.146  1.00  0.00     0.031 C 
ATOM     62  C   UNL A   1      44.099  30.340  29.503  1.00  0.00     0.029 A 
ATOM     63  C   UNL A   1      42.766  29.809  29.675  1.00  0.00     0.049 A 
ATOM     64  H   UNL A   1      41.238  30.619  30.855  1.00  0.00     0.167 HD
ATOM     65  C   UNL A   1      38.081  32.910  32.879  1.00  0.00     0.034 A 
ATOM     66  C   UNL A   1      42.299  28.606  29.258  1.00  0.00     0.034 A 
ATOM     67  C   UNL A   1      38.582  32.015  33.908  1.00  0.00     0.049 A 
ATOM     68  C   UNL A   1      41.224  28.244  30.212  1.00  0.00     0.074 A 
ATOM     69  C   UNL A   1      39.313  32.185  35.070  1.00  0.00     0.029 A 
ATOM     70  N   UNL A   1      38.709  30.678  33.586  1.00  0.00    -0.354 N 
ATOM     71  N   UNL A   1      41.459  27.987  31.473  1.00  0.00    -0.248 NA
ATOM     72  C   UNL A   1      39.875  28.704  29.918  1.00  0.00     0.031 C 
ATOM     73  C   UNL A   1      40.212  31.077  35.113  1.00  0.00     0.029 A 
ATOM     74  C   UNL A   1      39.928  30.232  34.037  1.00  0.00     0.049 A 
ATOM     75  H   UNL A   1      38.038  30.135  33.113  1.00  0.00     0.167 HD
ATOM     76  C   UNL A   1      40.468  28.664  32.169  1.00  0.00     0.074 A 
ATOM     77  C   UNL A   1      39.466  29.004  31.155  1.00  0.00     0.031 C 
ATOM     78  C   UNL A   1      40.687  29.149  33.429  1.00  0.00     0.034 A 
BRANCH  65  79
ATOM     79  C   UNL A   1      36.744  32.686  32.193  1.00  0.00     0.023 A 
ATOM     80  C   UNL A   1      36.797  32.129  30.905  1.00  0.00     0.031 A 
ATOM     81  C   UNL A   1      35.474  33.184  32.583  1.00  0.00     0.131 A 
ATOM     82  C   UNL A   1      35.691  32.193  30.043  1.00  0.00     0.055 A 
ATOM     83  C   UNL A   1      34.361  33.189  31.742  1.00  0.00     0.041 A 
ATOM     84  F   UNL A   1      35.229  33.763  33.761  1.00  0.00    -0.206 F 
ATOM     85  C   UNL A   1      34.473  32.725  30.449  1.00  0.00     0.022 A 
BRANCH  82  86
ATOM     86  S   UNL A   1      35.934  31.717  28.317  1.00  0.00     0.124 S 
ATOM     87  O   UNL A   1      37.187  30.975  28.396  1.00  0.00    -0.237 OA
ATOM     88  O   UNL A   1      34.733  30.930  28.056  1.00  0.00    -0.237 OA
ATOM     89  O   UNL A   1      36.006  32.999  27.622  1.00  0.00    -0.744 OA
ENDBRANCH  82  86
ENDBRANCH  65  79
BRANCH  66  90
ATOM     90  C   UNL A   1      42.512  28.002  27.913  1.00  0.00     0.023 A 
ATOM     91  C   UNL A   1      43.401  26.932  27.685  1.00  0.00     0.031 A 
ATOM     92  C   UNL A   1      41.646  28.342  26.844  1.00  0.00     0.131 A 
ATOM     93  C   UNL A   1      43.389  26.246  26.446  1.00  0.00     0.055 A 
ATOM     94  C   UNL A   1      41.641  27.663  25.624  1.00  0.00     0.041 A 
ATOM     95  F   UNL A   1      40.712  29.297  26.980  1.00  0.00    -0.206 F 
ATOM     96  C   UNL A   1      42.505  26.602  25.424  1.00  0.00     0.022 A 
BRANCH  93  97
ATOM     97  S   UNL A   1      44.475  24.807  26.173  1.00  0.00     0.124 S 
ATOM     98  O   UNL A   1      44.989  25.054  24.832  1.00  0.00    -0.237 OA
ATOM     99  O   UNL A   1      45.431  24.926  27.268  1.00  0.00    -0.237 OA
ATOM    100  O   UNL A   1      43.564  23.665  26.281  1.00  0.00    -0.744 OA
ENDBRANCH  93  97
ENDBRANCH  66  90
BRANCH  78 101
ATOM    101  C   UNL A   1      41.900  28.654  34.200  1.00  0.00     0.023 A 
ATOM    102  C   UNL A   1      41.932  27.530  35.061  1.00  0.00     0.031 A 
ATOM    103  C   UNL A   1      43.122  29.294  33.922  1.00  0.00     0.131 A 
ATOM    104  C   UNL A   1      43.163  27.093  35.601  1.00  0.00     0.055 A 
ATOM    105  C   UNL A   1      44.335  28.848  34.443  1.00  0.00     0.041 A 
ATOM    106  F   UNL A   1      43.161  30.350  33.093  1.00  0.00    -0.206 F 
ATOM    107  C   UNL A   1      44.360  27.746  35.288  1.00  0.00     0.022 A 
BRANCH 104 108
ATOM    108  S   UNL A   1      43.241  25.663  36.734  1.00  0.00     0.124 S 
ATOM    109  O   UNL A   1      42.245  24.746  36.193  1.00  0.00    -0.237 OA
ATOM    110  O   UNL A   1      44.635  25.241  36.617  1.00  0.00    -0.237 OA
ATOM    111  O   UNL A   1      42.895  26.238  38.036  1.00  0.00    -0.744 OA
ENDBRANCH 104 108
ENDBRANCH  78 101
ENDBRANCH  52  53
ENDBRANCH  45  47
ENDBRANCH  44  45
ENDBRANCH  43  44
ENDBRANCH  42  43
ENDBRANCH  41  42
ENDBRANCH  40  41
ENDBRANCH  39  40
ENDBRANCH  38  39
ENDBRANCH   1  38
TORSDOF 28
ENDMDL
MODEL 2
REMARK VINA RESULT:      -7.6      3.665     10.753
REMARK SMILES NS(=O)(=O)c1ccc(-n2nc(NC(=O)NCCCC(=O)OCCOCCOCCOC(=O)c3ccc(-c4c5nc(c(-c6cc(S(=O)(=O)[O-])ccc6F)c6ccc([nH]6)c(-c6cc(S(=O)(=O)[O-])ccc6F)c6nc(c(-c7cc(S(=O)(=O)[O-])ccc7F)c7ccc4[nH]7)C=C6)C=C5)cc3)cc2-c2ccccc2)cc1
REMARK SMILES IDX 23 1 22 2 21 3 19 4 20 5 18 6 17 7 16 8 15 9 12 10 13 11
REMARK SMILES IDX 14 13 11 15 9 16 10 17 97 18 96 19 8 20 5 21 6 22 105 23
REMARK SMILES IDX 7 24 104 25 2 26 3 27 4 28 1 29 98 32 99 33 103 34 100 35
REMARK SMILES IDX 102 36 101 37 24 38 25 39 26 40 27 41 28 42 29 43 30 44
REMARK SMILES IDX 31 45 32 46 33 47 34 48 95 49 35 50 94 51 36 52 37 53 38 54
REMARK SMILES IDX 88 55 39 56 93 57 87 58 89 59 40 60 92 61 86 62 85 63 41 65
REMARK SMILES IDX 73 66 53 67 72 68 54 69 57 70 71 71 90 72 55 73 56 74 70 76
REMARK SMILES IDX 91 77 58 78 42 79 43 80 51 81 44 82 50 83 52 84 49 85 45 86
REMARK SMILES IDX 46 87 47 88 48 89 74 90 75 91 83 92 76 93 82 94 84 95 81 96
REMARK SMILES IDX 77 97 78 98 79 99 80 100 59 101 60 102 68 103 61 104 67 105
REMARK SMILES IDX 69 106 66 107 62 108 63 109 64 110 65 111
REMARK H PARENT 12 12 15 14 1 30 1 31 89 64 57 75
REMARK Flexibility Score: inf
ROOT
ATOM      1  C   UNL A   1      43.718  38.496  32.933  1.00  0.00     0.202 C 
ENDROOT
BRANCH   1   2
ATOM      2  C   UNL A   1      43.113  37.665  34.080  1.00  0.00     0.261 C 
BRANCH   2   3
ATOM      3  O   UNL A   1      42.898  36.257  33.850  1.00  0.00    -0.463 OA
BRANCH   3   4
ATOM      4  C   UNL A   1      42.127  35.612  34.751  1.00  0.00     0.305 C 
ATOM      5  O   UNL A   1      42.177  34.401  34.951  1.00  0.00    -0.252 OA
BRANCH   4   6
ATOM      6  C   UNL A   1      41.095  36.490  35.447  1.00  0.00     0.124 C 
BRANCH   6   7
ATOM      7  C   UNL A   1      40.494  36.191  36.822  1.00  0.00     0.033 C 
BRANCH   7   8
ATOM      8  C   UNL A   1      39.486  35.058  37.045  1.00  0.00     0.118 C 
BRANCH   8   9
ATOM      9  N   UNL A   1      39.691  34.200  38.172  1.00  0.00    -0.338 N 
ATOM     10  N   UNL A   1      38.397  32.259  37.608  1.00  0.00    -0.291 N 
ATOM     11  C   UNL A   1      39.287  32.931  38.360  1.00  0.00     0.320 C 
ATOM     12  H   UNL A   1      38.035  31.484  38.094  1.00  0.00     0.173 HD
ATOM     13  O   UNL A   1      39.697  32.370  39.386  1.00  0.00    -0.248 OA
ATOM     14  H   UNL A   1      40.201  34.595  38.916  1.00  0.00     0.165 HD
BRANCH  10  15
ATOM     15  C   UNL A   1      37.848  32.353  36.343  1.00  0.00     0.157 A 
ATOM     16  N   UNL A   1      36.688  32.869  34.625  1.00  0.00    -0.231 N 
ATOM     17  N   UNL A   1      36.958  33.244  35.903  1.00  0.00    -0.149 NA
ATOM     18  C   UNL A   1      37.540  31.876  34.165  1.00  0.00     0.076 A 
ATOM     19  C   UNL A   1      38.289  31.528  35.272  1.00  0.00     0.078 A 
BRANCH  16  20
ATOM     20  C   UNL A   1      35.803  33.615  33.820  1.00  0.00     0.065 A 
ATOM     21  C   UNL A   1      33.874  35.131  32.541  1.00  0.00     0.082 A 
ATOM     22  C   UNL A   1      35.126  35.693  32.838  1.00  0.00     0.024 A 
ATOM     23  C   UNL A   1      33.549  33.856  32.975  1.00  0.00     0.024 A 
ATOM     24  C   UNL A   1      36.105  34.932  33.469  1.00  0.00     0.030 A 
ATOM     25  C   UNL A   1      34.525  33.089  33.608  1.00  0.00     0.030 A 
BRANCH  21  26
ATOM     26  S   UNL A   1      32.646  36.100  31.739  1.00  0.00     0.238 S 
ATOM     27  O   UNL A   1      32.247  35.291  30.638  1.00  0.00    -0.207 OA
ATOM     28  O   UNL A   1      33.101  37.468  31.636  1.00  0.00    -0.207 OA
BRANCH  26  29
ATOM     29  N   UNL A   1      31.285  36.094  32.735  1.00  0.00    -0.225 NA
ATOM     30  H   UNL A   1      31.091  37.044  33.051  1.00  0.00     0.137 HD
ATOM     31  H   UNL A   1      31.456  35.494  33.541  1.00  0.00     0.137 HD
ENDBRANCH  26  29
ENDBRANCH  21  26
ENDBRANCH  16  20
BRANCH  18  32
ATOM     32  C   UNL A   1      37.592  31.417  32.772  1.00  0.00     0.000 A 
ATOM     33  C   UNL A   1      38.435  32.052  31.843  1.00  0.00     0.010 A 
ATOM     34  C   UNL A   1      36.738  30.406  32.319  1.00  0.00     0.010 A 
ATOM     35  C   UNL A   1      38.352  31.763  30.482  1.00  0.00     0.001 A 
ATOM     36  C   UNL A   1      36.681  30.092  30.958  1.00  0.00     0.001 A 
ATOM     37  C   UNL A   1      37.468  30.786  30.038  1.00  0.00     0.000 A 
ENDBRANCH  18  32
ENDBRANCH  10  15
ENDBRANCH   8   9
ENDBRANCH   7   8
ENDBRANCH   6   7
ENDBRANCH   4   6
ENDBRANCH   3   4
ENDBRANCH   2   3
ENDBRANCH   1   2
BRANCH   1  38
ATOM     38  O   UNL A   1      43.092  39.711  32.576  1.00  0.00    -0.376 OA
BRANCH  38  39
ATOM     39  C   UNL A   1      43.113  40.149  31.220  1.00  0.00     0.188 C 
BRANCH  39  40
ATOM     40  C   UNL A   1      44.284  41.005  30.690  1.00  0.00     0.188 C 
BRANCH  40  41
ATOM     41  O   UNL A   1      45.091  40.403  29.712  1.00  0.00    -0.376 OA
BRANCH  41  42
ATOM     42  C   UNL A   1      44.629  39.115  29.381  1.00  0.00     0.202 C 
BRANCH  42  43
ATOM     43  C   UNL A   1      44.585  38.772  27.895  1.00  0.00     0.261 C 
BRANCH  43  44
ATOM     44  O   UNL A   1      43.958  37.535  27.363  1.00  0.00    -0.460 OA
BRANCH  44  45
ATOM     45  C   UNL A   1      42.733  37.004  27.077  1.00  0.00     0.338 C 
ATOM     46  O   UNL A   1      41.731  37.445  26.552  1.00  0.00    -0.246 OA
BRANCH  45  47
ATOM     47  C   UNL A   1      42.774  35.633  27.581  1.00  0.00     0.060 A 
ATOM     48  C   UNL A   1      42.299  35.346  28.862  1.00  0.00     0.016 A 
ATOM     49  C   UNL A   1      43.513  34.718  26.841  1.00  0.00     0.016 A 
ATOM     50  C   UNL A   1      42.821  34.241  29.516  1.00  0.00     0.010 A 
ATOM     51  C   UNL A   1      44.088  33.675  27.517  1.00  0.00     0.010 A 
ATOM     52  C   UNL A   1      43.805  33.480  28.877  1.00  0.00    -0.014 A 
BRANCH  52  53
ATOM     53  C   UNL A   1      44.329  32.260  29.477  1.00  0.00     0.031 A 
ATOM     54  C   UNL A   1      45.792  32.392  29.643  1.00  0.00     0.074 A 
ATOM     55  C   UNL A   1      43.637  31.247  30.038  1.00  0.00     0.049 A 
ATOM     56  N   UNL A   1      46.681  32.037  28.772  1.00  0.00    -0.248 NA
ATOM     57  C   UNL A   1      46.306  33.311  30.679  1.00  0.00     0.031 C 
ATOM     58  C   UNL A   1      42.210  30.994  30.123  1.00  0.00     0.029 A 
ATOM     59  N   UNL A   1      44.131  30.210  30.763  1.00  0.00    -0.354 N 
ATOM     60  C   UNL A   1      47.879  32.432  29.341  1.00  0.00     0.074 A 
ATOM     61  C   UNL A   1      47.537  33.516  30.211  1.00  0.00     0.031 C 
ATOM     62  C   UNL A   1      41.925  30.085  31.076  1.00  0.00     0.029 A 
ATOM     63  C   UNL A   1      43.182  29.523  31.516  1.00  0.00     0.049 A 
ATOM     64  H   UNL A   1      45.083  29.962  30.758  1.00  0.00     0.167 HD
ATOM     65  C   UNL A   1      48.938  31.580  29.402  1.00  0.00     0.034 A 
ATOM     66  C   UNL A   1      43.366  28.485  32.370  1.00  0.00     0.034 A 
ATOM     67  C   UNL A   1      48.714  30.432  28.540  1.00  0.00     0.049 A 
ATOM     68  C   UNL A   1      44.652  27.865  31.971  1.00  0.00     0.074 A 
ATOM     69  C   UNL A   1      48.424  30.268  27.197  1.00  0.00     0.029 A 
ATOM     70  N   UNL A   1      48.358  29.240  29.140  1.00  0.00    -0.354 N 
ATOM     71  N   UNL A   1      44.816  27.264  30.821  1.00  0.00    -0.248 NA
ATOM     72  C   UNL A   1      45.870  28.386  32.574  1.00  0.00     0.031 C 
ATOM     73  C   UNL A   1      47.483  29.197  27.145  1.00  0.00     0.029 A 
ATOM     74  C   UNL A   1      47.315  28.689  28.436  1.00  0.00     0.049 A 
ATOM     75  H   UNL A   1      48.780  28.851  29.940  1.00  0.00     0.167 HD
ATOM     76  C   UNL A   1      46.043  27.714  30.352  1.00  0.00     0.074 A 
ATOM     77  C   UNL A   1      46.687  28.323  31.518  1.00  0.00     0.031 C 
ATOM     78  C   UNL A   1      46.295  27.824  29.012  1.00  0.00     0.034 A 
BRANCH  65  79
ATOM     79  C   UNL A   1      49.949  31.555  30.537  1.00  0.00     0.023 A 
ATOM     80  C   UNL A   1      49.609  30.768  31.649  1.00  0.00     0.031 A 
ATOM     81  C   UNL A   1      51.070  32.404  30.718  1.00  0.00     0.131 A 
ATOM     82  C   UNL A   1      50.268  30.928  32.877  1.00  0.00     0.055 A 
ATOM     83  C   UNL A   1      51.761  32.515  31.926  1.00  0.00     0.041 A 
ATOM     84  F   UNL A   1      51.536  33.237  29.784  1.00  0.00    -0.206 F 
ATOM     85  C   UNL A   1      51.339  31.801  33.028  1.00  0.00     0.022 A 
BRANCH  82  86
ATOM     86  S   UNL A   1      49.582  30.091  34.323  1.00  0.00     0.124 S 
ATOM     87  O   UNL A   1      50.452  30.585  35.383  1.00  0.00    -0.237 OA
ATOM     88  O   UNL A   1      48.210  30.588  34.328  1.00  0.00    -0.237 OA
ATOM     89  O   UNL A   1      49.733  28.676  33.995  1.00  0.00    -0.744 OA
ENDBRANCH  82  86
ENDBRANCH  65  79
BRANCH  66  90
ATOM     90  C   UNL A   1      42.667  28.286  33.669  1.00  0.00     0.023 A 
ATOM     91  C   UNL A   1      42.414  27.012  34.217  1.00  0.00     0.031 A 
ATOM     92  C   UNL A   1      42.431  29.396  34.518  1.00  0.00     0.131 A 
ATOM     93  C   UNL A   1      41.963  26.886  35.554  1.00  0.00     0.055 A 
ATOM     94  C   UNL A   1      41.985  29.265  35.836  1.00  0.00     0.041 A 
ATOM     95  F   UNL A   1      42.709  30.649  34.122  1.00  0.00    -0.206 F 
ATOM     96  C   UNL A   1      41.761  28.007  36.364  1.00  0.00     0.022 A 
BRANCH  93  97
ATOM     97  S   UNL A   1      41.715  25.240  36.297  1.00  0.00     0.124 S 
ATOM     98  O   UNL A   1      42.840  25.142  37.219  1.00  0.00    -0.237 OA
ATOM     99  O   UNL A   1      40.392  25.365  36.897  1.00  0.00    -0.237 OA
ATOM    100  O   UNL A   1      41.782  24.332  35.150  1.00  0.00    -0.744 OA
ENDBRANCH  93  97
ENDBRANCH  66  90
BRANCH  78 101
ATOM    101  C   UNL A   1      45.358  27.135  28.034  1.00  0.00     0.023 A 
ATOM    102  C   UNL A   1      44.171  27.688  27.495  1.00  0.00     0.031 A 
ATOM    103  C   UNL A   1      45.786  25.895  27.526  1.00  0.00     0.131 A 
ATOM    104  C   UNL A   1      43.469  26.995  26.483  1.00  0.00     0.055 A 
ATOM    105  C   UNL A   1      45.099  25.224  26.514  1.00  0.00     0.041 A 
ATOM    106  F   UNL A   1      46.917  25.329  27.978  1.00  0.00    -0.206 F 
ATOM    107  C   UNL A   1      43.936  25.771  25.990  1.00  0.00     0.022 A 
BRANCH 104 108
ATOM    108  S   UNL A   1      41.923  27.665  25.779  1.00  0.00     0.124 S 
ATOM    109  O   UNL A   1      42.382  28.472  24.656  1.00  0.00    -0.237 OA
ATOM    110  O   UNL A   1      41.177  26.455  25.440  1.00  0.00    -0.237 OA
ATOM    111  O   UNL A   1      41.348  28.434  26.886  1.00  0.00    -0.744 OA
ENDBRANCH 104 108
ENDBRANCH  78 101
ENDBRANCH  52  53
ENDBRANCH  45  47
ENDBRANCH  44  45
ENDBRANCH  43  44
ENDBRANCH  42  43
ENDBRANCH  41  42
ENDBRANCH  40  41
ENDBRANCH  39  40
ENDBRANCH  38  39
ENDBRANCH   1  38
TORSDOF 28
ENDMDL
MODEL 3
REMARK VINA RESULT:      -7.3      9.091     15.094
REMARK SMILES NS(=O)(=O)c1ccc(-n2nc(NC(=O)NCCCC(=O)OCCOCCOCCOC(=O)c3ccc(-c4c5nc(c(-c6cc(S(=O)(=O)[O-])ccc6F)c6ccc([nH]6)c(-c6cc(S(=O)(=O)[O-])ccc6F)c6nc(c(-c7cc(S(=O)(=O)[O-])ccc7F)c7ccc4[nH]7)C=C6)C=C5)cc3)cc2-c2ccccc2)cc1
REMARK SMILES IDX 23 1 22 2 21 3 19 4 20 5 18 6 17 7 16 8 15 9 12 10 13 11
REMARK SMILES IDX 14 13 11 15 9 16 10 17 97 18 96 19 8 20 5 21 6 22 105 23
REMARK SMILES IDX 7 24 104 25 2 26 3 27 4 28 1 29 98 32 99 33 103 34 100 35
REMARK SMILES IDX 102 36 101 37 24 38 25 39 26 40 27 41 28 42 29 43 30 44
REMARK SMILES IDX 31 45 32 46 33 47 34 48 95 49 35 50 94 51 36 52 37 53 38 54
REMARK SMILES IDX 88 55 39 56 93 57 87 58 89 59 40 60 92 61 86 62 85 63 41 65
REMARK SMILES IDX 73 66 53 67 72 68 54 69 57 70 71 71 90 72 55 73 56 74 70 76
REMARK SMILES IDX 91 77 58 78 42 79 43 80 51 81 44 82 50 83 52 84 49 85 45 86
REMARK SMILES IDX 46 87 47 88 48 89 74 90 75 91 83 92 76 93 82 94 84 95 81 96
REMARK SMILES IDX 77 97 78 98 79 99 80 100 59 101 60 102 68 103 61 104 67 105
REMARK SMILES IDX 69 106 66 107 62 108 63 109 64 110 65 111
REMARK H PARENT 12 12 15 14 1 30 1 31 89 64 57 75
REMARK Flexibility Score: inf
ROOT
ATOM      1  C   UNL A   1      39.122  22.201  26.474  1.00  0.00     0.202 C 
ENDROOT
BRANCH   1   2
ATOM      2  C   UNL A   1      38.133  22.540  25.343  1.00  0.00     0.261 C 
BRANCH   2   3
ATOM      3  O   UNL A   1      36.738  22.671  25.687  1.00  0.00    -0.463 OA
BRANCH   3   4
ATOM      4  C   UNL A   1      35.912  23.084  24.701  1.00  0.00     0.305 C 
ATOM      5  O   UNL A   1      36.097  22.848  23.511  1.00  0.00    -0.252 OA
BRANCH   4   6
ATOM      6  C   UNL A   1      34.765  23.970  25.167  1.00  0.00     0.124 C 
BRANCH   6   7
ATOM      7  C   UNL A   1      33.482  23.449  25.820  1.00  0.00     0.033 C 
BRANCH   7   8
ATOM      8  C   UNL A   1      32.303  22.917  24.996  1.00  0.00     0.118 C 
BRANCH   8   9
ATOM      9  N   UNL A   1      31.278  22.200  25.691  1.00  0.00    -0.338 N 
ATOM     10  N   UNL A   1      29.957  23.958  26.655  1.00  0.00    -0.291 N 
ATOM     11  C   UNL A   1      30.195  22.673  26.333  1.00  0.00     0.320 C 
ATOM     12  H   UNL A   1      29.282  24.025  27.367  1.00  0.00     0.173 HD
ATOM     13  O   UNL A   1      29.396  21.827  26.758  1.00  0.00    -0.248 OA
ATOM     14  H   UNL A   1      31.381  21.222  25.701  1.00  0.00     0.165 HD
BRANCH  10  15
ATOM     15  C   UNL A   1      30.398  25.208  26.265  1.00  0.00     0.157 A 
ATOM     16  N   UNL A   1      31.363  27.108  26.118  1.00  0.00    -0.231 N 
ATOM     17  N   UNL A   1      31.367  25.941  26.815  1.00  0.00    -0.149 NA
ATOM     18  C   UNL A   1      30.548  27.062  24.998  1.00  0.00     0.076 A 
ATOM     19  C   UNL A   1      29.911  25.841  25.088  1.00  0.00     0.078 A 
BRANCH  16  20
ATOM     20  C   UNL A   1      32.296  28.127  26.401  1.00  0.00     0.065 A 
ATOM     21  C   UNL A   1      34.049  30.067  27.304  1.00  0.00     0.082 A 
ATOM     22  C   UNL A   1      34.541  28.830  26.856  1.00  0.00     0.024 A 
ATOM     23  C   UNL A   1      32.687  30.295  27.402  1.00  0.00     0.024 A 
ATOM     24  C   UNL A   1      33.666  27.854  26.389  1.00  0.00     0.030 A 
ATOM     25  C   UNL A   1      31.805  29.322  26.935  1.00  0.00     0.030 A 
BRANCH  21  26
ATOM     26  S   UNL A   1      35.165  31.294  27.888  1.00  0.00     0.238 S 
ATOM     27  O   UNL A   1      34.612  32.510  27.397  1.00  0.00    -0.207 OA
ATOM     28  O   UNL A   1      36.525  30.856  27.666  1.00  0.00    -0.207 OA
BRANCH  26  29
ATOM     29  N   UNL A   1      34.938  31.413  29.555  1.00  0.00    -0.225 NA
ATOM     30  H   UNL A   1      34.278  32.163  29.756  1.00  0.00     0.137 HD
ATOM     31  H   UNL A   1      35.830  31.614  30.006  1.00  0.00     0.137 HD
ENDBRANCH  26  29
ENDBRANCH  21  26
ENDBRANCH  16  20
BRANCH  18  32
ATOM     32  C   UNL A   1      30.499  28.111  23.972  1.00  0.00     0.000 A 
ATOM     33  C   UNL A   1      29.356  28.918  23.831  1.00  0.00     0.010 A 
ATOM     34  C   UNL A   1      31.543  28.265  23.055  1.00  0.00     0.010 A 
ATOM     35  C   UNL A   1      29.213  29.779  22.744  1.00  0.00     0.001 A 
ATOM     36  C   UNL A   1      31.413  29.155  21.984  1.00  0.00     0.001 A 
ATOM     37  C   UNL A   1      30.240  29.891  21.815  1.00  0.00     0.000 A 
ENDBRANCH  18  32
ENDBRANCH  10  15
ENDBRANCH   8   9
ENDBRANCH   7   8
ENDBRANCH   6   7
ENDBRANCH   4   6
ENDBRANCH   3   4
ENDBRANCH   2   3
ENDBRANCH   1   2
BRANCH   1  38
ATOM     38  O   UNL A   1      39.822  23.258  27.099  1.00  0.00    -0.376 OA
BRANCH  38  39
ATOM     39  C   UNL A   1      40.994  23.792  26.488  1.00  0.00     0.188 C 
BRANCH  39  40
ATOM     40  C   UNL A   1      41.865  24.826  27.235  1.00  0.00     0.188 C 
BRANCH  40  41
ATOM     41  O   UNL A   1      42.361  24.423  28.485  1.00  0.00    -0.376 OA
BRANCH  41  42
ATOM     42  C   UNL A   1      43.652  23.870  28.375  1.00  0.00     0.202 C 
BRANCH  42  43
ATOM     43  C   UNL A   1      44.812  24.775  28.776  1.00  0.00     0.261 C 
BRANCH  43  44
ATOM     44  O   UNL A   1      44.627  26.083  29.456  1.00  0.00    -0.460 OA
BRANCH  44  45
ATOM     45  C   UNL A   1      45.277  26.950  30.287  1.00  0.00     0.338 C 
ATOM     46  O   UNL A   1      45.505  28.142  30.241  1.00  0.00    -0.246 OA
BRANCH  45  47
ATOM     47  C   UNL A   1      45.763  26.137  31.399  1.00  0.00     0.060 A 
ATOM     48  C   UNL A   1      44.933  25.882  32.492  1.00  0.00     0.016 A 
ATOM     49  C   UNL A   1      47.124  25.856  31.419  1.00  0.00     0.016 A 
ATOM     50  C   UNL A   1      45.530  25.616  33.714  1.00  0.00     0.010 A 
ATOM     51  C   UNL A   1      47.714  25.673  32.641  1.00  0.00     0.010 A 
ATOM     52  C   UNL A   1      46.927  25.633  33.801  1.00  0.00    -0.014 A 
BRANCH  52  53
ATOM     53  C   UNL A   1      47.613  25.277  35.036  1.00  0.00     0.031 A 
ATOM     54  C   UNL A   1      48.010  26.514  35.742  1.00  0.00     0.074 A 
ATOM     55  C   UNL A   1      47.691  24.066  35.623  1.00  0.00     0.049 A 
ATOM     56  N   UNL A   1      49.139  27.131  35.596  1.00  0.00    -0.248 NA
ATOM     57  C   UNL A   1      46.960  27.335  36.376  1.00  0.00     0.031 C 
ATOM     58  C   UNL A   1      47.239  22.757  35.184  1.00  0.00     0.029 A 
ATOM     59  N   UNL A   1      48.165  23.776  36.864  1.00  0.00    -0.354 N 
ATOM     60  C   UNL A   1      49.006  28.257  36.388  1.00  0.00     0.074 A 
ATOM     61  C   UNL A   1      47.597  28.504  36.450  1.00  0.00     0.031 C 
ATOM     62  C   UNL A   1      47.173  21.887  36.211  1.00  0.00     0.029 A 
ATOM     63  C   UNL A   1      47.800  22.523  37.347  1.00  0.00     0.049 A 
ATOM     64  H   UNL A   1      48.722  24.402  37.380  1.00  0.00     0.167 HD
ATOM     65  C   UNL A   1      49.982  28.611  37.270  1.00  0.00     0.034 A 
ATOM     66  C   UNL A   1      48.071  21.968  38.555  1.00  0.00     0.034 A 
ATOM     67  C   UNL A   1      51.202  27.870  36.997  1.00  0.00     0.049 A 
ATOM     68  C   UNL A   1      49.256  22.695  39.070  1.00  0.00     0.074 A 
ATOM     69  C   UNL A   1      52.008  27.703  35.887  1.00  0.00     0.029 A 
ATOM     70  N   UNL A   1      51.514  26.821  37.840  1.00  0.00    -0.354 N 
ATOM     71  N   UNL A   1      50.431  22.618  38.500  1.00  0.00    -0.248 NA
ATOM     72  C   UNL A   1      49.024  23.906  39.843  1.00  0.00     0.031 C 
ATOM     73  C   UNL A   1      52.398  26.330  35.909  1.00  0.00     0.029 A 
ATOM     74  C   UNL A   1      51.899  25.746  37.076  1.00  0.00     0.049 A 
ATOM     75  H   UNL A   1      51.468  26.840  38.823  1.00  0.00     0.167 HD
ATOM     76  C   UNL A   1      50.899  23.925  38.463  1.00  0.00     0.074 A 
ATOM     77  C   UNL A   1      50.035  24.656  39.392  1.00  0.00     0.031 C 
ATOM     78  C   UNL A   1      51.735  24.353  37.469  1.00  0.00     0.034 A 
BRANCH  65  79
ATOM     79  C   UNL A   1      49.720  29.276  38.611  1.00  0.00     0.023 A 
ATOM     80  C   UNL A   1      50.403  30.481  38.846  1.00  0.00     0.031 A 
ATOM     81  C   UNL A   1      49.069  28.721  39.742  1.00  0.00     0.131 A 
ATOM     82  C   UNL A   1      50.522  31.004  40.143  1.00  0.00     0.055 A 
ATOM     83  C   UNL A   1      49.141  29.279  41.019  1.00  0.00     0.041 A 
ATOM     84  F   UNL A   1      48.384  27.575  39.722  1.00  0.00    -0.206 F 
ATOM     85  C   UNL A   1      49.901  30.408  41.234  1.00  0.00     0.022 A 
BRANCH  82  86
ATOM     86  S   UNL A   1      51.653  32.389  40.396  1.00  0.00     0.124 S 
ATOM     87  O   UNL A   1      51.859  32.333  41.839  1.00  0.00    -0.237 OA
ATOM     88  O   UNL A   1      52.788  32.001  39.565  1.00  0.00    -0.237 OA
ATOM     89  O   UNL A   1      50.890  33.538  39.915  1.00  0.00    -0.744 OA
ENDBRANCH  82  86
ENDBRANCH  65  79
BRANCH  66  90
ATOM     90  C   UNL A   1      47.140  21.133  39.364  1.00  0.00     0.023 A 
ATOM     91  C   UNL A   1      47.420  19.797  39.718  1.00  0.00     0.031 A 
ATOM     92  C   UNL A   1      46.030  21.735  40.004  1.00  0.00     0.131 A 
ATOM     93  C   UNL A   1      46.620  19.130  40.678  1.00  0.00     0.055 A 
ATOM     94  C   UNL A   1      45.243  21.072  40.948  1.00  0.00     0.041 A 
ATOM     95  F   UNL A   1      45.719  23.025  39.794  1.00  0.00    -0.206 F 
ATOM     96  C   UNL A   1      45.543  19.769  41.300  1.00  0.00     0.022 A 
BRANCH  93  97
ATOM     97  S   UNL A   1      47.026  17.433  41.205  1.00  0.00     0.124 S 
ATOM     98  O   UNL A   1      46.160  16.627  40.353  1.00  0.00    -0.237 OA
ATOM     99  O   UNL A   1      48.457  17.357  40.935  1.00  0.00    -0.237 OA
ATOM    100  O   UNL A   1      46.672  17.422  42.626  1.00  0.00    -0.744 OA
ENDBRANCH  93  97
ENDBRANCH  66  90
BRANCH  78 101
ATOM    101  C   UNL A   1      52.422  23.316  36.596  1.00  0.00     0.023 A 
ATOM    102  C   UNL A   1      51.819  22.593  35.538  1.00  0.00     0.031 A 
ATOM    103  C   UNL A   1      53.809  23.167  36.777  1.00  0.00     0.131 A 
ATOM    104  C   UNL A   1      52.612  21.765  34.712  1.00  0.00     0.055 A 
ATOM    105  C   UNL A   1      54.589  22.362  35.947  1.00  0.00     0.041 A 
ATOM    106  F   UNL A   1      54.444  23.844  37.748  1.00  0.00    -0.206 F 
ATOM    107  C   UNL A   1      53.992  21.655  34.912  1.00  0.00     0.022 A 
BRANCH 104 108
ATOM    108  S   UNL A   1      51.867  20.799  33.352  1.00  0.00     0.124 S 
ATOM    109  O   UNL A   1      51.658  19.484  33.943  1.00  0.00    -0.237 OA
ATOM    110  O   UNL A   1      50.662  21.565  33.042  1.00  0.00    -0.237 OA
ATOM    111  O   UNL A   1      52.890  20.839  32.304  1.00  0.00    -0.744 OA
ENDBRANCH 104 108
ENDBRANCH  78 101
ENDBRANCH  52  53
ENDBRANCH  45  47
ENDBRANCH  44  45
ENDBRANCH  43  44
ENDBRANCH  42  43
ENDBRANCH  41  42
ENDBRANCH  40  41
ENDBRANCH  39  40
ENDBRANCH  38  39
ENDBRANCH   1  38
TORSDOF 28
ENDMDL
