MODEL 1
REMARK VINA RESULT:     -10.8      0.000      0.000
REMARK SMILES COC(=O)[C@H]1CCN(S(=O)(=O)N2CCC[C@H](C(=O)OCCOCCOCCOC(=O)c3ccc(-c4c5nc(c(-c6cc(S(=O)(=O)[O-])ccc6F)c6ccc([nH]6)c(-c6cc(S(=O)(=O)[O-])ccc6F)c6nc(c(-c7cc(S(=O)(=O)[O-])ccc7F)c7ccc4[nH]7)C=C6)C=C5)cc3)C2)C1
REMARK SMILES IDX 23 1 22 2 21 3 20 4 19 5 17 6 18 7 16 8 12 9 13 10 94 11
REMARK SMILES IDX 14 12 15 13 9 14 10 15 11 16 8 17 5 18 6 19 95 20 7 21 3 22
REMARK SMILES IDX 4 23 2 24 1 25 24 26 25 27 26 28 27 29 28 30 29 31 30 32
REMARK SMILES IDX 31 33 32 34 93 35 33 36 92 37 34 38 35 39 36 40 86 41 37 42
REMARK SMILES IDX 91 43 85 44 87 45 38 46 90 47 84 48 83 49 39 51 71 52 51 53
REMARK SMILES IDX 70 54 52 55 55 56 69 57 88 58 53 59 54 60 68 62 89 63 56 64
REMARK SMILES IDX 40 65 41 66 49 67 42 68 48 69 50 70 47 71 43 72 44 73 45 74
REMARK SMILES IDX 46 75 72 76 73 77 81 78 74 79 80 80 82 81 79 82 75 83 76 84
REMARK SMILES IDX 77 85 78 86 57 87 58 88 66 89 59 90 65 91 67 92 64 93 60 94
REMARK SMILES IDX 61 95 62 96 63 97
REMARK H PARENT 87 50 55 61
REMARK Flexibility Score: inf
ROOT
ATOM      1  C   UNL A   1      40.575  20.924  26.717  1.00  0.00     0.188 C 
ENDROOT
BRANCH   1   2
ATOM      2  O   UNL A   1      39.937  21.779  25.774  1.00  0.00    -0.376 OA
BRANCH   2   3
ATOM      3  C   UNL A   1      38.514  21.899  25.847  1.00  0.00     0.202 C 
BRANCH   3   4
ATOM      4  C   UNL A   1      37.926  23.308  26.039  1.00  0.00     0.261 C 
BRANCH   4   5
ATOM      5  O   UNL A   1      36.483  23.338  26.115  1.00  0.00    -0.463 OA
BRANCH   5   6
ATOM      6  C   UNL A   1      35.868  24.031  25.128  1.00  0.00     0.310 C 
ATOM      7  O   UNL A   1      36.161  23.944  23.938  1.00  0.00    -0.252 OA
BRANCH   6   8
ATOM      8  C   UNL A   1      34.679  24.863  25.579  1.00  0.00     0.114 C 
ATOM      9  N   UNL A   1      33.091  23.062  25.178  1.00  0.00    -0.188 NA
ATOM     10  C   UNL A   1      32.240  23.822  24.250  1.00  0.00     0.103 C 
ATOM     11  C   UNL A   1      33.725  23.884  26.223  1.00  0.00     0.118 C 
ATOM     12  C   UNL A   1      33.061  24.942  23.602  1.00  0.00     0.018 C 
ATOM     13  C   UNL A   1      33.886  25.740  24.607  1.00  0.00     0.018 C 
BRANCH   9  14
ATOM     14  S   UNL A   1      32.730  21.470  25.516  1.00  0.00     0.282 S 
ATOM     15  O   UNL A   1      31.303  21.289  25.471  1.00  0.00    -0.195 OA
ATOM     16  O   UNL A   1      33.484  21.083  26.692  1.00  0.00    -0.195 OA
BRANCH  14  17
ATOM     17  N   UNL A   1      33.399  20.630  24.198  1.00  0.00    -0.188 NA
ATOM     18  C   UNL A   1      33.314  18.200  24.062  1.00  0.00     0.116 C 
ATOM     19  C   UNL A   1      32.058  18.802  23.459  1.00  0.00     0.033 C 
ATOM     20  C   UNL A   1      34.103  19.375  24.639  1.00  0.00     0.118 C 
ATOM     21  C   UNL A   1      32.508  20.194  23.091  1.00  0.00     0.104 C 
BRANCH  18  22
ATOM     22  C   UNL A   1      33.068  17.168  25.133  1.00  0.00     0.310 C 
ATOM     23  O   UNL A   1      32.708  17.460  26.268  1.00  0.00    -0.252 OA
BRANCH  22  24
ATOM     24  O   UNL A   1      33.225  15.905  24.668  1.00  0.00    -0.469 OA
ATOM     25  C   UNL A   1      32.580  14.890  25.432  1.00  0.00     0.282 C 
ENDBRANCH  22  24
ENDBRANCH  18  22
ENDBRANCH  14  17
ENDBRANCH   9  14
ENDBRANCH   6   8
ENDBRANCH   5   6
ENDBRANCH   4   5
ENDBRANCH   3   4
ENDBRANCH   2   3
ENDBRANCH   1   2
BRANCH   1  26
ATOM     26  C   UNL A   1      41.372  19.756  26.131  1.00  0.00     0.188 C 
BRANCH  26  27
ATOM     27  O   UNL A   1      42.752  19.777  26.438  1.00  0.00    -0.376 OA
BRANCH  27  28
ATOM     28  C   UNL A   1      43.702  20.032  25.410  1.00  0.00     0.202 C 
BRANCH  28  29
ATOM     29  C   UNL A   1      44.389  21.413  25.343  1.00  0.00     0.261 C 
BRANCH  29  30
ATOM     30  O   UNL A   1      43.541  22.565  25.160  1.00  0.00    -0.460 OA
BRANCH  30  31
ATOM     31  C   UNL A   1      44.129  23.786  25.138  1.00  0.00     0.338 C 
ATOM     32  O   UNL A   1      44.952  24.165  24.322  1.00  0.00    -0.246 OA
BRANCH  31  33
ATOM     33  C   UNL A   1      43.392  24.686  26.076  1.00  0.00     0.060 A 
ATOM     34  C   UNL A   1      43.810  26.022  26.164  1.00  0.00     0.016 A 
ATOM     35  C   UNL A   1      42.255  24.276  26.782  1.00  0.00     0.016 A 
ATOM     36  C   UNL A   1      43.132  26.930  26.985  1.00  0.00     0.010 A 
ATOM     37  C   UNL A   1      41.584  25.183  27.617  1.00  0.00     0.010 A 
ATOM     38  C   UNL A   1      42.040  26.507  27.754  1.00  0.00    -0.014 A 
BRANCH  38  39
ATOM     39  C   UNL A   1      41.538  27.364  28.866  1.00  0.00     0.031 A 
ATOM     40  C   UNL A   1      42.296  27.342  30.170  1.00  0.00     0.074 A 
ATOM     41  C   UNL A   1      40.473  28.178  28.737  1.00  0.00     0.049 A 
ATOM     42  N   UNL A   1      42.047  27.958  31.297  1.00  0.00    -0.248 NA
ATOM     43  C   UNL A   1      43.497  26.496  30.197  1.00  0.00     0.031 C 
ATOM     44  C   UNL A   1      39.685  28.359  27.520  1.00  0.00     0.029 A 
ATOM     45  N   UNL A   1      39.874  29.013  29.652  1.00  0.00    -0.354 N 
ATOM     46  C   UNL A   1      43.061  27.575  32.169  1.00  0.00     0.074 A 
ATOM     47  C   UNL A   1      43.889  26.627  31.452  1.00  0.00     0.031 C 
ATOM     48  C   UNL A   1      38.708  29.252  27.764  1.00  0.00     0.029 A 
ATOM     49  C   UNL A   1      38.772  29.677  29.162  1.00  0.00     0.049 A 
ATOM     50  H   UNL A   1      40.203  29.124  30.573  1.00  0.00     0.167 HD
ATOM     51  C   UNL A   1      43.298  27.982  33.442  1.00  0.00     0.034 A 
ATOM     52  C   UNL A   1      37.908  30.514  29.776  1.00  0.00     0.034 A 
ATOM     53  C   UNL A   1      42.453  28.903  34.162  1.00  0.00     0.049 A 
ATOM     54  C   UNL A   1      38.102  30.844  31.240  1.00  0.00     0.074 A 
ATOM     55  C   UNL A   1      42.596  29.374  35.457  1.00  0.00     0.029 A 
ATOM     56  N   UNL A   1      41.295  29.483  33.659  1.00  0.00    -0.354 N 
ATOM     57  N   UNL A   1      39.060  30.470  32.057  1.00  0.00    -0.248 NA
ATOM     58  C   UNL A   1      37.094  31.717  31.861  1.00  0.00     0.031 C 
ATOM     59  C   UNL A   1      41.483  30.164  35.764  1.00  0.00     0.029 A 
ATOM     60  C   UNL A   1      40.693  30.271  34.630  1.00  0.00     0.049 A 
ATOM     61  H   UNL A   1      40.950  29.353  32.746  1.00  0.00     0.167 HD
ATOM     62  C   UNL A   1      38.790  31.096  33.274  1.00  0.00     0.074 A 
ATOM     63  C   UNL A   1      37.586  31.877  33.081  1.00  0.00     0.031 C 
ATOM     64  C   UNL A   1      39.483  31.039  34.442  1.00  0.00     0.034 A 
BRANCH  51  65
ATOM     65  C   UNL A   1      44.491  27.373  34.142  1.00  0.00     0.023 A 
ATOM     66  C   UNL A   1      44.388  26.167  34.860  1.00  0.00     0.031 A 
ATOM     67  C   UNL A   1      45.727  28.041  34.161  1.00  0.00     0.131 A 
ATOM     68  C   UNL A   1      45.460  25.730  35.653  1.00  0.00     0.055 A 
ATOM     69  C   UNL A   1      46.824  27.544  34.868  1.00  0.00     0.041 A 
ATOM     70  F   UNL A   1      45.884  29.208  33.517  1.00  0.00    -0.206 F 
ATOM     71  C   UNL A   1      46.687  26.394  35.639  1.00  0.00     0.022 A 
BRANCH  68  72
ATOM     72  S   UNL A   1      45.153  24.407  36.858  1.00  0.00     0.124 S 
ATOM     73  O   UNL A   1      44.583  25.155  37.977  1.00  0.00    -0.237 OA
ATOM     74  O   UNL A   1      44.235  23.533  36.140  1.00  0.00    -0.237 OA
ATOM     75  O   UNL A   1      46.484  23.853  37.103  1.00  0.00    -0.744 OA
ENDBRANCH  68  72
ENDBRANCH  51  65
BRANCH  52  76
ATOM     76  C   UNL A   1      36.751  31.093  29.030  1.00  0.00     0.023 A 
ATOM     77  C   UNL A   1      35.705  30.275  28.570  1.00  0.00     0.031 A 
ATOM     78  C   UNL A   1      36.704  32.462  28.710  1.00  0.00     0.131 A 
ATOM     79  C   UNL A   1      34.679  30.823  27.785  1.00  0.00     0.055 A 
ATOM     80  C   UNL A   1      35.651  33.012  27.975  1.00  0.00     0.041 A 
ATOM     81  F   UNL A   1      37.682  33.287  29.112  1.00  0.00    -0.206 F 
ATOM     82  C   UNL A   1      34.635  32.189  27.499  1.00  0.00     0.022 A 
BRANCH  79  83
ATOM     83  S   UNL A   1      33.435  29.708  27.076  1.00  0.00     0.124 S 
ATOM     84  O   UNL A   1      32.211  30.484  27.243  1.00  0.00    -0.237 OA
ATOM     85  O   UNL A   1      33.914  29.552  25.706  1.00  0.00    -0.237 OA
ATOM     86  O   UNL A   1      33.536  28.512  27.909  1.00  0.00    -0.744 OA
ENDBRANCH  79  83
ENDBRANCH  52  76
BRANCH  64  87
ATOM     87  C   UNL A   1      38.986  31.892  35.591  1.00  0.00     0.023 A 
ATOM     88  C   UNL A   1      38.347  31.336  36.713  1.00  0.00     0.031 A 
ATOM     89  C   UNL A   1      39.147  33.289  35.554  1.00  0.00     0.131 A 
ATOM     90  C   UNL A   1      37.836  32.174  37.718  1.00  0.00     0.055 A 
ATOM     91  C   UNL A   1      38.701  34.112  36.590  1.00  0.00     0.041 A 
ATOM     92  F   UNL A   1      39.746  33.882  34.508  1.00  0.00    -0.206 F 
ATOM     93  C   UNL A   1      38.028  33.558  37.673  1.00  0.00     0.022 A 
BRANCH  90  94
ATOM     94  S   UNL A   1      36.819  31.444  39.032  1.00  0.00     0.124 S 
ATOM     95  O   UNL A   1      35.734  32.413  39.148  1.00  0.00    -0.237 OA
ATOM     96  O   UNL A   1      36.460  30.148  38.464  1.00  0.00    -0.237 OA
ATOM     97  O   UNL A   1      37.727  31.389  40.177  1.00  0.00    -0.744 OA
ENDBRANCH  90  94
ENDBRANCH  64  87
ENDBRANCH  38  39
ENDBRANCH  31  33
ENDBRANCH  30  31
ENDBRANCH  29  30
ENDBRANCH  28  29
ENDBRANCH  27  28
ENDBRANCH  26  27
ENDBRANCH   1  26
TORSDOF 24
ENDMDL
MODEL 2
REMARK VINA RESULT:     -10.0      5.237      9.790
REMARK SMILES COC(=O)[C@H]1CCN(S(=O)(=O)N2CCC[C@H](C(=O)OCCOCCOCCOC(=O)c3ccc(-c4c5nc(c(-c6cc(S(=O)(=O)[O-])ccc6F)c6ccc([nH]6)c(-c6cc(S(=O)(=O)[O-])ccc6F)c6nc(c(-c7cc(S(=O)(=O)[O-])ccc7F)c7ccc4[nH]7)C=C6)C=C5)cc3)C2)C1
REMARK SMILES IDX 23 1 22 2 21 3 20 4 19 5 17 6 18 7 16 8 12 9 13 10 94 11
REMARK SMILES IDX 14 12 15 13 9 14 10 15 11 16 8 17 5 18 6 19 95 20 7 21 3 22
REMARK SMILES IDX 4 23 2 24 1 25 24 26 25 27 26 28 27 29 28 30 29 31 30 32
REMARK SMILES IDX 31 33 32 34 93 35 33 36 92 37 34 38 35 39 36 40 86 41 37 42
REMARK SMILES IDX 91 43 85 44 87 45 38 46 90 47 84 48 83 49 39 51 71 52 51 53
REMARK SMILES IDX 70 54 52 55 55 56 69 57 88 58 53 59 54 60 68 62 89 63 56 64
REMARK SMILES IDX 40 65 41 66 49 67 42 68 48 69 50 70 47 71 43 72 44 73 45 74
REMARK SMILES IDX 46 75 72 76 73 77 81 78 74 79 80 80 82 81 79 82 75 83 76 84
REMARK SMILES IDX 77 85 78 86 57 87 58 88 66 89 59 90 65 91 67 92 64 93 60 94
REMARK SMILES IDX 61 95 62 96 63 97
REMARK H PARENT 87 50 55 61
REMARK Flexibility Score: inf
ROOT
ATOM      1  C   UNL A   1      36.091  22.116  26.314  1.00  0.00     0.188 C 
ENDROOT
BRANCH   1   2
ATOM      2  O   UNL A   1      36.039  23.497  25.973  1.00  0.00    -0.376 OA
BRANCH   2   3
ATOM      3  C   UNL A   1      36.036  23.836  24.584  1.00  0.00     0.202 C 
BRANCH   3   4
ATOM      4  C   UNL A   1      34.724  24.365  23.981  1.00  0.00     0.261 C 
BRANCH   4   5
ATOM      5  O   UNL A   1      34.156  23.510  22.964  1.00  0.00    -0.463 OA
BRANCH   5   6
ATOM      6  C   UNL A   1      32.895  23.822  22.584  1.00  0.00     0.310 C 
ATOM      7  O   UNL A   1      32.612  24.755  21.836  1.00  0.00    -0.252 OA
BRANCH   6   8
ATOM      8  C   UNL A   1      31.826  22.852  23.059  1.00  0.00     0.114 C 
ATOM      9  N   UNL A   1      31.006  24.377  24.770  1.00  0.00    -0.188 NA
ATOM     10  C   UNL A   1      31.199  23.451  25.896  1.00  0.00     0.103 C 
ATOM     11  C   UNL A   1      30.667  23.716  23.498  1.00  0.00     0.118 C 
ATOM     12  C   UNL A   1      32.283  22.429  25.537  1.00  0.00     0.018 C 
ATOM     13  C   UNL A   1      32.097  21.816  24.152  1.00  0.00     0.018 C 
BRANCH   9  14
ATOM     14  S   UNL A   1      30.431  25.916  25.054  1.00  0.00     0.282 S 
ATOM     15  O   UNL A   1      30.275  26.109  26.471  1.00  0.00    -0.195 OA
ATOM     16  O   UNL A   1      29.319  26.149  24.154  1.00  0.00    -0.195 OA
BRANCH  14  17
ATOM     17  N   UNL A   1      31.707  26.911  24.535  1.00  0.00    -0.188 NA
ATOM     18  C   UNL A   1      31.293  29.007  23.365  1.00  0.00     0.116 C 
ATOM     19  C   UNL A   1      31.292  29.237  24.865  1.00  0.00     0.033 C 
ATOM     20  C   UNL A   1      31.438  27.497  23.175  1.00  0.00     0.118 C 
ATOM     21  C   UNL A   1      32.106  28.072  25.373  1.00  0.00     0.104 C 
BRANCH  18  22
ATOM     22  C   UNL A   1      30.062  29.501  22.650  1.00  0.00     0.310 C 
ATOM     23  O   UNL A   1      29.904  29.386  21.440  1.00  0.00    -0.252 OA
BRANCH  22  24
ATOM     24  O   UNL A   1      29.145  30.010  23.508  1.00  0.00    -0.469 OA
ATOM     25  C   UNL A   1      27.786  29.871  23.102  1.00  0.00     0.282 C 
ENDBRANCH  22  24
ENDBRANCH  18  22
ENDBRANCH  14  17
ENDBRANCH   9  14
ENDBRANCH   6   8
ENDBRANCH   5   6
ENDBRANCH   4   5
ENDBRANCH   3   4
ENDBRANCH   2   3
ENDBRANCH   1   2
BRANCH   1  26
ATOM     26  C   UNL A   1      35.891  21.132  25.160  1.00  0.00     0.188 C 
BRANCH  26  27
ATOM     27  O   UNL A   1      37.087  20.569  24.657  1.00  0.00    -0.376 OA
BRANCH  27  28
ATOM     28  C   UNL A   1      38.306  20.744  25.370  1.00  0.00     0.202 C 
BRANCH  28  29
ATOM     29  C   UNL A   1      39.313  19.575  25.441  1.00  0.00     0.261 C 
BRANCH  29  30
ATOM     30  O   UNL A   1      40.266  19.589  26.524  1.00  0.00    -0.460 OA
BRANCH  30  31
ATOM     31  C   UNL A   1      41.555  19.886  26.226  1.00  0.00     0.338 C 
ATOM     32  O   UNL A   1      42.294  19.221  25.520  1.00  0.00    -0.246 OA
BRANCH  31  33
ATOM     33  C   UNL A   1      41.828  21.294  26.649  1.00  0.00     0.060 A 
ATOM     34  C   UNL A   1      41.668  22.306  25.691  1.00  0.00     0.016 A 
ATOM     35  C   UNL A   1      42.133  21.642  27.969  1.00  0.00     0.016 A 
ATOM     36  C   UNL A   1      41.858  23.649  26.033  1.00  0.00     0.010 A 
ATOM     37  C   UNL A   1      42.338  22.989  28.308  1.00  0.00     0.010 A 
ATOM     38  C   UNL A   1      42.239  23.999  27.335  1.00  0.00    -0.014 A 
BRANCH  38  39
ATOM     39  C   UNL A   1      42.767  25.366  27.612  1.00  0.00     0.031 A 
ATOM     40  C   UNL A   1      41.822  26.378  28.210  1.00  0.00     0.074 A 
ATOM     41  C   UNL A   1      44.049  25.712  27.390  1.00  0.00     0.049 A 
ATOM     42  N   UNL A   1      42.017  27.637  28.507  1.00  0.00    -0.248 NA
ATOM     43  C   UNL A   1      40.467  25.892  28.504  1.00  0.00     0.031 C 
ATOM     44  C   UNL A   1      45.092  24.824  26.883  1.00  0.00     0.029 A 
ATOM     45  N   UNL A   1      44.691  26.915  27.571  1.00  0.00    -0.354 N 
ATOM     46  C   UNL A   1      40.810  28.095  29.023  1.00  0.00     0.074 A 
ATOM     47  C   UNL A   1      39.876  26.991  28.940  1.00  0.00     0.031 C 
ATOM     48  C   UNL A   1      46.246  25.514  26.797  1.00  0.00     0.029 A 
ATOM     49  C   UNL A   1      46.017  26.901  27.203  1.00  0.00     0.049 A 
ATOM     50  H   UNL A   1      44.242  27.714  27.931  1.00  0.00     0.167 HD
ATOM     51  C   UNL A   1      40.503  29.315  29.536  1.00  0.00     0.034 A 
ATOM     52  C   UNL A   1      46.932  27.894  27.178  1.00  0.00     0.034 A 
ATOM     53  C   UNL A   1      41.427  30.420  29.589  1.00  0.00     0.049 A 
ATOM     54  C   UNL A   1      46.532  29.286  27.617  1.00  0.00     0.074 A 
ATOM     55  C   UNL A   1      41.216  31.699  30.078  1.00  0.00     0.029 A 
ATOM     56  N   UNL A   1      42.735  30.390  29.120  1.00  0.00    -0.354 N 
ATOM     57  N   UNL A   1      45.385  29.710  28.096  1.00  0.00    -0.248 NA
ATOM     58  C   UNL A   1      47.561  30.333  27.513  1.00  0.00     0.031 C 
ATOM     59  C   UNL A   1      42.362  32.462  29.826  1.00  0.00     0.029 A 
ATOM     60  C   UNL A   1      43.327  31.637  29.270  1.00  0.00     0.049 A 
ATOM     61  H   UNL A   1      43.178  29.599  28.736  1.00  0.00     0.167 HD
ATOM     62  C   UNL A   1      45.570  31.062  28.388  1.00  0.00     0.074 A 
ATOM     63  C   UNL A   1      46.939  31.378  28.040  1.00  0.00     0.031 C 
ATOM     64  C   UNL A   1      44.690  31.956  28.909  1.00  0.00     0.034 A 
BRANCH  51  65
ATOM     65  C   UNL A   1      39.084  29.514  30.019  1.00  0.00     0.023 A 
ATOM     66  C   UNL A   1      38.116  30.149  29.219  1.00  0.00     0.031 A 
ATOM     67  C   UNL A   1      38.713  29.138  31.321  1.00  0.00     0.131 A 
ATOM     68  C   UNL A   1      36.869  30.488  29.766  1.00  0.00     0.055 A 
ATOM     69  C   UNL A   1      37.433  29.384  31.823  1.00  0.00     0.041 A 
ATOM     70  F   UNL A   1      39.597  28.550  32.142  1.00  0.00    -0.206 F 
ATOM     71  C   UNL A   1      36.510  30.084  31.052  1.00  0.00     0.022 A 
BRANCH  68  72
ATOM     72  S   UNL A   1      35.813  31.643  28.846  1.00  0.00     0.124 S 
ATOM     73  O   UNL A   1      35.436  30.838  27.686  1.00  0.00    -0.237 OA
ATOM     74  O   UNL A   1      34.748  31.924  29.801  1.00  0.00    -0.237 OA
ATOM     75  O   UNL A   1      36.705  32.763  28.555  1.00  0.00    -0.744 OA
ENDBRANCH  68  72
ENDBRANCH  51  65
BRANCH  52  76
ATOM     76  C   UNL A   1      48.322  27.635  26.700  1.00  0.00     0.023 A 
ATOM     77  C   UNL A   1      49.366  27.396  27.609  1.00  0.00     0.031 A 
ATOM     78  C   UNL A   1      48.641  27.682  25.330  1.00  0.00     0.131 A 
ATOM     79  C   UNL A   1      50.683  27.253  27.144  1.00  0.00     0.055 A 
ATOM     80  C   UNL A   1      49.944  27.484  24.869  1.00  0.00     0.041 A 
ATOM     81  F   UNL A   1      47.686  27.919  24.419  1.00  0.00    -0.206 F 
ATOM     82  C   UNL A   1      50.977  27.278  25.779  1.00  0.00     0.022 A 
BRANCH  79  83
ATOM     83  S   UNL A   1      52.025  27.109  28.358  1.00  0.00     0.124 S 
ATOM     84  O   UNL A   1      52.786  25.985  27.825  1.00  0.00    -0.237 OA
ATOM     85  O   UNL A   1      52.661  28.419  28.263  1.00  0.00    -0.237 OA
ATOM     86  O   UNL A   1      51.322  26.850  29.612  1.00  0.00    -0.744 OA
ENDBRANCH  79  83
ENDBRANCH  52  76
BRANCH  64  87
ATOM     87  C   UNL A   1      45.198  33.355  29.189  1.00  0.00     0.023 A 
ATOM     88  C   UNL A   1      45.071  34.399  28.255  1.00  0.00     0.031 A 
ATOM     89  C   UNL A   1      45.833  33.645  30.411  1.00  0.00     0.131 A 
ATOM     90  C   UNL A   1      45.625  35.660  28.529  1.00  0.00     0.055 A 
ATOM     91  C   UNL A   1      46.319  34.919  30.708  1.00  0.00     0.041 A 
ATOM     92  F   UNL A   1      45.989  32.691  31.343  1.00  0.00    -0.206 F 
ATOM     93  C   UNL A   1      46.231  35.932  29.759  1.00  0.00     0.022 A 
BRANCH  90  94
ATOM     94  S   UNL A   1      45.646  36.910  27.215  1.00  0.00     0.124 S 
ATOM     95  O   UNL A   1      46.385  36.227  26.158  1.00  0.00    -0.237 OA
ATOM     96  O   UNL A   1      44.224  37.122  26.963  1.00  0.00    -0.237 OA
ATOM     97  O   UNL A   1      46.341  38.041  27.828  1.00  0.00    -0.744 OA
ENDBRANCH  90  94
ENDBRANCH  64  87
ENDBRANCH  38  39
ENDBRANCH  31  33
ENDBRANCH  30  31
ENDBRANCH  29  30
ENDBRANCH  28  29
ENDBRANCH  27  28
ENDBRANCH  26  27
ENDBRANCH   1  26
TORSDOF 24
ENDMDL
MODEL 3
REMARK VINA RESULT:      -9.8      4.843      9.650
REMARK SMILES COC(=O)[C@H]1CCN(S(=O)(=O)N2CCC[C@H](C(=O)OCCOCCOCCOC(=O)c3ccc(-c4c5nc(c(-c6cc(S(=O)(=O)[O-])ccc6F)c6ccc([nH]6)c(-c6cc(S(=O)(=O)[O-])ccc6F)c6nc(c(-c7cc(S(=O)(=O)[O-])ccc7F)c7ccc4[nH]7)C=C6)C=C5)cc3)C2)C1
REMARK SMILES IDX 23 1 22 2 21 3 20 4 19 5 17 6 18 7 16 8 12 9 13 10 94 11
REMARK SMILES IDX 14 12 15 13 9 14 10 15 11 16 8 17 5 18 6 19 95 20 7 21 3 22
REMARK SMILES IDX 4 23 2 24 1 25 24 26 25 27 26 28 27 29 28 30 29 31 30 32
REMARK SMILES IDX 31 33 32 34 93 35 33 36 92 37 34 38 35 39 36 40 86 41 37 42
REMARK SMILES IDX 91 43 85 44 87 45 38 46 90 47 84 48 83 49 39 51 71 52 51 53
REMARK SMILES IDX 70 54 52 55 55 56 69 57 88 58 53 59 54 60 68 62 89 63 56 64
REMARK SMILES IDX 40 65 41 66 49 67 42 68 48 69 50 70 47 71 43 72 44 73 45 74
REMARK SMILES IDX 46 75 72 76 73 77 81 78 74 79 80 80 82 81 79 82 75 83 76 84
REMARK SMILES IDX 77 85 78 86 57 87 58 88 66 89 59 90 65 91 67 92 64 93 60 94
REMARK SMILES IDX 61 95 62 96 63 97
REMARK H PARENT 87 50 55 61
REMARK Flexibility Score: inf
ROOT
ATOM      1  C   UNL A   1      33.260  18.822  24.784  1.00  0.00     0.188 C 
ENDROOT
BRANCH   1   2
ATOM      2  O   UNL A   1      32.543  19.246  23.630  1.00  0.00    -0.376 OA
BRANCH   2   3
ATOM      3  C   UNL A   1      32.145  20.617  23.565  1.00  0.00     0.202 C 
BRANCH   3   4
ATOM      4  C   UNL A   1      33.206  21.651  23.153  1.00  0.00     0.261 C 
BRANCH   4   5
ATOM      5  O   UNL A   1      33.041  22.945  23.774  1.00  0.00    -0.463 OA
BRANCH   5   6
ATOM      6  C   UNL A   1      32.181  23.781  23.146  1.00  0.00     0.310 C 
ATOM      7  O   UNL A   1      32.449  24.401  22.119  1.00  0.00    -0.252 OA
BRANCH   6   8
ATOM      8  C   UNL A   1      30.782  23.821  23.738  1.00  0.00     0.114 C 
ATOM      9  N   UNL A   1      30.876  26.219  24.151  1.00  0.00    -0.188 NA
ATOM     10  C   UNL A   1      30.608  26.128  25.594  1.00  0.00     0.103 C 
ATOM     11  C   UNL A   1      30.221  25.170  23.351  1.00  0.00     0.118 C 
ATOM     12  C   UNL A   1      31.027  24.747  26.108  1.00  0.00     0.018 C 
ATOM     13  C   UNL A   1      30.525  23.603  25.231  1.00  0.00     0.018 C 
BRANCH   9  14
ATOM     14  S   UNL A   1      31.154  27.707  23.453  1.00  0.00     0.282 S 
ATOM     15  O   UNL A   1      30.578  28.733  24.280  1.00  0.00    -0.195 OA
ATOM     16  O   UNL A   1      30.805  27.612  22.049  1.00  0.00    -0.195 OA
BRANCH  14  17
ATOM     17  N   UNL A   1      32.845  27.866  23.535  1.00  0.00    -0.188 NA
ATOM     18  C   UNL A   1      33.963  28.527  25.595  1.00  0.00     0.116 C 
ATOM     19  C   UNL A   1      33.780  27.020  25.559  1.00  0.00     0.033 C 
ATOM     20  C   UNL A   1      33.251  29.062  24.353  1.00  0.00     0.118 C 
ATOM     21  C   UNL A   1      33.651  26.744  24.081  1.00  0.00     0.104 C 
BRANCH  18  22
ATOM     22  C   UNL A   1      33.420  29.199  26.830  1.00  0.00     0.310 C 
ATOM     23  O   UNL A   1      32.449  28.775  27.447  1.00  0.00    -0.252 OA
BRANCH  22  24
ATOM     24  O   UNL A   1      34.171  30.265  27.201  1.00  0.00    -0.469 OA
ATOM     25  C   UNL A   1      35.345  29.954  27.947  1.00  0.00     0.282 C 
ENDBRANCH  22  24
ENDBRANCH  18  22
ENDBRANCH  14  17
ENDBRANCH   9  14
ENDBRANCH   6   8
ENDBRANCH   5   6
ENDBRANCH   4   5
ENDBRANCH   3   4
ENDBRANCH   2   3
ENDBRANCH   1   2
BRANCH   1  26
ATOM     26  C   UNL A   1      34.679  18.307  24.540  1.00  0.00     0.188 C 
BRANCH  26  27
ATOM     27  O   UNL A   1      35.687  19.293  24.647  1.00  0.00    -0.376 OA
BRANCH  27  28
ATOM     28  C   UNL A   1      35.449  20.467  25.416  1.00  0.00     0.202 C 
BRANCH  28  29
ATOM     29  C   UNL A   1      36.295  21.730  25.146  1.00  0.00     0.261 C 
BRANCH  29  30
ATOM     30  O   UNL A   1      37.648  21.534  24.687  1.00  0.00    -0.460 OA
BRANCH  30  31
ATOM     31  C   UNL A   1      38.558  21.074  25.580  1.00  0.00     0.338 C 
ATOM     32  O   UNL A   1      38.912  19.914  25.702  1.00  0.00    -0.246 OA
BRANCH  31  33
ATOM     33  C   UNL A   1      39.272  22.245  26.176  1.00  0.00     0.060 A 
ATOM     34  C   UNL A   1      38.727  23.520  25.963  1.00  0.00     0.016 A 
ATOM     35  C   UNL A   1      40.388  22.107  27.009  1.00  0.00     0.016 A 
ATOM     36  C   UNL A   1      39.316  24.653  26.535  1.00  0.00     0.010 A 
ATOM     37  C   UNL A   1      40.987  23.245  27.570  1.00  0.00     0.010 A 
ATOM     38  C   UNL A   1      40.479  24.531  27.307  1.00  0.00    -0.014 A 
BRANCH  38  39
ATOM     39  C   UNL A   1      41.289  25.741  27.626  1.00  0.00     0.031 A 
ATOM     40  C   UNL A   1      40.641  26.826  28.449  1.00  0.00     0.074 A 
ATOM     41  C   UNL A   1      42.574  25.879  27.247  1.00  0.00     0.049 A 
ATOM     42  N   UNL A   1      41.111  27.987  28.827  1.00  0.00    -0.248 NA
ATOM     43  C   UNL A   1      39.268  26.555  28.897  1.00  0.00     0.031 C 
ATOM     44  C   UNL A   1      43.353  24.887  26.510  1.00  0.00     0.029 A 
ATOM     45  N   UNL A   1      43.452  26.921  27.439  1.00  0.00    -0.354 N 
ATOM     46  C   UNL A   1      40.090  28.587  29.558  1.00  0.00     0.074 A 
ATOM     47  C   UNL A   1      38.961  27.682  29.515  1.00  0.00     0.031 C 
ATOM     48  C   UNL A   1      44.596  25.368  26.316  1.00  0.00     0.029 A 
ATOM     49  C   UNL A   1      44.691  26.716  26.876  1.00  0.00     0.049 A 
ATOM     50  H   UNL A   1      43.214  27.738  27.934  1.00  0.00     0.167 HD
ATOM     51  C   UNL A   1      40.092  29.772  30.221  1.00  0.00     0.034 A 
ATOM     52  C   UNL A   1      45.768  27.529  26.806  1.00  0.00     0.034 A 
ATOM     53  C   UNL A   1      41.209  30.683  30.236  1.00  0.00     0.049 A 
ATOM     54  C   UNL A   1      45.702  28.908  27.426  1.00  0.00     0.074 A 
ATOM     55  C   UNL A   1      41.312  31.913  30.866  1.00  0.00     0.029 A 
ATOM     56  N   UNL A   1      42.415  30.479  29.575  1.00  0.00    -0.354 N 
ATOM     57  N   UNL A   1      44.730  29.468  28.108  1.00  0.00    -0.248 NA
ATOM     58  C   UNL A   1      46.889  29.762  27.265  1.00  0.00     0.031 C 
ATOM     59  C   UNL A   1      42.539  32.486  30.516  1.00  0.00     0.029 A 
ATOM     60  C   UNL A   1      43.248  31.575  29.749  1.00  0.00     0.049 A 
ATOM     61  H   UNL A   1      42.645  29.673  29.059  1.00  0.00     0.167 HD
ATOM     62  C   UNL A   1      45.206  30.722  28.491  1.00  0.00     0.074 A 
ATOM     63  C   UNL A   1      46.553  30.831  27.972  1.00  0.00     0.031 C 
ATOM     64  C   UNL A   1      44.588  31.690  29.218  1.00  0.00     0.034 A 
BRANCH  51  65
ATOM     65  C   UNL A   1      38.813  30.160  30.927  1.00  0.00     0.023 A 
ATOM     66  C   UNL A   1      37.919  31.095  30.373  1.00  0.00     0.031 A 
ATOM     67  C   UNL A   1      38.519  29.651  32.204  1.00  0.00     0.131 A 
ATOM     68  C   UNL A   1      36.844  31.573  31.136  1.00  0.00     0.055 A 
ATOM     69  C   UNL A   1      37.387  30.054  32.915  1.00  0.00     0.041 A 
ATOM     70  F   UNL A   1      39.344  28.775  32.798  1.00  0.00    -0.206 F 
ATOM     71  C   UNL A   1      36.554  31.039  32.392  1.00  0.00     0.022 A 
BRANCH  68  72
ATOM     72  S   UNL A   1      35.963  33.048  30.550  1.00  0.00     0.124 S 
ATOM     73  O   UNL A   1      36.624  34.107  31.309  1.00  0.00    -0.237 OA
ATOM     74  O   UNL A   1      36.231  33.026  29.117  1.00  0.00    -0.237 OA
ATOM     75  O   UNL A   1      34.575  32.791  30.932  1.00  0.00    -0.744 OA
ENDBRANCH  68  72
ENDBRANCH  51  65
BRANCH  52  76
ATOM     76  C   UNL A   1      47.008  27.087  26.103  1.00  0.00     0.023 A 
ATOM     77  C   UNL A   1      48.032  26.418  26.795  1.00  0.00     0.031 A 
ATOM     78  C   UNL A   1      47.217  27.379  24.743  1.00  0.00     0.131 A 
ATOM     79  C   UNL A   1      49.232  26.100  26.138  1.00  0.00     0.055 A 
ATOM     80  C   UNL A   1      48.390  27.011  24.080  1.00  0.00     0.041 A 
ATOM     81  F   UNL A   1      46.279  28.027  24.036  1.00  0.00    -0.206 F 
ATOM     82  C   UNL A   1      49.411  26.376  24.781  1.00  0.00     0.022 A 
BRANCH  79  83
ATOM     83  S   UNL A   1      50.590  25.384  27.106  1.00  0.00     0.124 S 
ATOM     84  O   UNL A   1      49.895  24.364  27.883  1.00  0.00    -0.237 OA
ATOM     85  O   UNL A   1      51.483  24.898  26.060  1.00  0.00    -0.237 OA
ATOM     86  O   UNL A   1      51.095  26.520  27.875  1.00  0.00    -0.744 OA
ENDBRANCH  79  83
ENDBRANCH  52  76
BRANCH  64  87
ATOM     87  C   UNL A   1      45.386  32.935  29.545  1.00  0.00     0.023 A 
ATOM     88  C   UNL A   1      45.356  34.079  28.729  1.00  0.00     0.031 A 
ATOM     89  C   UNL A   1      46.202  32.970  30.691  1.00  0.00     0.131 A 
ATOM     90  C   UNL A   1      46.172  35.182  29.034  1.00  0.00     0.055 A 
ATOM     91  C   UNL A   1      46.957  34.095  31.028  1.00  0.00     0.041 A 
ATOM     92  F   UNL A   1      46.278  31.907  31.509  1.00  0.00    -0.206 F 
ATOM     93  C   UNL A   1      46.957  35.204  30.190  1.00  0.00     0.022 A 
BRANCH  90  94
ATOM     94  S   UNL A   1      46.282  36.544  27.840  1.00  0.00     0.124 S 
ATOM     95  O   UNL A   1      47.494  37.230  28.273  1.00  0.00    -0.237 OA
ATOM     96  O   UNL A   1      46.369  35.836  26.566  1.00  0.00    -0.237 OA
ATOM     97  O   UNL A   1      45.039  37.285  28.052  1.00  0.00    -0.744 OA
ENDBRANCH  90  94
ENDBRANCH  64  87
ENDBRANCH  38  39
ENDBRANCH  31  33
ENDBRANCH  30  31
ENDBRANCH  29  30
ENDBRANCH  28  29
ENDBRANCH  27  28
ENDBRANCH  26  27
ENDBRANCH   1  26
TORSDOF 24
ENDMDL
