MODEL 1
REMARK VINA RESULT:     -10.7      0.000      0.000
REMARK SMILES CCc1ccc2c(c1)C=C(C(=O)OCCOCCOCCOC(=O)c1ccc(-c3c4nc(c(-c5cc(S(=O)(=O)[O-])ccc5F)c5ccc([nH]5)c(-c5cc(S(=O)(=O)[O-])ccc5F)c5nc(c(-c6cc(S(=O)(=O)[O-])ccc6F)c6ccc3[nH]6)C=C5)C=C4)cc1)[C@H](C(F)(F)F)O2
REMARK SMILES IDX 18 1 17 2 16 3 15 4 14 5 13 6 11 7 12 8 10 9 3 10 4 11 8 12
REMARK SMILES IDX 5 13 7 14 6 15 9 16 93 17 88 18 2 19 1 20 89 21 90 22 91 23
REMARK SMILES IDX 92 24 19 25 20 26 21 27 22 28 23 29 24 30 25 31 26 32 87 33
REMARK SMILES IDX 27 34 86 35 28 36 29 37 30 38 80 39 31 40 85 41 79 42 81 43
REMARK SMILES IDX 32 44 84 45 78 46 77 47 33 49 65 50 45 51 64 52 46 53 49 54
REMARK SMILES IDX 63 55 82 56 47 57 48 58 62 60 83 61 50 62 34 63 35 64 43 65
REMARK SMILES IDX 36 66 42 67 44 68 41 69 37 70 38 71 39 72 40 73 66 74 67 75
REMARK SMILES IDX 75 76 68 77 74 78 76 79 73 80 69 81 70 82 71 83 72 84 51 85
REMARK SMILES IDX 52 86 60 87 53 88 59 89 61 90 58 91 54 92 55 93 56 94 57 95
REMARK H PARENT 81 48 49 59
REMARK Flexibility Score: inf
ROOT
ATOM      1  C   UNL A   1      31.603  29.336  26.711  1.00  0.00     0.188 C 
ENDROOT
BRANCH   1   2
ATOM      2  C   UNL A   1      32.473  28.156  27.190  1.00  0.00     0.188 C 
BRANCH   2   3
ATOM      3  O   UNL A   1      33.393  27.692  26.210  1.00  0.00    -0.376 OA
BRANCH   3   4
ATOM      4  C   UNL A   1      34.086  28.699  25.488  1.00  0.00     0.202 C 
BRANCH   4   5
ATOM      5  C   UNL A   1      34.411  28.282  24.053  1.00  0.00     0.261 C 
BRANCH   5   6
ATOM      6  O   UNL A   1      34.031  26.931  23.744  1.00  0.00    -0.460 OA
BRANCH   6   7
ATOM      7  C   UNL A   1      33.237  26.746  22.665  1.00  0.00     0.338 C 
ATOM      8  O   UNL A   1      33.576  26.241  21.610  1.00  0.00    -0.246 OA
BRANCH   7   9
ATOM      9  C   UNL A   1      31.864  27.185  22.986  1.00  0.00     0.087 C 
ATOM     10  C   UNL A   1      28.237  30.368  22.716  1.00  0.00    -0.047 A 
ATOM     11  C   UNL A   1      27.355  29.359  23.134  1.00  0.00     0.007 A 
ATOM     12  C   UNL A   1      29.601  30.059  22.581  1.00  0.00     0.015 A 
ATOM     13  C   UNL A   1      27.817  28.067  23.392  1.00  0.00     0.047 A 
ATOM     14  C   UNL A   1      30.064  28.760  22.819  1.00  0.00     0.018 A 
ATOM     15  C   UNL A   1      29.168  27.775  23.244  1.00  0.00     0.128 A 
ATOM     16  C   UNL A   1      31.445  28.382  22.538  1.00  0.00     0.027 C 
ATOM     17  O   UNL A   1      29.559  26.481  23.470  1.00  0.00    -0.475 OA
ATOM     18  C   UNL A   1      30.957  26.333  23.849  1.00  0.00     0.316 C 
BRANCH  10  19
ATOM     19  C   UNL A   1      27.708  31.758  22.449  1.00  0.00     0.032 C 
ATOM     20  C   UNL A   1      28.028  32.286  21.054  1.00  0.00     0.009 C 
ENDBRANCH  10  19
BRANCH  18  21
ATOM     21  C   UNL A   1      31.280  24.836  23.971  1.00  0.00     0.430 C 
ATOM     22  F   UNL A   1      30.280  24.180  24.610  1.00  0.00    -0.167 F 
ATOM     23  F   UNL A   1      31.368  24.272  22.739  1.00  0.00    -0.167 F 
ATOM     24  F   UNL A   1      32.439  24.599  24.613  1.00  0.00    -0.167 F 
ENDBRANCH  18  21
ENDBRANCH   7   9
ENDBRANCH   6   7
ENDBRANCH   5   6
ENDBRANCH   4   5
ENDBRANCH   3   4
ENDBRANCH   2   3
ENDBRANCH   1   2
BRANCH   1  25
ATOM     25  O   UNL A   1      31.815  30.642  27.235  1.00  0.00    -0.376 OA
BRANCH  25  26
ATOM     26  C   UNL A   1      31.410  31.770  26.474  1.00  0.00     0.202 C 
BRANCH  26  27
ATOM     27  C   UNL A   1      31.941  33.145  26.890  1.00  0.00     0.261 C 
BRANCH  27  28
ATOM     28  O   UNL A   1      32.807  33.122  28.035  1.00  0.00    -0.460 OA
BRANCH  28  29
ATOM     29  C   UNL A   1      33.954  33.838  27.905  1.00  0.00     0.338 C 
ATOM     30  O   UNL A   1      34.050  35.028  27.658  1.00  0.00    -0.246 OA
BRANCH  29  31
ATOM     31  C   UNL A   1      35.112  32.999  28.275  1.00  0.00     0.060 A 
ATOM     32  C   UNL A   1      34.878  31.657  28.604  1.00  0.00     0.016 A 
ATOM     33  C   UNL A   1      36.398  33.535  28.364  1.00  0.00     0.016 A 
ATOM     34  C   UNL A   1      35.926  30.850  29.049  1.00  0.00     0.010 A 
ATOM     35  C   UNL A   1      37.442  32.732  28.835  1.00  0.00     0.010 A 
ATOM     36  C   UNL A   1      37.207  31.394  29.204  1.00  0.00    -0.014 A 
BRANCH  36  37
ATOM     37  C   UNL A   1      38.261  30.630  29.916  1.00  0.00     0.031 A 
ATOM     38  C   UNL A   1      38.555  30.979  31.350  1.00  0.00     0.074 A 
ATOM     39  C   UNL A   1      38.949  29.652  29.302  1.00  0.00     0.049 A 
ATOM     40  N   UNL A   1      39.498  30.533  32.138  1.00  0.00    -0.248 NA
ATOM     41  C   UNL A   1      37.664  31.970  31.972  1.00  0.00     0.031 C 
ATOM     42  C   UNL A   1      38.714  29.182  27.938  1.00  0.00     0.029 A 
ATOM     43  N   UNL A   1      40.003  28.891  29.745  1.00  0.00    -0.354 N 
ATOM     44  C   UNL A   1      39.318  31.191  33.351  1.00  0.00     0.074 A 
ATOM     45  C   UNL A   1      38.192  32.085  33.181  1.00  0.00     0.031 C 
ATOM     46  C   UNL A   1      39.616  28.228  27.647  1.00  0.00     0.029 A 
ATOM     47  C   UNL A   1      40.518  28.053  28.784  1.00  0.00     0.049 A 
ATOM     48  H   UNL A   1      40.355  28.940  30.663  1.00  0.00     0.167 HD
ATOM     49  C   UNL A   1      40.026  31.059  34.500  1.00  0.00     0.034 A 
ATOM     50  C   UNL A   1      41.614  27.266  28.809  1.00  0.00     0.034 A 
ATOM     51  C   UNL A   1      41.161  30.184  34.648  1.00  0.00     0.049 A 
ATOM     52  C   UNL A   1      42.458  27.220  30.062  1.00  0.00     0.074 A 
ATOM     53  C   UNL A   1      41.951  29.972  35.765  1.00  0.00     0.029 A 
ATOM     54  N   UNL A   1      41.684  29.385  33.637  1.00  0.00    -0.354 N 
ATOM     55  N   UNL A   1      42.284  27.850  31.202  1.00  0.00    -0.248 NA
ATOM     56  C   UNL A   1      43.647  26.357  30.032  1.00  0.00     0.031 C 
ATOM     57  C   UNL A   1      42.987  29.101  35.413  1.00  0.00     0.029 A 
ATOM     58  C   UNL A   1      42.804  28.708  34.096  1.00  0.00     0.049 A 
ATOM     59  H   UNL A   1      41.313  29.310  32.729  1.00  0.00     0.167 HD
ATOM     60  C   UNL A   1      43.321  27.431  32.032  1.00  0.00     0.074 A 
ATOM     61  C   UNL A   1      44.114  26.494  31.265  1.00  0.00     0.031 C 
ATOM     62  C   UNL A   1      43.589  27.781  33.316  1.00  0.00     0.034 A 
BRANCH  49  63
ATOM     63  C   UNL A   1      39.621  31.933  35.661  1.00  0.00     0.023 A 
ATOM     64  C   UNL A   1      38.791  31.458  36.691  1.00  0.00     0.031 A 
ATOM     65  C   UNL A   1      40.039  33.275  35.716  1.00  0.00     0.131 A 
ATOM     66  C   UNL A   1      38.347  32.335  37.693  1.00  0.00     0.055 A 
ATOM     67  C   UNL A   1      39.655  34.123  36.756  1.00  0.00     0.041 A 
ATOM     68  F   UNL A   1      40.812  33.790  34.748  1.00  0.00    -0.206 F 
ATOM     69  C   UNL A   1      38.793  33.658  37.746  1.00  0.00     0.022 A 
BRANCH  66  70
ATOM     70  S   UNL A   1      37.070  31.761  38.846  1.00  0.00     0.124 S 
ATOM     71  O   UNL A   1      36.903  30.370  38.431  1.00  0.00    -0.237 OA
ATOM     72  O   UNL A   1      37.700  31.970  40.144  1.00  0.00    -0.237 OA
ATOM     73  O   UNL A   1      35.931  32.631  38.556  1.00  0.00    -0.744 OA
ENDBRANCH  66  70
ENDBRANCH  49  63
BRANCH  50  74
ATOM     74  C   UNL A   1      42.026  26.503  27.596  1.00  0.00     0.023 A 
ATOM     75  C   UNL A   1      41.743  25.134  27.467  1.00  0.00     0.031 A 
ATOM     76  C   UNL A   1      42.769  27.122  26.575  1.00  0.00     0.131 A 
ATOM     77  C   UNL A   1      42.239  24.418  26.366  1.00  0.00     0.055 A 
ATOM     78  C   UNL A   1      43.216  26.417  25.456  1.00  0.00     0.041 A 
ATOM     79  F   UNL A   1      43.073  28.427  26.652  1.00  0.00    -0.206 F 
ATOM     80  C   UNL A   1      42.962  25.053  25.353  1.00  0.00     0.022 A 
BRANCH  77  81
ATOM     81  S   UNL A   1      42.004  22.619  26.319  1.00  0.00     0.124 S 
ATOM     82  O   UNL A   1      42.614  22.274  25.040  1.00  0.00    -0.237 OA
ATOM     83  O   UNL A   1      42.726  22.188  27.512  1.00  0.00    -0.237 OA
ATOM     84  O   UNL A   1      40.552  22.463  26.382  1.00  0.00    -0.744 OA
ENDBRANCH  77  81
ENDBRANCH  50  74
BRANCH  62  85
ATOM     85  C   UNL A   1      44.758  27.102  33.988  1.00  0.00     0.023 A 
ATOM     86  C   UNL A   1      44.607  25.912  34.722  1.00  0.00     0.031 A 
ATOM     87  C   UNL A   1      46.046  27.656  33.881  1.00  0.00     0.131 A 
ATOM     88  C   UNL A   1      45.721  25.338  35.355  1.00  0.00     0.055 A 
ATOM     89  C   UNL A   1      47.158  27.053  34.469  1.00  0.00     0.041 A 
ATOM     90  F   UNL A   1      46.246  28.791  33.192  1.00  0.00    -0.206 F 
ATOM     91  C   UNL A   1      46.997  25.892  35.219  1.00  0.00     0.022 A 
BRANCH  88  92
ATOM     92  S   UNL A   1      45.473  23.886  36.415  1.00  0.00     0.124 S 
ATOM     93  O   UNL A   1      44.956  24.489  37.639  1.00  0.00    -0.237 OA
ATOM     94  O   UNL A   1      44.522  23.094  35.643  1.00  0.00    -0.237 OA
ATOM     95  O   UNL A   1      46.812  23.309  36.526  1.00  0.00    -0.744 OA
ENDBRANCH  88  92
ENDBRANCH  62  85
ENDBRANCH  36  37
ENDBRANCH  29  31
ENDBRANCH  28  29
ENDBRANCH  27  28
ENDBRANCH  26  27
ENDBRANCH  25  26
ENDBRANCH   1  25
TORSDOF 22
ENDMDL
MODEL 2
REMARK VINA RESULT:     -10.5      2.088      4.001
REMARK SMILES CCc1ccc2c(c1)C=C(C(=O)OCCOCCOCCOC(=O)c1ccc(-c3c4nc(c(-c5cc(S(=O)(=O)[O-])ccc5F)c5ccc([nH]5)c(-c5cc(S(=O)(=O)[O-])ccc5F)c5nc(c(-c6cc(S(=O)(=O)[O-])ccc6F)c6ccc3[nH]6)C=C5)C=C4)cc1)[C@H](C(F)(F)F)O2
REMARK SMILES IDX 18 1 17 2 16 3 15 4 14 5 13 6 11 7 12 8 10 9 3 10 4 11 8 12
REMARK SMILES IDX 5 13 7 14 6 15 9 16 93 17 88 18 2 19 1 20 89 21 90 22 91 23
REMARK SMILES IDX 92 24 19 25 20 26 21 27 22 28 23 29 24 30 25 31 26 32 87 33
REMARK SMILES IDX 27 34 86 35 28 36 29 37 30 38 80 39 31 40 85 41 79 42 81 43
REMARK SMILES IDX 32 44 84 45 78 46 77 47 33 49 65 50 45 51 64 52 46 53 49 54
REMARK SMILES IDX 63 55 82 56 47 57 48 58 62 60 83 61 50 62 34 63 35 64 43 65
REMARK SMILES IDX 36 66 42 67 44 68 41 69 37 70 38 71 39 72 40 73 66 74 67 75
REMARK SMILES IDX 75 76 68 77 74 78 76 79 73 80 69 81 70 82 71 83 72 84 51 85
REMARK SMILES IDX 52 86 60 87 53 88 59 89 61 90 58 91 54 92 55 93 56 94 57 95
REMARK H PARENT 81 48 49 59
REMARK Flexibility Score: inf
ROOT
ATOM      1  C   UNL A   1      31.798  29.775  25.298  1.00  0.00     0.188 C 
ENDROOT
BRANCH   1   2
ATOM      2  C   UNL A   1      30.626  29.970  24.314  1.00  0.00     0.188 C 
BRANCH   2   3
ATOM      3  O   UNL A   1      30.470  28.898  23.394  1.00  0.00    -0.376 OA
BRANCH   3   4
ATOM      4  C   UNL A   1      31.123  27.686  23.741  1.00  0.00     0.202 C 
BRANCH   4   5
ATOM      5  C   UNL A   1      30.238  26.455  23.535  1.00  0.00     0.261 C 
BRANCH   5   6
ATOM      6  O   UNL A   1      30.873  25.220  23.902  1.00  0.00    -0.460 OA
BRANCH   6   7
ATOM      7  C   UNL A   1      31.832  24.750  23.072  1.00  0.00     0.338 C 
ATOM      8  O   UNL A   1      32.176  25.259  22.021  1.00  0.00    -0.246 OA
BRANCH   7   9
ATOM      9  C   UNL A   1      32.459  23.556  23.675  1.00  0.00     0.087 C 
ATOM     10  C   UNL A   1      33.269  18.793  23.834  1.00  0.00    -0.047 A 
ATOM     11  C   UNL A   1      34.377  19.036  24.661  1.00  0.00     0.007 A 
ATOM     12  C   UNL A   1      32.509  19.887  23.386  1.00  0.00     0.015 A 
ATOM     13  C   UNL A   1      34.733  20.338  25.017  1.00  0.00     0.047 A 
ATOM     14  C   UNL A   1      32.874  21.195  23.723  1.00  0.00     0.018 A 
ATOM     15  C   UNL A   1      33.976  21.411  24.557  1.00  0.00     0.128 A 
ATOM     16  C   UNL A   1      32.193  22.348  23.146  1.00  0.00     0.027 C 
ATOM     17  O   UNL A   1      34.395  22.669  24.902  1.00  0.00    -0.475 OA
ATOM     18  C   UNL A   1      33.342  23.675  24.899  1.00  0.00     0.316 C 
BRANCH  10  19
ATOM     19  C   UNL A   1      32.906  17.373  23.469  1.00  0.00     0.032 C 
ATOM     20  C   UNL A   1      34.092  16.414  23.457  1.00  0.00     0.009 C 
ENDBRANCH  10  19
BRANCH  18  21
ATOM     21  C   UNL A   1      33.968  25.044  25.203  1.00  0.00     0.430 C 
ATOM     22  F   UNL A   1      34.039  25.800  24.080  1.00  0.00    -0.167 F 
ATOM     23  F   UNL A   1      33.185  25.736  26.070  1.00  0.00    -0.167 F 
ATOM     24  F   UNL A   1      35.196  24.952  25.748  1.00  0.00    -0.167 F 
ENDBRANCH  18  21
ENDBRANCH   7   9
ENDBRANCH   6   7
ENDBRANCH   5   6
ENDBRANCH   4   5
ENDBRANCH   3   4
ENDBRANCH   2   3
ENDBRANCH   1   2
BRANCH   1  25
ATOM     25  O   UNL A   1      31.948  30.645  26.414  1.00  0.00    -0.376 OA
BRANCH  25  26
ATOM     26  C   UNL A   1      31.211  31.859  26.453  1.00  0.00     0.202 C 
BRANCH  26  27
ATOM     27  C   UNL A   1      31.955  33.139  26.844  1.00  0.00     0.261 C 
BRANCH  27  28
ATOM     28  O   UNL A   1      32.806  33.000  27.992  1.00  0.00    -0.460 OA
BRANCH  28  29
ATOM     29  C   UNL A   1      33.938  33.750  27.965  1.00  0.00     0.338 C 
ATOM     30  O   UNL A   1      34.013  34.956  27.799  1.00  0.00    -0.246 OA
BRANCH  29  31
ATOM     31  C   UNL A   1      35.099  32.918  28.337  1.00  0.00     0.060 A 
ATOM     32  C   UNL A   1      34.871  31.576  28.672  1.00  0.00     0.016 A 
ATOM     33  C   UNL A   1      36.383  33.459  28.424  1.00  0.00     0.016 A 
ATOM     34  C   UNL A   1      35.923  30.775  29.119  1.00  0.00     0.010 A 
ATOM     35  C   UNL A   1      37.431  32.662  28.897  1.00  0.00     0.010 A 
ATOM     36  C   UNL A   1      37.202  31.325  29.271  1.00  0.00    -0.014 A 
BRANCH  36  37
ATOM     37  C   UNL A   1      38.259  30.568  29.986  1.00  0.00     0.031 A 
ATOM     38  C   UNL A   1      38.531  30.902  31.428  1.00  0.00     0.074 A 
ATOM     39  C   UNL A   1      38.970  29.609  29.367  1.00  0.00     0.049 A 
ATOM     40  N   UNL A   1      39.472  30.460  32.221  1.00  0.00    -0.248 NA
ATOM     41  C   UNL A   1      37.617  31.870  32.052  1.00  0.00     0.031 C 
ATOM     42  C   UNL A   1      38.758  29.154  27.994  1.00  0.00     0.029 A 
ATOM     43  N   UNL A   1      40.030  28.859  29.812  1.00  0.00    -0.354 N 
ATOM     44  C   UNL A   1      39.266  31.098  33.440  1.00  0.00     0.074 A 
ATOM     45  C   UNL A   1      38.129  31.977  33.269  1.00  0.00     0.031 C 
ATOM     46  C   UNL A   1      39.679  28.219  27.701  1.00  0.00     0.029 A 
ATOM     47  C   UNL A   1      40.570  28.042  28.847  1.00  0.00     0.049 A 
ATOM     48  H   UNL A   1      40.371  28.901  30.735  1.00  0.00     0.167 HD
ATOM     49  C   UNL A   1      39.963  30.962  34.596  1.00  0.00     0.034 A 
ATOM     50  C   UNL A   1      41.679  27.273  28.874  1.00  0.00     0.034 A 
ATOM     51  C   UNL A   1      41.110  30.103  34.745  1.00  0.00     0.049 A 
ATOM     52  C   UNL A   1      42.508  27.223  30.137  1.00  0.00     0.074 A 
ATOM     53  C   UNL A   1      41.890  29.889  35.869  1.00  0.00     0.029 A 
ATOM     54  N   UNL A   1      41.657  29.327  33.731  1.00  0.00    -0.354 N 
ATOM     55  N   UNL A   1      42.310  27.834  31.282  1.00  0.00    -0.248 NA
ATOM     56  C   UNL A   1      43.711  26.379  30.109  1.00  0.00     0.031 C 
ATOM     57  C   UNL A   1      42.944  29.039  35.517  1.00  0.00     0.029 A 
ATOM     58  C   UNL A   1      42.782  28.661  34.194  1.00  0.00     0.049 A 
ATOM     59  H   UNL A   1      41.299  29.259  32.817  1.00  0.00     0.167 HD
ATOM     60  C   UNL A   1      43.344  27.421  32.119  1.00  0.00     0.074 A 
ATOM     61  C   UNL A   1      44.161  26.507  31.349  1.00  0.00     0.031 C 
ATOM     62  C   UNL A   1      43.591  27.757  33.411  1.00  0.00     0.034 A 
BRANCH  49  63
ATOM     63  C   UNL A   1      39.531  31.814  35.763  1.00  0.00     0.023 A 
ATOM     64  C   UNL A   1      38.730  31.300  36.799  1.00  0.00     0.031 A 
ATOM     65  C   UNL A   1      39.891  33.173  35.820  1.00  0.00     0.131 A 
ATOM     66  C   UNL A   1      38.258  32.154  37.807  1.00  0.00     0.055 A 
ATOM     67  C   UNL A   1      39.480  33.999  36.867  1.00  0.00     0.041 A 
ATOM     68  F   UNL A   1      40.633  33.724  34.848  1.00  0.00    -0.206 F 
ATOM     69  C   UNL A   1      38.646  33.495  37.862  1.00  0.00     0.022 A 
BRANCH  66  70
ATOM     70  S   UNL A   1      37.015  31.521  38.968  1.00  0.00     0.124 S 
ATOM     71  O   UNL A   1      37.715  31.646  40.245  1.00  0.00    -0.237 OA
ATOM     72  O   UNL A   1      35.897  32.433  38.761  1.00  0.00    -0.237 OA
ATOM     73  O   UNL A   1      36.794  30.148  38.519  1.00  0.00    -0.744 OA
ENDBRANCH  66  70
ENDBRANCH  49  63
BRANCH  50  74
ATOM     74  C   UNL A   1      42.117  26.533  27.656  1.00  0.00     0.023 A 
ATOM     75  C   UNL A   1      41.914  25.149  27.533  1.00  0.00     0.031 A 
ATOM     76  C   UNL A   1      42.806  27.193  26.623  1.00  0.00     0.131 A 
ATOM     77  C   UNL A   1      42.435  24.461  26.425  1.00  0.00     0.055 A 
ATOM     78  C   UNL A   1      43.277  26.513  25.498  1.00  0.00     0.041 A 
ATOM     79  F   UNL A   1      43.032  28.514  26.693  1.00  0.00    -0.206 F 
ATOM     80  C   UNL A   1      43.104  25.136  25.401  1.00  0.00     0.022 A 
BRANCH  77  81
ATOM     81  S   UNL A   1      42.308  22.651  26.385  1.00  0.00     0.124 S 
ATOM     82  O   UNL A   1      42.669  22.360  25.002  1.00  0.00    -0.237 OA
ATOM     83  O   UNL A   1      43.279  22.256  27.400  1.00  0.00    -0.237 OA
ATOM     84  O   UNL A   1      40.911  22.401  26.732  1.00  0.00    -0.744 OA
ENDBRANCH  77  81
ENDBRANCH  50  74
BRANCH  62  85
ATOM     85  C   UNL A   1      44.763  27.088  34.088  1.00  0.00     0.023 A 
ATOM     86  C   UNL A   1      44.637  25.852  34.746  1.00  0.00     0.031 A 
ATOM     87  C   UNL A   1      46.030  27.699  34.062  1.00  0.00     0.131 A 
ATOM     88  C   UNL A   1      45.751  25.287  35.388  1.00  0.00     0.055 A 
ATOM     89  C   UNL A   1      47.144  27.107  34.657  1.00  0.00     0.041 A 
ATOM     90  F   UNL A   1      46.206  28.879  33.447  1.00  0.00    -0.206 F 
ATOM     91  C   UNL A   1      47.006  25.899  35.332  1.00  0.00     0.022 A 
BRANCH  88  92
ATOM     92  S   UNL A   1      45.526  23.767  36.352  1.00  0.00     0.124 S 
ATOM     93  O   UNL A   1      46.881  23.224  36.383  1.00  0.00    -0.237 OA
ATOM     94  O   UNL A   1      45.014  24.273  37.621  1.00  0.00    -0.237 OA
ATOM     95  O   UNL A   1      44.567  22.997  35.562  1.00  0.00    -0.744 OA
ENDBRANCH  88  92
ENDBRANCH  62  85
ENDBRANCH  36  37
ENDBRANCH  29  31
ENDBRANCH  28  29
ENDBRANCH  27  28
ENDBRANCH  26  27
ENDBRANCH  25  26
ENDBRANCH   1  25
TORSDOF 22
ENDMDL
MODEL 3
REMARK VINA RESULT:     -10.2      2.632      4.613
REMARK SMILES CCc1ccc2c(c1)C=C(C(=O)OCCOCCOCCOC(=O)c1ccc(-c3c4nc(c(-c5cc(S(=O)(=O)[O-])ccc5F)c5ccc([nH]5)c(-c5cc(S(=O)(=O)[O-])ccc5F)c5nc(c(-c6cc(S(=O)(=O)[O-])ccc6F)c6ccc3[nH]6)C=C5)C=C4)cc1)[C@H](C(F)(F)F)O2
REMARK SMILES IDX 18 1 17 2 16 3 15 4 14 5 13 6 11 7 12 8 10 9 3 10 4 11 8 12
REMARK SMILES IDX 5 13 7 14 6 15 9 16 93 17 88 18 2 19 1 20 89 21 90 22 91 23
REMARK SMILES IDX 92 24 19 25 20 26 21 27 22 28 23 29 24 30 25 31 26 32 87 33
REMARK SMILES IDX 27 34 86 35 28 36 29 37 30 38 80 39 31 40 85 41 79 42 81 43
REMARK SMILES IDX 32 44 84 45 78 46 77 47 33 49 65 50 45 51 64 52 46 53 49 54
REMARK SMILES IDX 63 55 82 56 47 57 48 58 62 60 83 61 50 62 34 63 35 64 43 65
REMARK SMILES IDX 36 66 42 67 44 68 41 69 37 70 38 71 39 72 40 73 66 74 67 75
REMARK SMILES IDX 75 76 68 77 74 78 76 79 73 80 69 81 70 82 71 83 72 84 51 85
REMARK SMILES IDX 52 86 60 87 53 88 59 89 61 90 58 91 54 92 55 93 56 94 57 95
REMARK H PARENT 81 48 49 59
REMARK Flexibility Score: inf
ROOT
ATOM      1  C   UNL A   1      33.003  28.350  24.001  1.00  0.00     0.188 C 
ENDROOT
BRANCH   1   2
ATOM      2  C   UNL A   1      32.697  26.903  23.563  1.00  0.00     0.188 C 
BRANCH   2   3
ATOM      3  O   UNL A   1      31.318  26.662  23.315  1.00  0.00    -0.376 OA
BRANCH   3   4
ATOM      4  C   UNL A   1      30.668  25.792  24.230  1.00  0.00     0.202 C 
BRANCH   4   5
ATOM      5  C   UNL A   1      30.549  24.360  23.704  1.00  0.00     0.261 C 
BRANCH   5   6
ATOM      6  O   UNL A   1      31.774  23.613  23.782  1.00  0.00    -0.460 OA
BRANCH   6   7
ATOM      7  C   UNL A   1      32.110  23.106  24.990  1.00  0.00     0.338 C 
ATOM      8  O   UNL A   1      31.358  22.962  25.936  1.00  0.00    -0.246 OA
BRANCH   7   9
ATOM      9  C   UNL A   1      33.525  22.679  24.965  1.00  0.00     0.087 C 
ATOM     10  C   UNL A   1      38.186  23.317  26.070  1.00  0.00    -0.047 A 
ATOM     11  C   UNL A   1      38.409  21.958  25.799  1.00  0.00     0.007 A 
ATOM     12  C   UNL A   1      36.887  23.831  25.919  1.00  0.00     0.015 A 
ATOM     13  C   UNL A   1      37.360  21.125  25.407  1.00  0.00     0.047 A 
ATOM     14  C   UNL A   1      35.829  22.995  25.546  1.00  0.00     0.018 A 
ATOM     15  C   UNL A   1      36.078  21.647  25.271  1.00  0.00     0.128 A 
ATOM     16  C   UNL A   1      34.450  23.473  25.532  1.00  0.00     0.027 C 
ATOM     17  O   UNL A   1      35.079  20.776  24.924  1.00  0.00    -0.475 OA
ATOM     18  C   UNL A   1      33.938  21.399  24.269  1.00  0.00     0.316 C 
BRANCH  10  19
ATOM     19  C   UNL A   1      39.343  24.195  26.489  1.00  0.00     0.032 C 
ATOM     20  C   UNL A   1      39.297  24.625  27.951  1.00  0.00     0.009 C 
ENDBRANCH  10  19
BRANCH  18  21
ATOM     21  C   UNL A   1      32.861  20.331  24.030  1.00  0.00     0.430 C 
ATOM     22  F   UNL A   1      32.143  20.613  22.915  1.00  0.00    -0.167 F 
ATOM     23  F   UNL A   1      33.439  19.123  23.806  1.00  0.00    -0.167 F 
ATOM     24  F   UNL A   1      32.017  20.193  25.070  1.00  0.00    -0.167 F 
ENDBRANCH  18  21
ENDBRANCH   7   9
ENDBRANCH   6   7
ENDBRANCH   5   6
ENDBRANCH   4   5
ENDBRANCH   3   4
ENDBRANCH   2   3
ENDBRANCH   1   2
BRANCH   1  25
ATOM     25  O   UNL A   1      31.941  29.270  24.222  1.00  0.00    -0.376 OA
BRANCH  25  26
ATOM     26  C   UNL A   1      31.347  29.350  25.509  1.00  0.00     0.202 C 
BRANCH  26  27
ATOM     27  C   UNL A   1      31.749  30.518  26.414  1.00  0.00     0.261 C 
BRANCH  27  28
ATOM     28  O   UNL A   1      33.119  30.927  26.279  1.00  0.00    -0.460 OA
BRANCH  28  29
ATOM     29  C   UNL A   1      33.572  31.756  27.254  1.00  0.00     0.338 C 
ATOM     30  O   UNL A   1      32.946  32.641  27.812  1.00  0.00    -0.246 OA
BRANCH  29  31
ATOM     31  C   UNL A   1      34.918  31.330  27.688  1.00  0.00     0.060 A 
ATOM     32  C   UNL A   1      35.165  29.957  27.826  1.00  0.00     0.016 A 
ATOM     33  C   UNL A   1      35.903  32.263  28.020  1.00  0.00     0.016 A 
ATOM     34  C   UNL A   1      36.391  29.510  28.320  1.00  0.00     0.010 A 
ATOM     35  C   UNL A   1      37.121  31.814  28.540  1.00  0.00     0.010 A 
ATOM     36  C   UNL A   1      37.362  30.438  28.717  1.00  0.00    -0.014 A 
BRANCH  36  37
ATOM     37  C   UNL A   1      38.553  29.992  29.481  1.00  0.00     0.031 A 
ATOM     38  C   UNL A   1      38.742  30.506  30.882  1.00  0.00     0.074 A 
ATOM     39  C   UNL A   1      39.454  29.152  28.940  1.00  0.00     0.049 A 
ATOM     40  N   UNL A   1      39.752  30.348  31.698  1.00  0.00    -0.248 NA
ATOM     41  C   UNL A   1      37.641  31.311  31.431  1.00  0.00     0.031 C 
ATOM     42  C   UNL A   1      39.349  28.539  27.618  1.00  0.00     0.029 A 
ATOM     43  N   UNL A   1      40.647  28.688  29.435  1.00  0.00    -0.354 N 
ATOM     44  C   UNL A   1      39.411  31.037  32.857  1.00  0.00     0.074 A 
ATOM     45  C   UNL A   1      38.113  31.636  32.625  1.00  0.00     0.031 C 
ATOM     46  C   UNL A   1      40.449  27.797  27.396  1.00  0.00     0.029 A 
ATOM     47  C   UNL A   1      41.352  27.918  28.539  1.00  0.00     0.049 A 
ATOM     48  H   UNL A   1      40.967  28.885  30.345  1.00  0.00     0.167 HD
ATOM     49  C   UNL A   1      40.116  31.158  34.010  1.00  0.00     0.034 A 
ATOM     50  C   UNL A   1      42.599  27.407  28.619  1.00  0.00     0.034 A 
ATOM     51  C   UNL A   1      41.419  30.578  34.218  1.00  0.00     0.049 A 
ATOM     52  C   UNL A   1      43.415  27.649  29.868  1.00  0.00     0.074 A 
ATOM     53  C   UNL A   1      42.221  30.638  35.345  1.00  0.00     0.029 A 
ATOM     54  N   UNL A   1      42.122  29.846  33.270  1.00  0.00    -0.354 N 
ATOM     55  N   UNL A   1      43.087  28.307  30.957  1.00  0.00    -0.248 NA
ATOM     56  C   UNL A   1      44.769  27.081  29.898  1.00  0.00     0.031 C 
ATOM     57  C   UNL A   1      43.433  30.002  35.055  1.00  0.00     0.029 A 
ATOM     58  C   UNL A   1      43.361  29.478  33.774  1.00  0.00     0.049 A 
ATOM     59  H   UNL A   1      41.790  29.620  32.372  1.00  0.00     0.167 HD
ATOM     60  C   UNL A   1      44.182  28.201  31.811  1.00  0.00     0.074 A 
ATOM     61  C   UNL A   1      45.177  27.413  31.115  1.00  0.00     0.031 C 
ATOM     62  C   UNL A   1      44.346  28.698  33.063  1.00  0.00     0.034 A 
BRANCH  49  63
ATOM     63  C   UNL A   1      39.508  32.002  35.102  1.00  0.00     0.023 A 
ATOM     64  C   UNL A   1      39.865  33.350  35.281  1.00  0.00     0.031 A 
ATOM     65  C   UNL A   1      38.587  31.439  36.003  1.00  0.00     0.131 A 
ATOM     66  C   UNL A   1      39.361  34.068  36.377  1.00  0.00     0.055 A 
ATOM     67  C   UNL A   1      38.031  32.180  37.047  1.00  0.00     0.041 A 
ATOM     68  F   UNL A   1      38.227  30.150  35.895  1.00  0.00    -0.206 F 
ATOM     69  C   UNL A   1      38.428  33.500  37.247  1.00  0.00     0.022 A 
BRANCH  66  70
ATOM     70  S   UNL A   1      40.049  35.710  36.730  1.00  0.00     0.124 S 
ATOM     71  O   UNL A   1      39.429  36.018  38.017  1.00  0.00    -0.237 OA
ATOM     72  O   UNL A   1      41.483  35.452  36.757  1.00  0.00    -0.237 OA
ATOM     73  O   UNL A   1      39.581  36.524  35.610  1.00  0.00    -0.744 OA
ENDBRANCH  66  70
ENDBRANCH  49  63
BRANCH  50  74
ATOM     74  C   UNL A   1      43.189  26.668  27.466  1.00  0.00     0.023 A 
ATOM     75  C   UNL A   1      42.982  25.289  27.303  1.00  0.00     0.031 A 
ATOM     76  C   UNL A   1      44.025  27.323  26.545  1.00  0.00     0.131 A 
ATOM     77  C   UNL A   1      43.640  24.600  26.272  1.00  0.00     0.055 A 
ATOM     78  C   UNL A   1      44.636  26.643  25.489  1.00  0.00     0.041 A 
ATOM     79  F   UNL A   1      44.262  28.639  26.658  1.00  0.00    -0.206 F 
ATOM     80  C   UNL A   1      44.456  25.270  25.356  1.00  0.00     0.022 A 
BRANCH  77  81
ATOM     81  S   UNL A   1      43.490  22.793  26.197  1.00  0.00     0.124 S 
ATOM     82  O   UNL A   1      42.800  22.502  27.448  1.00  0.00    -0.237 OA
ATOM     83  O   UNL A   1      42.713  22.604  24.976  1.00  0.00    -0.237 OA
ATOM     84  O   UNL A   1      44.877  22.338  26.127  1.00  0.00    -0.744 OA
ENDBRANCH  77  81
ENDBRANCH  50  74
BRANCH  62  85
ATOM     85  C   UNL A   1      45.630  28.358  33.780  1.00  0.00     0.023 A 
ATOM     86  C   UNL A   1      45.758  27.203  34.572  1.00  0.00     0.031 A 
ATOM     87  C   UNL A   1      46.748  29.202  33.656  1.00  0.00     0.131 A 
ATOM     88  C   UNL A   1      46.964  26.948  35.244  1.00  0.00     0.055 A 
ATOM     89  C   UNL A   1      47.961  28.916  34.284  1.00  0.00     0.041 A 
ATOM     90  F   UNL A   1      46.681  30.317  32.911  1.00  0.00    -0.206 F 
ATOM     91  C   UNL A   1      48.070  27.788  35.091  1.00  0.00     0.022 A 
BRANCH  88  92
ATOM     92  S   UNL A   1      47.052  25.531  36.375  1.00  0.00     0.124 S 
ATOM     93  O   UNL A   1      47.251  26.185  37.665  1.00  0.00    -0.237 OA
ATOM     94  O   UNL A   1      45.757  24.891  36.178  1.00  0.00    -0.237 OA
ATOM     95  O   UNL A   1      48.200  24.770  35.883  1.00  0.00    -0.744 OA
ENDBRANCH  88  92
ENDBRANCH  62  85
ENDBRANCH  36  37
ENDBRANCH  29  31
ENDBRANCH  28  29
ENDBRANCH  27  28
ENDBRANCH  26  27
ENDBRANCH  25  26
ENDBRANCH   1  25
TORSDOF 22
ENDMDL
