MODEL 1
REMARK VINA RESULT:     -10.3      0.000      0.000
REMARK SMILES CCOc1ccc(-n2ncc(C(=O)OCCOCCOCCOC(=O)c3ccc(-c4c5nc(c(-c6cc(S(=O)(=O)[O-])ccc6F)c6ccc([nH]6)c(-c6cc(S(=O)(=O)[O-])ccc6F)c6nc(c(-c7cc(S(=O)(=O)[O-])ccc7F)c7ccc4[nH]7)C=C6)C=C5)cc3)c2C)nn1
REMARK SMILES IDX 18 1 17 2 16 3 15 4 14 5 12 6 13 7 11 8 8 9 9 10 89 11 10 12
REMARK SMILES IDX 90 13 7 14 4 15 5 16 92 17 6 18 91 19 3 20 2 21 1 22 19 23
REMARK SMILES IDX 20 24 21 25 22 26 23 27 24 28 25 29 26 30 27 31 88 32 28 33
REMARK SMILES IDX 87 34 29 35 30 36 31 37 81 38 32 39 86 40 80 41 82 42 33 43
REMARK SMILES IDX 85 44 79 45 78 46 34 48 66 49 46 50 65 51 47 52 50 53 64 54
REMARK SMILES IDX 83 55 48 56 49 57 63 59 84 60 51 61 35 62 36 63 44 64 37 65
REMARK SMILES IDX 43 66 45 67 42 68 38 69 39 70 40 71 41 72 67 73 68 74 76 75
REMARK SMILES IDX 69 76 75 77 77 78 74 79 70 80 71 81 72 82 73 83 52 84 53 85
REMARK SMILES IDX 61 86 54 87 60 88 62 89 59 90 55 91 56 92 57 93 58 94
REMARK H PARENT 82 47 50 58
REMARK Flexibility Score: inf
ROOT
ATOM      1  C   UNL A   1      40.280  20.427  26.443  1.00  0.00     0.188 C 
ENDROOT
BRANCH   1   2
ATOM      2  O   UNL A   1      39.501  21.525  25.982  1.00  0.00    -0.376 OA
BRANCH   2   3
ATOM      3  C   UNL A   1      38.216  21.312  25.420  1.00  0.00     0.202 C 
BRANCH   3   4
ATOM      4  C   UNL A   1      37.276  22.499  25.120  1.00  0.00     0.261 C 
BRANCH   4   5
ATOM      5  O   UNL A   1      36.374  22.336  24.017  1.00  0.00    -0.460 OA
BRANCH   5   6
ATOM      6  C   UNL A   1      35.050  22.251  24.347  1.00  0.00     0.341 C 
ATOM      7  O   UNL A   1      34.589  21.503  25.179  1.00  0.00    -0.246 OA
BRANCH   6   8
ATOM      8  C   UNL A   1      34.247  23.244  23.648  1.00  0.00     0.101 A 
ATOM      9  N   UNL A   1      33.072  25.072  23.180  1.00  0.00    -0.217 N 
ATOM     10  N   UNL A   1      32.859  24.222  22.131  1.00  0.00    -0.174 NA
ATOM     11  C   UNL A   1      33.964  24.532  24.094  1.00  0.00     0.058 A 
ATOM     12  C   UNL A   1      33.635  23.169  22.387  1.00  0.00     0.151 A 
ATOM     13  C   UNL A   1      34.445  25.241  25.315  1.00  0.00     0.068 C 
BRANCH   9  14
ATOM     14  C   UNL A   1      32.333  26.286  23.287  1.00  0.00     0.176 A 
ATOM     15  C   UNL A   1      30.853  28.548  23.265  1.00  0.00     0.233 A 
ATOM     16  C   UNL A   1      32.143  28.611  22.780  1.00  0.00     0.074 A 
ATOM     17  N   UNL A   1      30.316  27.418  23.762  1.00  0.00    -0.110 NA
ATOM     18  C   UNL A   1      32.910  27.454  22.803  1.00  0.00     0.057 A 
ATOM     19  N   UNL A   1      31.060  26.266  23.752  1.00  0.00    -0.127 NA
BRANCH  15  20
ATOM     20  O   UNL A   1      30.110  29.700  23.309  1.00  0.00    -0.477 OA
BRANCH  20  21
ATOM     21  C   UNL A   1      29.546  29.992  22.028  1.00  0.00     0.228 C 
ATOM     22  C   UNL A   1      28.027  30.056  22.125  1.00  0.00     0.049 C 
ENDBRANCH  20  21
ENDBRANCH  15  20
ENDBRANCH   9  14
ENDBRANCH   6   8
ENDBRANCH   5   6
ENDBRANCH   4   5
ENDBRANCH   3   4
ENDBRANCH   2   3
ENDBRANCH   1   2
BRANCH   1  23
ATOM     23  C   UNL A   1      41.650  20.639  27.128  1.00  0.00     0.188 C 
BRANCH  23  24
ATOM     24  O   UNL A   1      42.260  19.449  27.593  1.00  0.00    -0.376 OA
BRANCH  24  25
ATOM     25  C   UNL A   1      42.712  18.497  26.641  1.00  0.00     0.202 C 
BRANCH  25  26
ATOM     26  C   UNL A   1      43.260  18.970  25.297  1.00  0.00     0.261 C 
BRANCH  26  27
ATOM     27  O   UNL A   1      44.312  19.913  25.372  1.00  0.00    -0.460 OA
BRANCH  27  28
ATOM     28  C   UNL A   1      44.612  20.531  24.212  1.00  0.00     0.338 C 
ATOM     29  O   UNL A   1      44.603  20.038  23.098  1.00  0.00    -0.246 OA
BRANCH  28  30
ATOM     30  C   UNL A   1      45.048  21.893  24.531  1.00  0.00     0.060 A 
ATOM     31  C   UNL A   1      46.065  22.025  25.475  1.00  0.00     0.016 A 
ATOM     32  C   UNL A   1      44.199  22.954  24.179  1.00  0.00     0.016 A 
ATOM     33  C   UNL A   1      46.055  23.145  26.271  1.00  0.00     0.010 A 
ATOM     34  C   UNL A   1      44.162  24.047  25.000  1.00  0.00     0.010 A 
ATOM     35  C   UNL A   1      45.026  24.074  26.093  1.00  0.00    -0.014 A 
BRANCH  35  36
ATOM     36  C   UNL A   1      44.882  25.131  27.063  1.00  0.00     0.031 A 
ATOM     37  C   UNL A   1      46.038  26.042  27.081  1.00  0.00     0.074 A 
ATOM     38  C   UNL A   1      43.744  25.303  27.760  1.00  0.00     0.049 A 
ATOM     39  N   UNL A   1      46.945  26.148  27.991  1.00  0.00    -0.248 NA
ATOM     40  C   UNL A   1      46.349  26.757  25.832  1.00  0.00     0.031 C 
ATOM     41  C   UNL A   1      42.463  24.616  27.575  1.00  0.00     0.029 A 
ATOM     42  N   UNL A   1      43.461  26.231  28.712  1.00  0.00    -0.354 N 
ATOM     43  C   UNL A   1      47.793  27.147  27.534  1.00  0.00     0.074 A 
ATOM     44  C   UNL A   1      47.547  27.258  26.126  1.00  0.00     0.031 C 
ATOM     45  C   UNL A   1      41.494  25.308  28.218  1.00  0.00     0.029 A 
ATOM     46  C   UNL A   1      42.104  26.411  28.946  1.00  0.00     0.049 A 
ATOM     47  H   UNL A   1      44.157  26.732  29.193  1.00  0.00     0.167 HD
ATOM     48  C   UNL A   1      48.374  28.015  28.404  1.00  0.00     0.034 A 
ATOM     49  C   UNL A   1      41.527  27.450  29.610  1.00  0.00     0.034 A 
ATOM     50  C   UNL A   1      48.353  27.478  29.752  1.00  0.00     0.049 A 
ATOM     51  C   UNL A   1      42.590  28.079  30.438  1.00  0.00     0.074 A 
ATOM     52  C   UNL A   1      48.818  26.312  30.331  1.00  0.00     0.029 A 
ATOM     53  N   UNL A   1      47.439  27.995  30.648  1.00  0.00    -0.354 N 
ATOM     54  N   UNL A   1      43.164  27.481  31.447  1.00  0.00    -0.248 NA
ATOM     55  C   UNL A   1      43.366  29.165  29.851  1.00  0.00     0.031 C 
ATOM     56  C   UNL A   1      47.826  25.947  31.287  1.00  0.00     0.029 A 
ATOM     57  C   UNL A   1      46.847  26.943  31.302  1.00  0.00     0.049 A 
ATOM     58  H   UNL A   1      47.247  28.949  30.793  1.00  0.00     0.167 HD
ATOM     59  C   UNL A   1      44.510  27.804  31.345  1.00  0.00     0.074 A 
ATOM     60  C   UNL A   1      44.557  28.927  30.410  1.00  0.00     0.031 C 
ATOM     61  C   UNL A   1      45.479  26.951  31.792  1.00  0.00     0.034 A 
BRANCH  48  62
ATOM     62  C   UNL A   1      48.560  29.493  28.116  1.00  0.00     0.023 A 
ATOM     63  C   UNL A   1      47.384  30.253  28.000  1.00  0.00     0.031 A 
ATOM     64  C   UNL A   1      49.742  30.133  27.668  1.00  0.00     0.131 A 
ATOM     65  C   UNL A   1      47.382  31.483  27.326  1.00  0.00     0.055 A 
ATOM     66  C   UNL A   1      49.745  31.390  27.060  1.00  0.00     0.041 A 
ATOM     67  F   UNL A   1      50.951  29.568  27.710  1.00  0.00    -0.206 F 
ATOM     68  C   UNL A   1      48.555  32.056  26.845  1.00  0.00     0.022 A 
BRANCH  65  69
ATOM     69  S   UNL A   1      45.782  32.213  26.912  1.00  0.00     0.124 S 
ATOM     70  O   UNL A   1      46.033  33.625  27.181  1.00  0.00    -0.237 OA
ATOM     71  O   UNL A   1      45.638  31.837  25.510  1.00  0.00    -0.237 OA
ATOM     72  O   UNL A   1      44.863  31.552  27.836  1.00  0.00    -0.744 OA
ENDBRANCH  65  69
ENDBRANCH  48  62
BRANCH  49  73
ATOM     73  C   UNL A   1      40.229  28.106  29.287  1.00  0.00     0.023 A 
ATOM     74  C   UNL A   1      39.269  28.435  30.267  1.00  0.00     0.031 A 
ATOM     75  C   UNL A   1      40.010  28.630  27.991  1.00  0.00     0.131 A 
ATOM     76  C   UNL A   1      38.153  29.240  29.931  1.00  0.00     0.055 A 
ATOM     77  C   UNL A   1      38.904  29.414  27.662  1.00  0.00     0.041 A 
ATOM     78  F   UNL A   1      40.915  28.467  27.012  1.00  0.00    -0.206 F 
ATOM     79  C   UNL A   1      37.972  29.730  28.635  1.00  0.00     0.022 A 
BRANCH  76  80
ATOM     80  S   UNL A   1      36.952  29.742  31.208  1.00  0.00     0.124 S 
ATOM     81  O   UNL A   1      37.291  31.143  31.423  1.00  0.00    -0.237 OA
ATOM     82  O   UNL A   1      35.674  29.473  30.559  1.00  0.00    -0.237 OA
ATOM     83  O   UNL A   1      37.261  28.858  32.333  1.00  0.00    -0.744 OA
ENDBRANCH  76  80
ENDBRANCH  49  73
BRANCH  61  84
ATOM     84  C   UNL A   1      45.070  25.804  32.696  1.00  0.00     0.023 A 
ATOM     85  C   UNL A   1      44.898  25.896  34.096  1.00  0.00     0.031 A 
ATOM     86  C   UNL A   1      44.724  24.590  32.077  1.00  0.00     0.131 A 
ATOM     87  C   UNL A   1      44.406  24.792  34.819  1.00  0.00     0.055 A 
ATOM     88  C   UNL A   1      44.217  23.507  32.793  1.00  0.00     0.041 A 
ATOM     89  F   UNL A   1      44.838  24.447  30.745  1.00  0.00    -0.206 F 
ATOM     90  C   UNL A   1      44.062  23.602  34.169  1.00  0.00     0.022 A 
BRANCH  87  91
ATOM     91  S   UNL A   1      44.214  24.875  36.631  1.00  0.00     0.124 S 
ATOM     92  O   UNL A   1      44.962  23.718  37.107  1.00  0.00    -0.237 OA
ATOM     93  O   UNL A   1      44.782  26.182  36.948  1.00  0.00    -0.237 OA
ATOM     94  O   UNL A   1      42.764  24.783  36.823  1.00  0.00    -0.744 OA
ENDBRANCH  87  91
ENDBRANCH  61  84
ENDBRANCH  35  36
ENDBRANCH  28  30
ENDBRANCH  27  28
ENDBRANCH  26  27
ENDBRANCH  25  26
ENDBRANCH  24  25
ENDBRANCH  23  24
ENDBRANCH   1  23
TORSDOF 23
ENDMDL
MODEL 2
REMARK VINA RESULT:      -9.7      3.047      9.702
REMARK SMILES CCOc1ccc(-n2ncc(C(=O)OCCOCCOCCOC(=O)c3ccc(-c4c5nc(c(-c6cc(S(=O)(=O)[O-])ccc6F)c6ccc([nH]6)c(-c6cc(S(=O)(=O)[O-])ccc6F)c6nc(c(-c7cc(S(=O)(=O)[O-])ccc7F)c7ccc4[nH]7)C=C6)C=C5)cc3)c2C)nn1
REMARK SMILES IDX 18 1 17 2 16 3 15 4 14 5 12 6 13 7 11 8 8 9 9 10 89 11 10 12
REMARK SMILES IDX 90 13 7 14 4 15 5 16 92 17 6 18 91 19 3 20 2 21 1 22 19 23
REMARK SMILES IDX 20 24 21 25 22 26 23 27 24 28 25 29 26 30 27 31 88 32 28 33
REMARK SMILES IDX 87 34 29 35 30 36 31 37 81 38 32 39 86 40 80 41 82 42 33 43
REMARK SMILES IDX 85 44 79 45 78 46 34 48 66 49 46 50 65 51 47 52 50 53 64 54
REMARK SMILES IDX 83 55 48 56 49 57 63 59 84 60 51 61 35 62 36 63 44 64 37 65
REMARK SMILES IDX 43 66 45 67 42 68 38 69 39 70 40 71 41 72 67 73 68 74 76 75
REMARK SMILES IDX 69 76 75 77 77 78 74 79 70 80 71 81 72 82 73 83 52 84 53 85
REMARK SMILES IDX 61 86 54 87 60 88 62 89 59 90 55 91 56 92 57 93 58 94
REMARK H PARENT 82 47 50 58
REMARK Flexibility Score: inf
ROOT
ATOM      1  C   UNL A   1      31.782  30.858  26.415  1.00  0.00     0.188 C 
ENDROOT
BRANCH   1   2
ATOM      2  O   UNL A   1      31.195  30.618  25.141  1.00  0.00    -0.376 OA
BRANCH   2   3
ATOM      3  C   UNL A   1      31.140  29.305  24.607  1.00  0.00     0.202 C 
BRANCH   3   4
ATOM      4  C   UNL A   1      32.013  28.905  23.398  1.00  0.00     0.261 C 
BRANCH   4   5
ATOM      5  O   UNL A   1      32.355  27.516  23.290  1.00  0.00    -0.460 OA
BRANCH   5   6
ATOM      6  C   UNL A   1      31.568  26.779  22.451  1.00  0.00     0.341 C 
ATOM      7  O   UNL A   1      30.575  27.188  21.893  1.00  0.00    -0.246 OA
BRANCH   6   8
ATOM      8  C   UNL A   1      32.113  25.449  22.215  1.00  0.00     0.101 A 
ATOM      9  N   UNL A   1      32.592  23.288  22.417  1.00  0.00    -0.217 N 
ATOM     10  N   UNL A   1      33.431  23.760  21.447  1.00  0.00    -0.174 NA
ATOM     11  C   UNL A   1      31.730  24.279  22.864  1.00  0.00     0.058 A 
ATOM     12  C   UNL A   1      33.073  25.032  21.280  1.00  0.00     0.151 A 
ATOM     13  C   UNL A   1      30.657  24.063  23.876  1.00  0.00     0.068 C 
BRANCH   9  14
ATOM     14  C   UNL A   1      32.742  21.964  22.921  1.00  0.00     0.176 A 
ATOM     15  C   UNL A   1      32.845  19.501  24.032  1.00  0.00     0.233 A 
ATOM     16  C   UNL A   1      33.588  20.509  24.613  1.00  0.00     0.074 A 
ATOM     17  N   UNL A   1      32.094  19.692  22.931  1.00  0.00    -0.110 NA
ATOM     18  C   UNL A   1      33.547  21.771  24.037  1.00  0.00     0.057 A 
ATOM     19  N   UNL A   1      32.025  20.947  22.382  1.00  0.00    -0.127 NA
BRANCH  15  20
ATOM     20  O   UNL A   1      32.931  18.235  24.553  1.00  0.00    -0.477 OA
BRANCH  20  21
ATOM     21  C   UNL A   1      33.788  17.413  23.756  1.00  0.00     0.228 C 
ATOM     22  C   UNL A   1      34.429  16.334  24.618  1.00  0.00     0.049 C 
ENDBRANCH  20  21
ENDBRANCH  15  20
ENDBRANCH   9  14
ENDBRANCH   6   8
ENDBRANCH   5   6
ENDBRANCH   4   5
ENDBRANCH   3   4
ENDBRANCH   2   3
ENDBRANCH   1   2
BRANCH   1  23
ATOM     23  C   UNL A   1      31.917  32.288  26.986  1.00  0.00     0.188 C 
BRANCH  23  24
ATOM     24  O   UNL A   1      33.251  32.693  27.235  1.00  0.00    -0.376 OA
BRANCH  24  25
ATOM     25  C   UNL A   1      33.536  33.399  28.434  1.00  0.00     0.202 C 
BRANCH  25  26
ATOM     26  C   UNL A   1      34.801  33.070  29.224  1.00  0.00     0.261 C 
BRANCH  26  27
ATOM     27  O   UNL A   1      34.668  32.029  30.171  1.00  0.00    -0.460 OA
BRANCH  27  28
ATOM     28  C   UNL A   1      35.735  31.842  30.973  1.00  0.00     0.338 C 
ATOM     29  O   UNL A   1      35.855  32.214  32.127  1.00  0.00    -0.246 OA
BRANCH  28  30
ATOM     30  C   UNL A   1      36.781  31.190  30.181  1.00  0.00     0.060 A 
ATOM     31  C   UNL A   1      36.677  29.810  30.011  1.00  0.00     0.016 A 
ATOM     32  C   UNL A   1      37.979  31.890  29.971  1.00  0.00     0.016 A 
ATOM     33  C   UNL A   1      37.843  29.092  29.901  1.00  0.00     0.010 A 
ATOM     34  C   UNL A   1      39.141  31.172  29.906  1.00  0.00     0.010 A 
ATOM     35  C   UNL A   1      39.055  29.783  29.974  1.00  0.00    -0.014 A 
BRANCH  35  36
ATOM     36  C   UNL A   1      40.273  29.019  30.082  1.00  0.00     0.031 A 
ATOM     37  C   UNL A   1      40.687  28.813  31.480  1.00  0.00     0.074 A 
ATOM     38  C   UNL A   1      40.861  28.463  29.008  1.00  0.00     0.049 A 
ATOM     39  N   UNL A   1      41.682  29.355  32.096  1.00  0.00    -0.248 NA
ATOM     40  C   UNL A   1      39.748  28.098  32.361  1.00  0.00     0.031 C 
ATOM     41  C   UNL A   1      40.340  28.383  27.640  1.00  0.00     0.029 A 
ATOM     42  N   UNL A   1      42.007  27.737  28.944  1.00  0.00    -0.354 N 
ATOM     43  C   UNL A   1      41.637  28.826  33.378  1.00  0.00     0.074 A 
ATOM     44  C   UNL A   1      40.306  28.318  33.549  1.00  0.00     0.031 C 
ATOM     45  C   UNL A   1      41.049  27.458  26.952  1.00  0.00     0.029 A 
ATOM     46  C   UNL A   1      42.134  26.971  27.791  1.00  0.00     0.049 A 
ATOM     47  H   UNL A   1      42.689  27.751  29.653  1.00  0.00     0.167 HD
ATOM     48  C   UNL A   1      42.783  28.555  34.057  1.00  0.00     0.034 A 
ATOM     49  C   UNL A   1      43.007  25.947  27.591  1.00  0.00     0.034 A 
ATOM     50  C   UNL A   1      43.901  29.280  33.482  1.00  0.00     0.049 A 
ATOM     51  C   UNL A   1      44.096  26.104  28.592  1.00  0.00     0.074 A 
ATOM     52  C   UNL A   1      44.157  30.616  33.235  1.00  0.00     0.029 A 
ATOM     53  N   UNL A   1      44.803  28.582  32.705  1.00  0.00    -0.354 N 
ATOM     54  N   UNL A   1      44.939  27.101  28.586  1.00  0.00    -0.248 NA
ATOM     55  C   UNL A   1      43.946  25.439  29.881  1.00  0.00     0.031 C 
ATOM     56  C   UNL A   1      44.846  30.640  31.988  1.00  0.00     0.029 A 
ATOM     57  C   UNL A   1      45.047  29.322  31.575  1.00  0.00     0.049 A 
ATOM     58  H   UNL A   1      45.202  27.710  32.924  1.00  0.00     0.167 HD
ATOM     59  C   UNL A   1      45.087  27.461  29.918  1.00  0.00     0.074 A 
ATOM     60  C   UNL A   1      44.537  26.338  30.675  1.00  0.00     0.031 C 
ATOM     61  C   UNL A   1      45.365  28.750  30.277  1.00  0.00     0.034 A 
BRANCH  48  62
ATOM     62  C   UNL A   1      42.968  27.332  34.936  1.00  0.00     0.023 A 
ATOM     63  C   UNL A   1      43.826  26.337  34.438  1.00  0.00     0.031 A 
ATOM     64  C   UNL A   1      42.169  26.946  36.040  1.00  0.00     0.131 A 
ATOM     65  C   UNL A   1      43.750  25.016  34.906  1.00  0.00     0.055 A 
ATOM     66  C   UNL A   1      42.149  25.645  36.549  1.00  0.00     0.041 A 
ATOM     67  F   UNL A   1      41.303  27.761  36.648  1.00  0.00    -0.206 F 
ATOM     68  C   UNL A   1      42.910  24.658  35.955  1.00  0.00     0.022 A 
BRANCH  65  69
ATOM     69  S   UNL A   1      44.625  23.741  33.973  1.00  0.00     0.124 S 
ATOM     70  O   UNL A   1      45.770  24.491  33.466  1.00  0.00    -0.237 OA
ATOM     71  O   UNL A   1      44.906  22.754  35.010  1.00  0.00    -0.237 OA
ATOM     72  O   UNL A   1      43.648  23.331  32.967  1.00  0.00    -0.744 OA
ENDBRANCH  65  69
ENDBRANCH  48  62
BRANCH  49  73
ATOM     73  C   UNL A   1      42.752  24.691  26.832  1.00  0.00     0.023 A 
ATOM     74  C   UNL A   1      43.734  24.058  26.039  1.00  0.00     0.031 A 
ATOM     75  C   UNL A   1      41.563  23.960  27.063  1.00  0.00     0.131 A 
ATOM     76  C   UNL A   1      43.500  22.765  25.512  1.00  0.00     0.055 A 
ATOM     77  C   UNL A   1      41.333  22.690  26.532  1.00  0.00     0.041 A 
ATOM     78  F   UNL A   1      40.610  24.423  27.887  1.00  0.00    -0.206 F 
ATOM     79  C   UNL A   1      42.307  22.082  25.759  1.00  0.00     0.022 A 
BRANCH  76  80
ATOM     80  S   UNL A   1      44.795  21.903  24.560  1.00  0.00     0.124 S 
ATOM     81  O   UNL A   1      44.214  20.580  24.368  1.00  0.00    -0.237 OA
ATOM     82  O   UNL A   1      44.917  22.740  23.371  1.00  0.00    -0.237 OA
ATOM     83  O   UNL A   1      45.956  21.939  25.451  1.00  0.00    -0.744 OA
ENDBRANCH  76  80
ENDBRANCH  49  73
BRANCH  61  84
ATOM     84  C   UNL A   1      45.838  29.712  29.204  1.00  0.00     0.023 A 
ATOM     85  C   UNL A   1      47.186  29.907  28.827  1.00  0.00     0.031 A 
ATOM     86  C   UNL A   1      44.850  30.370  28.450  1.00  0.00     0.131 A 
ATOM     87  C   UNL A   1      47.499  30.744  27.738  1.00  0.00     0.055 A 
ATOM     88  C   UNL A   1      45.162  31.181  27.360  1.00  0.00     0.041 A 
ATOM     89  F   UNL A   1      43.548  30.204  28.740  1.00  0.00    -0.206 F 
ATOM     90  C   UNL A   1      46.490  31.376  27.003  1.00  0.00     0.022 A 
BRANCH  87  91
ATOM     91  S   UNL A   1      49.233  31.043  27.260  1.00  0.00     0.124 S 
ATOM     92  O   UNL A   1      49.905  31.272  28.533  1.00  0.00    -0.237 OA
ATOM     93  O   UNL A   1      49.584  29.809  26.562  1.00  0.00    -0.237 OA
ATOM     94  O   UNL A   1      49.148  32.223  26.395  1.00  0.00    -0.744 OA
ENDBRANCH  87  91
ENDBRANCH  61  84
ENDBRANCH  35  36
ENDBRANCH  28  30
ENDBRANCH  27  28
ENDBRANCH  26  27
ENDBRANCH  25  26
ENDBRANCH  24  25
ENDBRANCH  23  24
ENDBRANCH   1  23
TORSDOF 23
ENDMDL
MODEL 3
REMARK VINA RESULT:      -9.7      2.715      9.588
REMARK SMILES CCOc1ccc(-n2ncc(C(=O)OCCOCCOCCOC(=O)c3ccc(-c4c5nc(c(-c6cc(S(=O)(=O)[O-])ccc6F)c6ccc([nH]6)c(-c6cc(S(=O)(=O)[O-])ccc6F)c6nc(c(-c7cc(S(=O)(=O)[O-])ccc7F)c7ccc4[nH]7)C=C6)C=C5)cc3)c2C)nn1
REMARK SMILES IDX 18 1 17 2 16 3 15 4 14 5 12 6 13 7 11 8 8 9 9 10 89 11 10 12
REMARK SMILES IDX 90 13 7 14 4 15 5 16 92 17 6 18 91 19 3 20 2 21 1 22 19 23
REMARK SMILES IDX 20 24 21 25 22 26 23 27 24 28 25 29 26 30 27 31 88 32 28 33
REMARK SMILES IDX 87 34 29 35 30 36 31 37 81 38 32 39 86 40 80 41 82 42 33 43
REMARK SMILES IDX 85 44 79 45 78 46 34 48 66 49 46 50 65 51 47 52 50 53 64 54
REMARK SMILES IDX 83 55 48 56 49 57 63 59 84 60 51 61 35 62 36 63 44 64 37 65
REMARK SMILES IDX 43 66 45 67 42 68 38 69 39 70 40 71 41 72 67 73 68 74 76 75
REMARK SMILES IDX 69 76 75 77 77 78 74 79 70 80 71 81 72 82 73 83 52 84 53 85
REMARK SMILES IDX 61 86 54 87 60 88 62 89 59 90 55 91 56 92 57 93 58 94
REMARK H PARENT 82 47 50 58
REMARK Flexibility Score: inf
ROOT
ATOM      1  C   UNL A   1      33.663  30.967  27.430  1.00  0.00     0.188 C 
ENDROOT
BRANCH   1   2
ATOM      2  O   UNL A   1      32.409  30.306  27.301  1.00  0.00    -0.376 OA
BRANCH   2   3
ATOM      3  C   UNL A   1      32.230  29.280  26.336  1.00  0.00     0.202 C 
BRANCH   3   4
ATOM      4  C   UNL A   1      31.965  29.623  24.856  1.00  0.00     0.261 C 
BRANCH   4   5
ATOM      5  O   UNL A   1      30.660  29.305  24.351  1.00  0.00    -0.460 OA
BRANCH   5   6
ATOM      6  C   UNL A   1      30.627  28.380  23.346  1.00  0.00     0.341 C 
ATOM      7  O   UNL A   1      30.665  28.639  22.164  1.00  0.00    -0.246 OA
BRANCH   6   8
ATOM      8  C   UNL A   1      30.641  27.016  23.855  1.00  0.00     0.101 A 
ATOM      9  N   UNL A   1      31.261  24.930  24.312  1.00  0.00    -0.217 N 
ATOM     10  N   UNL A   1      29.952  25.016  24.696  1.00  0.00    -0.174 NA
ATOM     11  C   UNL A   1      31.732  26.151  23.852  1.00  0.00     0.058 A 
ATOM     12  C   UNL A   1      29.623  26.291  24.494  1.00  0.00     0.151 A 
ATOM     13  C   UNL A   1      33.138  26.397  23.418  1.00  0.00     0.068 C 
BRANCH   9  14
ATOM     14  C   UNL A   1      31.933  23.674  24.313  1.00  0.00     0.176 A 
ATOM     15  C   UNL A   1      32.994  21.188  24.365  1.00  0.00     0.233 A 
ATOM     16  C   UNL A   1      32.914  21.886  25.553  1.00  0.00     0.074 A 
ATOM     17  N   UNL A   1      32.586  21.702  23.189  1.00  0.00    -0.110 NA
ATOM     18  C   UNL A   1      32.383  23.168  25.526  1.00  0.00     0.057 A 
ATOM     19  N   UNL A   1      32.027  22.954  23.168  1.00  0.00    -0.127 NA
BRANCH  15  20
ATOM     20  O   UNL A   1      33.580  19.948  24.368  1.00  0.00    -0.477 OA
BRANCH  20  21
ATOM     21  C   UNL A   1      32.589  18.917  24.384  1.00  0.00     0.228 C 
ATOM     22  C   UNL A   1      32.784  18.020  25.599  1.00  0.00     0.049 C 
ENDBRANCH  20  21
ENDBRANCH  15  20
ENDBRANCH   9  14
ENDBRANCH   6   8
ENDBRANCH   5   6
ENDBRANCH   4   5
ENDBRANCH   3   4
ENDBRANCH   2   3
ENDBRANCH   1   2
BRANCH   1  23
ATOM     23  C   UNL A   1      33.754  32.449  27.860  1.00  0.00     0.188 C 
BRANCH  23  24
ATOM     24  O   UNL A   1      34.868  32.751  28.681  1.00  0.00    -0.376 OA
BRANCH  24  25
ATOM     25  C   UNL A   1      34.668  33.561  29.830  1.00  0.00     0.202 C 
BRANCH  25  26
ATOM     26  C   UNL A   1      34.834  32.957  31.222  1.00  0.00     0.261 C 
BRANCH  26  27
ATOM     27  O   UNL A   1      35.207  31.593  31.248  1.00  0.00    -0.460 OA
BRANCH  27  28
ATOM     28  C   UNL A   1      36.293  31.309  31.995  1.00  0.00     0.338 C 
ATOM     29  O   UNL A   1      36.450  31.557  33.177  1.00  0.00    -0.246 OA
BRANCH  28  30
ATOM     30  C   UNL A   1      37.305  30.727  31.111  1.00  0.00     0.060 A 
ATOM     31  C   UNL A   1      37.196  29.364  30.837  1.00  0.00     0.016 A 
ATOM     32  C   UNL A   1      38.492  31.447  30.908  1.00  0.00     0.016 A 
ATOM     33  C   UNL A   1      38.358  28.662  30.621  1.00  0.00     0.010 A 
ATOM     34  C   UNL A   1      39.652  30.741  30.738  1.00  0.00     0.010 A 
ATOM     35  C   UNL A   1      39.571  29.351  30.698  1.00  0.00    -0.014 A 
BRANCH  35  36
ATOM     36  C   UNL A   1      40.793  28.587  30.695  1.00  0.00     0.031 A 
ATOM     37  C   UNL A   1      41.336  28.385  32.048  1.00  0.00     0.074 A 
ATOM     38  C   UNL A   1      41.277  28.027  29.571  1.00  0.00     0.049 A 
ATOM     39  N   UNL A   1      42.384  28.928  32.566  1.00  0.00    -0.248 NA
ATOM     40  C   UNL A   1      40.483  27.674  33.015  1.00  0.00     0.031 C 
ATOM     41  C   UNL A   1      40.631  27.943  28.259  1.00  0.00     0.029 A 
ATOM     42  N   UNL A   1      42.412  27.299  29.403  1.00  0.00    -0.354 N 
ATOM     43  C   UNL A   1      42.460  28.403  33.849  1.00  0.00     0.074 A 
ATOM     44  C   UNL A   1      41.151  27.897  34.145  1.00  0.00     0.031 C 
ATOM     45  C   UNL A   1      41.272  27.015  27.510  1.00  0.00     0.029 A 
ATOM     46  C   UNL A   1      42.430  26.530  28.246  1.00  0.00     0.049 A 
ATOM     47  H   UNL A   1      43.157  27.315  30.045  1.00  0.00     0.167 HD
ATOM     48  C   UNL A   1      43.664  28.133  34.419  1.00  0.00     0.034 A 
ATOM     49  C   UNL A   1      43.281  25.505  27.969  1.00  0.00     0.034 A 
ATOM     50  C   UNL A   1      44.723  28.855  33.739  1.00  0.00     0.049 A 
ATOM     51  C   UNL A   1      44.458  25.664  28.862  1.00  0.00     0.074 A 
ATOM     52  C   UNL A   1      44.956  30.191  33.465  1.00  0.00     0.029 A 
ATOM     53  N   UNL A   1      45.549  28.155  32.883  1.00  0.00    -0.354 N 
ATOM     54  N   UNL A   1      45.298  26.660  28.774  1.00  0.00    -0.248 NA
ATOM     55  C   UNL A   1      44.430  25.003  30.162  1.00  0.00     0.031 C 
ATOM     56  C   UNL A   1      45.525  30.211  32.159  1.00  0.00     0.029 A 
ATOM     57  C   UNL A   1      45.686  28.891  31.732  1.00  0.00     0.049 A 
ATOM     58  H   UNL A   1      45.966  27.283  33.066  1.00  0.00     0.167 HD
ATOM     59  C   UNL A   1      45.570  27.025  30.086  1.00  0.00     0.074 A 
ATOM     60  C   UNL A   1      45.093  25.904  30.894  1.00  0.00     0.031 C 
ATOM     61  C   UNL A   1      45.881  28.315  30.412  1.00  0.00     0.034 A 
BRANCH  48  62
ATOM     62  C   UNL A   1      43.930  26.913  35.280  1.00  0.00     0.023 A 
ATOM     63  C   UNL A   1      44.395  27.165  36.582  1.00  0.00     0.031 A 
ATOM     64  C   UNL A   1      44.046  25.570  34.844  1.00  0.00     0.131 A 
ATOM     65  C   UNL A   1      45.079  26.178  37.309  1.00  0.00     0.055 A 
ATOM     66  C   UNL A   1      44.665  24.573  35.602  1.00  0.00     0.041 A 
ATOM     67  F   UNL A   1      43.648  25.144  33.642  1.00  0.00    -0.206 F 
ATOM     68  C   UNL A   1      45.226  24.882  36.825  1.00  0.00     0.022 A 
BRANCH  65  69
ATOM     69  S   UNL A   1      45.947  26.688  38.808  1.00  0.00     0.124 S 
ATOM     70  O   UNL A   1      47.223  27.138  38.262  1.00  0.00    -0.237 OA
ATOM     71  O   UNL A   1      45.062  27.727  39.325  1.00  0.00    -0.237 OA
ATOM     72  O   UNL A   1      46.001  25.461  39.599  1.00  0.00    -0.744 OA
ENDBRANCH  65  69
ENDBRANCH  48  62
BRANCH  49  73
ATOM     73  C   UNL A   1      42.955  24.246  27.240  1.00  0.00     0.023 A 
ATOM     74  C   UNL A   1      43.819  23.664  26.288  1.00  0.00     0.031 A 
ATOM     75  C   UNL A   1      41.851  23.463  27.650  1.00  0.00     0.131 A 
ATOM     76  C   UNL A   1      43.553  22.366  25.785  1.00  0.00     0.055 A 
ATOM     77  C   UNL A   1      41.588  22.190  27.144  1.00  0.00     0.041 A 
ATOM     78  F   UNL A   1      41.028  23.878  28.627  1.00  0.00    -0.206 F 
ATOM     79  C   UNL A   1      42.445  21.632  26.212  1.00  0.00     0.022 A 
BRANCH  76  80
ATOM     80  S   UNL A   1      44.708  21.570  24.620  1.00  0.00     0.124 S 
ATOM     81  O   UNL A   1      44.541  22.373  23.415  1.00  0.00    -0.237 OA
ATOM     82  O   UNL A   1      45.985  21.692  25.312  1.00  0.00    -0.237 OA
ATOM     83  O   UNL A   1      44.200  20.200  24.517  1.00  0.00    -0.744 OA
ENDBRANCH  76  80
ENDBRANCH  49  73
BRANCH  61  84
ATOM     84  C   UNL A   1      46.251  29.273  29.297  1.00  0.00     0.023 A 
ATOM     85  C   UNL A   1      45.329  30.022  28.531  1.00  0.00     0.031 A 
ATOM     86  C   UNL A   1      47.620  29.519  29.089  1.00  0.00     0.131 A 
ATOM     87  C   UNL A   1      45.793  30.966  27.595  1.00  0.00     0.055 A 
ATOM     88  C   UNL A   1      48.076  30.470  28.177  1.00  0.00     0.041 A 
ATOM     89  F   UNL A   1      48.547  28.860  29.805  1.00  0.00    -0.206 F 
ATOM     90  C   UNL A   1      47.163  31.193  27.422  1.00  0.00     0.022 A 
BRANCH  87  91
ATOM     91  S   UNL A   1      44.622  31.915  26.568  1.00  0.00     0.124 S 
ATOM     92  O   UNL A   1      44.254  33.039  27.419  1.00  0.00    -0.237 OA
ATOM     93  O   UNL A   1      45.425  32.236  25.391  1.00  0.00    -0.237 OA
ATOM     94  O   UNL A   1      43.539  30.960  26.319  1.00  0.00    -0.744 OA
ENDBRANCH  87  91
ENDBRANCH  61  84
ENDBRANCH  35  36
ENDBRANCH  28  30
ENDBRANCH  27  28
ENDBRANCH  26  27
ENDBRANCH  25  26
ENDBRANCH  24  25
ENDBRANCH  23  24
ENDBRANCH   1  23
TORSDOF 23
ENDMDL
