MODEL 1
REMARK VINA RESULT:      -9.5      0.000      0.000
REMARK SMILES Cc1ncn(CC[C@@H]2CCC[C@@]2([NH3+])C(=O)OCCOCCOCCOC(=O)c2ccc(-c3c4nc(c(-c5cc(S(=O)(=O)[O-])ccc5F)c5ccc([nH]5)c(-c5cc(S(=O)(=O)[O-])ccc5F)c5nc(c(-c6cc(S(=O)(=O)[O-])ccc6F)c6ccc3[nH]6)C=C5)C=C4)cc2)c1C
REMARK SMILES IDX 20 1 19 2 18 3 17 4 16 5 14 6 15 7 12 8 8 9 9 10 10 11 11 12
REMARK SMILES IDX 7 13 6 14 5 15 1 16 2 17 3 18 91 19 4 20 92 21 13 22 21 26
REMARK SMILES IDX 22 27 23 28 24 29 25 30 26 31 27 32 28 33 29 34 90 35 30 36
REMARK SMILES IDX 89 37 31 38 32 39 33 40 83 41 34 42 88 43 82 44 84 45 35 46
REMARK SMILES IDX 87 47 81 48 80 49 36 51 68 52 48 53 67 54 49 55 52 56 66 57
REMARK SMILES IDX 85 58 50 59 51 60 65 62 86 63 53 64 37 65 38 66 46 67 39 68
REMARK SMILES IDX 45 69 47 70 44 71 40 72 41 73 42 74 43 75 69 76 70 77 78 78
REMARK SMILES IDX 71 79 77 80 79 81 76 82 72 83 73 84 74 85 75 86 54 87 55 88
REMARK SMILES IDX 63 89 56 90 62 91 64 92 61 93 57 94 58 95 59 96 60 97
REMARK H PARENT 13 23 13 24 13 25 84 50 52 61
REMARK Flexibility Score: inf
ROOT
ATOM      1  C   UNL A   1      42.236  19.288  26.589  1.00  0.00     0.188 C 
ENDROOT
BRANCH   1   2
ATOM      2  O   UNL A   1      41.237  19.478  25.615  1.00  0.00    -0.376 OA
BRANCH   2   3
ATOM      3  C   UNL A   1      39.957  19.871  26.074  1.00  0.00     0.202 C 
BRANCH   3   4
ATOM      4  C   UNL A   1      39.494  21.340  26.004  1.00  0.00     0.261 C 
BRANCH   4   5
ATOM      5  O   UNL A   1      38.233  21.629  25.370  1.00  0.00    -0.459 OA
BRANCH   5   6
ATOM      6  C   UNL A   1      37.518  22.704  25.782  1.00  0.00     0.368 C 
ATOM      7  O   UNL A   1      38.047  23.743  26.165  1.00  0.00    -0.245 OA
BRANCH   6   8
ATOM      8  C   UNL A   1      35.969  22.514  25.627  1.00  0.00     0.195 C 
ATOM      9  C   UNL A   1      35.199  23.338  24.542  1.00  0.00     0.064 C 
ATOM     10  C   UNL A   1      33.914  22.507  24.327  1.00  0.00     0.011 C 
ATOM     11  C   UNL A   1      34.317  21.053  24.548  1.00  0.00     0.008 C 
ATOM     12  C   UNL A   1      35.763  21.098  25.032  1.00  0.00     0.081 C 
BRANCH   9  13
ATOM     13  C   UNL A   1      34.818  24.819  24.745  1.00  0.00     0.032 C 
BRANCH  13  14
ATOM     14  C   UNL A   1      33.707  25.112  25.766  1.00  0.00     0.124 C 
BRANCH  14  15
ATOM     15  N   UNL A   1      32.669  26.030  25.332  1.00  0.00    -0.335 N 
ATOM     16  C   UNL A   1      30.941  29.107  24.458  1.00  0.00     0.069 C 
ATOM     17  C   UNL A   1      31.449  27.762  24.802  1.00  0.00     0.058 A 
ATOM     18  N   UNL A   1      30.624  26.669  24.744  1.00  0.00    -0.242 NA
ATOM     19  C   UNL A   1      32.715  27.403  25.227  1.00  0.00     0.037 A 
ATOM     20  C   UNL A   1      31.372  25.651  25.097  1.00  0.00     0.199 A 
ATOM     21  C   UNL A   1      33.881  28.272  25.506  1.00  0.00     0.066 C 
ENDBRANCH  14  15
ENDBRANCH  13  14
ENDBRANCH   9  13
BRANCH   8  22
ATOM     22  N   UNL A   1      35.295  22.490  26.944  1.00  0.00    -0.343 N 
ATOM     23  H   UNL A   1      34.311  22.732  26.827  1.00  0.00     0.345 HD
ATOM     24  H   UNL A   1      35.739  23.164  27.566  1.00  0.00     0.345 HD
ATOM     25  H   UNL A   1      35.368  21.555  27.347  1.00  0.00     0.345 HD
ENDBRANCH   8  22
ENDBRANCH   6   8
ENDBRANCH   5   6
ENDBRANCH   4   5
ENDBRANCH   3   4
ENDBRANCH   2   3
ENDBRANCH   1   2
BRANCH   1  26
ATOM     26  C   UNL A   1      43.279  18.239  26.180  1.00  0.00     0.188 C 
BRANCH  26  27
ATOM     27  O   UNL A   1      44.105  18.357  25.027  1.00  0.00    -0.376 OA
BRANCH  27  28
ATOM     28  C   UNL A   1      45.355  19.028  25.014  1.00  0.00     0.202 C 
BRANCH  28  29
ATOM     29  C   UNL A   1      45.439  20.399  24.362  1.00  0.00     0.261 C 
BRANCH  29  30
ATOM     30  O   UNL A   1      44.477  21.282  24.891  1.00  0.00    -0.460 OA
BRANCH  30  31
ATOM     31  C   UNL A   1      44.532  22.520  24.369  1.00  0.00     0.338 C 
ATOM     32  O   UNL A   1      45.231  22.909  23.429  1.00  0.00    -0.246 OA
BRANCH  31  33
ATOM     33  C   UNL A   1      43.576  23.354  25.089  1.00  0.00     0.060 A 
ATOM     34  C   UNL A   1      43.711  24.735  24.943  1.00  0.00     0.016 A 
ATOM     35  C   UNL A   1      42.757  22.771  26.070  1.00  0.00     0.016 A 
ATOM     36  C   UNL A   1      43.297  25.522  25.984  1.00  0.00     0.010 A 
ATOM     37  C   UNL A   1      42.364  23.551  27.117  1.00  0.00     0.010 A 
ATOM     38  C   UNL A   1      42.763  24.883  27.104  1.00  0.00    -0.014 A 
BRANCH  38  39
ATOM     39  C   UNL A   1      42.762  25.607  28.347  1.00  0.00     0.031 A 
ATOM     40  C   UNL A   1      41.587  26.461  28.532  1.00  0.00     0.074 A 
ATOM     41  C   UNL A   1      43.719  25.380  29.263  1.00  0.00     0.049 A 
ATOM     42  N   UNL A   1      41.537  27.749  28.517  1.00  0.00    -0.248 NA
ATOM     43  C   UNL A   1      40.273  25.800  28.537  1.00  0.00     0.031 C 
ATOM     44  C   UNL A   1      44.737  24.323  29.250  1.00  0.00     0.029 A 
ATOM     45  N   UNL A   1      43.899  25.972  30.470  1.00  0.00    -0.354 N 
ATOM     46  C   UNL A   1      40.211  28.052  28.790  1.00  0.00     0.074 A 
ATOM     47  C   UNL A   1      39.466  26.857  28.511  1.00  0.00     0.031 C 
ATOM     48  C   UNL A   1      45.269  24.208  30.487  1.00  0.00     0.029 A 
ATOM     49  C   UNL A   1      44.718  25.256  31.331  1.00  0.00     0.049 A 
ATOM     50  H   UNL A   1      43.486  26.831  30.713  1.00  0.00     0.167 HD
ATOM     51  C   UNL A   1      39.894  29.138  29.540  1.00  0.00     0.034 A 
ATOM     52  C   UNL A   1      44.845  25.455  32.668  1.00  0.00     0.034 A 
ATOM     53  C   UNL A   1      40.985  30.094  29.554  1.00  0.00     0.049 A 
ATOM     54  C   UNL A   1      44.398  26.846  32.941  1.00  0.00     0.074 A 
ATOM     55  C   UNL A   1      41.699  30.754  28.571  1.00  0.00     0.029 A 
ATOM     56  N   UNL A   1      41.750  30.199  30.697  1.00  0.00    -0.354 N 
ATOM     57  N   UNL A   1      45.012  27.903  32.481  1.00  0.00    -0.248 NA
ATOM     58  C   UNL A   1      43.013  27.068  33.337  1.00  0.00     0.031 C 
ATOM     59  C   UNL A   1      43.041  30.809  29.049  1.00  0.00     0.029 A 
ATOM     60  C   UNL A   1      43.072  30.235  30.322  1.00  0.00     0.049 A 
ATOM     61  H   UNL A   1      41.410  30.242  31.619  1.00  0.00     0.167 HD
ATOM     62  C   UNL A   1      44.001  28.785  32.127  1.00  0.00     0.074 A 
ATOM     63  C   UNL A   1      42.808  28.272  32.793  1.00  0.00     0.031 C 
ATOM     64  C   UNL A   1      44.164  29.671  31.099  1.00  0.00     0.034 A 
BRANCH  51  65
ATOM     65  C   UNL A   1      38.786  29.136  30.575  1.00  0.00     0.023 A 
ATOM     66  C   UNL A   1      37.908  30.232  30.550  1.00  0.00     0.031 A 
ATOM     67  C   UNL A   1      38.700  28.316  31.728  1.00  0.00     0.131 A 
ATOM     68  C   UNL A   1      37.118  30.550  31.666  1.00  0.00     0.055 A 
ATOM     69  C   UNL A   1      37.858  28.597  32.807  1.00  0.00     0.041 A 
ATOM     70  F   UNL A   1      39.471  27.242  31.934  1.00  0.00    -0.206 F 
ATOM     71  C   UNL A   1      37.090  29.744  32.799  1.00  0.00     0.022 A 
BRANCH  68  72
ATOM     72  S   UNL A   1      36.284  32.153  31.679  1.00  0.00     0.124 S 
ATOM     73  O   UNL A   1      36.003  32.323  33.100  1.00  0.00    -0.237 OA
ATOM     74  O   UNL A   1      37.310  33.023  31.114  1.00  0.00    -0.237 OA
ATOM     75  O   UNL A   1      35.115  31.929  30.832  1.00  0.00    -0.744 OA
ENDBRANCH  68  72
ENDBRANCH  51  65
BRANCH  52  76
ATOM     76  C   UNL A   1      44.982  24.394  33.699  1.00  0.00     0.023 A 
ATOM     77  C   UNL A   1      45.750  24.569  34.865  1.00  0.00     0.031 A 
ATOM     78  C   UNL A   1      44.164  23.239  33.646  1.00  0.00     0.131 A 
ATOM     79  C   UNL A   1      45.689  23.613  35.906  1.00  0.00     0.055 A 
ATOM     80  C   UNL A   1      44.123  22.289  34.668  1.00  0.00     0.041 A 
ATOM     81  F   UNL A   1      43.310  23.033  32.631  1.00  0.00    -0.206 F 
ATOM     82  C   UNL A   1      44.881  22.478  35.810  1.00  0.00     0.022 A 
BRANCH  79  83
ATOM     83  S   UNL A   1      46.596  23.896  37.459  1.00  0.00     0.124 S 
ATOM     84  O   UNL A   1      45.989  22.918  38.353  1.00  0.00    -0.237 OA
ATOM     85  O   UNL A   1      47.977  23.645  37.063  1.00  0.00    -0.237 OA
ATOM     86  O   UNL A   1      46.295  25.292  37.779  1.00  0.00    -0.744 OA
ENDBRANCH  79  83
ENDBRANCH  52  76
BRANCH  64  87
ATOM     87  C   UNL A   1      45.568  29.908  30.577  1.00  0.00     0.023 A 
ATOM     88  C   UNL A   1      46.504  30.786  31.167  1.00  0.00     0.031 A 
ATOM     89  C   UNL A   1      46.009  29.108  29.509  1.00  0.00     0.131 A 
ATOM     90  C   UNL A   1      47.824  30.846  30.675  1.00  0.00     0.055 A 
ATOM     91  C   UNL A   1      47.320  29.157  29.035  1.00  0.00     0.041 A 
ATOM     92  F   UNL A   1      45.176  28.226  28.930  1.00  0.00    -0.206 F 
ATOM     93  C   UNL A   1      48.232  30.032  29.615  1.00  0.00     0.022 A 
BRANCH  90  94
ATOM     94  S   UNL A   1      49.039  31.982  31.421  1.00  0.00     0.124 S 
ATOM     95  O   UNL A   1      48.289  32.623  32.494  1.00  0.00    -0.237 OA
ATOM     96  O   UNL A   1      50.106  31.075  31.836  1.00  0.00    -0.237 OA
ATOM     97  O   UNL A   1      49.397  32.871  30.314  1.00  0.00    -0.744 OA
ENDBRANCH  90  94
ENDBRANCH  64  87
ENDBRANCH  38  39
ENDBRANCH  31  33
ENDBRANCH  30  31
ENDBRANCH  29  30
ENDBRANCH  28  29
ENDBRANCH  27  28
ENDBRANCH  26  27
ENDBRANCH   1  26
TORSDOF 24
ENDMDL
MODEL 2
REMARK VINA RESULT:      -9.3      1.770      2.983
REMARK SMILES Cc1ncn(CC[C@@H]2CCC[C@@]2([NH3+])C(=O)OCCOCCOCCOC(=O)c2ccc(-c3c4nc(c(-c5cc(S(=O)(=O)[O-])ccc5F)c5ccc([nH]5)c(-c5cc(S(=O)(=O)[O-])ccc5F)c5nc(c(-c6cc(S(=O)(=O)[O-])ccc6F)c6ccc3[nH]6)C=C5)C=C4)cc2)c1C
REMARK SMILES IDX 20 1 19 2 18 3 17 4 16 5 14 6 15 7 12 8 8 9 9 10 10 11 11 12
REMARK SMILES IDX 7 13 6 14 5 15 1 16 2 17 3 18 91 19 4 20 92 21 13 22 21 26
REMARK SMILES IDX 22 27 23 28 24 29 25 30 26 31 27 32 28 33 29 34 90 35 30 36
REMARK SMILES IDX 89 37 31 38 32 39 33 40 83 41 34 42 88 43 82 44 84 45 35 46
REMARK SMILES IDX 87 47 81 48 80 49 36 51 68 52 48 53 67 54 49 55 52 56 66 57
REMARK SMILES IDX 85 58 50 59 51 60 65 62 86 63 53 64 37 65 38 66 46 67 39 68
REMARK SMILES IDX 45 69 47 70 44 71 40 72 41 73 42 74 43 75 69 76 70 77 78 78
REMARK SMILES IDX 71 79 77 80 79 81 76 82 72 83 73 84 74 85 75 86 54 87 55 88
REMARK SMILES IDX 63 89 56 90 62 91 64 92 61 93 57 94 58 95 59 96 60 97
REMARK H PARENT 13 23 13 24 13 25 84 50 52 61
REMARK Flexibility Score: inf
ROOT
ATOM      1  C   UNL A   1      41.788  19.402  26.592  1.00  0.00     0.188 C 
ENDROOT
BRANCH   1   2
ATOM      2  O   UNL A   1      40.845  19.782  25.619  1.00  0.00    -0.376 OA
BRANCH   2   3
ATOM      3  C   UNL A   1      39.600  20.270  26.085  1.00  0.00     0.202 C 
BRANCH   3   4
ATOM      4  C   UNL A   1      39.240  21.767  25.998  1.00  0.00     0.261 C 
BRANCH   4   5
ATOM      5  O   UNL A   1      37.937  22.129  25.501  1.00  0.00    -0.459 OA
BRANCH   5   6
ATOM      6  C   UNL A   1      37.368  23.285  25.921  1.00  0.00     0.368 C 
ATOM      7  O   UNL A   1      38.003  24.167  26.490  1.00  0.00    -0.245 OA
BRANCH   6   8
ATOM      8  C   UNL A   1      35.857  23.413  25.520  1.00  0.00     0.195 C 
ATOM      9  C   UNL A   1      34.753  22.972  26.537  1.00  0.00     0.064 C 
ATOM     10  C   UNL A   1      33.505  23.738  26.043  1.00  0.00     0.011 C 
ATOM     11  C   UNL A   1      34.024  25.046  25.457  1.00  0.00     0.008 C 
ATOM     12  C   UNL A   1      35.545  24.931  25.483  1.00  0.00     0.081 C 
BRANCH   9  13
ATOM     13  C   UNL A   1      34.384  21.492  26.766  1.00  0.00     0.032 C 
BRANCH  13  14
ATOM     14  C   UNL A   1      34.898  20.483  25.726  1.00  0.00     0.124 C 
BRANCH  14  15
ATOM     15  N   UNL A   1      33.914  19.981  24.785  1.00  0.00    -0.335 N 
ATOM     16  C   UNL A   1      32.151  17.767  22.502  1.00  0.00     0.069 C 
ATOM     17  C   UNL A   1      32.739  18.823  23.354  1.00  0.00     0.058 A 
ATOM     18  N   UNL A   1      32.189  20.078  23.389  1.00  0.00    -0.242 NA
ATOM     19  C   UNL A   1      33.855  18.751  24.167  1.00  0.00     0.037 A 
ATOM     20  C   UNL A   1      32.931  20.758  24.229  1.00  0.00     0.199 A 
ATOM     21  C   UNL A   1      34.790  17.620  24.360  1.00  0.00     0.066 C 
ENDBRANCH  14  15
ENDBRANCH  13  14
ENDBRANCH   9  13
BRANCH   8  22
ATOM     22  N   UNL A   1      35.622  22.929  24.142  1.00  0.00    -0.343 N 
ATOM     23  H   UNL A   1      35.175  23.665  23.594  1.00  0.00     0.345 HD
ATOM     24  H   UNL A   1      35.016  22.109  24.167  1.00  0.00     0.345 HD
ATOM     25  H   UNL A   1      36.513  22.680  23.712  1.00  0.00     0.345 HD
ENDBRANCH   8  22
ENDBRANCH   6   8
ENDBRANCH   5   6
ENDBRANCH   4   5
ENDBRANCH   3   4
ENDBRANCH   2   3
ENDBRANCH   1   2
BRANCH   1  26
ATOM     26  C   UNL A   1      42.712  18.272  26.120  1.00  0.00     0.188 C 
BRANCH  26  27
ATOM     27  O   UNL A   1      43.718  18.439  25.127  1.00  0.00    -0.376 OA
BRANCH  27  28
ATOM     28  C   UNL A   1      45.013  18.954  25.391  1.00  0.00     0.202 C 
BRANCH  28  29
ATOM     29  C   UNL A   1      45.387  20.312  24.819  1.00  0.00     0.261 C 
BRANCH  29  30
ATOM     30  O   UNL A   1      44.557  21.332  25.325  1.00  0.00    -0.460 OA
BRANCH  30  31
ATOM     31  C   UNL A   1      44.263  22.288  24.427  1.00  0.00     0.338 C 
ATOM     32  O   UNL A   1      44.608  22.338  23.243  1.00  0.00    -0.246 OA
BRANCH  31  33
ATOM     33  C   UNL A   1      43.411  23.274  25.083  1.00  0.00     0.060 A 
ATOM     34  C   UNL A   1      43.789  24.612  24.959  1.00  0.00     0.016 A 
ATOM     35  C   UNL A   1      42.436  22.842  25.995  1.00  0.00     0.016 A 
ATOM     36  C   UNL A   1      43.439  25.461  25.975  1.00  0.00     0.010 A 
ATOM     37  C   UNL A   1      42.105  23.680  27.018  1.00  0.00     0.010 A 
ATOM     38  C   UNL A   1      42.723  24.926  27.046  1.00  0.00    -0.014 A 
BRANCH  38  39
ATOM     39  C   UNL A   1      42.753  25.644  28.292  1.00  0.00     0.031 A 
ATOM     40  C   UNL A   1      41.595  26.516  28.500  1.00  0.00     0.074 A 
ATOM     41  C   UNL A   1      43.721  25.397  29.193  1.00  0.00     0.049 A 
ATOM     42  N   UNL A   1      41.566  27.805  28.492  1.00  0.00    -0.248 NA
ATOM     43  C   UNL A   1      40.271  25.876  28.522  1.00  0.00     0.031 C 
ATOM     44  C   UNL A   1      44.721  24.323  29.159  1.00  0.00     0.029 A 
ATOM     45  N   UNL A   1      43.929  25.980  30.399  1.00  0.00    -0.354 N 
ATOM     46  C   UNL A   1      40.250  28.127  28.786  1.00  0.00     0.074 A 
ATOM     47  C   UNL A   1      39.481  26.946  28.513  1.00  0.00     0.031 C 
ATOM     48  C   UNL A   1      45.270  24.194  30.387  1.00  0.00     0.029 A 
ATOM     49  C   UNL A   1      44.749  25.246  31.244  1.00  0.00     0.049 A 
ATOM     50  H   UNL A   1      43.534  26.844  30.653  1.00  0.00     0.167 HD
ATOM     51  C   UNL A   1      39.961  29.215  29.547  1.00  0.00     0.034 A 
ATOM     52  C   UNL A   1      44.900  25.437  32.580  1.00  0.00     0.034 A 
ATOM     53  C   UNL A   1      41.069  30.153  29.548  1.00  0.00     0.049 A 
ATOM     54  C   UNL A   1      44.480  26.834  32.866  1.00  0.00     0.074 A 
ATOM     55  C   UNL A   1      41.778  30.806  28.556  1.00  0.00     0.029 A 
ATOM     56  N   UNL A   1      41.853  30.240  30.679  1.00  0.00    -0.354 N 
ATOM     57  N   UNL A   1      45.104  27.883  32.402  1.00  0.00    -0.248 NA
ATOM     58  C   UNL A   1      43.106  27.076  33.284  1.00  0.00     0.031 C 
ATOM     59  C   UNL A   1      43.128  30.837  29.014  1.00  0.00     0.029 A 
ATOM     60  C   UNL A   1      43.169  30.256  30.284  1.00  0.00     0.049 A 
ATOM     61  H   UNL A   1      41.527  30.284  31.607  1.00  0.00     0.167 HD
ATOM     62  C   UNL A   1      44.103  28.783  32.067  1.00  0.00     0.074 A 
ATOM     63  C   UNL A   1      42.911  28.286  32.750  1.00  0.00     0.031 C 
ATOM     64  C   UNL A   1      44.263  29.671  31.041  1.00  0.00     0.034 A 
BRANCH  51  65
ATOM     65  C   UNL A   1      38.870  29.226  30.599  1.00  0.00     0.023 A 
ATOM     66  C   UNL A   1      37.920  30.254  30.499  1.00  0.00     0.031 A 
ATOM     67  C   UNL A   1      38.856  28.502  31.817  1.00  0.00     0.131 A 
ATOM     68  C   UNL A   1      37.124  30.612  31.600  1.00  0.00     0.055 A 
ATOM     69  C   UNL A   1      38.010  28.816  32.885  1.00  0.00     0.041 A 
ATOM     70  F   UNL A   1      39.700  27.503  32.097  1.00  0.00    -0.206 F 
ATOM     71  C   UNL A   1      37.166  29.904  32.796  1.00  0.00     0.022 A 
BRANCH  68  72
ATOM     72  S   UNL A   1      36.182  32.150  31.494  1.00  0.00     0.124 S 
ATOM     73  O   UNL A   1      35.579  32.213  32.821  1.00  0.00    -0.237 OA
ATOM     74  O   UNL A   1      37.235  33.121  31.216  1.00  0.00    -0.237 OA
ATOM     75  O   UNL A   1      35.253  31.900  30.396  1.00  0.00    -0.744 OA
ENDBRANCH  68  72
ENDBRANCH  51  65
BRANCH  52  76
ATOM     76  C   UNL A   1      45.036  24.368  33.603  1.00  0.00     0.023 A 
ATOM     77  C   UNL A   1      45.823  24.527  34.760  1.00  0.00     0.031 A 
ATOM     78  C   UNL A   1      44.201  23.226  33.556  1.00  0.00     0.131 A 
ATOM     79  C   UNL A   1      45.762  23.567  35.797  1.00  0.00     0.055 A 
ATOM     80  C   UNL A   1      44.160  22.272  34.574  1.00  0.00     0.041 A 
ATOM     81  F   UNL A   1      43.330  23.037  32.552  1.00  0.00    -0.206 F 
ATOM     82  C   UNL A   1      44.936  22.444  35.706  1.00  0.00     0.022 A 
BRANCH  79  83
ATOM     83  S   UNL A   1      46.694  23.828  37.339  1.00  0.00     0.124 S 
ATOM     84  O   UNL A   1      46.507  25.254  37.574  1.00  0.00    -0.237 OA
ATOM     85  O   UNL A   1      46.024  22.923  38.265  1.00  0.00    -0.237 OA
ATOM     86  O   UNL A   1      48.058  23.438  36.981  1.00  0.00    -0.744 OA
ENDBRANCH  79  83
ENDBRANCH  52  76
BRANCH  64  87
ATOM     87  C   UNL A   1      45.663  29.888  30.498  1.00  0.00     0.023 A 
ATOM     88  C   UNL A   1      46.211  29.195  29.395  1.00  0.00     0.031 A 
ATOM     89  C   UNL A   1      46.421  30.935  31.052  1.00  0.00     0.131 A 
ATOM     90  C   UNL A   1      47.478  29.555  28.895  1.00  0.00     0.055 A 
ATOM     91  C   UNL A   1      47.668  31.298  30.544  1.00  0.00     0.041 A 
ATOM     92  F   UNL A   1      45.938  31.655  32.079  1.00  0.00    -0.206 F 
ATOM     93  C   UNL A   1      48.204  30.604  29.465  1.00  0.00     0.022 A 
BRANCH  90  94
ATOM     94  S   UNL A   1      48.200  28.662  27.479  1.00  0.00     0.124 S 
ATOM     95  O   UNL A   1      49.623  28.625  27.791  1.00  0.00    -0.237 OA
ATOM     96  O   UNL A   1      47.500  27.382  27.522  1.00  0.00    -0.237 OA
ATOM     97  O   UNL A   1      47.851  29.504  26.332  1.00  0.00    -0.744 OA
ENDBRANCH  90  94
ENDBRANCH  64  87
ENDBRANCH  38  39
ENDBRANCH  31  33
ENDBRANCH  30  31
ENDBRANCH  29  30
ENDBRANCH  28  29
ENDBRANCH  27  28
ENDBRANCH  26  27
ENDBRANCH   1  26
TORSDOF 24
ENDMDL
MODEL 3
REMARK VINA RESULT:      -9.0      4.658      9.666
REMARK SMILES Cc1ncn(CC[C@@H]2CCC[C@@]2([NH3+])C(=O)OCCOCCOCCOC(=O)c2ccc(-c3c4nc(c(-c5cc(S(=O)(=O)[O-])ccc5F)c5ccc([nH]5)c(-c5cc(S(=O)(=O)[O-])ccc5F)c5nc(c(-c6cc(S(=O)(=O)[O-])ccc6F)c6ccc3[nH]6)C=C5)C=C4)cc2)c1C
REMARK SMILES IDX 20 1 19 2 18 3 17 4 16 5 14 6 15 7 12 8 8 9 9 10 10 11 11 12
REMARK SMILES IDX 7 13 6 14 5 15 1 16 2 17 3 18 91 19 4 20 92 21 13 22 21 26
REMARK SMILES IDX 22 27 23 28 24 29 25 30 26 31 27 32 28 33 29 34 90 35 30 36
REMARK SMILES IDX 89 37 31 38 32 39 33 40 83 41 34 42 88 43 82 44 84 45 35 46
REMARK SMILES IDX 87 47 81 48 80 49 36 51 68 52 48 53 67 54 49 55 52 56 66 57
REMARK SMILES IDX 85 58 50 59 51 60 65 62 86 63 53 64 37 65 38 66 46 67 39 68
REMARK SMILES IDX 45 69 47 70 44 71 40 72 41 73 42 74 43 75 69 76 70 77 78 78
REMARK SMILES IDX 71 79 77 80 79 81 76 82 72 83 73 84 74 85 75 86 54 87 55 88
REMARK SMILES IDX 63 89 56 90 62 91 64 92 61 93 57 94 58 95 59 96 60 97
REMARK H PARENT 13 23 13 24 13 25 84 50 52 61
REMARK Flexibility Score: inf
ROOT
ATOM      1  C   UNL A   1      42.961  19.193  26.702  1.00  0.00     0.188 C 
ENDROOT
BRANCH   1   2
ATOM      2  O   UNL A   1      42.016  19.884  25.921  1.00  0.00    -0.376 OA
BRANCH   2   3
ATOM      3  C   UNL A   1      40.695  19.958  26.425  1.00  0.00     0.202 C 
BRANCH   3   4
ATOM      4  C   UNL A   1      39.878  21.264  26.352  1.00  0.00     0.261 C 
BRANCH   4   5
ATOM      5  O   UNL A   1      40.582  22.517  26.455  1.00  0.00    -0.459 OA
BRANCH   5   6
ATOM      6  C   UNL A   1      39.882  23.647  26.719  1.00  0.00     0.368 C 
ATOM      7  O   UNL A   1      38.656  23.682  26.715  1.00  0.00    -0.245 OA
BRANCH   6   8
ATOM      8  C   UNL A   1      40.793  24.861  27.116  1.00  0.00     0.195 C 
ATOM      9  C   UNL A   1      40.333  25.824  28.260  1.00  0.00     0.064 C 
ATOM     10  C   UNL A   1      41.658  26.480  28.710  1.00  0.00     0.011 C 
ATOM     11  C   UNL A   1      42.736  25.421  28.508  1.00  0.00     0.008 C 
ATOM     12  C   UNL A   1      42.042  24.257  27.809  1.00  0.00     0.081 C 
BRANCH   9  13
ATOM     13  C   UNL A   1      39.272  26.921  28.040  1.00  0.00     0.032 C 
BRANCH  13  14
ATOM     14  C   UNL A   1      39.790  28.315  27.650  1.00  0.00     0.124 C 
BRANCH  14  15
ATOM     15  N   UNL A   1      39.482  29.391  28.575  1.00  0.00    -0.335 N 
ATOM     16  C   UNL A   1      37.697  32.064  30.274  1.00  0.00     0.069 C 
ATOM     17  C   UNL A   1      38.597  31.045  29.692  1.00  0.00     0.058 A 
ATOM     18  N   UNL A   1      39.882  30.908  30.147  1.00  0.00    -0.242 NA
ATOM     19  C   UNL A   1      38.339  30.153  28.667  1.00  0.00     0.037 A 
ATOM     20  C   UNL A   1      40.399  29.932  29.439  1.00  0.00     0.199 A 
ATOM     21  C   UNL A   1      37.117  30.017  27.842  1.00  0.00     0.066 C 
ENDBRANCH  14  15
ENDBRANCH  13  14
ENDBRANCH   9  13
BRANCH   8  22
ATOM     22  N   UNL A   1      41.308  25.563  25.920  1.00  0.00    -0.343 N 
ATOM     23  H   UNL A   1      42.096  26.153  26.184  1.00  0.00     0.345 HD
ATOM     24  H   UNL A   1      40.569  26.141  25.520  1.00  0.00     0.345 HD
ATOM     25  H   UNL A   1      41.614  24.877  25.229  1.00  0.00     0.345 HD
ENDBRANCH   8  22
ENDBRANCH   6   8
ENDBRANCH   5   6
ENDBRANCH   4   5
ENDBRANCH   3   4
ENDBRANCH   2   3
ENDBRANCH   1   2
BRANCH   1  26
ATOM     26  C   UNL A   1      43.646  18.050  25.941  1.00  0.00     0.188 C 
BRANCH  26  27
ATOM     27  O   UNL A   1      44.752  18.237  25.066  1.00  0.00    -0.376 OA
BRANCH  27  28
ATOM     28  C   UNL A   1      45.956  18.889  25.440  1.00  0.00     0.202 C 
BRANCH  28  29
ATOM     29  C   UNL A   1      46.380  20.132  24.674  1.00  0.00     0.261 C 
BRANCH  29  30
ATOM     30  O   UNL A   1      46.204  21.298  25.444  1.00  0.00    -0.460 OA
BRANCH  30  31
ATOM     31  C   UNL A   1      45.112  22.008  25.113  1.00  0.00     0.338 C 
ATOM     32  O   UNL A   1      44.232  21.700  24.303  1.00  0.00    -0.246 OA
BRANCH  31  33
ATOM     33  C   UNL A   1      45.108  23.228  25.914  1.00  0.00     0.060 A 
ATOM     34  C   UNL A   1      44.714  24.401  25.270  1.00  0.00     0.016 A 
ATOM     35  C   UNL A   1      45.727  23.223  27.174  1.00  0.00     0.016 A 
ATOM     36  C   UNL A   1      45.240  25.579  25.730  1.00  0.00     0.010 A 
ATOM     37  C   UNL A   1      46.270  24.392  27.620  1.00  0.00     0.010 A 
ATOM     38  C   UNL A   1      46.119  25.514  26.811  1.00  0.00    -0.014 A 
BRANCH  38  39
ATOM     39  C   UNL A   1      47.019  26.620  27.006  1.00  0.00     0.031 A 
ATOM     40  C   UNL A   1      48.242  26.535  26.205  1.00  0.00     0.074 A 
ATOM     41  C   UNL A   1      46.652  27.662  27.772  1.00  0.00     0.049 A 
ATOM     42  N   UNL A   1      49.442  26.313  26.619  1.00  0.00    -0.248 NA
ATOM     43  C   UNL A   1      48.083  26.496  24.744  1.00  0.00     0.031 C 
ATOM     44  C   UNL A   1      45.328  27.930  28.345  1.00  0.00     0.029 A 
ATOM     45  N   UNL A   1      47.361  28.774  28.090  1.00  0.00    -0.354 N 
ATOM     46  C   UNL A   1      50.225  26.384  25.477  1.00  0.00     0.074 A 
ATOM     47  C   UNL A   1      49.328  26.213  24.369  1.00  0.00     0.031 C 
ATOM     48  C   UNL A   1      45.271  29.222  28.737  1.00  0.00     0.029 A 
ATOM     49  C   UNL A   1      46.582  29.824  28.555  1.00  0.00     0.049 A 
ATOM     50  H   UNL A   1      48.339  28.831  27.999  1.00  0.00     0.167 HD
ATOM     51  C   UNL A   1      51.474  26.914  25.530  1.00  0.00     0.034 A 
ATOM     52  C   UNL A   1      46.971  31.118  28.678  1.00  0.00     0.034 A 
ATOM     53  C   UNL A   1      51.983  26.901  26.889  1.00  0.00     0.049 A 
ATOM     54  C   UNL A   1      48.456  31.118  28.744  1.00  0.00     0.074 A 
ATOM     55  C   UNL A   1      52.163  25.913  27.840  1.00  0.00     0.029 A 
ATOM     56  N   UNL A   1      52.032  28.091  27.583  1.00  0.00    -0.354 N 
ATOM     57  N   UNL A   1      49.133  30.570  29.717  1.00  0.00    -0.248 NA
ATOM     58  C   UNL A   1      49.208  31.315  27.512  1.00  0.00     0.031 C 
ATOM     59  C   UNL A   1      51.844  26.524  29.088  1.00  0.00     0.029 A 
ATOM     60  C   UNL A   1      51.542  27.867  28.848  1.00  0.00     0.049 A 
ATOM     61  H   UNL A   1      52.360  28.951  27.235  1.00  0.00     0.167 HD
ATOM     62  C   UNL A   1      50.225  29.970  29.107  1.00  0.00     0.074 A 
ATOM     63  C   UNL A   1      50.286  30.570  27.777  1.00  0.00     0.031 C 
ATOM     64  C   UNL A   1      50.794  28.841  29.626  1.00  0.00     0.034 A 
BRANCH  51  65
ATOM     65  C   UNL A   1      52.045  27.805  24.444  1.00  0.00     0.023 A 
ATOM     66  C   UNL A   1      51.132  28.295  23.497  1.00  0.00     0.031 A 
ATOM     67  C   UNL A   1      53.412  27.970  24.111  1.00  0.00     0.131 A 
ATOM     68  C   UNL A   1      51.569  28.776  22.253  1.00  0.00     0.055 A 
ATOM     69  C   UNL A   1      53.845  28.518  22.901  1.00  0.00     0.041 A 
ATOM     70  F   UNL A   1      54.420  27.548  24.882  1.00  0.00    -0.206 F 
ATOM     71  C   UNL A   1      52.921  28.887  21.944  1.00  0.00     0.022 A 
BRANCH  68  72
ATOM     72  S   UNL A   1      50.324  29.064  20.975  1.00  0.00     0.124 S 
ATOM     73  O   UNL A   1      49.104  28.659  21.663  1.00  0.00    -0.237 OA
ATOM     74  O   UNL A   1      50.482  30.493  20.727  1.00  0.00    -0.237 OA
ATOM     75  O   UNL A   1      50.750  28.187  19.889  1.00  0.00    -0.744 OA
ENDBRANCH  68  72
ENDBRANCH  51  65
BRANCH  52  76
ATOM     76  C   UNL A   1      46.139  32.312  28.375  1.00  0.00     0.023 A 
ATOM     77  C   UNL A   1      45.689  32.609  27.075  1.00  0.00     0.031 A 
ATOM     78  C   UNL A   1      45.586  33.080  29.429  1.00  0.00     0.131 A 
ATOM     79  C   UNL A   1      44.739  33.636  26.869  1.00  0.00     0.055 A 
ATOM     80  C   UNL A   1      44.663  34.106  29.218  1.00  0.00     0.041 A 
ATOM     81  F   UNL A   1      45.861  32.805  30.714  1.00  0.00    -0.206 F 
ATOM     82  C   UNL A   1      44.228  34.383  27.934  1.00  0.00     0.022 A 
BRANCH  79  83
ATOM     83  S   UNL A   1      44.075  33.946  25.204  1.00  0.00     0.124 S 
ATOM     84  O   UNL A   1      45.227  34.512  24.513  1.00  0.00    -0.237 OA
ATOM     85  O   UNL A   1      43.654  32.614  24.783  1.00  0.00    -0.237 OA
ATOM     86  O   UNL A   1      42.979  34.886  25.444  1.00  0.00    -0.744 OA
ENDBRANCH  79  83
ENDBRANCH  52  76
BRANCH  64  87
ATOM     87  C   UNL A   1      50.434  28.450  31.047  1.00  0.00     0.023 A 
ATOM     88  C   UNL A   1      49.260  27.756  31.413  1.00  0.00     0.031 A 
ATOM     89  C   UNL A   1      51.392  28.686  32.049  1.00  0.00     0.131 A 
ATOM     90  C   UNL A   1      49.076  27.334  32.745  1.00  0.00     0.055 A 
ATOM     91  C   UNL A   1      51.214  28.253  33.362  1.00  0.00     0.041 A 
ATOM     92  F   UNL A   1      52.545  29.308  31.754  1.00  0.00    -0.206 F 
ATOM     93  C   UNL A   1      50.050  27.579  33.717  1.00  0.00     0.022 A 
BRANCH  90  94
ATOM     94  S   UNL A   1      47.561  26.446  33.233  1.00  0.00     0.124 S 
ATOM     95  O   UNL A   1      47.818  25.076  32.808  1.00  0.00    -0.237 OA
ATOM     96  O   UNL A   1      47.512  26.673  34.675  1.00  0.00    -0.237 OA
ATOM     97  O   UNL A   1      46.507  27.129  32.478  1.00  0.00    -0.744 OA
ENDBRANCH  90  94
ENDBRANCH  64  87
ENDBRANCH  38  39
ENDBRANCH  31  33
ENDBRANCH  30  31
ENDBRANCH  29  30
ENDBRANCH  28  29
ENDBRANCH  27  28
ENDBRANCH  26  27
ENDBRANCH   1  26
TORSDOF 24
ENDMDL
