MODEL 1
REMARK VINA RESULT:      -8.2      0.000      0.000
REMARK SMILES CCCCSCC(=O)Nc1sc(C)c(C)c1C(=O)OCCOCCOCCOC(=O)c1ccc(-c2c3nc(c(-c4cc(S(=O)(=O)[O-])ccc4F)c4ccc([nH]4)c(-c4cc(S(=O)(=O)[O-])ccc4F)c4nc(c(-c5cc(S(=O)(=O)[O-])ccc5F)c5ccc2[nH]5)C=C4)C=C3)cc1
REMARK SMILES IDX 22 1 21 2 20 3 19 4 17 5 18 6 16 7 10 8 11 9 12 10 14 11
REMARK SMILES IDX 13 12 15 13 9 14 7 15 8 16 6 18 5 19 4 20 3 21 2 22 1 23
REMARK SMILES IDX 23 24 24 25 25 26 26 27 27 28 28 29 29 30 30 31 31 32 32 33
REMARK SMILES IDX 93 34 33 35 92 36 34 37 35 38 36 39 86 40 37 41 91 42 85 43
REMARK SMILES IDX 87 44 38 45 90 46 84 47 83 48 39 50 71 51 51 52 70 53 52 54
REMARK SMILES IDX 55 55 69 56 88 57 53 58 54 59 68 61 89 62 56 63 40 64 41 65
REMARK SMILES IDX 49 66 42 67 48 68 50 69 47 70 43 71 44 72 45 73 46 74 72 75
REMARK SMILES IDX 73 76 81 77 74 78 80 79 82 80 79 81 75 82 76 83 77 84 78 85
REMARK SMILES IDX 57 86 58 87 66 88 59 89 65 90 67 91 64 92 60 93 61 94 62 95
REMARK SMILES IDX 63 96
REMARK H PARENT 9 17 87 49 55 60
REMARK Flexibility Score: inf
ROOT
ATOM      1  O   UNL A   1      44.075  19.046  24.312  1.00  0.00    -0.376 OA
ENDROOT
BRANCH   1   2
ATOM      2  C   UNL A   1      43.519  18.963  25.616  1.00  0.00     0.202 C 
BRANCH   2   3
ATOM      3  C   UNL A   1      42.069  19.421  25.768  1.00  0.00     0.261 C 
BRANCH   3   4
ATOM      4  O   UNL A   1      41.968  20.793  26.187  1.00  0.00    -0.460 OA
BRANCH   4   5
ATOM      5  C   UNL A   1      41.069  21.033  27.188  1.00  0.00     0.341 C 
ATOM      6  O   UNL A   1      40.784  20.218  28.056  1.00  0.00    -0.246 OA
BRANCH   5   7
ATOM      7  C   UNL A   1      40.527  22.397  27.175  1.00  0.00     0.098 A 
ATOM      8  C   UNL A   1      39.512  22.865  26.349  1.00  0.00     0.110 A 
ATOM      9  S   UNL A   1      39.033  24.430  26.779  1.00  0.00    -0.122 S 
ATOM     10  C   UNL A   1      40.316  24.638  27.863  1.00  0.00     0.007 A 
ATOM     11  C   UNL A   1      41.077  23.489  27.977  1.00  0.00    -0.021 A 
ATOM     12  C   UNL A   1      40.500  25.961  28.532  1.00  0.00     0.057 C 
ATOM     13  C   UNL A   1      42.340  23.395  28.783  1.00  0.00     0.046 C 
BRANCH   8  14
ATOM     14  N   UNL A   1      38.814  22.177  25.376  1.00  0.00    -0.316 N 
ATOM     15  C   UNL A   1      37.492  21.846  25.267  1.00  0.00     0.234 C 
ATOM     16  O   UNL A   1      37.185  21.106  24.322  1.00  0.00    -0.274 OA
ATOM     17  H   UNL A   1      39.369  21.869  24.623  1.00  0.00     0.170 HD
BRANCH  15  18
ATOM     18  C   UNL A   1      36.396  22.450  26.127  1.00  0.00     0.169 C 
BRANCH  18  19
ATOM     19  S   UNL A   1      34.671  21.958  25.802  1.00  0.00    -0.152 SA
BRANCH  19  20
ATOM     20  C   UNL A   1      33.737  23.524  25.805  1.00  0.00     0.070 C 
BRANCH  20  21
ATOM     21  C   UNL A   1      33.292  23.920  24.395  1.00  0.00     0.011 C 
BRANCH  21  22
ATOM     22  C   UNL A   1      33.946  23.118  23.269  1.00  0.00    -0.003 C 
ATOM     23  C   UNL A   1      33.094  23.081  22.010  1.00  0.00     0.004 C 
ENDBRANCH  21  22
ENDBRANCH  20  21
ENDBRANCH  19  20
ENDBRANCH  18  19
ENDBRANCH  15  18
ENDBRANCH   8  14
ENDBRANCH   5   7
ENDBRANCH   4   5
ENDBRANCH   3   4
ENDBRANCH   2   3
ENDBRANCH   1   2
BRANCH   1  24
ATOM     24  C   UNL A   1      45.244  19.832  24.087  1.00  0.00     0.188 C 
BRANCH  24  25
ATOM     25  C   UNL A   1      45.788  20.716  25.224  1.00  0.00     0.188 C 
BRANCH  25  26
ATOM     26  O   UNL A   1      46.723  21.689  24.780  1.00  0.00    -0.376 OA
BRANCH  26  27
ATOM     27  C   UNL A   1      46.180  22.853  24.180  1.00  0.00     0.202 C 
BRANCH  27  28
ATOM     28  C   UNL A   1      46.409  24.132  24.993  1.00  0.00     0.261 C 
BRANCH  28  29
ATOM     29  O   UNL A   1      45.578  25.246  24.628  1.00  0.00    -0.460 OA
BRANCH  29  30
ATOM     30  C   UNL A   1      46.096  26.484  24.796  1.00  0.00     0.338 C 
ATOM     31  O   UNL A   1      46.771  27.106  23.996  1.00  0.00    -0.246 OA
BRANCH  30  32
ATOM     32  C   UNL A   1      45.558  27.034  26.060  1.00  0.00     0.060 A 
ATOM     33  C   UNL A   1      44.170  27.091  26.241  1.00  0.00     0.016 A 
ATOM     34  C   UNL A   1      46.418  27.491  27.062  1.00  0.00     0.016 A 
ATOM     35  C   UNL A   1      43.642  27.632  27.417  1.00  0.00     0.010 A 
ATOM     36  C   UNL A   1      45.889  28.045  28.231  1.00  0.00     0.010 A 
ATOM     37  C   UNL A   1      44.499  28.141  28.405  1.00  0.00    -0.014 A 
BRANCH  37  38
ATOM     38  C   UNL A   1      43.951  28.929  29.538  1.00  0.00     0.031 A 
ATOM     39  C   UNL A   1      43.749  30.408  29.353  1.00  0.00     0.074 A 
ATOM     40  C   UNL A   1      43.647  28.349  30.714  1.00  0.00     0.049 A 
ATOM     41  N   UNL A   1      43.327  31.305  30.207  1.00  0.00    -0.248 NA
ATOM     42  C   UNL A   1      44.070  30.946  28.021  1.00  0.00     0.031 C 
ATOM     43  C   UNL A   1      43.774  26.923  31.012  1.00  0.00     0.029 A 
ATOM     44  N   UNL A   1      43.178  28.896  31.883  1.00  0.00    -0.354 N 
ATOM     45  C   UNL A   1      43.316  32.510  29.514  1.00  0.00     0.074 A 
ATOM     46  C   UNL A   1      43.812  32.235  28.182  1.00  0.00     0.031 C 
ATOM     47  C   UNL A   1      43.407  26.712  32.289  1.00  0.00     0.029 A 
ATOM     48  C   UNL A   1      43.047  27.988  32.907  1.00  0.00     0.049 A 
ATOM     49  H   UNL A   1      42.956  29.850  31.979  1.00  0.00     0.167 HD
ATOM     50  C   UNL A   1      42.921  33.735  29.942  1.00  0.00     0.034 A 
ATOM     51  C   UNL A   1      42.702  28.172  34.199  1.00  0.00     0.034 A 
ATOM     52  C   UNL A   1      42.464  34.012  31.280  1.00  0.00     0.049 A 
ATOM     53  C   UNL A   1      42.362  29.564  34.683  1.00  0.00     0.074 A 
ATOM     54  C   UNL A   1      42.045  35.217  31.818  1.00  0.00     0.029 A 
ATOM     55  N   UNL A   1      42.381  33.074  32.301  1.00  0.00    -0.354 N 
ATOM     56  N   UNL A   1      42.339  30.692  34.010  1.00  0.00    -0.248 NA
ATOM     57  C   UNL A   1      42.000  29.704  36.100  1.00  0.00     0.031 C 
ATOM     58  C   UNL A   1      41.766  35.020  33.176  1.00  0.00     0.029 A 
ATOM     59  C   UNL A   1      41.948  33.679  33.470  1.00  0.00     0.049 A 
ATOM     60  H   UNL A   1      42.599  32.118  32.207  1.00  0.00     0.167 HD
ATOM     61  C   UNL A   1      41.925  31.665  34.917  1.00  0.00     0.074 A 
ATOM     62  C   UNL A   1      41.705  30.993  36.179  1.00  0.00     0.031 C 
ATOM     63  C   UNL A   1      41.737  32.996  34.723  1.00  0.00     0.034 A 
BRANCH  50  64
ATOM     64  C   UNL A   1      43.015  34.868  28.955  1.00  0.00     0.023 A 
ATOM     65  C   UNL A   1      44.256  35.418  28.588  1.00  0.00     0.031 A 
ATOM     66  C   UNL A   1      41.852  35.430  28.403  1.00  0.00     0.131 A 
ATOM     67  C   UNL A   1      44.300  36.536  27.741  1.00  0.00     0.055 A 
ATOM     68  C   UNL A   1      41.907  36.499  27.507  1.00  0.00     0.041 A 
ATOM     69  F   UNL A   1      40.639  34.958  28.738  1.00  0.00    -0.206 F 
ATOM     70  C   UNL A   1      43.135  37.066  27.181  1.00  0.00     0.022 A 
BRANCH  67  71
ATOM     71  S   UNL A   1      45.893  37.362  27.480  1.00  0.00     0.124 S 
ATOM     72  O   UNL A   1      45.498  38.768  27.472  1.00  0.00    -0.237 OA
ATOM     73  O   UNL A   1      46.670  36.923  28.633  1.00  0.00    -0.237 OA
ATOM     74  O   UNL A   1      46.342  36.840  26.189  1.00  0.00    -0.744 OA
ENDBRANCH  67  71
ENDBRANCH  50  64
BRANCH  51  75
ATOM     75  C   UNL A   1      42.699  27.029  35.157  1.00  0.00     0.023 A 
ATOM     76  C   UNL A   1      43.812  26.761  35.970  1.00  0.00     0.031 A 
ATOM     77  C   UNL A   1      41.614  26.137  35.209  1.00  0.00     0.131 A 
ATOM     78  C   UNL A   1      43.836  25.602  36.762  1.00  0.00     0.055 A 
ATOM     79  C   UNL A   1      41.621  25.013  36.036  1.00  0.00     0.041 A 
ATOM     80  F   UNL A   1      40.527  26.347  34.449  1.00  0.00    -0.206 F 
ATOM     81  C   UNL A   1      42.744  24.731  36.808  1.00  0.00     0.022 A 
BRANCH  78  82
ATOM     82  S   UNL A   1      45.358  25.197  37.662  1.00  0.00     0.124 S 
ATOM     83  O   UNL A   1      45.137  25.866  38.938  1.00  0.00    -0.237 OA
ATOM     84  O   UNL A   1      45.316  23.739  37.685  1.00  0.00    -0.237 OA
ATOM     85  O   UNL A   1      46.411  25.775  36.828  1.00  0.00    -0.744 OA
ENDBRANCH  78  82
ENDBRANCH  51  75
BRANCH  63  86
ATOM     86  C   UNL A   1      41.219  33.795  35.893  1.00  0.00     0.023 A 
ATOM     87  C   UNL A   1      42.085  34.438  36.794  1.00  0.00     0.031 A 
ATOM     88  C   UNL A   1      39.834  33.908  36.109  1.00  0.00     0.131 A 
ATOM     89  C   UNL A   1      41.559  35.126  37.897  1.00  0.00     0.055 A 
ATOM     90  C   UNL A   1      39.315  34.637  37.180  1.00  0.00     0.041 A 
ATOM     91  F   UNL A   1      38.963  33.315  35.277  1.00  0.00    -0.206 F 
ATOM     92  C   UNL A   1      40.179  35.242  38.088  1.00  0.00     0.022 A 
BRANCH  89  93
ATOM     93  S   UNL A   1      42.703  35.814  39.126  1.00  0.00     0.124 S 
ATOM     94  O   UNL A   1      42.918  34.674  40.012  1.00  0.00    -0.237 OA
ATOM     95  O   UNL A   1      43.843  36.207  38.305  1.00  0.00    -0.237 OA
ATOM     96  O   UNL A   1      41.953  36.923  39.713  1.00  0.00    -0.744 OA
ENDBRANCH  89  93
ENDBRANCH  63  86
ENDBRANCH  37  38
ENDBRANCH  30  32
ENDBRANCH  29  30
ENDBRANCH  28  29
ENDBRANCH  27  28
ENDBRANCH  26  27
ENDBRANCH  25  26
ENDBRANCH  24  25
ENDBRANCH   1  24
TORSDOF 26
ENDMDL
MODEL 2
REMARK VINA RESULT:      -7.6      4.824      6.896
REMARK SMILES CCCCSCC(=O)Nc1sc(C)c(C)c1C(=O)OCCOCCOCCOC(=O)c1ccc(-c2c3nc(c(-c4cc(S(=O)(=O)[O-])ccc4F)c4ccc([nH]4)c(-c4cc(S(=O)(=O)[O-])ccc4F)c4nc(c(-c5cc(S(=O)(=O)[O-])ccc5F)c5ccc2[nH]5)C=C4)C=C3)cc1
REMARK SMILES IDX 22 1 21 2 20 3 19 4 17 5 18 6 16 7 10 8 11 9 12 10 14 11
REMARK SMILES IDX 13 12 15 13 9 14 7 15 8 16 6 18 5 19 4 20 3 21 2 22 1 23
REMARK SMILES IDX 23 24 24 25 25 26 26 27 27 28 28 29 29 30 30 31 31 32 32 33
REMARK SMILES IDX 93 34 33 35 92 36 34 37 35 38 36 39 86 40 37 41 91 42 85 43
REMARK SMILES IDX 87 44 38 45 90 46 84 47 83 48 39 50 71 51 51 52 70 53 52 54
REMARK SMILES IDX 55 55 69 56 88 57 53 58 54 59 68 61 89 62 56 63 40 64 41 65
REMARK SMILES IDX 49 66 42 67 48 68 50 69 47 70 43 71 44 72 45 73 46 74 72 75
REMARK SMILES IDX 73 76 81 77 74 78 80 79 82 80 79 81 75 82 76 83 77 84 78 85
REMARK SMILES IDX 57 86 58 87 66 88 59 89 65 90 67 91 64 92 60 93 61 94 62 95
REMARK SMILES IDX 63 96
REMARK H PARENT 9 17 87 49 55 60
REMARK Flexibility Score: inf
ROOT
ATOM      1  O   UNL A   1      38.839  23.491  25.915  1.00  0.00    -0.376 OA
ENDROOT
BRANCH   1   2
ATOM      2  C   UNL A   1      37.468  23.678  26.239  1.00  0.00     0.202 C 
BRANCH   2   3
ATOM      3  C   UNL A   1      36.472  23.539  25.087  1.00  0.00     0.261 C 
BRANCH   3   4
ATOM      4  O   UNL A   1      35.448  24.547  25.125  1.00  0.00    -0.460 OA
BRANCH   4   5
ATOM      5  C   UNL A   1      34.568  24.527  24.080  1.00  0.00     0.341 C 
ATOM      6  O   UNL A   1      34.730  23.854  23.069  1.00  0.00    -0.246 OA
BRANCH   5   7
ATOM      7  C   UNL A   1      33.361  25.329  24.311  1.00  0.00     0.098 A 
ATOM      8  C   UNL A   1      32.524  25.246  25.417  1.00  0.00     0.110 A 
ATOM      9  S   UNL A   1      31.362  26.475  25.410  1.00  0.00    -0.122 S 
ATOM     10  C   UNL A   1      31.744  26.972  23.838  1.00  0.00     0.007 A 
ATOM     11  C   UNL A   1      32.818  26.266  23.328  1.00  0.00    -0.021 A 
ATOM     12  C   UNL A   1      30.925  28.041  23.190  1.00  0.00     0.057 C 
ATOM     13  C   UNL A   1      33.325  26.409  21.923  1.00  0.00     0.046 C 
BRANCH   8  14
ATOM     14  N   UNL A   1      32.628  24.406  26.508  1.00  0.00    -0.316 N 
ATOM     15  C   UNL A   1      32.151  23.144  26.733  1.00  0.00     0.234 C 
ATOM     16  O   UNL A   1      32.306  22.692  27.877  1.00  0.00    -0.274 OA
ATOM     17  H   UNL A   1      33.138  24.783  27.261  1.00  0.00     0.170 HD
BRANCH  15  18
ATOM     18  C   UNL A   1      31.603  22.241  25.643  1.00  0.00     0.169 C 
BRANCH  18  19
ATOM     19  S   UNL A   1      32.183  20.514  25.576  1.00  0.00    -0.152 SA
BRANCH  19  20
ATOM     20  C   UNL A   1      33.854  20.618  24.851  1.00  0.00     0.070 C 
BRANCH  20  21
ATOM     21  C   UNL A   1      34.350  19.251  24.376  1.00  0.00     0.011 C 
BRANCH  21  22
ATOM     22  C   UNL A   1      33.253  18.310  23.875  1.00  0.00    -0.003 C 
ATOM     23  C   UNL A   1      33.350  16.922  24.489  1.00  0.00     0.004 C 
ENDBRANCH  21  22
ENDBRANCH  20  21
ENDBRANCH  19  20
ENDBRANCH  18  19
ENDBRANCH  15  18
ENDBRANCH   8  14
ENDBRANCH   5   7
ENDBRANCH   4   5
ENDBRANCH   3   4
ENDBRANCH   2   3
ENDBRANCH   1   2
BRANCH   1  24
ATOM     24  C   UNL A   1      39.698  22.813  26.830  1.00  0.00     0.188 C 
BRANCH  24  25
ATOM     25  C   UNL A   1      40.739  21.816  26.288  1.00  0.00     0.188 C 
BRANCH  25  26
ATOM     26  O   UNL A   1      42.037  22.010  26.830  1.00  0.00    -0.376 OA
BRANCH  26  27
ATOM     27  C   UNL A   1      42.897  22.874  26.105  1.00  0.00     0.202 C 
BRANCH  27  28
ATOM     28  C   UNL A   1      43.366  24.094  26.903  1.00  0.00     0.261 C 
BRANCH  28  29
ATOM     29  O   UNL A   1      43.467  25.316  26.153  1.00  0.00    -0.460 OA
BRANCH  29  30
ATOM     30  C   UNL A   1      42.316  25.977  25.891  1.00  0.00     0.338 C 
ATOM     31  O   UNL A   1      41.415  25.608  25.161  1.00  0.00    -0.246 OA
BRANCH  30  32
ATOM     32  C   UNL A   1      42.256  27.155  26.784  1.00  0.00     0.060 A 
ATOM     33  C   UNL A   1      41.991  28.415  26.232  1.00  0.00     0.016 A 
ATOM     34  C   UNL A   1      42.461  27.018  28.160  1.00  0.00     0.016 A 
ATOM     35  C   UNL A   1      41.958  29.544  27.056  1.00  0.00     0.010 A 
ATOM     36  C   UNL A   1      42.441  28.150  28.980  1.00  0.00     0.010 A 
ATOM     37  C   UNL A   1      42.214  29.421  28.430  1.00  0.00    -0.014 A 
BRANCH  37  38
ATOM     38  C   UNL A   1      42.418  30.632  29.265  1.00  0.00     0.031 A 
ATOM     39  C   UNL A   1      43.763  31.307  29.236  1.00  0.00     0.074 A 
ATOM     40  C   UNL A   1      41.434  31.122  30.043  1.00  0.00     0.049 A 
ATOM     41  N   UNL A   1      44.188  32.346  29.908  1.00  0.00    -0.248 NA
ATOM     42  C   UNL A   1      44.761  30.726  28.325  1.00  0.00     0.031 C 
ATOM     43  C   UNL A   1      40.082  30.576  30.141  1.00  0.00     0.029 A 
ATOM     44  N   UNL A   1      41.430  32.188  30.909  1.00  0.00    -0.354 N 
ATOM     45  C   UNL A   1      45.498  32.554  29.490  1.00  0.00     0.074 A 
ATOM     46  C   UNL A   1      45.808  31.508  28.538  1.00  0.00     0.031 C 
ATOM     47  C   UNL A   1      39.383  31.302  31.033  1.00  0.00     0.029 A 
ATOM     48  C   UNL A   1      40.245  32.345  31.589  1.00  0.00     0.049 A 
ATOM     49  H   UNL A   1      42.204  32.783  31.032  1.00  0.00     0.167 HD
ATOM     50  C   UNL A   1      46.364  33.531  29.858  1.00  0.00     0.034 A 
ATOM     51  C   UNL A   1      39.907  33.213  32.565  1.00  0.00     0.034 A 
ATOM     52  C   UNL A   1      46.064  34.547  30.835  1.00  0.00     0.049 A 
ATOM     53  C   UNL A   1      40.922  34.232  33.034  1.00  0.00     0.074 A 
ATOM     54  C   UNL A   1      46.871  35.579  31.282  1.00  0.00     0.029 A 
ATOM     55  N   UNL A   1      44.867  34.651  31.531  1.00  0.00    -0.354 N 
ATOM     56  N   UNL A   1      42.152  34.427  32.616  1.00  0.00    -0.248 NA
ATOM     57  C   UNL A   1      40.500  35.147  34.103  1.00  0.00     0.031 C 
ATOM     58  C   UNL A   1      46.185  36.270  32.289  1.00  0.00     0.029 A 
ATOM     59  C   UNL A   1      44.925  35.709  32.423  1.00  0.00     0.049 A 
ATOM     60  H   UNL A   1      44.090  34.059  31.407  1.00  0.00     0.167 HD
ATOM     61  C   UNL A   1      42.633  35.510  33.350  1.00  0.00     0.074 A 
ATOM     62  C   UNL A   1      41.563  35.928  34.229  1.00  0.00     0.031 C 
ATOM     63  C   UNL A   1      43.850  36.111  33.297  1.00  0.00     0.034 A 
BRANCH  50  64
ATOM     64  C   UNL A   1      47.731  33.507  29.227  1.00  0.00     0.023 A 
ATOM     65  C   UNL A   1      48.013  34.247  28.065  1.00  0.00     0.031 A 
ATOM     66  C   UNL A   1      48.752  32.709  29.769  1.00  0.00     0.131 A 
ATOM     67  C   UNL A   1      49.268  34.126  27.449  1.00  0.00     0.055 A 
ATOM     68  C   UNL A   1      50.020  32.645  29.189  1.00  0.00     0.041 A 
ATOM     69  F   UNL A   1      48.528  31.963  30.864  1.00  0.00    -0.206 F 
ATOM     70  C   UNL A   1      50.280  33.347  28.015  1.00  0.00     0.022 A 
BRANCH  67  71
ATOM     71  S   UNL A   1      49.517  34.904  25.831  1.00  0.00     0.124 S 
ATOM     72  O   UNL A   1      48.444  34.300  25.044  1.00  0.00    -0.237 OA
ATOM     73  O   UNL A   1      49.366  36.322  26.134  1.00  0.00    -0.237 OA
ATOM     74  O   UNL A   1      50.866  34.487  25.453  1.00  0.00    -0.744 OA
ENDBRANCH  67  71
ENDBRANCH  50  64
BRANCH  51  75
ATOM     75  C   UNL A   1      38.566  33.146  33.214  1.00  0.00     0.023 A 
ATOM     76  C   UNL A   1      37.428  33.676  32.586  1.00  0.00     0.031 A 
ATOM     77  C   UNL A   1      38.422  32.626  34.512  1.00  0.00     0.131 A 
ATOM     78  C   UNL A   1      36.207  33.722  33.276  1.00  0.00     0.055 A 
ATOM     79  C   UNL A   1      37.194  32.629  35.176  1.00  0.00     0.041 A 
ATOM     80  F   UNL A   1      39.480  32.111  35.159  1.00  0.00    -0.206 F 
ATOM     81  C   UNL A   1      36.079  33.193  34.563  1.00  0.00     0.022 A 
BRANCH  78  82
ATOM     82  S   UNL A   1      34.804  34.572  32.501  1.00  0.00     0.124 S 
ATOM     83  O   UNL A   1      35.067  35.962  32.852  1.00  0.00    -0.237 OA
ATOM     84  O   UNL A   1      34.977  34.220  31.096  1.00  0.00    -0.237 OA
ATOM     85  O   UNL A   1      33.640  33.972  33.153  1.00  0.00    -0.744 OA
ENDBRANCH  78  82
ENDBRANCH  51  75
BRANCH  63  86
ATOM     86  C   UNL A   1      44.061  37.316  34.179  1.00  0.00     0.023 A 
ATOM     87  C   UNL A   1      43.747  38.617  33.747  1.00  0.00     0.031 A 
ATOM     88  C   UNL A   1      44.590  37.157  35.472  1.00  0.00     0.131 A 
ATOM     89  C   UNL A   1      44.010  39.712  34.583  1.00  0.00     0.055 A 
ATOM     90  C   UNL A   1      44.802  38.247  36.318  1.00  0.00     0.041 A 
ATOM     91  F   UNL A   1      44.906  35.937  35.935  1.00  0.00    -0.206 F 
ATOM     92  C   UNL A   1      44.522  39.534  35.871  1.00  0.00     0.022 A 
BRANCH  89  93
ATOM     93  S   UNL A   1      43.739  41.387  33.940  1.00  0.00     0.124 S 
ATOM     94  O   UNL A   1      42.326  41.347  33.574  1.00  0.00    -0.237 OA
ATOM     95  O   UNL A   1      44.077  42.221  35.088  1.00  0.00    -0.237 OA
ATOM     96  O   UNL A   1      44.667  41.479  32.815  1.00  0.00    -0.744 OA
ENDBRANCH  89  93
ENDBRANCH  63  86
ENDBRANCH  37  38
ENDBRANCH  30  32
ENDBRANCH  29  30
ENDBRANCH  28  29
ENDBRANCH  27  28
ENDBRANCH  26  27
ENDBRANCH  25  26
ENDBRANCH  24  25
ENDBRANCH   1  24
TORSDOF 26
ENDMDL
MODEL 3
REMARK VINA RESULT:      -7.1      4.154      9.438
REMARK SMILES CCCCSCC(=O)Nc1sc(C)c(C)c1C(=O)OCCOCCOCCOC(=O)c1ccc(-c2c3nc(c(-c4cc(S(=O)(=O)[O-])ccc4F)c4ccc([nH]4)c(-c4cc(S(=O)(=O)[O-])ccc4F)c4nc(c(-c5cc(S(=O)(=O)[O-])ccc5F)c5ccc2[nH]5)C=C4)C=C3)cc1
REMARK SMILES IDX 22 1 21 2 20 3 19 4 17 5 18 6 16 7 10 8 11 9 12 10 14 11
REMARK SMILES IDX 13 12 15 13 9 14 7 15 8 16 6 18 5 19 4 20 3 21 2 22 1 23
REMARK SMILES IDX 23 24 24 25 25 26 26 27 27 28 28 29 29 30 30 31 31 32 32 33
REMARK SMILES IDX 93 34 33 35 92 36 34 37 35 38 36 39 86 40 37 41 91 42 85 43
REMARK SMILES IDX 87 44 38 45 90 46 84 47 83 48 39 50 71 51 51 52 70 53 52 54
REMARK SMILES IDX 55 55 69 56 88 57 53 58 54 59 68 61 89 62 56 63 40 64 41 65
REMARK SMILES IDX 49 66 42 67 48 68 50 69 47 70 43 71 44 72 45 73 46 74 72 75
REMARK SMILES IDX 73 76 81 77 74 78 80 79 82 80 79 81 75 82 76 83 77 84 78 85
REMARK SMILES IDX 57 86 58 87 66 88 59 89 65 90 67 91 64 92 60 93 61 94 62 95
REMARK SMILES IDX 63 96
REMARK H PARENT 9 17 87 49 55 60
REMARK Flexibility Score: inf
ROOT
ATOM      1  O   UNL A   1      48.321  26.936  22.763  1.00  0.00    -0.376 OA
ENDROOT
BRANCH   1   2
ATOM      2  C   UNL A   1      47.969  27.494  24.021  1.00  0.00     0.202 C 
BRANCH   2   3
ATOM      3  C   UNL A   1      47.048  26.651  24.905  1.00  0.00     0.261 C 
BRANCH   3   4
ATOM      4  O   UNL A   1      46.513  27.400  26.009  1.00  0.00    -0.460 OA
BRANCH   4   5
ATOM      5  C   UNL A   1      45.790  26.673  26.913  1.00  0.00     0.341 C 
ATOM      6  O   UNL A   1      45.763  26.917  28.113  1.00  0.00    -0.246 OA
BRANCH   5   7
ATOM      7  C   UNL A   1      44.982  25.611  26.302  1.00  0.00     0.098 A 
ATOM      8  C   UNL A   1      43.913  25.796  25.434  1.00  0.00     0.110 A 
ATOM      9  S   UNL A   1      43.375  24.327  24.789  1.00  0.00    -0.122 S 
ATOM     10  C   UNL A   1      44.333  23.399  25.832  1.00  0.00     0.007 A 
ATOM     11  C   UNL A   1      45.139  24.194  26.626  1.00  0.00    -0.021 A 
ATOM     12  C   UNL A   1      44.208  21.910  25.807  1.00  0.00     0.057 C 
ATOM     13  C   UNL A   1      46.022  23.667  27.719  1.00  0.00     0.046 C 
BRANCH   8  14
ATOM     14  N   UNL A   1      43.378  26.983  24.973  1.00  0.00    -0.316 N 
ATOM     15  C   UNL A   1      42.218  27.639  25.283  1.00  0.00     0.234 C 
ATOM     16  O   UNL A   1      41.952  28.639  24.601  1.00  0.00    -0.274 OA
ATOM     17  H   UNL A   1      43.933  27.442  24.301  1.00  0.00     0.170 HD
BRANCH  15  18
ATOM     18  C   UNL A   1      41.352  27.303  26.483  1.00  0.00     0.169 C 
BRANCH  18  19
ATOM     19  S   UNL A   1      40.488  25.698  26.503  1.00  0.00    -0.152 SA
BRANCH  19  20
ATOM     20  C   UNL A   1      39.139  25.916  27.711  1.00  0.00     0.070 C 
BRANCH  20  21
ATOM     21  C   UNL A   1      39.666  26.379  29.071  1.00  0.00     0.011 C 
BRANCH  21  22
ATOM     22  C   UNL A   1      39.140  27.739  29.531  1.00  0.00    -0.003 C 
ATOM     23  C   UNL A   1      39.175  27.896  31.043  1.00  0.00     0.004 C 
ENDBRANCH  21  22
ENDBRANCH  20  21
ENDBRANCH  19  20
ENDBRANCH  18  19
ENDBRANCH  15  18
ENDBRANCH   8  14
ENDBRANCH   5   7
ENDBRANCH   4   5
ENDBRANCH   3   4
ENDBRANCH   2   3
ENDBRANCH   1   2
BRANCH   1  24
ATOM     24  C   UNL A   1      49.225  27.632  21.907  1.00  0.00     0.188 C 
BRANCH  24  25
ATOM     25  C   UNL A   1      50.605  27.018  21.608  1.00  0.00     0.188 C 
BRANCH  25  26
ATOM     26  O   UNL A   1      51.686  27.853  21.997  1.00  0.00    -0.376 OA
BRANCH  26  27
ATOM     27  C   UNL A   1      52.981  27.279  21.918  1.00  0.00     0.202 C 
BRANCH  27  28
ATOM     28  C   UNL A   1      53.273  26.257  23.021  1.00  0.00     0.261 C 
BRANCH  28  29
ATOM     29  O   UNL A   1      53.041  26.720  24.362  1.00  0.00    -0.460 OA
BRANCH  29  30
ATOM     30  C   UNL A   1      52.966  25.783  25.335  1.00  0.00     0.338 C 
ATOM     31  O   UNL A   1      53.683  24.808  25.462  1.00  0.00    -0.246 OA
BRANCH  30  32
ATOM     32  C   UNL A   1      51.967  26.238  26.327  1.00  0.00     0.060 A 
ATOM     33  C   UNL A   1      50.675  25.697  26.290  1.00  0.00     0.016 A 
ATOM     34  C   UNL A   1      52.303  27.194  27.290  1.00  0.00     0.016 A 
ATOM     35  C   UNL A   1      49.710  26.134  27.202  1.00  0.00     0.010 A 
ATOM     36  C   UNL A   1      51.333  27.640  28.192  1.00  0.00     0.010 A 
ATOM     37  C   UNL A   1      50.025  27.131  28.138  1.00  0.00    -0.014 A 
BRANCH  37  38
ATOM     38  C   UNL A   1      48.953  27.768  28.944  1.00  0.00     0.031 A 
ATOM     39  C   UNL A   1      48.556  27.128  30.246  1.00  0.00     0.074 A 
ATOM     40  C   UNL A   1      48.334  28.889  28.527  1.00  0.00     0.049 A 
ATOM     41  N   UNL A   1      47.623  27.475  31.095  1.00  0.00    -0.248 NA
ATOM     42  C   UNL A   1      49.317  25.931  30.639  1.00  0.00     0.031 C 
ATOM     43  C   UNL A   1      48.642  29.618  27.298  1.00  0.00     0.029 A 
ATOM     44  N   UNL A   1      47.305  29.601  29.092  1.00  0.00    -0.354 N 
ATOM     45  C   UNL A   1      47.694  26.550  32.131  1.00  0.00     0.074 A 
ATOM     46  C   UNL A   1      48.734  25.605  31.783  1.00  0.00     0.031 C 
ATOM     47  C   UNL A   1      47.806  30.668  27.195  1.00  0.00     0.029 A 
ATOM     48  C   UNL A   1      46.886  30.668  28.333  1.00  0.00     0.049 A 
ATOM     49  H   UNL A   1      46.904  29.369  29.961  1.00  0.00     0.167 HD
ATOM     50  C   UNL A   1      46.966  26.496  33.275  1.00  0.00     0.034 A 
ATOM     51  C   UNL A   1      45.864  31.528  28.523  1.00  0.00     0.034 A 
ATOM     52  C   UNL A   1      45.907  27.417  33.600  1.00  0.00     0.049 A 
ATOM     53  C   UNL A   1      44.999  31.388  29.755  1.00  0.00     0.074 A 
ATOM     54  C   UNL A   1      45.105  27.447  34.728  1.00  0.00     0.029 A 
ATOM     55  N   UNL A   1      45.486  28.462  32.788  1.00  0.00    -0.354 N 
ATOM     56  N   UNL A   1      45.090  30.519  30.736  1.00  0.00    -0.248 NA
ATOM     57  C   UNL A   1      43.896  32.348  29.906  1.00  0.00     0.031 C 
ATOM     58  C   UNL A   1      44.164  28.472  34.572  1.00  0.00     0.029 A 
ATOM     59  C   UNL A   1      44.420  29.123  33.377  1.00  0.00     0.049 A 
ATOM     60  H   UNL A   1      45.888  28.699  31.921  1.00  0.00     0.167 HD
ATOM     61  C   UNL A   1      44.077  30.854  31.634  1.00  0.00     0.074 A 
ATOM     62  C   UNL A   1      43.394  32.004  31.083  1.00  0.00     0.031 C 
ATOM     63  C   UNL A   1      43.746  30.267  32.812  1.00  0.00     0.034 A 
BRANCH  50  64
ATOM     64  C   UNL A   1      47.273  25.371  34.228  1.00  0.00     0.023 A 
ATOM     65  C   UNL A   1      46.586  24.146  34.159  1.00  0.00     0.031 A 
ATOM     66  C   UNL A   1      48.234  25.536  35.240  1.00  0.00     0.131 A 
ATOM     67  C   UNL A   1      46.828  23.156  35.123  1.00  0.00     0.055 A 
ATOM     68  C   UNL A   1      48.518  24.521  36.154  1.00  0.00     0.041 A 
ATOM     69  F   UNL A   1      48.901  26.695  35.365  1.00  0.00    -0.206 F 
ATOM     70  C   UNL A   1      47.805  23.327  36.107  1.00  0.00     0.022 A 
BRANCH  67  71
ATOM     71  S   UNL A   1      45.761  21.690  35.145  1.00  0.00     0.124 S 
ATOM     72  O   UNL A   1      44.513  22.226  34.608  1.00  0.00    -0.237 OA
ATOM     73  O   UNL A   1      46.481  20.761  34.282  1.00  0.00    -0.237 OA
ATOM     74  O   UNL A   1      45.716  21.321  36.559  1.00  0.00    -0.744 OA
ENDBRANCH  67  71
ENDBRANCH  50  64
BRANCH  51  75
ATOM     75  C   UNL A   1      45.552  32.577  27.510  1.00  0.00     0.023 A 
ATOM     76  C   UNL A   1      46.140  33.850  27.579  1.00  0.00     0.031 A 
ATOM     77  C   UNL A   1      44.593  32.347  26.509  1.00  0.00     0.131 A 
ATOM     78  C   UNL A   1      45.726  34.860  26.696  1.00  0.00     0.055 A 
ATOM     79  C   UNL A   1      44.221  33.339  25.600  1.00  0.00     0.041 A 
ATOM     80  F   UNL A   1      43.998  31.147  26.402  1.00  0.00    -0.206 F 
ATOM     81  C   UNL A   1      44.778  34.610  25.701  1.00  0.00     0.022 A 
BRANCH  78  82
ATOM     82  S   UNL A   1      46.378  36.537  26.928  1.00  0.00     0.124 S 
ATOM     83  O   UNL A   1      45.180  37.350  26.756  1.00  0.00    -0.237 OA
ATOM     84  O   UNL A   1      46.917  36.466  28.283  1.00  0.00    -0.237 OA
ATOM     85  O   UNL A   1      47.377  36.664  25.868  1.00  0.00    -0.744 OA
ENDBRANCH  78  82
ENDBRANCH  51  75
BRANCH  63  86
ATOM     86  C   UNL A   1      42.627  30.898  33.604  1.00  0.00     0.023 A 
ATOM     87  C   UNL A   1      41.277  30.626  33.327  1.00  0.00     0.031 A 
ATOM     88  C   UNL A   1      42.923  31.790  34.650  1.00  0.00     0.131 A 
ATOM     89  C   UNL A   1      40.270  31.277  34.055  1.00  0.00     0.055 A 
ATOM     90  C   UNL A   1      41.918  32.396  35.405  1.00  0.00     0.041 A 
ATOM     91  F   UNL A   1      44.197  32.083  34.958  1.00  0.00    -0.206 F 
ATOM     92  C   UNL A   1      40.583  32.149  35.102  1.00  0.00     0.022 A 
BRANCH  89  93
ATOM     93  S   UNL A   1      38.539  31.025  33.573  1.00  0.00     0.124 S 
ATOM     94  O   UNL A   1      38.612  31.124  32.118  1.00  0.00    -0.237 OA
ATOM     95  O   UNL A   1      38.256  29.698  34.108  1.00  0.00    -0.237 OA
ATOM     96  O   UNL A   1      37.834  32.121  34.234  1.00  0.00    -0.744 OA
ENDBRANCH  89  93
ENDBRANCH  63  86
ENDBRANCH  37  38
ENDBRANCH  30  32
ENDBRANCH  29  30
ENDBRANCH  28  29
ENDBRANCH  27  28
ENDBRANCH  26  27
ENDBRANCH  25  26
ENDBRANCH  24  25
ENDBRANCH   1  24
TORSDOF 26
ENDMDL
