MODEL 1
REMARK VINA RESULT:     -10.0      0.000      0.000
REMARK SMILES CC(C)C[C@@H](C(=O)OCCOCCOCCOC(=O)c1ccc(-c2c3nc(c(-c4cc(S(=O)(=O)[O-])ccc4F)c4ccc([nH]4)c(-c4cc(S(=O)(=O)[O-])ccc4F)c4nc(c(-c5cc(S(=O)(=O)[O-])ccc5F)c5ccc2[nH]5)C=C4)C=C3)cc1)[C@@H]1CCC[C@@H](C)C1
REMARK SMILES IDX 13 1 12 2 11 3 10 4 9 5 8 6 6 7 7 8 5 9 4 10 2 11 1 12 3 13
REMARK SMILES IDX 83 14 84 15 89 16 85 17 87 18 86 19 88 20 14 21 15 22 16 23
REMARK SMILES IDX 17 24 18 25 19 26 20 27 21 28 82 29 22 30 81 31 23 32 24 33
REMARK SMILES IDX 25 34 75 35 26 36 80 37 74 38 76 39 27 40 79 41 73 42 72 43
REMARK SMILES IDX 28 45 60 46 40 47 59 48 41 49 44 50 58 51 77 52 42 53 43 54
REMARK SMILES IDX 57 56 78 57 45 58 29 59 30 60 38 61 31 62 37 63 39 64 36 65
REMARK SMILES IDX 32 66 33 67 34 68 35 69 61 70 62 71 70 72 63 73 69 74 71 75
REMARK SMILES IDX 68 76 64 77 65 78 66 79 67 80 46 81 47 82 55 83 48 84 54 85
REMARK SMILES IDX 56 86 53 87 49 88 50 89 51 90 52 91
REMARK H PARENT 76 44 44 55
REMARK Flexibility Score: inf
ROOT
ATOM      1  C   UNL A   1      30.556  27.988  23.414  1.00  0.00     0.188 C 
ENDROOT
BRANCH   1   2
ATOM      2  C   UNL A   1      31.521  26.988  22.787  1.00  0.00     0.188 C 
BRANCH   2   3
ATOM      3  O   UNL A   1      31.860  25.828  23.543  1.00  0.00    -0.376 OA
BRANCH   3   4
ATOM      4  C   UNL A   1      30.829  25.144  24.237  1.00  0.00     0.202 C 
BRANCH   4   5
ATOM      5  C   UNL A   1      31.195  23.758  24.772  1.00  0.00     0.261 C 
BRANCH   5   6
ATOM      6  O   UNL A   1      31.239  22.690  23.793  1.00  0.00    -0.463 OA
BRANCH   6   7
ATOM      7  C   UNL A   1      32.477  22.365  23.346  1.00  0.00     0.309 C 
ATOM      8  O   UNL A   1      32.883  22.636  22.221  1.00  0.00    -0.252 OA
BRANCH   7   9
ATOM      9  C   UNL A   1      33.251  21.421  24.260  1.00  0.00     0.102 C 
BRANCH   9  10
ATOM     10  C   UNL A   1      32.270  20.402  24.906  1.00  0.00     0.018 C 
BRANCH  10  11
ATOM     11  C   UNL A   1      32.211  18.945  24.409  1.00  0.00    -0.017 C 
ATOM     12  C   UNL A   1      32.868  18.714  23.049  1.00  0.00     0.007 C 
ATOM     13  C   UNL A   1      32.921  18.049  25.433  1.00  0.00     0.007 C 
ENDBRANCH  10  11
ENDBRANCH   9  10
BRANCH   9  14
ATOM     14  C   UNL A   1      34.462  21.842  25.147  1.00  0.00     0.003 C 
ATOM     15  C   UNL A   1      35.101  23.225  24.969  1.00  0.00     0.004 C 
ATOM     16  C   UNL A   1      35.525  20.733  25.339  1.00  0.00     0.007 C 
ATOM     17  C   UNL A   1      36.333  23.288  24.083  1.00  0.00     0.001 C 
ATOM     18  C   UNL A   1      36.785  20.852  24.480  1.00  0.00    -0.014 C 
ATOM     19  C   UNL A   1      37.372  22.259  24.492  1.00  0.00     0.003 C 
ATOM     20  C   UNL A   1      37.841  19.847  24.955  1.00  0.00     0.007 C 
ENDBRANCH   9  14
ENDBRANCH   7   9
ENDBRANCH   6   7
ENDBRANCH   5   6
ENDBRANCH   4   5
ENDBRANCH   3   4
ENDBRANCH   2   3
ENDBRANCH   1   2
BRANCH   1  21
ATOM     21  O   UNL A   1      31.243  29.121  23.945  1.00  0.00    -0.376 OA
BRANCH  21  22
ATOM     22  C   UNL A   1      31.445  29.017  25.355  1.00  0.00     0.202 C 
BRANCH  22  23
ATOM     23  C   UNL A   1      32.078  30.311  25.876  1.00  0.00     0.261 C 
BRANCH  23  24
ATOM     24  O   UNL A   1      33.164  30.084  26.800  1.00  0.00    -0.460 OA
BRANCH  24  25
ATOM     25  C   UNL A   1      33.679  31.196  27.366  1.00  0.00     0.338 C 
ATOM     26  O   UNL A   1      33.063  32.214  27.656  1.00  0.00    -0.246 OA
BRANCH  25  27
ATOM     27  C   UNL A   1      35.077  30.941  27.755  1.00  0.00     0.060 A 
ATOM     28  C   UNL A   1      35.488  29.618  27.940  1.00  0.00     0.016 A 
ATOM     29  C   UNL A   1      35.957  31.986  28.017  1.00  0.00     0.016 A 
ATOM     30  C   UNL A   1      36.747  29.325  28.452  1.00  0.00     0.010 A 
ATOM     31  C   UNL A   1      37.234  31.693  28.509  1.00  0.00     0.010 A 
ATOM     32  C   UNL A   1      37.627  30.362  28.760  1.00  0.00    -0.014 A 
BRANCH  32  33
ATOM     33  C   UNL A   1      38.902  30.082  29.466  1.00  0.00     0.031 A 
ATOM     34  C   UNL A   1      39.853  29.086  28.865  1.00  0.00     0.074 A 
ATOM     35  C   UNL A   1      39.226  30.712  30.611  1.00  0.00     0.049 A 
ATOM     36  N   UNL A   1      40.866  28.467  29.408  1.00  0.00    -0.248 NA
ATOM     37  C   UNL A   1      39.611  28.736  27.457  1.00  0.00     0.031 C 
ATOM     38  C   UNL A   1      38.455  31.785  31.238  1.00  0.00     0.029 A 
ATOM     39  N   UNL A   1      40.287  30.520  31.461  1.00  0.00    -0.354 N 
ATOM     40  C   UNL A   1      41.350  27.606  28.428  1.00  0.00     0.074 A 
ATOM     41  C   UNL A   1      40.514  27.787  27.259  1.00  0.00     0.031 C 
ATOM     42  C   UNL A   1      39.061  32.146  32.381  1.00  0.00     0.029 A 
ATOM     43  C   UNL A   1      40.207  31.272  32.610  1.00  0.00     0.049 A 
ATOM     44  H   UNL A   1      41.031  29.905  31.268  1.00  0.00     0.167 HD
ATOM     45  C   UNL A   1      42.390  26.738  28.509  1.00  0.00     0.034 A 
ATOM     46  C   UNL A   1      40.931  31.213  33.746  1.00  0.00     0.034 A 
ATOM     47  C   UNL A   1      43.218  26.599  29.681  1.00  0.00     0.049 A 
ATOM     48  C   UNL A   1      42.027  30.181  33.855  1.00  0.00     0.074 A 
ATOM     49  C   UNL A   1      44.281  25.737  29.895  1.00  0.00     0.029 A 
ATOM     50  N   UNL A   1      43.082  27.352  30.843  1.00  0.00    -0.354 N 
ATOM     51  N   UNL A   1      42.413  29.288  32.974  1.00  0.00    -0.248 NA
ATOM     52  C   UNL A   1      42.773  30.142  35.120  1.00  0.00     0.031 C 
ATOM     53  C   UNL A   1      44.748  25.932  31.201  1.00  0.00     0.029 A 
ATOM     54  C   UNL A   1      44.026  26.963  31.780  1.00  0.00     0.049 A 
ATOM     55  H   UNL A   1      42.411  28.059  30.979  1.00  0.00     0.167 HD
ATOM     56  C   UNL A   1      43.457  28.588  33.573  1.00  0.00     0.074 A 
ATOM     57  C   UNL A   1      43.651  29.178  34.883  1.00  0.00     0.031 C 
ATOM     58  C   UNL A   1      44.191  27.554  33.087  1.00  0.00     0.034 A 
BRANCH  45  59
ATOM     59  C   UNL A   1      42.618  25.826  27.328  1.00  0.00     0.023 A 
ATOM     60  C   UNL A   1      42.090  24.525  27.272  1.00  0.00     0.031 A 
ATOM     61  C   UNL A   1      43.438  26.249  26.264  1.00  0.00     0.131 A 
ATOM     62  C   UNL A   1      42.451  23.667  26.221  1.00  0.00     0.055 A 
ATOM     63  C   UNL A   1      43.726  25.419  25.179  1.00  0.00     0.041 A 
ATOM     64  F   UNL A   1      43.992  27.471  26.274  1.00  0.00    -0.206 F 
ATOM     65  C   UNL A   1      43.246  24.113  25.162  1.00  0.00     0.022 A 
BRANCH  62  66
ATOM     66  S   UNL A   1      42.001  21.914  26.338  1.00  0.00     0.124 S 
ATOM     67  O   UNL A   1      42.839  21.322  25.297  1.00  0.00    -0.237 OA
ATOM     68  O   UNL A   1      42.360  21.586  27.712  1.00  0.00    -0.237 OA
ATOM     69  O   UNL A   1      40.567  21.908  26.050  1.00  0.00    -0.744 OA
ENDBRANCH  62  66
ENDBRANCH  45  59
BRANCH  46  70
ATOM     70  C   UNL A   1      40.580  32.080  34.906  1.00  0.00     0.023 A 
ATOM     71  C   UNL A   1      39.464  31.806  35.711  1.00  0.00     0.031 A 
ATOM     72  C   UNL A   1      41.345  33.224  35.205  1.00  0.00     0.131 A 
ATOM     73  C   UNL A   1      39.126  32.681  36.757  1.00  0.00     0.055 A 
ATOM     74  C   UNL A   1      41.035  34.060  36.277  1.00  0.00     0.041 A 
ATOM     75  F   UNL A   1      42.419  33.535  34.462  1.00  0.00    -0.206 F 
ATOM     76  C   UNL A   1      39.913  33.797  37.055  1.00  0.00     0.022 A 
BRANCH  73  77
ATOM     77  S   UNL A   1      37.597  32.378  37.685  1.00  0.00     0.124 S 
ATOM     78  O   UNL A   1      37.882  33.040  38.953  1.00  0.00    -0.237 OA
ATOM     79  O   UNL A   1      36.596  33.017  36.838  1.00  0.00    -0.237 OA
ATOM     80  O   UNL A   1      37.518  30.920  37.747  1.00  0.00    -0.744 OA
ENDBRANCH  73  77
ENDBRANCH  46  70
BRANCH  58  81
ATOM     81  C   UNL A   1      45.299  27.034  33.969  1.00  0.00     0.023 A 
ATOM     82  C   UNL A   1      46.621  27.496  33.845  1.00  0.00     0.031 A 
ATOM     83  C   UNL A   1      45.026  26.049  34.934  1.00  0.00     0.131 A 
ATOM     84  C   UNL A   1      47.632  26.935  34.641  1.00  0.00     0.055 A 
ATOM     85  C   UNL A   1      46.026  25.534  35.760  1.00  0.00     0.041 A 
ATOM     86  F   UNL A   1      43.781  25.574  35.092  1.00  0.00    -0.206 F 
ATOM     87  C   UNL A   1      47.340  25.967  35.607  1.00  0.00     0.022 A 
BRANCH  84  88
ATOM     88  S   UNL A   1      49.353  27.425  34.341  1.00  0.00     0.124 S 
ATOM     89  O   UNL A   1      49.312  28.859  34.613  1.00  0.00    -0.237 OA
ATOM     90  O   UNL A   1      50.082  26.613  35.308  1.00  0.00    -0.237 OA
ATOM     91  O   UNL A   1      49.573  27.066  32.940  1.00  0.00    -0.744 OA
ENDBRANCH  84  88
ENDBRANCH  58  81
ENDBRANCH  32  33
ENDBRANCH  25  27
ENDBRANCH  24  25
ENDBRANCH  23  24
ENDBRANCH  22  23
ENDBRANCH  21  22
ENDBRANCH   1  21
TORSDOF 23
ENDMDL
MODEL 2
REMARK VINA RESULT:      -9.8      2.770      3.930
REMARK SMILES CC(C)C[C@@H](C(=O)OCCOCCOCCOC(=O)c1ccc(-c2c3nc(c(-c4cc(S(=O)(=O)[O-])ccc4F)c4ccc([nH]4)c(-c4cc(S(=O)(=O)[O-])ccc4F)c4nc(c(-c5cc(S(=O)(=O)[O-])ccc5F)c5ccc2[nH]5)C=C4)C=C3)cc1)[C@@H]1CCC[C@@H](C)C1
REMARK SMILES IDX 13 1 12 2 11 3 10 4 9 5 8 6 6 7 7 8 5 9 4 10 2 11 1 12 3 13
REMARK SMILES IDX 83 14 84 15 89 16 85 17 87 18 86 19 88 20 14 21 15 22 16 23
REMARK SMILES IDX 17 24 18 25 19 26 20 27 21 28 82 29 22 30 81 31 23 32 24 33
REMARK SMILES IDX 25 34 75 35 26 36 80 37 74 38 76 39 27 40 79 41 73 42 72 43
REMARK SMILES IDX 28 45 60 46 40 47 59 48 41 49 44 50 58 51 77 52 42 53 43 54
REMARK SMILES IDX 57 56 78 57 45 58 29 59 30 60 38 61 31 62 37 63 39 64 36 65
REMARK SMILES IDX 32 66 33 67 34 68 35 69 61 70 62 71 70 72 63 73 69 74 71 75
REMARK SMILES IDX 68 76 64 77 65 78 66 79 67 80 46 81 47 82 55 83 48 84 54 85
REMARK SMILES IDX 56 86 53 87 49 88 50 89 51 90 52 91
REMARK H PARENT 76 44 44 55
REMARK Flexibility Score: inf
ROOT
ATOM      1  C   UNL A   1      31.265  31.423  26.124  1.00  0.00     0.188 C 
ENDROOT
BRANCH   1   2
ATOM      2  C   UNL A   1      30.758  30.627  24.928  1.00  0.00     0.188 C 
BRANCH   2   3
ATOM      3  O   UNL A   1      31.198  29.278  24.792  1.00  0.00    -0.376 OA
BRANCH   3   4
ATOM      4  C   UNL A   1      30.887  28.578  23.597  1.00  0.00     0.202 C 
BRANCH   4   5
ATOM      5  C   UNL A   1      32.067  27.899  22.899  1.00  0.00     0.261 C 
BRANCH   5   6
ATOM      6  O   UNL A   1      31.859  26.523  22.493  1.00  0.00    -0.463 OA
BRANCH   6   7
ATOM      7  C   UNL A   1      32.975  25.753  22.463  1.00  0.00     0.309 C 
ATOM      8  O   UNL A   1      33.891  25.923  21.665  1.00  0.00    -0.252 OA
BRANCH   7   9
ATOM      9  C   UNL A   1      32.905  24.505  23.335  1.00  0.00     0.102 C 
BRANCH   9  10
ATOM     10  C   UNL A   1      33.176  24.891  24.817  1.00  0.00     0.018 C 
BRANCH  10  11
ATOM     11  C   UNL A   1      32.062  24.777  25.875  1.00  0.00    -0.017 C 
ATOM     12  C   UNL A   1      30.685  24.436  25.308  1.00  0.00     0.007 C 
ATOM     13  C   UNL A   1      32.446  23.677  26.874  1.00  0.00     0.007 C 
ENDBRANCH  10  11
ENDBRANCH   9  10
BRANCH   9  14
ATOM     14  C   UNL A   1      33.410  23.094  22.906  1.00  0.00     0.003 C 
ATOM     15  C   UNL A   1      32.431  21.915  22.842  1.00  0.00     0.004 C 
ATOM     16  C   UNL A   1      34.767  22.688  23.530  1.00  0.00     0.007 C 
ATOM     17  C   UNL A   1      32.389  21.009  24.061  1.00  0.00     0.001 C 
ATOM     18  C   UNL A   1      34.702  21.726  24.718  1.00  0.00    -0.014 C 
ATOM     19  C   UNL A   1      33.776  20.542  24.462  1.00  0.00     0.003 C 
ATOM     20  C   UNL A   1      36.107  21.219  25.061  1.00  0.00     0.007 C 
ENDBRANCH   9  14
ENDBRANCH   7   9
ENDBRANCH   6   7
ENDBRANCH   5   6
ENDBRANCH   4   5
ENDBRANCH   3   4
ENDBRANCH   2   3
ENDBRANCH   1   2
BRANCH   1  21
ATOM     21  O   UNL A   1      32.461  30.861  26.663  1.00  0.00    -0.376 OA
BRANCH  21  22
ATOM     22  C   UNL A   1      33.222  31.818  27.401  1.00  0.00     0.202 C 
BRANCH  22  23
ATOM     23  C   UNL A   1      32.387  33.087  27.601  1.00  0.00     0.261 C 
BRANCH  23  24
ATOM     24  O   UNL A   1      33.182  34.254  27.901  1.00  0.00    -0.460 OA
BRANCH  24  25
ATOM     25  C   UNL A   1      33.389  34.486  29.215  1.00  0.00     0.338 C 
ATOM     26  O   UNL A   1      32.602  35.011  29.991  1.00  0.00    -0.246 OA
BRANCH  25  27
ATOM     27  C   UNL A   1      34.651  33.848  29.628  1.00  0.00     0.060 A 
ATOM     28  C   UNL A   1      34.610  32.881  30.637  1.00  0.00     0.016 A 
ATOM     29  C   UNL A   1      35.873  34.247  29.097  1.00  0.00     0.016 A 
ATOM     30  C   UNL A   1      35.781  32.357  31.173  1.00  0.00     0.010 A 
ATOM     31  C   UNL A   1      37.052  33.702  29.616  1.00  0.00     0.010 A 
ATOM     32  C   UNL A   1      37.016  32.777  30.680  1.00  0.00    -0.014 A 
BRANCH  32  33
ATOM     33  C   UNL A   1      38.275  32.363  31.351  1.00  0.00     0.031 A 
ATOM     34  C   UNL A   1      39.101  31.277  30.722  1.00  0.00     0.074 A 
ATOM     35  C   UNL A   1      38.693  32.951  32.487  1.00  0.00     0.049 A 
ATOM     36  N   UNL A   1      40.059  30.554  31.236  1.00  0.00    -0.248 NA
ATOM     37  C   UNL A   1      38.786  30.960  29.321  1.00  0.00     0.031 C 
ATOM     38  C   UNL A   1      38.054  34.095  33.137  1.00  0.00     0.029 A 
ATOM     39  N   UNL A   1      39.751  32.647  33.308  1.00  0.00    -0.354 N 
ATOM     40  C   UNL A   1      40.425  29.653  30.242  1.00  0.00     0.074 A 
ATOM     41  C   UNL A   1      39.581  29.924  29.097  1.00  0.00     0.031 C 
ATOM     42  C   UNL A   1      38.724  34.387  34.263  1.00  0.00     0.029 A 
ATOM     43  C   UNL A   1      39.780  33.398  34.460  1.00  0.00     0.049 A 
ATOM     44  H   UNL A   1      40.422  31.960  33.093  1.00  0.00     0.167 HD
ATOM     45  C   UNL A   1      41.371  28.682  30.293  1.00  0.00     0.034 A 
ATOM     46  C   UNL A   1      40.525  33.260  35.575  1.00  0.00     0.034 A 
ATOM     47  C   UNL A   1      42.213  28.453  31.442  1.00  0.00     0.049 A 
ATOM     48  C   UNL A   1      41.511  32.121  35.653  1.00  0.00     0.074 A 
ATOM     49  C   UNL A   1      43.186  27.485  31.625  1.00  0.00     0.029 A 
ATOM     50  N   UNL A   1      42.186  29.210  32.608  1.00  0.00    -0.354 N 
ATOM     51  N   UNL A   1      41.779  31.196  34.760  1.00  0.00    -0.248 NA
ATOM     52  C   UNL A   1      42.283  31.999  36.896  1.00  0.00     0.031 C 
ATOM     53  C   UNL A   1      43.706  27.625  32.918  1.00  0.00     0.029 A 
ATOM     54  C   UNL A   1      43.110  28.722  33.518  1.00  0.00     0.049 A 
ATOM     55  H   UNL A   1      41.596  29.983  32.764  1.00  0.00     0.167 HD
ATOM     56  C   UNL A   1      42.761  30.390  35.329  1.00  0.00     0.074 A 
ATOM     57  C   UNL A   1      43.050  30.951  36.634  1.00  0.00     0.031 C 
ATOM     58  C   UNL A   1      43.371  29.287  34.821  1.00  0.00     0.034 A 
BRANCH  45  59
ATOM     59  C   UNL A   1      41.472  27.756  29.104  1.00  0.00     0.023 A 
ATOM     60  C   UNL A   1      42.451  27.919  28.109  1.00  0.00     0.031 A 
ATOM     61  C   UNL A   1      40.526  26.728  28.934  1.00  0.00     0.131 A 
ATOM     62  C   UNL A   1      42.413  27.123  26.953  1.00  0.00     0.055 A 
ATOM     63  C   UNL A   1      40.544  25.885  27.821  1.00  0.00     0.041 A 
ATOM     64  F   UNL A   1      39.552  26.541  29.838  1.00  0.00    -0.206 F 
ATOM     65  C   UNL A   1      41.481  26.091  26.814  1.00  0.00     0.022 A 
BRANCH  62  66
ATOM     66  S   UNL A   1      43.495  27.558  25.564  1.00  0.00     0.124 S 
ATOM     67  O   UNL A   1      44.182  28.740  26.082  1.00  0.00    -0.237 OA
ATOM     68  O   UNL A   1      44.311  26.360  25.411  1.00  0.00    -0.237 OA
ATOM     69  O   UNL A   1      42.561  27.821  24.470  1.00  0.00    -0.744 OA
ENDBRANCH  62  66
ENDBRANCH  45  59
BRANCH  46  70
ATOM     70  C   UNL A   1      40.297  34.154  36.746  1.00  0.00     0.023 A 
ATOM     71  C   UNL A   1      39.655  33.690  37.904  1.00  0.00     0.031 A 
ATOM     72  C   UNL A   1      40.690  35.505  36.706  1.00  0.00     0.131 A 
ATOM     73  C   UNL A   1      39.400  34.576  38.963  1.00  0.00     0.055 A 
ATOM     74  C   UNL A   1      40.481  36.368  37.781  1.00  0.00     0.041 A 
ATOM     75  F   UNL A   1      41.301  36.001  35.618  1.00  0.00    -0.206 F 
ATOM     76  C   UNL A   1      39.822  35.908  38.916  1.00  0.00     0.022 A 
BRANCH  73  77
ATOM     77  S   UNL A   1      38.441  33.982  40.384  1.00  0.00     0.124 S 
ATOM     78  O   UNL A   1      37.328  33.303  39.730  1.00  0.00    -0.237 OA
ATOM     79  O   UNL A   1      39.406  33.124  41.064  1.00  0.00    -0.237 OA
ATOM     80  O   UNL A   1      38.091  35.209  41.098  1.00  0.00    -0.744 OA
ENDBRANCH  73  77
ENDBRANCH  46  70
BRANCH  58  81
ATOM     81  C   UNL A   1      44.442  28.652  35.671  1.00  0.00     0.023 A 
ATOM     82  C   UNL A   1      44.159  27.588  36.545  1.00  0.00     0.031 A 
ATOM     83  C   UNL A   1      45.762  29.132  35.615  1.00  0.00     0.131 A 
ATOM     84  C   UNL A   1      45.173  27.071  37.367  1.00  0.00     0.055 A 
ATOM     85  C   UNL A   1      46.778  28.578  36.395  1.00  0.00     0.041 A 
ATOM     86  F   UNL A   1      46.086  30.146  34.797  1.00  0.00    -0.206 F 
ATOM     87  C   UNL A   1      46.484  27.551  37.287  1.00  0.00     0.022 A 
BRANCH  84  88
ATOM     88  S   UNL A   1      44.740  25.819  38.606  1.00  0.00     0.124 S 
ATOM     89  O   UNL A   1      44.063  26.618  39.622  1.00  0.00    -0.237 OA
ATOM     90  O   UNL A   1      43.895  24.906  37.845  1.00  0.00    -0.237 OA
ATOM     91  O   UNL A   1      46.035  25.272  39.008  1.00  0.00    -0.744 OA
ENDBRANCH  84  88
ENDBRANCH  58  81
ENDBRANCH  32  33
ENDBRANCH  25  27
ENDBRANCH  24  25
ENDBRANCH  23  24
ENDBRANCH  22  23
ENDBRANCH  21  22
ENDBRANCH   1  21
TORSDOF 23
ENDMDL
MODEL 3
REMARK VINA RESULT:      -9.8      1.697      7.962
REMARK SMILES CC(C)C[C@@H](C(=O)OCCOCCOCCOC(=O)c1ccc(-c2c3nc(c(-c4cc(S(=O)(=O)[O-])ccc4F)c4ccc([nH]4)c(-c4cc(S(=O)(=O)[O-])ccc4F)c4nc(c(-c5cc(S(=O)(=O)[O-])ccc5F)c5ccc2[nH]5)C=C4)C=C3)cc1)[C@@H]1CCC[C@@H](C)C1
REMARK SMILES IDX 13 1 12 2 11 3 10 4 9 5 8 6 6 7 7 8 5 9 4 10 2 11 1 12 3 13
REMARK SMILES IDX 83 14 84 15 89 16 85 17 87 18 86 19 88 20 14 21 15 22 16 23
REMARK SMILES IDX 17 24 18 25 19 26 20 27 21 28 82 29 22 30 81 31 23 32 24 33
REMARK SMILES IDX 25 34 75 35 26 36 80 37 74 38 76 39 27 40 79 41 73 42 72 43
REMARK SMILES IDX 28 45 60 46 40 47 59 48 41 49 44 50 58 51 77 52 42 53 43 54
REMARK SMILES IDX 57 56 78 57 45 58 29 59 30 60 38 61 31 62 37 63 39 64 36 65
REMARK SMILES IDX 32 66 33 67 34 68 35 69 61 70 62 71 70 72 63 73 69 74 71 75
REMARK SMILES IDX 68 76 64 77 65 78 66 79 67 80 46 81 47 82 55 83 48 84 54 85
REMARK SMILES IDX 56 86 53 87 49 88 50 89 51 90 52 91
REMARK H PARENT 76 44 44 55
REMARK Flexibility Score: inf
ROOT
ATOM      1  C   UNL A   1      32.156  29.444  26.349  1.00  0.00     0.188 C 
ENDROOT
BRANCH   1   2
ATOM      2  C   UNL A   1      31.399  29.475  25.026  1.00  0.00     0.188 C 
BRANCH   2   3
ATOM      3  O   UNL A   1      32.115  29.130  23.843  1.00  0.00    -0.376 OA
BRANCH   3   4
ATOM      4  C   UNL A   1      31.416  28.487  22.788  1.00  0.00     0.202 C 
BRANCH   4   5
ATOM      5  C   UNL A   1      31.875  27.066  22.455  1.00  0.00     0.261 C 
BRANCH   5   6
ATOM      6  O   UNL A   1      33.186  26.691  22.944  1.00  0.00    -0.463 OA
BRANCH   6   7
ATOM      7  C   UNL A   1      33.514  25.386  22.779  1.00  0.00     0.309 C 
ATOM      8  O   UNL A   1      33.735  24.878  21.685  1.00  0.00    -0.252 OA
BRANCH   7   9
ATOM      9  C   UNL A   1      33.355  24.531  24.031  1.00  0.00     0.102 C 
BRANCH   9  10
ATOM     10  C   UNL A   1      34.752  24.038  24.505  1.00  0.00     0.018 C 
BRANCH  10  11
ATOM     11  C   UNL A   1      35.424  22.823  23.839  1.00  0.00    -0.017 C 
ATOM     12  C   UNL A   1      36.677  23.157  23.032  1.00  0.00     0.007 C 
ATOM     13  C   UNL A   1      35.822  21.822  24.933  1.00  0.00     0.007 C 
ENDBRANCH  10  11
ENDBRANCH   9  10
BRANCH   9  14
ATOM     14  C   UNL A   1      32.173  23.547  24.288  1.00  0.00     0.003 C 
ATOM     15  C   UNL A   1      31.889  23.043  25.709  1.00  0.00     0.004 C 
ATOM     16  C   UNL A   1      32.045  22.418  23.237  1.00  0.00     0.007 C 
ATOM     17  C   UNL A   1      32.475  21.690  26.073  1.00  0.00     0.001 C 
ATOM     18  C   UNL A   1      32.587  21.048  23.649  1.00  0.00    -0.014 C 
ATOM     19  C   UNL A   1      32.126  20.632  25.042  1.00  0.00     0.003 C 
ATOM     20  C   UNL A   1      32.166  19.987  22.626  1.00  0.00     0.007 C 
ENDBRANCH   9  14
ENDBRANCH   7   9
ENDBRANCH   6   7
ENDBRANCH   5   6
ENDBRANCH   4   5
ENDBRANCH   3   4
ENDBRANCH   2   3
ENDBRANCH   1   2
BRANCH   1  21
ATOM     21  O   UNL A   1      32.426  30.760  26.832  1.00  0.00    -0.376 OA
BRANCH  21  22
ATOM     22  C   UNL A   1      31.436  31.701  26.415  1.00  0.00     0.202 C 
BRANCH  22  23
ATOM     23  C   UNL A   1      31.901  33.118  26.763  1.00  0.00     0.261 C 
BRANCH  23  24
ATOM     24  O   UNL A   1      32.701  33.179  27.963  1.00  0.00    -0.460 OA
BRANCH  24  25
ATOM     25  C   UNL A   1      33.850  33.880  27.854  1.00  0.00     0.338 C 
ATOM     26  O   UNL A   1      33.950  35.077  27.619  1.00  0.00    -0.246 OA
BRANCH  25  27
ATOM     27  C   UNL A   1      34.983  33.019  28.238  1.00  0.00     0.060 A 
ATOM     28  C   UNL A   1      34.717  31.711  28.651  1.00  0.00     0.016 A 
ATOM     29  C   UNL A   1      36.284  33.510  28.275  1.00  0.00     0.016 A 
ATOM     30  C   UNL A   1      35.725  30.906  29.169  1.00  0.00     0.010 A 
ATOM     31  C   UNL A   1      37.305  32.692  28.771  1.00  0.00     0.010 A 
ATOM     32  C   UNL A   1      37.028  31.395  29.251  1.00  0.00    -0.014 A 
BRANCH  32  33
ATOM     33  C   UNL A   1      38.080  30.621  29.957  1.00  0.00     0.031 A 
ATOM     34  C   UNL A   1      38.372  30.950  31.393  1.00  0.00     0.074 A 
ATOM     35  C   UNL A   1      38.753  29.629  29.346  1.00  0.00     0.049 A 
ATOM     36  N   UNL A   1      39.404  30.633  32.129  1.00  0.00    -0.248 NA
ATOM     37  C   UNL A   1      37.360  31.761  32.086  1.00  0.00     0.031 C 
ATOM     38  C   UNL A   1      38.488  29.126  27.998  1.00  0.00     0.029 A 
ATOM     39  N   UNL A   1      39.818  28.879  29.780  1.00  0.00    -0.354 N 
ATOM     40  C   UNL A   1      39.197  31.256  33.355  1.00  0.00     0.074 A 
ATOM     41  C   UNL A   1      37.940  31.969  33.258  1.00  0.00     0.031 C 
ATOM     42  C   UNL A   1      39.376  28.160  27.711  1.00  0.00     0.029 A 
ATOM     43  C   UNL A   1      40.325  28.041  28.814  1.00  0.00     0.049 A 
ATOM     44  H   UNL A   1      40.183  28.934  30.693  1.00  0.00     0.167 HD
ATOM     45  C   UNL A   1      39.995  31.239  34.452  1.00  0.00     0.034 A 
ATOM     46  C   UNL A   1      41.461  27.316  28.794  1.00  0.00     0.034 A 
ATOM     47  C   UNL A   1      41.230  30.499  34.525  1.00  0.00     0.049 A 
ATOM     48  C   UNL A   1      42.383  27.377  29.986  1.00  0.00     0.074 A 
ATOM     49  C   UNL A   1      42.138  30.426  35.568  1.00  0.00     0.029 A 
ATOM     50  N   UNL A   1      41.732  29.692  33.509  1.00  0.00    -0.354 N 
ATOM     51  N   UNL A   1      42.248  28.056  31.102  1.00  0.00    -0.248 NA
ATOM     52  C   UNL A   1      43.618  26.587  29.907  1.00  0.00     0.031 C 
ATOM     53  C   UNL A   1      43.210  29.621  35.162  1.00  0.00     0.029 A 
ATOM     54  C   UNL A   1      42.940  29.133  33.893  1.00  0.00     0.049 A 
ATOM     55  H   UNL A   1      41.291  29.539  32.643  1.00  0.00     0.167 HD
ATOM     56  C   UNL A   1      43.375  27.763  31.865  1.00  0.00     0.074 A 
ATOM     57  C   UNL A   1      44.169  26.832  31.087  1.00  0.00     0.031 C 
ATOM     58  C   UNL A   1      43.724  28.219  33.096  1.00  0.00     0.034 A 
BRANCH  45  59
ATOM     59  C   UNL A   1      39.586  32.114  35.614  1.00  0.00     0.023 A 
ATOM     60  C   UNL A   1      38.834  31.622  36.694  1.00  0.00     0.031 A 
ATOM     61  C   UNL A   1      39.904  33.485  35.604  1.00  0.00     0.131 A 
ATOM     62  C   UNL A   1      38.357  32.506  37.675  1.00  0.00     0.055 A 
ATOM     63  C   UNL A   1      39.497  34.344  36.627  1.00  0.00     0.041 A 
ATOM     64  F   UNL A   1      40.598  34.018  34.586  1.00  0.00    -0.206 F 
ATOM     65  C   UNL A   1      38.704  33.859  37.661  1.00  0.00     0.022 A 
BRANCH  62  66
ATOM     66  S   UNL A   1      37.145  31.895  38.879  1.00  0.00     0.124 S 
ATOM     67  O   UNL A   1      37.041  30.486  38.504  1.00  0.00    -0.237 OA
ATOM     68  O   UNL A   1      37.798  32.172  40.153  1.00  0.00    -0.237 OA
ATOM     69  O   UNL A   1      35.953  32.694  38.601  1.00  0.00    -0.744 OA
ENDBRANCH  62  66
ENDBRANCH  45  59
BRANCH  46  70
ATOM     70  C   UNL A   1      41.844  26.555  27.570  1.00  0.00     0.023 A 
ATOM     71  C   UNL A   1      41.662  25.166  27.487  1.00  0.00     0.031 A 
ATOM     72  C   UNL A   1      42.437  27.210  26.474  1.00  0.00     0.131 A 
ATOM     73  C   UNL A   1      42.093  24.473  26.344  1.00  0.00     0.055 A 
ATOM     74  C   UNL A   1      42.816  26.524  25.320  1.00  0.00     0.041 A 
ATOM     75  F   UNL A   1      42.641  28.537  26.505  1.00  0.00    -0.206 F 
ATOM     76  C   UNL A   1      42.655  25.144  25.255  1.00  0.00     0.022 A 
BRANCH  73  77
ATOM     77  S   UNL A   1      41.975  22.662  26.328  1.00  0.00     0.124 S 
ATOM     78  O   UNL A   1      40.564  22.459  26.021  1.00  0.00    -0.237 OA
ATOM     79  O   UNL A   1      42.919  22.306  25.274  1.00  0.00    -0.237 OA
ATOM     80  O   UNL A   1      42.381  22.281  27.679  1.00  0.00    -0.744 OA
ENDBRANCH  73  77
ENDBRANCH  46  70
BRANCH  58  81
ATOM     81  C   UNL A   1      45.000  27.674  33.685  1.00  0.00     0.023 A 
ATOM     82  C   UNL A   1      45.015  26.502  34.461  1.00  0.00     0.031 A 
ATOM     83  C   UNL A   1      46.216  28.349  33.478  1.00  0.00     0.131 A 
ATOM     84  C   UNL A   1      46.215  26.068  35.047  1.00  0.00     0.055 A 
ATOM     85  C   UNL A   1      47.415  27.884  34.018  1.00  0.00     0.041 A 
ATOM     86  F   UNL A   1      46.257  29.473  32.745  1.00  0.00    -0.206 F 
ATOM     87  C   UNL A   1      47.418  26.744  34.818  1.00  0.00     0.022 A 
BRANCH  84  88
ATOM     88  S   UNL A   1      46.172  24.654  36.182  1.00  0.00     0.124 S 
ATOM     89  O   UNL A   1      45.511  25.225  37.352  1.00  0.00    -0.237 OA
ATOM     90  O   UNL A   1      45.401  23.672  35.429  1.00  0.00    -0.237 OA
ATOM     91  O   UNL A   1      47.584  24.322  36.369  1.00  0.00    -0.744 OA
ENDBRANCH  84  88
ENDBRANCH  58  81
ENDBRANCH  32  33
ENDBRANCH  25  27
ENDBRANCH  24  25
ENDBRANCH  23  24
ENDBRANCH  22  23
ENDBRANCH  21  22
ENDBRANCH   1  21
TORSDOF 23
ENDMDL
