MODEL 1
REMARK VINA RESULT:     -10.9      0.000      0.000
REMARK SMILES CC(C)(C[S@](=O)c1cccc(Cl)c1)C(=O)OCCOCCOCCOC(=O)c1ccc(-c2c3nc(c(-c4cc(S(=O)(=O)[O-])ccc4F)c4ccc([nH]4)c(-c4cc(S(=O)(=O)[O-])ccc4F)c4nc(c(-c5cc(S(=O)(=O)[O-])ccc5F)c5ccc2[nH]5)C=C4)C=C3)cc1
REMARK SMILES IDX 20 1 19 2 18 3 17 4 16 5 14 6 15 7 2 8 1 9 3 10 4 11 5 12
REMARK SMILES IDX 6 13 7 14 8 15 13 16 9 17 11 18 10 19 12 20 21 21 22 22
REMARK SMILES IDX 23 23 24 24 25 25 26 26 27 27 28 28 29 29 90 30 30 31 89 32
REMARK SMILES IDX 31 33 32 34 33 35 83 36 34 37 88 38 82 39 84 40 35 41 87 42
REMARK SMILES IDX 81 43 80 44 36 46 68 47 48 48 67 49 49 50 52 51 66 52 85 53
REMARK SMILES IDX 50 54 51 55 65 57 86 58 53 59 37 60 38 61 46 62 39 63 45 64
REMARK SMILES IDX 47 65 44 66 40 67 41 68 42 69 43 70 69 71 70 72 78 73 71 74
REMARK SMILES IDX 77 75 79 76 76 77 72 78 73 79 74 80 75 81 54 82 55 83 63 84
REMARK SMILES IDX 56 85 62 86 64 87 61 88 57 89 58 90 59 91 60 92
REMARK H PARENT 84 45 52 56
REMARK Flexibility Score: inf
ROOT
ATOM      1  C   UNL A   1      30.858  29.224  22.430  1.00  0.00     0.188 C 
ENDROOT
BRANCH   1   2
ATOM      2  O   UNL A   1      30.698  27.838  22.259  1.00  0.00    -0.376 OA
BRANCH   2   3
ATOM      3  C   UNL A   1      31.850  26.999  22.297  1.00  0.00     0.202 C 
BRANCH   3   4
ATOM      4  C   UNL A   1      32.876  27.025  23.457  1.00  0.00     0.261 C 
BRANCH   4   5
ATOM      5  O   UNL A   1      33.214  25.742  24.057  1.00  0.00    -0.463 OA
BRANCH   5   6
ATOM      6  C   UNL A   1      32.228  25.101  24.743  1.00  0.00     0.312 C 
ATOM      7  O   UNL A   1      31.625  25.631  25.673  1.00  0.00    -0.252 OA
BRANCH   6   8
ATOM      8  C   UNL A   1      31.913  23.644  24.287  1.00  0.00     0.074 C 
ATOM      9  C   UNL A   1      32.997  23.169  23.283  1.00  0.00     0.024 C 
ATOM     10  C   UNL A   1      30.621  23.845  23.452  1.00  0.00     0.024 C 
BRANCH   8  11
ATOM     11  C   UNL A   1      31.617  22.595  25.407  1.00  0.00     0.128 C 
BRANCH  11  12
ATOM     12  S   UNL A   1      33.002  22.127  26.576  1.00  0.00     0.054 S 
ATOM     13  O   UNL A   1      34.027  23.213  26.411  1.00  0.00    -0.254 OA
BRANCH  12  14
ATOM     14  C   UNL A   1      33.761  20.709  25.715  1.00  0.00     0.040 A 
ATOM     15  C   UNL A   1      35.541  20.654  25.273  1.00  0.00     0.018 A 
ATOM     16  C   UNL A   1      32.786  19.209  25.568  1.00  0.00     0.038 A 
ATOM     17  C   UNL A   1      36.290  19.111  24.657  1.00  0.00     0.003 A 
ATOM     18  C   UNL A   1      33.533  17.709  24.961  1.00  0.00     0.042 A 
ATOM     19  C   UNL A   1      35.270  17.635  24.553  1.00  0.00     0.020 A 
ATOM     20  Cl  UNL A   1      32.579  16.281  24.866  1.00  0.00    -0.084 Cl
ENDBRANCH  12  14
ENDBRANCH  11  12
ENDBRANCH   8  11
ENDBRANCH   6   8
ENDBRANCH   5   6
ENDBRANCH   4   5
ENDBRANCH   3   4
ENDBRANCH   2   3
ENDBRANCH   1   2
BRANCH   1  21
ATOM     21  C   UNL A   1      30.318  29.810  23.711  1.00  0.00     0.188 C 
BRANCH  21  22
ATOM     22  O   UNL A   1      30.950  29.483  24.957  1.00  0.00    -0.376 OA
BRANCH  22  23
ATOM     23  C   UNL A   1      32.009  30.384  25.721  1.00  0.00     0.202 C 
BRANCH  23  24
ATOM     24  C   UNL A   1      31.720  32.354  26.648  1.00  0.00     0.261 C 
BRANCH  24  25
ATOM     25  O   UNL A   1      32.379  32.868  28.071  1.00  0.00    -0.460 OA
BRANCH  25  26
ATOM     26  C   UNL A   1      33.437  33.737  28.048  1.00  0.00     0.338 C 
ATOM     27  O   UNL A   1      33.347  34.951  28.085  1.00  0.00    -0.246 OA
BRANCH  26  28
ATOM     28  C   UNL A   1      34.699  32.981  28.373  1.00  0.00     0.060 A 
ATOM     29  C   UNL A   1      34.680  31.576  28.250  1.00  0.00     0.016 A 
ATOM     30  C   UNL A   1      35.925  33.622  28.585  1.00  0.00     0.016 A 
ATOM     31  C   UNL A   1      35.853  30.816  28.384  1.00  0.00     0.010 A 
ATOM     32  C   UNL A   1      37.095  32.860  28.760  1.00  0.00     0.010 A 
ATOM     33  C   UNL A   1      37.058  31.449  28.715  1.00  0.00    -0.014 A 
BRANCH  33  34
ATOM     34  C   UNL A   1      38.118  30.681  29.438  1.00  0.00     0.031 A 
ATOM     35  C   UNL A   1      38.322  31.064  30.886  1.00  0.00     0.074 A 
ATOM     36  C   UNL A   1      38.867  29.697  28.900  1.00  0.00     0.049 A 
ATOM     37  N   UNL A   1      39.263  30.723  31.725  1.00  0.00    -0.248 NA
ATOM     38  C   UNL A   1      37.319  31.984  31.452  1.00  0.00     0.031 C 
ATOM     39  C   UNL A   1      38.719  29.144  27.557  1.00  0.00     0.029 A 
ATOM     40  N   UNL A   1      39.924  28.991  29.435  1.00  0.00    -0.354 N 
ATOM     41  C   UNL A   1      38.980  31.411  32.902  1.00  0.00     0.074 A 
ATOM     42  C   UNL A   1      37.805  32.212  32.657  1.00  0.00     0.031 C 
ATOM     43  C   UNL A   1      39.663  28.201  27.366  1.00  0.00     0.029 A 
ATOM     44  C   UNL A   1      40.522  28.118  28.550  1.00  0.00     0.049 A 
ATOM     45  H   UNL A   1      40.227  29.101  30.365  1.00  0.00     0.167 HD
ATOM     46  C   UNL A   1      39.636  31.381  34.085  1.00  0.00     0.034 A 
ATOM     47  C   UNL A   1      41.646  27.376  28.671  1.00  0.00     0.034 A 
ATOM     48  C   UNL A   1      40.809  30.585  34.319  1.00  0.00     0.049 A 
ATOM     49  C   UNL A   1      42.442  27.443  29.963  1.00  0.00     0.074 A 
ATOM     50  C   UNL A   1      41.563  30.486  35.474  1.00  0.00     0.029 A 
ATOM     51  N   UNL A   1      41.406  29.759  33.377  1.00  0.00    -0.354 N 
ATOM     52  N   UNL A   1      42.193  28.132  31.054  1.00  0.00    -0.248 NA
ATOM     53  C   UNL A   1      43.672  26.637  30.042  1.00  0.00     0.031 C 
ATOM     54  C   UNL A   1      42.664  29.669  35.203  1.00  0.00     0.029 A 
ATOM     55  C   UNL A   1      42.537  29.172  33.916  1.00  0.00     0.049 A 
ATOM     56  H   UNL A   1      41.074  29.612  32.462  1.00  0.00     0.167 HD
ATOM     57  C   UNL A   1      43.201  27.798  31.960  1.00  0.00     0.074 A 
ATOM     58  C   UNL A   1      44.069  26.857  31.287  1.00  0.00     0.031 C 
ATOM     59  C   UNL A   1      43.382  28.218  33.237  1.00  0.00     0.034 A 
BRANCH  46  60
ATOM     60  C   UNL A   1      39.134  32.292  35.179  1.00  0.00     0.023 A 
ATOM     61  C   UNL A   1      39.589  33.615  35.314  1.00  0.00     0.031 A 
ATOM     62  C   UNL A   1      38.220  31.809  36.132  1.00  0.00     0.131 A 
ATOM     63  C   UNL A   1      39.192  34.380  36.422  1.00  0.00     0.055 A 
ATOM     64  C   UNL A   1      37.755  32.607  37.178  1.00  0.00     0.041 A 
ATOM     65  F   UNL A   1      37.776  30.543  36.074  1.00  0.00    -0.206 F 
ATOM     66  C   UNL A   1      38.254  33.896  37.336  1.00  0.00     0.022 A 
BRANCH  63  67
ATOM     67  S   UNL A   1      40.041  35.951  36.737  1.00  0.00     0.124 S 
ATOM     68  O   UNL A   1      41.405  35.499  37.000  1.00  0.00    -0.237 OA
ATOM     69  O   UNL A   1      39.837  36.676  35.489  1.00  0.00    -0.237 OA
ATOM     70  O   UNL A   1      39.337  36.493  37.898  1.00  0.00    -0.744 OA
ENDBRANCH  63  67
ENDBRANCH  46  60
BRANCH  47  71
ATOM     71  C   UNL A   1      42.148  26.543  27.531  1.00  0.00     0.023 A 
ATOM     72  C   UNL A   1      41.779  25.195  27.386  1.00  0.00     0.031 A 
ATOM     73  C   UNL A   1      43.076  27.065  26.609  1.00  0.00     0.131 A 
ATOM     74  C   UNL A   1      42.368  24.405  26.382  1.00  0.00     0.055 A 
ATOM     75  C   UNL A   1      43.610  26.293  25.573  1.00  0.00     0.041 A 
ATOM     76  F   UNL A   1      43.485  28.340  26.704  1.00  0.00    -0.206 F 
ATOM     77  C   UNL A   1      43.266  24.950  25.464  1.00  0.00     0.022 A 
BRANCH  74  78
ATOM     78  S   UNL A   1      42.026  22.621  26.359  1.00  0.00     0.124 S 
ATOM     79  O   UNL A   1      42.675  22.181  27.589  1.00  0.00    -0.237 OA
ATOM     80  O   UNL A   1      40.568  22.592  26.355  1.00  0.00    -0.237 OA
ATOM     81  O   UNL A   1      42.661  22.169  25.122  1.00  0.00    -0.744 OA
ENDBRANCH  74  78
ENDBRANCH  47  71
BRANCH  59  82
ATOM     82  C   UNL A   1      44.500  27.598  34.043  1.00  0.00     0.023 A 
ATOM     83  C   UNL A   1      44.340  26.402  34.763  1.00  0.00     0.031 A 
ATOM     84  C   UNL A   1      45.776  28.194  34.024  1.00  0.00     0.131 A 
ATOM     85  C   UNL A   1      45.432  25.856  35.456  1.00  0.00     0.055 A 
ATOM     86  C   UNL A   1      46.871  27.615  34.664  1.00  0.00     0.041 A 
ATOM     87  F   UNL A   1      45.984  29.339  33.352  1.00  0.00    -0.206 F 
ATOM     88  C   UNL A   1      46.701  26.442  35.391  1.00  0.00     0.022 A 
BRANCH  85  89
ATOM     89  S   UNL A   1      45.168  24.397  36.501  1.00  0.00     0.124 S 
ATOM     90  O   UNL A   1      44.228  23.618  35.701  1.00  0.00    -0.237 OA
ATOM     91  O   UNL A   1      46.514  23.846  36.618  1.00  0.00    -0.237 OA
ATOM     92  O   UNL A   1      44.618  24.953  37.736  1.00  0.00    -0.744 OA
ENDBRANCH  85  89
ENDBRANCH  59  82
ENDBRANCH  33  34
ENDBRANCH  26  28
ENDBRANCH  25  26
ENDBRANCH  24  25
ENDBRANCH  23  24
ENDBRANCH  22  23
ENDBRANCH  21  22
ENDBRANCH   1  21
TORSDOF 23
ENDMDL
MODEL 2
REMARK VINA RESULT:     -10.8      2.304      2.957
REMARK SMILES CC(C)(C[S@](=O)c1cccc(Cl)c1)C(=O)OCCOCCOCCOC(=O)c1ccc(-c2c3nc(c(-c4cc(S(=O)(=O)[O-])ccc4F)c4ccc([nH]4)c(-c4cc(S(=O)(=O)[O-])ccc4F)c4nc(c(-c5cc(S(=O)(=O)[O-])ccc5F)c5ccc2[nH]5)C=C4)C=C3)cc1
REMARK SMILES IDX 20 1 19 2 18 3 17 4 16 5 14 6 15 7 2 8 1 9 3 10 4 11 5 12
REMARK SMILES IDX 6 13 7 14 8 15 13 16 9 17 11 18 10 19 12 20 21 21 22 22
REMARK SMILES IDX 23 23 24 24 25 25 26 26 27 27 28 28 29 29 90 30 30 31 89 32
REMARK SMILES IDX 31 33 32 34 33 35 83 36 34 37 88 38 82 39 84 40 35 41 87 42
REMARK SMILES IDX 81 43 80 44 36 46 68 47 48 48 67 49 49 50 52 51 66 52 85 53
REMARK SMILES IDX 50 54 51 55 65 57 86 58 53 59 37 60 38 61 46 62 39 63 45 64
REMARK SMILES IDX 47 65 44 66 40 67 41 68 42 69 43 70 69 71 70 72 78 73 71 74
REMARK SMILES IDX 77 75 79 76 76 77 72 78 73 79 74 80 75 81 54 82 55 83 63 84
REMARK SMILES IDX 56 85 62 86 64 87 61 88 57 89 58 90 59 91 60 92
REMARK H PARENT 84 45 52 56
REMARK Flexibility Score: inf
ROOT
ATOM      1  C   UNL A   1      30.728  28.875  22.343  1.00  0.00     0.188 C 
ENDROOT
BRANCH   1   2
ATOM      2  O   UNL A   1      30.803  27.489  22.127  1.00  0.00    -0.376 OA
BRANCH   2   3
ATOM      3  C   UNL A   1      32.079  26.890  21.911  1.00  0.00     0.202 C 
BRANCH   3   4
ATOM      4  C   UNL A   1      33.205  26.895  22.974  1.00  0.00     0.261 C 
BRANCH   4   5
ATOM      5  O   UNL A   1      33.455  25.637  23.664  1.00  0.00    -0.463 OA
BRANCH   5   6
ATOM      6  C   UNL A   1      32.413  25.088  24.347  1.00  0.00     0.312 C 
ATOM      7  O   UNL A   1      31.888  25.649  25.305  1.00  0.00    -0.252 OA
BRANCH   6   8
ATOM      8  C   UNL A   1      31.928  23.693  23.848  1.00  0.00     0.074 C 
ATOM      9  C   UNL A   1      32.787  23.248  22.634  1.00  0.00     0.024 C 
ATOM     10  C   UNL A   1      30.527  24.030  23.275  1.00  0.00     0.024 C 
BRANCH   8  11
ATOM     11  C   UNL A   1      31.763  22.570  24.923  1.00  0.00     0.128 C 
BRANCH  11  12
ATOM     12  S   UNL A   1      33.195  22.230  26.080  1.00  0.00     0.054 S 
ATOM     13  O   UNL A   1      34.254  23.218  25.681  1.00  0.00    -0.254 OA
BRANCH  12  14
ATOM     14  C   UNL A   1      33.838  20.650  25.433  1.00  0.00     0.040 A 
ATOM     15  C   UNL A   1      35.601  20.406  24.985  1.00  0.00     0.018 A 
ATOM     16  C   UNL A   1      32.762  19.217  25.522  1.00  0.00     0.038 A 
ATOM     17  C   UNL A   1      36.231  18.741  24.598  1.00  0.00     0.003 A 
ATOM     18  C   UNL A   1      33.393  17.595  25.138  1.00  0.00     0.042 A 
ATOM     19  C   UNL A   1      35.112  17.341  24.727  1.00  0.00     0.020 A 
ATOM     20  Cl  UNL A   1      32.343  16.238  25.267  1.00  0.00    -0.084 Cl
ENDBRANCH  12  14
ENDBRANCH  11  12
ENDBRANCH   8  11
ENDBRANCH   6   8
ENDBRANCH   5   6
ENDBRANCH   4   5
ENDBRANCH   3   4
ENDBRANCH   2   3
ENDBRANCH   1   2
BRANCH   1  21
ATOM     21  C   UNL A   1      30.305  29.319  23.720  1.00  0.00     0.188 C 
BRANCH  21  22
ATOM     22  O   UNL A   1      30.988  28.799  24.870  1.00  0.00    -0.376 OA
BRANCH  22  23
ATOM     23  C   UNL A   1      32.285  29.427  25.537  1.00  0.00     0.202 C 
BRANCH  23  24
ATOM     24  C   UNL A   1      32.433  31.138  26.904  1.00  0.00     0.261 C 
BRANCH  24  25
ATOM     25  O   UNL A   1      33.505  31.301  28.149  1.00  0.00    -0.460 OA
BRANCH  25  26
ATOM     26  C   UNL A   1      34.622  32.075  27.979  1.00  0.00     0.338 C 
ATOM     27  O   UNL A   1      34.635  33.292  27.965  1.00  0.00    -0.246 OA
BRANCH  26  28
ATOM     28  C   UNL A   1      35.845  31.228  28.214  1.00  0.00     0.060 A 
ATOM     29  C   UNL A   1      35.693  29.826  28.200  1.00  0.00     0.016 A 
ATOM     30  C   UNL A   1      37.138  31.764  28.236  1.00  0.00     0.016 A 
ATOM     31  C   UNL A   1      36.805  28.970  28.256  1.00  0.00     0.010 A 
ATOM     32  C   UNL A   1      38.251  30.910  28.334  1.00  0.00     0.010 A 
ATOM     33  C   UNL A   1      38.090  29.509  28.399  1.00  0.00    -0.014 A 
BRANCH  33  34
ATOM     34  C   UNL A   1      39.161  28.694  29.052  1.00  0.00     0.031 A 
ATOM     35  C   UNL A   1      39.592  29.169  30.422  1.00  0.00     0.074 A 
ATOM     36  C   UNL A   1      39.734  27.596  28.520  1.00  0.00     0.049 A 
ATOM     37  N   UNL A   1      40.601  28.800  31.164  1.00  0.00    -0.248 NA
ATOM     38  C   UNL A   1      38.766  30.232  31.019  1.00  0.00     0.031 C 
ATOM     39  C   UNL A   1      39.356  26.955  27.264  1.00  0.00     0.029 A 
ATOM     40  N   UNL A   1      40.783  26.828  28.982  1.00  0.00    -0.354 N 
ATOM     41  C   UNL A   1      40.545  29.607  32.297  1.00  0.00     0.074 A 
ATOM     42  C   UNL A   1      39.428  30.505  32.128  1.00  0.00     0.031 C 
ATOM     43  C   UNL A   1      40.173  25.905  27.046  1.00  0.00     0.029 A 
ATOM     44  C   UNL A   1      41.171  25.828  28.116  1.00  0.00     0.049 A 
ATOM     45  H   UNL A   1      41.217  26.981  29.853  1.00  0.00     0.167 HD
ATOM     46  C   UNL A   1      41.348  29.603  33.387  1.00  0.00     0.034 A 
ATOM     47  C   UNL A   1      42.227  24.983  28.164  1.00  0.00     0.034 A 
ATOM     48  C   UNL A   1      42.462  28.710  33.545  1.00  0.00     0.049 A 
ATOM     49  C   UNL A   1      43.192  25.070  29.334  1.00  0.00     0.074 A 
ATOM     50  C   UNL A   1      43.351  28.625  34.600  1.00  0.00     0.029 A 
ATOM     51  N   UNL A   1      42.846  27.752  32.618  1.00  0.00    -0.354 N 
ATOM     52  N   UNL A   1      43.157  25.868  30.377  1.00  0.00    -0.248 NA
ATOM     53  C   UNL A   1      44.339  24.148  29.333  1.00  0.00     0.031 C 
ATOM     54  C   UNL A   1      44.323  27.678  34.272  1.00  0.00     0.029 A 
ATOM     55  C   UNL A   1      43.978  27.094  33.063  1.00  0.00     0.049 A 
ATOM     56  H   UNL A   1      42.382  27.567  31.769  1.00  0.00     0.167 HD
ATOM     57  C   UNL A   1      44.241  25.504  31.177  1.00  0.00     0.074 A 
ATOM     58  C   UNL A   1      44.919  24.425  30.492  1.00  0.00     0.031 C 
ATOM     59  C   UNL A   1      44.632  26.004  32.376  1.00  0.00     0.034 A 
BRANCH  46  60
ATOM     60  C   UNL A   1      41.085  30.648  34.444  1.00  0.00     0.023 A 
ATOM     61  C   UNL A   1      39.986  30.566  35.316  1.00  0.00     0.031 A 
ATOM     62  C   UNL A   1      41.924  31.772  34.545  1.00  0.00     0.131 A 
ATOM     63  C   UNL A   1      39.711  31.626  36.194  1.00  0.00     0.055 A 
ATOM     64  C   UNL A   1      41.698  32.777  35.486  1.00  0.00     0.041 A 
ATOM     65  F   UNL A   1      42.969  31.923  33.715  1.00  0.00    -0.206 F 
ATOM     66  C   UNL A   1      40.577  32.715  36.307  1.00  0.00     0.022 A 
BRANCH  63  67
ATOM     67  S   UNL A   1      38.121  31.635  37.067  1.00  0.00     0.124 S 
ATOM     68  O   UNL A   1      37.780  30.214  37.070  1.00  0.00    -0.237 OA
ATOM     69  O   UNL A   1      38.474  32.211  38.359  1.00  0.00    -0.237 OA
ATOM     70  O   UNL A   1      37.272  32.470  36.220  1.00  0.00    -0.744 OA
ENDBRANCH  63  67
ENDBRANCH  46  60
BRANCH  47  71
ATOM     71  C   UNL A   1      42.490  24.013  27.053  1.00  0.00     0.023 A 
ATOM     72  C   UNL A   1      41.968  22.708  27.076  1.00  0.00     0.031 A 
ATOM     73  C   UNL A   1      43.342  24.352  25.984  1.00  0.00     0.131 A 
ATOM     74  C   UNL A   1      42.339  21.781  26.086  1.00  0.00     0.055 A 
ATOM     75  C   UNL A   1      43.657  23.446  24.968  1.00  0.00     0.041 A 
ATOM     76  F   UNL A   1      43.890  25.576  25.914  1.00  0.00    -0.206 F 
ATOM     77  C   UNL A   1      43.165  22.147  25.023  1.00  0.00     0.022 A 
BRANCH  74  78
ATOM     78  S   UNL A   1      41.814  20.051  26.266  1.00  0.00     0.124 S 
ATOM     79  O   UNL A   1      40.369  20.163  26.093  1.00  0.00    -0.237 OA
ATOM     80  O   UNL A   1      42.542  19.400  25.182  1.00  0.00    -0.237 OA
ATOM     81  O   UNL A   1      42.257  19.699  27.613  1.00  0.00    -0.744 OA
ENDBRANCH  74  78
ENDBRANCH  47  71
BRANCH  59  82
ATOM     82  C   UNL A   1      45.784  25.336  33.090  1.00  0.00     0.023 A 
ATOM     83  C   UNL A   1      47.123  25.697  32.866  1.00  0.00     0.031 A 
ATOM     84  C   UNL A   1      45.515  24.361  34.070  1.00  0.00     0.131 A 
ATOM     85  C   UNL A   1      48.144  25.066  33.595  1.00  0.00     0.055 A 
ATOM     86  C   UNL A   1      46.529  23.782  34.832  1.00  0.00     0.041 A 
ATOM     87  F   UNL A   1      44.252  23.978  34.323  1.00  0.00    -0.206 F 
ATOM     88  C   UNL A   1      47.854  24.129  34.592  1.00  0.00     0.022 A 
BRANCH  85  89
ATOM     89  S   UNL A   1      49.873  25.436  33.185  1.00  0.00     0.124 S 
ATOM     90  O   UNL A   1      50.421  25.801  34.487  1.00  0.00    -0.237 OA
ATOM     91  O   UNL A   1      50.341  24.171  32.628  1.00  0.00    -0.237 OA
ATOM     92  O   UNL A   1      49.771  26.534  32.226  1.00  0.00    -0.744 OA
ENDBRANCH  85  89
ENDBRANCH  59  82
ENDBRANCH  33  34
ENDBRANCH  26  28
ENDBRANCH  25  26
ENDBRANCH  24  25
ENDBRANCH  23  24
ENDBRANCH  22  23
ENDBRANCH  21  22
ENDBRANCH   1  21
TORSDOF 23
ENDMDL
MODEL 3
REMARK VINA RESULT:     -10.5      1.367      7.825
REMARK SMILES CC(C)(C[S@](=O)c1cccc(Cl)c1)C(=O)OCCOCCOCCOC(=O)c1ccc(-c2c3nc(c(-c4cc(S(=O)(=O)[O-])ccc4F)c4ccc([nH]4)c(-c4cc(S(=O)(=O)[O-])ccc4F)c4nc(c(-c5cc(S(=O)(=O)[O-])ccc5F)c5ccc2[nH]5)C=C4)C=C3)cc1
REMARK SMILES IDX 20 1 19 2 18 3 17 4 16 5 14 6 15 7 2 8 1 9 3 10 4 11 5 12
REMARK SMILES IDX 6 13 7 14 8 15 13 16 9 17 11 18 10 19 12 20 21 21 22 22
REMARK SMILES IDX 23 23 24 24 25 25 26 26 27 27 28 28 29 29 90 30 30 31 89 32
REMARK SMILES IDX 31 33 32 34 33 35 83 36 34 37 88 38 82 39 84 40 35 41 87 42
REMARK SMILES IDX 81 43 80 44 36 46 68 47 48 48 67 49 49 50 52 51 66 52 85 53
REMARK SMILES IDX 50 54 51 55 65 57 86 58 53 59 37 60 38 61 46 62 39 63 45 64
REMARK SMILES IDX 47 65 44 66 40 67 41 68 42 69 43 70 69 71 70 72 78 73 71 74
REMARK SMILES IDX 77 75 79 76 76 77 72 78 73 79 74 80 75 81 54 82 55 83 63 84
REMARK SMILES IDX 56 85 62 86 64 87 61 88 57 89 58 90 59 91 60 92
REMARK H PARENT 84 45 52 56
REMARK Flexibility Score: inf
ROOT
ATOM      1  C   UNL A   1      33.967  28.178  25.742  1.00  0.00     0.188 C 
ENDROOT
BRANCH   1   2
ATOM      2  O   UNL A   1      33.104  28.370  24.650  1.00  0.00    -0.376 OA
BRANCH   2   3
ATOM      3  C   UNL A   1      33.650  28.402  23.333  1.00  0.00     0.202 C 
BRANCH   3   4
ATOM      4  C   UNL A   1      33.301  27.353  22.249  1.00  0.00     0.261 C 
BRANCH   4   5
ATOM      5  O   UNL A   1      32.337  26.327  22.621  1.00  0.00    -0.463 OA
BRANCH   5   6
ATOM      6  C   UNL A   1      32.757  25.033  22.561  1.00  0.00     0.312 C 
ATOM      7  O   UNL A   1      33.537  24.635  21.699  1.00  0.00    -0.252 OA
BRANCH   6   8
ATOM      8  C   UNL A   1      32.180  24.076  23.648  1.00  0.00     0.074 C 
ATOM      9  C   UNL A   1      30.634  24.012  23.515  1.00  0.00     0.024 C 
ATOM     10  C   UNL A   1      32.461  24.869  24.951  1.00  0.00     0.024 C 
BRANCH   8  11
ATOM     11  C   UNL A   1      32.840  22.665  23.779  1.00  0.00     0.128 C 
BRANCH  11  12
ATOM     12  S   UNL A   1      32.297  21.556  25.186  1.00  0.00     0.054 S 
ATOM     13  O   UNL A   1      32.920  22.159  26.412  1.00  0.00    -0.254 OA
BRANCH  12  14
ATOM     14  C   UNL A   1      33.306  20.063  24.901  1.00  0.00     0.040 A 
ATOM     15  C   UNL A   1      35.140  20.102  24.849  1.00  0.00     0.018 A 
ATOM     16  C   UNL A   1      32.476  18.474  24.972  1.00  0.00     0.038 A 
ATOM     17  C   UNL A   1      36.094  18.549  24.828  1.00  0.00     0.003 A 
ATOM     18  C   UNL A   1      33.423  16.964  24.947  1.00  0.00     0.042 A 
ATOM     19  C   UNL A   1      35.209  16.988  24.924  1.00  0.00     0.020 A 
ATOM     20  Cl  UNL A   1      32.598  15.459  25.052  1.00  0.00    -0.084 Cl
ENDBRANCH  12  14
ENDBRANCH  11  12
ENDBRANCH   8  11
ENDBRANCH   6   8
ENDBRANCH   5   6
ENDBRANCH   4   5
ENDBRANCH   3   4
ENDBRANCH   2   3
ENDBRANCH   1   2
BRANCH   1  21
ATOM     21  C   UNL A   1      33.885  29.197  26.850  1.00  0.00     0.188 C 
BRANCH  21  22
ATOM     22  O   UNL A   1      32.602  29.692  27.260  1.00  0.00    -0.376 OA
BRANCH  22  23
ATOM     23  C   UNL A   1      31.807  30.880  26.571  1.00  0.00     0.202 C 
BRANCH  23  24
ATOM     24  C   UNL A   1      31.956  33.036  26.956  1.00  0.00     0.261 C 
BRANCH  24  25
ATOM     25  O   UNL A   1      32.219  33.750  28.421  1.00  0.00    -0.460 OA
BRANCH  25  26
ATOM     26  C   UNL A   1      33.243  34.649  28.557  1.00  0.00     0.338 C 
ATOM     27  O   UNL A   1      33.108  35.857  28.634  1.00  0.00    -0.246 OA
BRANCH  26  28
ATOM     28  C   UNL A   1      34.485  33.917  28.992  1.00  0.00     0.060 A 
ATOM     29  C   UNL A   1      34.328  32.763  29.788  1.00  0.00     0.016 A 
ATOM     30  C   UNL A   1      35.752  34.212  28.475  1.00  0.00     0.016 A 
ATOM     31  C   UNL A   1      35.422  31.941  30.104  1.00  0.00     0.010 A 
ATOM     32  C   UNL A   1      36.856  33.413  28.823  1.00  0.00     0.010 A 
ATOM     33  C   UNL A   1      36.709  32.303  29.684  1.00  0.00    -0.014 A 
BRANCH  33  34
ATOM     34  C   UNL A   1      37.896  31.843  30.470  1.00  0.00     0.031 A 
ATOM     35  C   UNL A   1      38.732  30.770  29.810  1.00  0.00     0.074 A 
ATOM     36  C   UNL A   1      38.258  32.317  31.678  1.00  0.00     0.049 A 
ATOM     37  N   UNL A   1      39.703  30.042  30.293  1.00  0.00    -0.248 NA
ATOM     38  C   UNL A   1      38.399  30.470  28.407  1.00  0.00     0.031 C 
ATOM     39  C   UNL A   1      37.619  33.419  32.393  1.00  0.00     0.029 A 
ATOM     40  N   UNL A   1      39.265  31.910  32.529  1.00  0.00    -0.354 N 
ATOM     41  C   UNL A   1      40.071  29.181  29.262  1.00  0.00     0.074 A 
ATOM     42  C   UNL A   1      39.198  29.453  28.145  1.00  0.00     0.031 C 
ATOM     43  C   UNL A   1      38.236  33.585  33.580  1.00  0.00     0.029 A 
ATOM     44  C   UNL A   1      39.278  32.568  33.740  1.00  0.00     0.049 A 
ATOM     45  H   UNL A   1      39.916  31.210  32.292  1.00  0.00     0.167 HD
ATOM     46  C   UNL A   1      41.050  28.247  29.240  1.00  0.00     0.034 A 
ATOM     47  C   UNL A   1      40.014  32.346  34.853  1.00  0.00     0.034 A 
ATOM     48  C   UNL A   1      41.911  27.977  30.358  1.00  0.00     0.049 A 
ATOM     49  C   UNL A   1      41.027  31.215  34.858  1.00  0.00     0.074 A 
ATOM     50  C   UNL A   1      42.928  27.045  30.454  1.00  0.00     0.029 A 
ATOM     51  N   UNL A   1      41.851  28.633  31.579  1.00  0.00    -0.354 N 
ATOM     52  N   UNL A   1      41.335  30.376  33.895  1.00  0.00    -0.248 NA
ATOM     53  C   UNL A   1      41.788  30.995  36.099  1.00  0.00     0.031 C 
ATOM     54  C   UNL A   1      43.423  27.077  31.759  1.00  0.00     0.029 A 
ATOM     55  C   UNL A   1      42.791  28.103  32.445  1.00  0.00     0.049 A 
ATOM     56  H   UNL A   1      41.231  29.366  31.799  1.00  0.00     0.167 HD
ATOM     57  C   UNL A   1      42.360  29.572  34.396  1.00  0.00     0.074 A 
ATOM     58  C   UNL A   1      42.611  30.016  35.750  1.00  0.00     0.031 C 
ATOM     59  C   UNL A   1      43.043  28.570  33.787  1.00  0.00     0.034 A 
BRANCH  46  60
ATOM     60  C   UNL A   1      41.178  27.407  27.992  1.00  0.00     0.023 A 
ATOM     61  C   UNL A   1      40.778  26.060  27.956  1.00  0.00     0.031 A 
ATOM     62  C   UNL A   1      41.757  27.953  26.834  1.00  0.00     0.131 A 
ATOM     63  C   UNL A   1      41.036  25.285  26.815  1.00  0.00     0.055 A 
ATOM     64  C   UNL A   1      41.925  27.203  25.670  1.00  0.00     0.041 A 
ATOM     65  F   UNL A   1      42.191  29.224  26.819  1.00  0.00    -0.206 F 
ATOM     66  C   UNL A   1      41.577  25.855  25.661  1.00  0.00     0.022 A 
BRANCH  63  67
ATOM     67  S   UNL A   1      40.804  23.489  26.918  1.00  0.00     0.124 S 
ATOM     68  O   UNL A   1      41.694  23.017  25.860  1.00  0.00    -0.237 OA
ATOM     69  O   UNL A   1      41.221  23.195  28.283  1.00  0.00    -0.237 OA
ATOM     70  O   UNL A   1      39.378  23.313  26.647  1.00  0.00    -0.744 OA
ENDBRANCH  63  67
ENDBRANCH  46  60
BRANCH  47  71
ATOM     71  C   UNL A   1      39.799  33.158  36.095  1.00  0.00     0.023 A 
ATOM     72  C   UNL A   1      40.608  34.267  36.399  1.00  0.00     0.031 A 
ATOM     73  C   UNL A   1      38.828  32.783  37.043  1.00  0.00     0.131 A 
ATOM     74  C   UNL A   1      40.466  34.928  37.632  1.00  0.00     0.055 A 
ATOM     75  C   UNL A   1      38.648  33.483  38.240  1.00  0.00     0.041 A 
ATOM     76  F   UNL A   1      38.037  31.721  36.823  1.00  0.00    -0.206 F 
ATOM     77  C   UNL A   1      39.480  34.555  38.545  1.00  0.00     0.022 A 
BRANCH  74  78
ATOM     78  S   UNL A   1      41.665  36.218  38.076  1.00  0.00     0.124 S 
ATOM     79  O   UNL A   1      40.843  37.121  38.874  1.00  0.00    -0.237 OA
ATOM     80  O   UNL A   1      42.674  35.456  38.803  1.00  0.00    -0.237 OA
ATOM     81  O   UNL A   1      42.095  36.744  36.782  1.00  0.00    -0.744 OA
ENDBRANCH  74  78
ENDBRANCH  47  71
BRANCH  59  82
ATOM     82  C   UNL A   1      44.200  27.940  34.527  1.00  0.00     0.023 A 
ATOM     83  C   UNL A   1      44.046  26.813  35.352  1.00  0.00     0.031 A 
ATOM     84  C   UNL A   1      45.499  28.451  34.339  1.00  0.00     0.131 A 
ATOM     85  C   UNL A   1      45.171  26.250  35.977  1.00  0.00     0.055 A 
ATOM     86  C   UNL A   1      46.618  27.851  34.914  1.00  0.00     0.041 A 
ATOM     87  F   UNL A   1      45.702  29.528  33.562  1.00  0.00    -0.206 F 
ATOM     88  C   UNL A   1      46.457  26.747  35.744  1.00  0.00     0.022 A 
BRANCH  85  89
ATOM     89  S   UNL A   1      44.932  24.890  37.154  1.00  0.00     0.124 S 
ATOM     90  O   UNL A   1      44.852  23.733  36.268  1.00  0.00    -0.237 OA
ATOM     91  O   UNL A   1      46.131  24.977  37.982  1.00  0.00    -0.237 OA
ATOM     92  O   UNL A   1      43.685  25.238  37.832  1.00  0.00    -0.744 OA
ENDBRANCH  85  89
ENDBRANCH  59  82
ENDBRANCH  33  34
ENDBRANCH  26  28
ENDBRANCH  25  26
ENDBRANCH  24  25
ENDBRANCH  23  24
ENDBRANCH  22  23
ENDBRANCH  21  22
ENDBRANCH   1  21
TORSDOF 23
ENDMDL
