MODEL 1
REMARK VINA RESULT:      -9.5      0.000      0.000
REMARK SMILES C[C@H]1[C@@H](C(=O)OCCOCCOCCOC(=O)c2ccc(-c3c4nc(c(-c5cc(S(=O)(=O)[O-])ccc5F)c5ccc([nH]5)c(-c5cc(S(=O)(=O)[O-])ccc5F)c5nc(c(-c6cc(S(=O)(=O)[O-])ccc6F)c6ccc3[nH]6)C=C5)C=C4)cc2)CCN1C(=O)c1cncc(O)c1
REMARK SMILES IDX 10 1 9 2 8 3 7 4 6 5 4 6 5 7 3 8 1 9 2 10 83 11 81 12 82 13
REMARK SMILES IDX 84 14 85 15 86 16 87 17 92 18 88 19 90 20 89 21 91 22 11 24
REMARK SMILES IDX 12 25 13 26 14 27 15 28 16 29 17 30 18 31 19 32 80 33 20 34
REMARK SMILES IDX 79 35 21 36 22 37 23 38 73 39 24 40 78 41 72 42 74 43 25 44
REMARK SMILES IDX 77 45 71 46 70 47 26 49 58 50 38 51 57 52 39 53 42 54 56 55
REMARK SMILES IDX 75 56 40 57 41 58 55 60 76 61 43 62 27 63 28 64 36 65 29 66
REMARK SMILES IDX 35 67 37 68 34 69 30 70 31 71 32 72 33 73 59 74 60 75 68 76
REMARK SMILES IDX 61 77 67 78 69 79 66 80 62 81 63 82 64 83 65 84 44 85 45 86
REMARK SMILES IDX 53 87 46 88 52 89 54 90 51 91 47 92 48 93 49 94 50 95
REMARK H PARENT 91 23 74 48 42 59
REMARK Flexibility Score: inf
ROOT
ATOM      1  C   UNL A   1      33.476  29.944  26.916  1.00  0.00     0.188 C 
ENDROOT
BRANCH   1   2
ATOM      2  O   UNL A   1      32.077  29.795  26.764  1.00  0.00    -0.376 OA
BRANCH   2   3
ATOM      3  C   UNL A   1      31.457  30.305  25.596  1.00  0.00     0.202 C 
BRANCH   3   4
ATOM      4  C   UNL A   1      31.509  29.484  24.304  1.00  0.00     0.261 C 
BRANCH   4   5
ATOM      5  O   UNL A   1      30.516  28.439  24.250  1.00  0.00    -0.463 OA
BRANCH   5   6
ATOM      6  C   UNL A   1      30.900  27.255  23.720  1.00  0.00     0.311 C 
ATOM      7  O   UNL A   1      31.631  27.153  22.740  1.00  0.00    -0.252 OA
BRANCH   6   8
ATOM      8  C   UNL A   1      30.418  26.016  24.466  1.00  0.00     0.123 C 
ATOM      9  C   UNL A   1      32.116  26.383  26.434  1.00  0.00     0.032 C 
ATOM     10  C   UNL A   1      31.001  25.545  25.814  1.00  0.00     0.096 C 
ATOM     11  N   UNL A   1      31.348  24.124  25.628  1.00  0.00    -0.335 N 
ATOM     12  C   UNL A   1      30.385  24.782  23.553  1.00  0.00     0.039 C 
ATOM     13  C   UNL A   1      31.108  23.667  24.279  1.00  0.00     0.121 C 
BRANCH  11  14
ATOM     14  C   UNL A   1      31.834  23.198  26.547  1.00  0.00     0.255 C 
ATOM     15  O   UNL A   1      31.304  22.979  27.631  1.00  0.00    -0.269 OA
BRANCH  14  16
ATOM     16  C   UNL A   1      33.058  22.457  26.229  1.00  0.00     0.062 A 
ATOM     17  C   UNL A   1      32.976  21.250  25.550  1.00  0.00     0.125 A 
ATOM     18  C   UNL A   1      34.310  22.949  26.598  1.00  0.00     0.063 A 
ATOM     19  N   UNL A   1      34.069  20.552  25.147  1.00  0.00    -0.260 NA
ATOM     20  C   UNL A   1      35.437  22.262  26.179  1.00  0.00     0.134 A 
ATOM     21  C   UNL A   1      35.275  21.086  25.461  1.00  0.00     0.157 A 
BRANCH  20  22
ATOM     22  O   UNL A   1      36.689  22.730  26.438  1.00  0.00    -0.506 OA
ATOM     23  H   UNL A   1      36.846  23.653  26.468  1.00  0.00     0.293 HD
ENDBRANCH  20  22
ENDBRANCH  14  16
ENDBRANCH  11  14
ENDBRANCH   6   8
ENDBRANCH   5   6
ENDBRANCH   4   5
ENDBRANCH   3   4
ENDBRANCH   2   3
ENDBRANCH   1   2
BRANCH   1  24
ATOM     24  C   UNL A   1      34.034  31.073  27.803  1.00  0.00     0.188 C 
BRANCH  24  25
ATOM     25  O   UNL A   1      33.973  32.424  27.408  1.00  0.00    -0.376 OA
BRANCH  25  26
ATOM     26  C   UNL A   1      32.849  33.217  27.736  1.00  0.00     0.202 C 
BRANCH  26  27
ATOM     27  C   UNL A   1      32.954  34.676  28.203  1.00  0.00     0.261 C 
BRANCH  27  28
ATOM     28  O   UNL A   1      34.084  35.010  29.014  1.00  0.00    -0.460 OA
BRANCH  28  29
ATOM     29  C   UNL A   1      34.033  34.553  30.290  1.00  0.00     0.338 C 
ATOM     30  O   UNL A   1      33.171  34.791  31.125  1.00  0.00    -0.246 OA
BRANCH  29  31
ATOM     31  C   UNL A   1      35.105  33.563  30.479  1.00  0.00     0.060 A 
ATOM     32  C   UNL A   1      34.879  32.445  31.295  1.00  0.00     0.016 A 
ATOM     33  C   UNL A   1      36.341  33.759  29.867  1.00  0.00     0.016 A 
ATOM     34  C   UNL A   1      35.894  31.509  31.499  1.00  0.00     0.010 A 
ATOM     35  C   UNL A   1      37.364  32.840  30.098  1.00  0.00     0.010 A 
ATOM     36  C   UNL A   1      37.153  31.721  30.927  1.00  0.00    -0.014 A 
BRANCH  36  37
ATOM     37  C   UNL A   1      38.325  30.908  31.329  1.00  0.00     0.031 A 
ATOM     38  C   UNL A   1      39.076  31.325  32.560  1.00  0.00     0.074 A 
ATOM     39  C   UNL A   1      38.748  29.869  30.590  1.00  0.00     0.049 A 
ATOM     40  N   UNL A   1      40.257  30.959  32.978  1.00  0.00    -0.248 NA
ATOM     41  C   UNL A   1      38.401  32.304  33.427  1.00  0.00     0.031 C 
ATOM     42  C   UNL A   1      38.053  29.317  29.429  1.00  0.00     0.029 A 
ATOM     43  N   UNL A   1      39.890  29.111  30.692  1.00  0.00    -0.354 N 
ATOM     44  C   UNL A   1      40.485  31.687  34.141  1.00  0.00     0.074 A 
ATOM     45  C   UNL A   1      39.323  32.524  34.350  1.00  0.00     0.031 C 
ATOM     46  C   UNL A   1      38.800  28.329  28.906  1.00  0.00     0.029 A 
ATOM     47  C   UNL A   1      40.053  28.226  29.652  1.00  0.00     0.049 A 
ATOM     48  H   UNL A   1      40.527  29.194  31.437  1.00  0.00     0.167 HD
ATOM     49  C   UNL A   1      41.571  31.659  34.951  1.00  0.00     0.034 A 
ATOM     50  C   UNL A   1      41.118  27.469  29.310  1.00  0.00     0.034 A 
ATOM     51  C   UNL A   1      42.721  30.824  34.710  1.00  0.00     0.049 A 
ATOM     52  C   UNL A   1      42.370  27.540  30.159  1.00  0.00     0.074 A 
ATOM     53  C   UNL A   1      43.878  30.715  35.459  1.00  0.00     0.029 A 
ATOM     54  N   UNL A   1      42.865  29.964  33.627  1.00  0.00    -0.354 N 
ATOM     55  N   UNL A   1      42.598  28.256  31.237  1.00  0.00    -0.248 NA
ATOM     56  C   UNL A   1      43.509  26.708  29.745  1.00  0.00     0.031 C 
ATOM     57  C   UNL A   1      44.754  29.857  34.787  1.00  0.00     0.029 A 
ATOM     58  C   UNL A   1      44.104  29.349  33.672  1.00  0.00     0.049 A 
ATOM     59  H   UNL A   1      42.184  29.815  32.931  1.00  0.00     0.167 HD
ATOM     60  C   UNL A   1      43.886  27.922  31.652  1.00  0.00     0.074 A 
ATOM     61  C   UNL A   1      44.388  26.948  30.706  1.00  0.00     0.031 C 
ATOM     62  C   UNL A   1      44.584  28.367  32.727  1.00  0.00     0.034 A 
BRANCH  49  63
ATOM     63  C   UNL A   1      41.591  32.611  36.121  1.00  0.00     0.023 A 
ATOM     64  C   UNL A   1      40.932  32.321  37.327  1.00  0.00     0.031 A 
ATOM     65  C   UNL A   1      42.254  33.846  36.013  1.00  0.00     0.131 A 
ATOM     66  C   UNL A   1      40.891  33.282  38.349  1.00  0.00     0.055 A 
ATOM     67  C   UNL A   1      42.283  34.762  37.066  1.00  0.00     0.041 A 
ATOM     68  F   UNL A   1      42.878  34.192  34.875  1.00  0.00    -0.206 F 
ATOM     69  C   UNL A   1      41.585  34.488  38.238  1.00  0.00     0.022 A 
BRANCH  66  70
ATOM     70  S   UNL A   1      39.787  32.997  39.760  1.00  0.00     0.124 S 
ATOM     71  O   UNL A   1      39.537  34.361  40.218  1.00  0.00    -0.237 OA
ATOM     72  O   UNL A   1      38.657  32.313  39.144  1.00  0.00    -0.237 OA
ATOM     73  O   UNL A   1      40.594  32.181  40.666  1.00  0.00    -0.744 OA
ENDBRANCH  66  70
ENDBRANCH  49  63
BRANCH  50  74
ATOM     74  C   UNL A   1      41.087  26.626  28.078  1.00  0.00     0.023 A 
ATOM     75  C   UNL A   1      40.902  25.237  28.154  1.00  0.00     0.031 A 
ATOM     76  C   UNL A   1      41.302  27.191  26.807  1.00  0.00     0.131 A 
ATOM     77  C   UNL A   1      40.986  24.454  26.992  1.00  0.00     0.055 A 
ATOM     78  C   UNL A   1      41.321  26.415  25.646  1.00  0.00     0.041 A 
ATOM     79  F   UNL A   1      41.496  28.512  26.673  1.00  0.00    -0.206 F 
ATOM     80  C   UNL A   1      41.176  25.035  25.736  1.00  0.00     0.022 A 
BRANCH  77  81
ATOM     81  S   UNL A   1      40.947  22.648  27.159  1.00  0.00     0.124 S 
ATOM     82  O   UNL A   1      41.430  22.467  28.523  1.00  0.00    -0.237 OA
ATOM     83  O   UNL A   1      39.537  22.353  26.932  1.00  0.00    -0.237 OA
ATOM     84  O   UNL A   1      41.855  22.190  26.109  1.00  0.00    -0.744 OA
ENDBRANCH  77  81
ENDBRANCH  50  74
BRANCH  62  85
ATOM     85  C   UNL A   1      45.932  27.744  33.003  1.00  0.00     0.023 A 
ATOM     86  C   UNL A   1      46.075  26.531  33.698  1.00  0.00     0.031 A 
ATOM     87  C   UNL A   1      47.094  28.363  32.503  1.00  0.00     0.131 A 
ATOM     88  C   UNL A   1      47.355  25.987  33.892  1.00  0.00     0.055 A 
ATOM     89  C   UNL A   1      48.356  27.788  32.648  1.00  0.00     0.041 A 
ATOM     90  F   UNL A   1      47.014  29.525  31.836  1.00  0.00    -0.206 F 
ATOM     91  C   UNL A   1      48.492  26.596  33.352  1.00  0.00     0.022 A 
BRANCH  88  92
ATOM     92  S   UNL A   1      47.529  24.494  34.908  1.00  0.00     0.124 S 
ATOM     93  O   UNL A   1      46.186  23.927  34.847  1.00  0.00    -0.237 OA
ATOM     94  O   UNL A   1      48.567  23.752  34.201  1.00  0.00    -0.237 OA
ATOM     95  O   UNL A   1      47.925  25.013  36.216  1.00  0.00    -0.744 OA
ENDBRANCH  88  92
ENDBRANCH  62  85
ENDBRANCH  36  37
ENDBRANCH  29  31
ENDBRANCH  28  29
ENDBRANCH  27  28
ENDBRANCH  26  27
ENDBRANCH  25  26
ENDBRANCH  24  25
ENDBRANCH   1  24
TORSDOF 23
ENDMDL
MODEL 2
REMARK VINA RESULT:      -9.4      1.462      2.118
REMARK SMILES C[C@H]1[C@@H](C(=O)OCCOCCOCCOC(=O)c2ccc(-c3c4nc(c(-c5cc(S(=O)(=O)[O-])ccc5F)c5ccc([nH]5)c(-c5cc(S(=O)(=O)[O-])ccc5F)c5nc(c(-c6cc(S(=O)(=O)[O-])ccc6F)c6ccc3[nH]6)C=C5)C=C4)cc2)CCN1C(=O)c1cncc(O)c1
REMARK SMILES IDX 10 1 9 2 8 3 7 4 6 5 4 6 5 7 3 8 1 9 2 10 83 11 81 12 82 13
REMARK SMILES IDX 84 14 85 15 86 16 87 17 92 18 88 19 90 20 89 21 91 22 11 24
REMARK SMILES IDX 12 25 13 26 14 27 15 28 16 29 17 30 18 31 19 32 80 33 20 34
REMARK SMILES IDX 79 35 21 36 22 37 23 38 73 39 24 40 78 41 72 42 74 43 25 44
REMARK SMILES IDX 77 45 71 46 70 47 26 49 58 50 38 51 57 52 39 53 42 54 56 55
REMARK SMILES IDX 75 56 40 57 41 58 55 60 76 61 43 62 27 63 28 64 36 65 29 66
REMARK SMILES IDX 35 67 37 68 34 69 30 70 31 71 32 72 33 73 59 74 60 75 68 76
REMARK SMILES IDX 61 77 67 78 69 79 66 80 62 81 63 82 64 83 65 84 44 85 45 86
REMARK SMILES IDX 53 87 46 88 52 89 54 90 51 91 47 92 48 93 49 94 50 95
REMARK H PARENT 91 23 74 48 42 59
REMARK Flexibility Score: inf
ROOT
ATOM      1  C   UNL A   1      31.299  29.305  24.486  1.00  0.00     0.188 C 
ENDROOT
BRANCH   1   2
ATOM      2  O   UNL A   1      30.159  29.707  23.751  1.00  0.00    -0.376 OA
BRANCH   2   3
ATOM      3  C   UNL A   1      29.641  28.837  22.759  1.00  0.00     0.202 C 
BRANCH   3   4
ATOM      4  C   UNL A   1      30.036  27.358  22.784  1.00  0.00     0.261 C 
BRANCH   4   5
ATOM      5  O   UNL A   1      31.049  27.019  21.815  1.00  0.00    -0.463 OA
BRANCH   5   6
ATOM      6  C   UNL A   1      31.803  25.926  22.073  1.00  0.00     0.311 C 
ATOM      7  O   UNL A   1      32.695  25.524  21.332  1.00  0.00    -0.252 OA
BRANCH   6   8
ATOM      8  C   UNL A   1      31.526  25.237  23.405  1.00  0.00     0.123 C 
ATOM      9  C   UNL A   1      33.886  25.866  24.368  1.00  0.00     0.032 C 
ATOM     10  C   UNL A   1      32.537  25.180  24.568  1.00  0.00     0.096 C 
ATOM     11  N   UNL A   1      32.635  23.758  24.945  1.00  0.00    -0.335 N 
ATOM     12  C   UNL A   1      31.012  23.804  23.204  1.00  0.00     0.039 C 
ATOM     13  C   UNL A   1      31.842  22.902  24.094  1.00  0.00     0.121 C 
BRANCH  11  14
ATOM     14  C   UNL A   1      33.342  23.159  25.983  1.00  0.00     0.255 C 
ATOM     15  O   UNL A   1      32.997  23.216  27.159  1.00  0.00    -0.269 OA
BRANCH  14  16
ATOM     16  C   UNL A   1      34.583  22.440  25.677  1.00  0.00     0.062 A 
ATOM     17  C   UNL A   1      34.539  21.085  25.381  1.00  0.00     0.125 A 
ATOM     18  C   UNL A   1      35.812  23.100  25.675  1.00  0.00     0.063 A 
ATOM     19  N   UNL A   1      35.633  20.375  25.003  1.00  0.00    -0.260 NA
ATOM     20  C   UNL A   1      36.936  22.397  25.274  1.00  0.00     0.134 A 
ATOM     21  C   UNL A   1      36.804  21.055  24.947  1.00  0.00     0.157 A 
BRANCH  20  22
ATOM     22  O   UNL A   1      38.151  23.001  25.176  1.00  0.00    -0.506 OA
ATOM     23  H   UNL A   1      38.452  23.563  25.863  1.00  0.00     0.293 HD
ENDBRANCH  20  22
ENDBRANCH  14  16
ENDBRANCH  11  14
ENDBRANCH   6   8
ENDBRANCH   5   6
ENDBRANCH   4   5
ENDBRANCH   3   4
ENDBRANCH   2   3
ENDBRANCH   1   2
BRANCH   1  24
ATOM     24  C   UNL A   1      31.631  29.997  25.822  1.00  0.00     0.188 C 
BRANCH  24  25
ATOM     25  O   UNL A   1      32.938  30.000  26.350  1.00  0.00    -0.376 OA
BRANCH  25  26
ATOM     26  C   UNL A   1      33.274  30.849  27.429  1.00  0.00     0.202 C 
BRANCH  26  27
ATOM     27  C   UNL A   1      33.677  32.320  27.250  1.00  0.00     0.261 C 
BRANCH  27  28
ATOM     28  O   UNL A   1      32.932  33.285  27.997  1.00  0.00    -0.460 OA
BRANCH  28  29
ATOM     29  C   UNL A   1      33.675  34.255  28.587  1.00  0.00     0.338 C 
ATOM     30  O   UNL A   1      33.447  35.457  28.596  1.00  0.00    -0.246 OA
BRANCH  29  31
ATOM     31  C   UNL A   1      34.735  33.616  29.383  1.00  0.00     0.060 A 
ATOM     32  C   UNL A   1      36.077  33.939  29.135  1.00  0.00     0.016 A 
ATOM     33  C   UNL A   1      34.398  32.679  30.357  1.00  0.00     0.016 A 
ATOM     34  C   UNL A   1      37.094  33.326  29.867  1.00  0.00     0.010 A 
ATOM     35  C   UNL A   1      35.416  32.043  31.066  1.00  0.00     0.010 A 
ATOM     36  C   UNL A   1      36.768  32.349  30.815  1.00  0.00    -0.014 A 
BRANCH  36  37
ATOM     37  C   UNL A   1      37.812  31.488  31.418  1.00  0.00     0.031 A 
ATOM     38  C   UNL A   1      38.262  31.808  32.814  1.00  0.00     0.074 A 
ATOM     39  C   UNL A   1      38.389  30.491  30.726  1.00  0.00     0.049 A 
ATOM     40  N   UNL A   1      39.313  31.390  33.466  1.00  0.00    -0.248 NA
ATOM     41  C   UNL A   1      37.411  32.741  33.568  1.00  0.00     0.031 C 
ATOM     42  C   UNL A   1      37.977  30.030  29.401  1.00  0.00     0.029 A 
ATOM     43  N   UNL A   1      39.473  29.705  31.035  1.00  0.00    -0.354 N 
ATOM     44  C   UNL A   1      39.271  32.035  34.697  1.00  0.00     0.074 A 
ATOM     45  C   UNL A   1      38.097  32.881  34.691  1.00  0.00     0.031 C 
ATOM     46  C   UNL A   1      38.819  29.063  28.997  1.00  0.00     0.029 A 
ATOM     47  C   UNL A   1      39.867  28.886  30.002  1.00  0.00     0.049 A 
ATOM     48  H   UNL A   1      39.922  29.725  31.910  1.00  0.00     0.167 HD
ATOM     49  C   UNL A   1      40.141  31.932  35.730  1.00  0.00     0.034 A 
ATOM     50  C   UNL A   1      40.978  28.131  29.863  1.00  0.00     0.034 A 
ATOM     51  C   UNL A   1      41.311  31.091  35.703  1.00  0.00     0.049 A 
ATOM     52  C   UNL A   1      42.001  28.121  30.979  1.00  0.00     0.074 A 
ATOM     53  C   UNL A   1      42.264  30.909  36.688  1.00  0.00     0.029 A 
ATOM     54  N   UNL A   1      41.696  30.301  34.626  1.00  0.00    -0.354 N 
ATOM     55  N   UNL A   1      41.979  28.759  32.127  1.00  0.00    -0.248 NA
ATOM     56  C   UNL A   1      43.201  27.294  30.781  1.00  0.00     0.031 C 
ATOM     57  C   UNL A   1      43.267  30.079  36.177  1.00  0.00     0.029 A 
ATOM     58  C   UNL A   1      42.888  29.659  34.911  1.00  0.00     0.049 A 
ATOM     59  H   UNL A   1      41.193  30.212  33.784  1.00  0.00     0.167 HD
ATOM     60  C   UNL A   1      43.135  28.372  32.803  1.00  0.00     0.074 A 
ATOM     61  C   UNL A   1      43.836  27.453  31.933  1.00  0.00     0.031 C 
ATOM     62  C   UNL A   1      43.569  28.732  34.037  1.00  0.00     0.034 A 
BRANCH  49  63
ATOM     63  C   UNL A   1      39.896  32.805  36.936  1.00  0.00     0.023 A 
ATOM     64  C   UNL A   1      39.105  32.377  38.015  1.00  0.00     0.031 A 
ATOM     65  C   UNL A   1      40.438  34.101  36.990  1.00  0.00     0.131 A 
ATOM     66  C   UNL A   1      38.819  33.263  39.066  1.00  0.00     0.055 A 
ATOM     67  C   UNL A   1      40.221  34.947  38.079  1.00  0.00     0.041 A 
ATOM     68  F   UNL A   1      41.178  34.576  35.976  1.00  0.00    -0.206 F 
ATOM     69  C   UNL A   1      39.394  34.534  39.120  1.00  0.00     0.022 A 
BRANCH  66  70
ATOM     70  S   UNL A   1      37.560  32.785  40.282  1.00  0.00     0.124 S 
ATOM     71  O   UNL A   1      38.082  31.506  40.757  1.00  0.00    -0.237 OA
ATOM     72  O   UNL A   1      37.608  33.887  41.234  1.00  0.00    -0.237 OA
ATOM     73  O   UNL A   1      36.336  32.694  39.489  1.00  0.00    -0.744 OA
ENDBRANCH  66  70
ENDBRANCH  49  63
BRANCH  50  74
ATOM     74  C   UNL A   1      41.227  27.372  28.601  1.00  0.00     0.023 A 
ATOM     75  C   UNL A   1      40.944  26.000  28.513  1.00  0.00     0.031 A 
ATOM     76  C   UNL A   1      41.809  27.995  27.482  1.00  0.00     0.131 A 
ATOM     77  C   UNL A   1      41.289  25.287  27.354  1.00  0.00     0.055 A 
ATOM     78  C   UNL A   1      42.091  27.294  26.308  1.00  0.00     0.041 A 
ATOM     79  F   UNL A   1      42.112  29.303  27.511  1.00  0.00    -0.206 F 
ATOM     80  C   UNL A   1      41.843  25.927  26.244  1.00  0.00     0.022 A 
BRANCH  77  81
ATOM     81  S   UNL A   1      41.097  23.482  27.358  1.00  0.00     0.124 S 
ATOM     82  O   UNL A   1      39.648  23.340  27.445  1.00  0.00    -0.237 OA
ATOM     83  O   UNL A   1      41.705  23.111  26.085  1.00  0.00    -0.237 OA
ATOM     84  O   UNL A   1      41.838  23.064  28.546  1.00  0.00    -0.744 OA
ENDBRANCH  77  81
ENDBRANCH  50  74
BRANCH  62  85
ATOM     85  C   UNL A   1      44.813  28.064  34.572  1.00  0.00     0.023 A 
ATOM     86  C   UNL A   1      44.778  26.835  35.252  1.00  0.00     0.031 A 
ATOM     87  C   UNL A   1      46.069  28.657  34.338  1.00  0.00     0.131 A 
ATOM     88  C   UNL A   1      45.976  26.250  35.694  1.00  0.00     0.055 A 
ATOM     89  C   UNL A   1      47.258  28.042  34.728  1.00  0.00     0.041 A 
ATOM     90  F   UNL A   1      46.159  29.833  33.696  1.00  0.00    -0.206 F 
ATOM     91  C   UNL A   1      47.215  26.835  35.416  1.00  0.00     0.022 A 
BRANCH  88  92
ATOM     92  S   UNL A   1      45.898  24.735  36.688  1.00  0.00     0.124 S 
ATOM     93  O   UNL A   1      47.311  24.424  36.879  1.00  0.00    -0.237 OA
ATOM     94  O   UNL A   1      45.176  25.175  37.877  1.00  0.00    -0.237 OA
ATOM     95  O   UNL A   1      45.167  23.801  35.834  1.00  0.00    -0.744 OA
ENDBRANCH  88  92
ENDBRANCH  62  85
ENDBRANCH  36  37
ENDBRANCH  29  31
ENDBRANCH  28  29
ENDBRANCH  27  28
ENDBRANCH  26  27
ENDBRANCH  25  26
ENDBRANCH  24  25
ENDBRANCH   1  24
TORSDOF 23
ENDMDL
MODEL 3
REMARK VINA RESULT:      -9.2      1.885      2.206
REMARK SMILES C[C@H]1[C@@H](C(=O)OCCOCCOCCOC(=O)c2ccc(-c3c4nc(c(-c5cc(S(=O)(=O)[O-])ccc5F)c5ccc([nH]5)c(-c5cc(S(=O)(=O)[O-])ccc5F)c5nc(c(-c6cc(S(=O)(=O)[O-])ccc6F)c6ccc3[nH]6)C=C5)C=C4)cc2)CCN1C(=O)c1cncc(O)c1
REMARK SMILES IDX 10 1 9 2 8 3 7 4 6 5 4 6 5 7 3 8 1 9 2 10 83 11 81 12 82 13
REMARK SMILES IDX 84 14 85 15 86 16 87 17 92 18 88 19 90 20 89 21 91 22 11 24
REMARK SMILES IDX 12 25 13 26 14 27 15 28 16 29 17 30 18 31 19 32 80 33 20 34
REMARK SMILES IDX 79 35 21 36 22 37 23 38 73 39 24 40 78 41 72 42 74 43 25 44
REMARK SMILES IDX 77 45 71 46 70 47 26 49 58 50 38 51 57 52 39 53 42 54 56 55
REMARK SMILES IDX 75 56 40 57 41 58 55 60 76 61 43 62 27 63 28 64 36 65 29 66
REMARK SMILES IDX 35 67 37 68 34 69 30 70 31 71 32 72 33 73 59 74 60 75 68 76
REMARK SMILES IDX 61 77 67 78 69 79 66 80 62 81 63 82 64 83 65 84 44 85 45 86
REMARK SMILES IDX 53 87 46 88 52 89 54 90 51 91 47 92 48 93 49 94 50 95
REMARK H PARENT 91 23 74 48 42 59
REMARK Flexibility Score: inf
ROOT
ATOM      1  C   UNL A   1      34.198  30.488  27.250  1.00  0.00     0.188 C 
ENDROOT
BRANCH   1   2
ATOM      2  O   UNL A   1      32.889  29.959  27.358  1.00  0.00    -0.376 OA
BRANCH   2   3
ATOM      3  C   UNL A   1      31.912  30.351  26.409  1.00  0.00     0.202 C 
BRANCH   3   4
ATOM      4  C   UNL A   1      31.830  29.609  25.072  1.00  0.00     0.261 C 
BRANCH   4   5
ATOM      5  O   UNL A   1      30.924  28.487  25.096  1.00  0.00    -0.463 OA
BRANCH   5   6
ATOM      6  C   UNL A   1      31.058  27.570  24.110  1.00  0.00     0.311 C 
ATOM      7  O   UNL A   1      31.743  27.745  23.107  1.00  0.00    -0.252 OA
BRANCH   6   8
ATOM      8  C   UNL A   1      30.349  26.242  24.349  1.00  0.00     0.123 C 
ATOM      9  C   UNL A   1      31.713  25.760  26.539  1.00  0.00     0.032 C 
ATOM     10  C   UNL A   1      30.650  25.310  25.541  1.00  0.00     0.096 C 
ATOM     11  N   UNL A   1      30.897  23.979  24.958  1.00  0.00    -0.335 N 
ATOM     12  C   UNL A   1      30.364  25.359  23.093  1.00  0.00     0.039 C 
ATOM     13  C   UNL A   1      30.851  23.988  23.514  1.00  0.00     0.121 C 
BRANCH  11  14
ATOM     14  C   UNL A   1      31.135  22.761  25.588  1.00  0.00     0.255 C 
ATOM     15  O   UNL A   1      30.332  22.220  26.341  1.00  0.00    -0.269 OA
BRANCH  14  16
ATOM     16  C   UNL A   1      32.420  22.089  25.373  1.00  0.00     0.062 A 
ATOM     17  C   UNL A   1      33.593  22.830  25.369  1.00  0.00     0.125 A 
ATOM     18  C   UNL A   1      32.484  20.709  25.175  1.00  0.00     0.063 A 
ATOM     19  N   UNL A   1      34.824  22.266  25.263  1.00  0.00    -0.260 NA
ATOM     20  C   UNL A   1      33.731  20.114  25.085  1.00  0.00     0.134 A 
ATOM     21  C   UNL A   1      34.861  20.917  25.137  1.00  0.00     0.157 A 
BRANCH  20  22
ATOM     22  O   UNL A   1      33.865  18.765  24.969  1.00  0.00    -0.506 OA
ATOM     23  H   UNL A   1      34.690  18.359  25.150  1.00  0.00     0.293 HD
ENDBRANCH  20  22
ENDBRANCH  14  16
ENDBRANCH  11  14
ENDBRANCH   6   8
ENDBRANCH   5   6
ENDBRANCH   4   5
ENDBRANCH   3   4
ENDBRANCH   2   3
ENDBRANCH   1   2
BRANCH   1  24
ATOM     24  C   UNL A   1      34.589  31.735  28.065  1.00  0.00     0.188 C 
BRANCH  24  25
ATOM     25  O   UNL A   1      34.275  33.036  27.625  1.00  0.00    -0.376 OA
BRANCH  25  26
ATOM     26  C   UNL A   1      33.030  33.623  27.949  1.00  0.00     0.202 C 
BRANCH  26  27
ATOM     27  C   UNL A   1      32.874  35.091  28.370  1.00  0.00     0.261 C 
BRANCH  27  28
ATOM     28  O   UNL A   1      33.822  35.592  29.316  1.00  0.00    -0.460 OA
BRANCH  28  29
ATOM     29  C   UNL A   1      33.651  35.153  30.589  1.00  0.00     0.338 C 
ATOM     30  O   UNL A   1      32.725  35.419  31.343  1.00  0.00    -0.246 OA
BRANCH  29  31
ATOM     31  C   UNL A   1      34.683  34.146  30.881  1.00  0.00     0.060 A 
ATOM     32  C   UNL A   1      34.349  33.010  31.633  1.00  0.00     0.016 A 
ATOM     33  C   UNL A   1      35.987  34.342  30.431  1.00  0.00     0.016 A 
ATOM     34  C   UNL A   1      35.322  32.056  31.935  1.00  0.00     0.010 A 
ATOM     35  C   UNL A   1      36.966  33.405  30.761  1.00  0.00     0.010 A 
ATOM     36  C   UNL A   1      36.644  32.268  31.528  1.00  0.00    -0.014 A 
BRANCH  36  37
ATOM     37  C   UNL A   1      37.750  31.431  32.049  1.00  0.00     0.031 A 
ATOM     38  C   UNL A   1      38.314  31.776  33.398  1.00  0.00     0.074 A 
ATOM     39  C   UNL A   1      38.282  30.434  31.322  1.00  0.00     0.049 A 
ATOM     40  N   UNL A   1      39.424  31.384  33.961  1.00  0.00    -0.248 NA
ATOM     41  C   UNL A   1      37.514  32.706  34.211  1.00  0.00     0.031 C 
ATOM     42  C   UNL A   1      37.766  29.950  30.043  1.00  0.00     0.029 A 
ATOM     43  N   UNL A   1      39.401  29.670  31.546  1.00  0.00    -0.354 N 
ATOM     44  C   UNL A   1      39.476  32.044  35.183  1.00  0.00     0.074 A 
ATOM     45  C   UNL A   1      38.292  32.872  35.269  1.00  0.00     0.031 C 
ATOM     46  C   UNL A   1      38.586  28.991  29.579  1.00  0.00     0.029 A 
ATOM     47  C   UNL A   1      39.719  28.844  30.492  1.00  0.00     0.049 A 
ATOM     48  H   UNL A   1      39.924  29.708  32.378  1.00  0.00     0.167 HD
ATOM     49  C   UNL A   1      40.434  31.969  36.139  1.00  0.00     0.034 A 
ATOM     50  C   UNL A   1      40.827  28.104  30.266  1.00  0.00     0.034 A 
ATOM     51  C   UNL A   1      41.611  31.146  36.020  1.00  0.00     0.049 A 
ATOM     52  C   UNL A   1      41.942  28.125  31.290  1.00  0.00     0.074 A 
ATOM     53  C   UNL A   1      42.649  30.992  36.922  1.00  0.00     0.029 A 
ATOM     54  N   UNL A   1      41.915  30.348  34.923  1.00  0.00    -0.354 N 
ATOM     55  N   UNL A   1      42.008  28.779  32.427  1.00  0.00    -0.248 NA
ATOM     56  C   UNL A   1      43.134  27.315  30.998  1.00  0.00     0.031 C 
ATOM     57  C   UNL A   1      43.618  30.171  36.336  1.00  0.00     0.029 A 
ATOM     58  C   UNL A   1      43.139  29.728  35.112  1.00  0.00     0.049 A 
ATOM     59  H   UNL A   1      41.344  30.240  34.129  1.00  0.00     0.167 HD
ATOM     60  C   UNL A   1      43.224  28.418  33.006  1.00  0.00     0.074 A 
ATOM     61  C   UNL A   1      43.863  27.499  32.089  1.00  0.00     0.031 C 
ATOM     62  C   UNL A   1      43.757  28.801  34.193  1.00  0.00     0.034 A 
BRANCH  49  63
ATOM     63  C   UNL A   1      40.279  32.853  37.351  1.00  0.00     0.023 A 
ATOM     64  C   UNL A   1      39.538  32.451  38.475  1.00  0.00     0.031 A 
ATOM     65  C   UNL A   1      40.857  34.135  37.367  1.00  0.00     0.131 A 
ATOM     66  C   UNL A   1      39.334  33.349  39.534  1.00  0.00     0.055 A 
ATOM     67  C   UNL A   1      40.723  34.991  38.462  1.00  0.00     0.041 A 
ATOM     68  F   UNL A   1      41.552  34.586  36.311  1.00  0.00    -0.206 F 
ATOM     69  C   UNL A   1      39.945  34.605  39.549  1.00  0.00     0.022 A 
BRANCH  66  70
ATOM     70  S   UNL A   1      38.133  32.910  40.821  1.00  0.00     0.124 S 
ATOM     71  O   UNL A   1      38.552  31.553  41.164  1.00  0.00    -0.237 OA
ATOM     72  O   UNL A   1      38.373  33.928  41.836  1.00  0.00    -0.237 OA
ATOM     73  O   UNL A   1      36.846  33.003  40.133  1.00  0.00    -0.744 OA
ENDBRANCH  66  70
ENDBRANCH  49  63
BRANCH  50  74
ATOM     74  C   UNL A   1      40.979  27.333  28.996  1.00  0.00     0.023 A 
ATOM     75  C   UNL A   1      41.959  27.679  28.053  1.00  0.00     0.031 A 
ATOM     76  C   UNL A   1      40.107  26.274  28.681  1.00  0.00     0.131 A 
ATOM     77  C   UNL A   1      42.011  27.008  26.820  1.00  0.00     0.055 A 
ATOM     78  C   UNL A   1      40.204  25.569  27.480  1.00  0.00     0.041 A 
ATOM     79  F   UNL A   1      39.144  25.906  29.540  1.00  0.00    -0.206 F 
ATOM     80  C   UNL A   1      41.153  25.944  26.534  1.00  0.00     0.022 A 
BRANCH  77  81
ATOM     81  S   UNL A   1      43.152  27.619  25.548  1.00  0.00     0.124 S 
ATOM     82  O   UNL A   1      43.809  26.386  25.126  1.00  0.00    -0.237 OA
ATOM     83  O   UNL A   1      42.238  28.223  24.585  1.00  0.00    -0.237 OA
ATOM     84  O   UNL A   1      44.000  28.560  26.276  1.00  0.00    -0.744 OA
ENDBRANCH  77  81
ENDBRANCH  50  74
BRANCH  62  85
ATOM     85  C   UNL A   1      45.054  28.160  34.626  1.00  0.00     0.023 A 
ATOM     86  C   UNL A   1      45.111  26.870  35.180  1.00  0.00     0.031 A 
ATOM     87  C   UNL A   1      46.266  28.848  34.421  1.00  0.00     0.131 A 
ATOM     88  C   UNL A   1      46.354  26.318  35.530  1.00  0.00     0.055 A 
ATOM     89  C   UNL A   1      47.500  28.271  34.717  1.00  0.00     0.041 A 
ATOM     90  F   UNL A   1      46.267  30.084  33.899  1.00  0.00    -0.206 F 
ATOM     91  C   UNL A   1      47.548  27.000  35.281  1.00  0.00     0.022 A 
BRANCH  88  92
ATOM     92  S   UNL A   1      46.394  24.709  36.369  1.00  0.00     0.124 S 
ATOM     93  O   UNL A   1      45.523  24.943  37.516  1.00  0.00    -0.237 OA
ATOM     94  O   UNL A   1      45.873  23.808  35.347  1.00  0.00    -0.237 OA
ATOM     95  O   UNL A   1      47.808  24.525  36.691  1.00  0.00    -0.744 OA
ENDBRANCH  88  92
ENDBRANCH  62  85
ENDBRANCH  36  37
ENDBRANCH  29  31
ENDBRANCH  28  29
ENDBRANCH  27  28
ENDBRANCH  26  27
ENDBRANCH  25  26
ENDBRANCH  24  25
ENDBRANCH   1  24
TORSDOF 23
ENDMDL
