MODEL 1
REMARK VINA RESULT:     -10.9      0.000      0.000
REMARK SMILES C[C@@H]1CC[C@H](C)[N@H+]1Cc1cc2c(cc1Cl)C=C(C(=O)OCCOCCOCCOC(=O)c1ccc(-c3c4nc(c(-c5cc(S(=O)(=O)[O-])ccc5F)c5ccc([nH]5)c(-c5cc(S(=O)(=O)[O-])ccc5F)c5nc(c(-c6cc(S(=O)(=O)[O-])ccc6F)c6ccc3[nH]6)C=C5)C=C4)cc1)[C@@H](C(F)(F)F)O2
REMARK SMILES IDX 25 1 24 2 23 3 22 4 21 5 20 6 18 7 19 8 17 9 9 10 10 11
REMARK SMILES IDX 14 12 11 13 13 14 15 15 12 16 100 17 16 18 95 19 8 20 7 21
REMARK SMILES IDX 6 22 5 23 4 24 3 25 2 26 1 28 96 29 97 30 98 31 99 32 26 33
REMARK SMILES IDX 27 34 28 35 29 36 30 37 31 38 32 39 33 40 94 41 34 42 93 43
REMARK SMILES IDX 35 44 36 45 37 46 87 47 38 48 92 49 86 50 88 51 39 52 91 53
REMARK SMILES IDX 85 54 84 55 40 57 72 58 52 59 71 60 53 61 56 62 70 63 89 64
REMARK SMILES IDX 54 65 55 66 69 68 90 69 57 70 41 71 42 72 50 73 43 74 49 75
REMARK SMILES IDX 51 76 48 77 44 78 45 79 46 80 47 81 73 82 74 83 82 84 75 85
REMARK SMILES IDX 81 86 83 87 80 88 76 89 77 90 78 91 79 92 58 93 59 94 67 95
REMARK SMILES IDX 60 96 66 97 68 98 65 99 61 100 62 101 63 102 64 103
REMARK H PARENT 7 27 88 56 56 67
REMARK Flexibility Score: inf
ROOT
ATOM      1  C   UNL A   1      29.069  32.041  23.689  1.00  0.00     0.188 C 
ENDROOT
BRANCH   1   2
ATOM      2  C   UNL A   1      27.713  31.644  23.066  1.00  0.00     0.188 C 
BRANCH   2   3
ATOM      3  O   UNL A   1      27.850  31.023  21.801  1.00  0.00    -0.376 OA
BRANCH   3   4
ATOM      4  C   UNL A   1      27.756  29.611  21.749  1.00  0.00     0.202 C 
BRANCH   4   5
ATOM      5  C   UNL A   1      28.013  28.799  23.032  1.00  0.00     0.261 C 
BRANCH   5   6
ATOM      6  O   UNL A   1      29.390  28.634  23.404  1.00  0.00    -0.460 OA
BRANCH   6   7
ATOM      7  C   UNL A   1      30.287  28.587  22.397  1.00  0.00     0.338 C 
ATOM      8  O   UNL A   1      30.448  29.433  21.535  1.00  0.00    -0.246 OA
BRANCH   7   9
ATOM      9  C   UNL A   1      31.147  27.394  22.565  1.00  0.00     0.087 C 
ATOM     10  C   UNL A   1      33.030  22.918  23.931  1.00  0.00     0.029 A 
ATOM     11  C   UNL A   1      33.523  24.012  23.182  1.00  0.00     0.058 A 
ATOM     12  C   UNL A   1      31.708  23.001  24.402  1.00  0.00     0.050 A 
ATOM     13  C   UNL A   1      32.725  25.131  22.908  1.00  0.00     0.128 A 
ATOM     14  C   UNL A   1      30.883  24.071  24.041  1.00  0.00     0.033 A 
ATOM     15  Cl  UNL A   1      31.045  21.907  25.564  1.00  0.00    -0.084 Cl
ATOM     16  C   UNL A   1      31.391  25.143  23.310  1.00  0.00     0.019 A 
ATOM     17  O   UNL A   1      33.311  26.174  22.246  1.00  0.00    -0.475 OA
ATOM     18  C   UNL A   1      30.551  26.295  23.038  1.00  0.00     0.027 C 
ATOM     19  C   UNL A   1      32.615  27.459  22.230  1.00  0.00     0.316 C 
BRANCH  10  20
ATOM     20  C   UNL A   1      33.957  21.751  24.239  1.00  0.00     0.301 C 
BRANCH  20  21
ATOM     21  N   UNL A   1      35.130  22.001  25.088  1.00  0.00    -0.327 N 
ATOM     22  C   UNL A   1      34.440  22.711  27.355  1.00  0.00     0.075 C 
ATOM     23  C   UNL A   1      35.053  23.128  26.024  1.00  0.00     0.181 C 
ATOM     24  C   UNL A   1      36.501  23.583  26.199  1.00  0.00     0.071 C 
ATOM     25  C   UNL A   1      37.098  23.318  24.835  1.00  0.00     0.071 C 
ATOM     26  C   UNL A   1      36.432  22.016  24.407  1.00  0.00     0.181 C 
ATOM     27  H   UNL A   1      35.080  21.152  25.650  1.00  0.00     0.348 HD
ATOM     28  C   UNL A   1      37.238  20.788  24.833  1.00  0.00     0.075 C 
ENDBRANCH  20  21
ENDBRANCH  10  20
BRANCH  19  29
ATOM     29  C   UNL A   1      33.349  28.466  23.127  1.00  0.00     0.430 C 
ATOM     30  F   UNL A   1      34.677  28.205  23.187  1.00  0.00    -0.167 F 
ATOM     31  F   UNL A   1      33.227  29.730  22.651  1.00  0.00    -0.167 F 
ATOM     32  F   UNL A   1      32.879  28.466  24.393  1.00  0.00    -0.167 F 
ENDBRANCH  19  29
ENDBRANCH   7   9
ENDBRANCH   6   7
ENDBRANCH   5   6
ENDBRANCH   4   5
ENDBRANCH   3   4
ENDBRANCH   2   3
ENDBRANCH   1   2
BRANCH   1  33
ATOM     33  O   UNL A   1      29.431  31.543  24.973  1.00  0.00    -0.376 OA
BRANCH  33  34
ATOM     34  C   UNL A   1      30.811  31.404  25.295  1.00  0.00     0.202 C 
BRANCH  34  35
ATOM     35  C   UNL A   1      31.349  32.006  26.602  1.00  0.00     0.261 C 
BRANCH  35  36
ATOM     36  O   UNL A   1      32.745  31.774  26.853  1.00  0.00    -0.460 OA
BRANCH  36  37
ATOM     37  C   UNL A   1      33.390  32.763  27.523  1.00  0.00     0.338 C 
ATOM     38  O   UNL A   1      32.941  33.857  27.827  1.00  0.00    -0.246 OA
BRANCH  37  39
ATOM     39  C   UNL A   1      34.682  32.250  28.027  1.00  0.00     0.060 A 
ATOM     40  C   UNL A   1      35.840  33.025  27.965  1.00  0.00     0.016 A 
ATOM     41  C   UNL A   1      34.721  30.962  28.582  1.00  0.00     0.016 A 
ATOM     42  C   UNL A   1      37.035  32.515  28.482  1.00  0.00     0.010 A 
ATOM     43  C   UNL A   1      35.918  30.450  29.086  1.00  0.00     0.010 A 
ATOM     44  C   UNL A   1      37.082  31.230  29.056  1.00  0.00    -0.014 A 
BRANCH  44  45
ATOM     45  C   UNL A   1      38.310  30.785  29.762  1.00  0.00     0.031 A 
ATOM     46  C   UNL A   1      38.641  31.251  31.148  1.00  0.00     0.074 A 
ATOM     47  C   UNL A   1      39.129  29.926  29.124  1.00  0.00     0.049 A 
ATOM     48  N   UNL A   1      39.590  30.833  31.944  1.00  0.00    -0.248 NA
ATOM     49  C   UNL A   1      37.810  32.325  31.713  1.00  0.00     0.031 C 
ATOM     50  C   UNL A   1      38.924  29.446  27.757  1.00  0.00     0.029 A 
ATOM     51  N   UNL A   1      40.276  29.294  29.533  1.00  0.00    -0.354 N 
ATOM     52  C   UNL A   1      39.457  31.564  33.117  1.00  0.00     0.074 A 
ATOM     53  C   UNL A   1      38.367  32.494  32.907  1.00  0.00     0.031 C 
ATOM     54  C   UNL A   1      39.892  28.568  27.452  1.00  0.00     0.029 A 
ATOM     55  C   UNL A   1      40.797  28.435  28.592  1.00  0.00     0.049 A 
ATOM     56  H   UNL A   1      40.688  29.442  30.414  1.00  0.00     0.167 HD
ATOM     57  C   UNL A   1      40.167  31.447  34.265  1.00  0.00     0.034 A 
ATOM     58  C   UNL A   1      41.865  27.614  28.647  1.00  0.00     0.034 A 
ATOM     59  C   UNL A   1      41.258  30.519  34.447  1.00  0.00     0.049 A 
ATOM     60  C   UNL A   1      42.644  27.514  29.935  1.00  0.00     0.074 A 
ATOM     61  C   UNL A   1      42.009  30.299  35.590  1.00  0.00     0.029 A 
ATOM     62  N   UNL A   1      41.760  29.667  33.474  1.00  0.00    -0.354 N 
ATOM     63  N   UNL A   1      42.425  28.118  31.078  1.00  0.00    -0.248 NA
ATOM     64  C   UNL A   1      43.797  26.603  29.952  1.00  0.00     0.031 C 
ATOM     65  C   UNL A   1      43.003  29.368  35.290  1.00  0.00     0.029 A 
ATOM     66  C   UNL A   1      42.825  28.940  33.984  1.00  0.00     0.049 A 
ATOM     67  H   UNL A   1      41.412  29.589  32.556  1.00  0.00     0.167 HD
ATOM     68  C   UNL A   1      43.382  27.626  31.962  1.00  0.00     0.074 A 
ATOM     69  C   UNL A   1      44.172  26.663  31.224  1.00  0.00     0.031 C 
ATOM     70  C   UNL A   1      43.585  27.948  33.264  1.00  0.00     0.034 A 
BRANCH  57  71
ATOM     71  C   UNL A   1      39.787  32.293  35.456  1.00  0.00     0.023 A 
ATOM     72  C   UNL A   1      40.450  33.512  35.700  1.00  0.00     0.031 A 
ATOM     73  C   UNL A   1      38.923  31.796  36.447  1.00  0.00     0.131 A 
ATOM     74  C   UNL A   1      40.280  34.162  36.930  1.00  0.00     0.055 A 
ATOM     75  C   UNL A   1      38.724  32.469  37.653  1.00  0.00     0.041 A 
ATOM     76  F   UNL A   1      38.273  30.634  36.264  1.00  0.00    -0.206 F 
ATOM     77  C   UNL A   1      39.418  33.649  37.905  1.00  0.00     0.022 A 
BRANCH  74  78
ATOM     78  S   UNL A   1      41.234  35.648  37.345  1.00  0.00     0.124 S 
ATOM     79  O   UNL A   1      41.601  35.389  38.736  1.00  0.00    -0.237 OA
ATOM     80  O   UNL A   1      42.333  35.582  36.387  1.00  0.00    -0.237 OA
ATOM     81  O   UNL A   1      40.287  36.739  37.146  1.00  0.00    -0.744 OA
ENDBRANCH  74  78
ENDBRANCH  57  71
BRANCH  58  82
ATOM     82  C   UNL A   1      42.188  26.755  27.469  1.00  0.00     0.023 A 
ATOM     83  C   UNL A   1      41.773  25.413  27.411  1.00  0.00     0.031 A 
ATOM     84  C   UNL A   1      42.991  27.243  26.422  1.00  0.00     0.131 A 
ATOM     85  C   UNL A   1      42.204  24.594  26.359  1.00  0.00     0.055 A 
ATOM     86  C   UNL A   1      43.358  26.443  25.340  1.00  0.00     0.041 A 
ATOM     87  F   UNL A   1      43.430  28.511  26.442  1.00  0.00    -0.206 F 
ATOM     88  C   UNL A   1      42.977  25.106  25.313  1.00  0.00     0.022 A 
BRANCH  85  89
ATOM     89  S   UNL A   1      41.885  22.808  26.381  1.00  0.00     0.124 S 
ATOM     90  O   UNL A   1      42.539  22.397  27.619  1.00  0.00    -0.237 OA
ATOM     91  O   UNL A   1      40.425  22.765  26.394  1.00  0.00    -0.237 OA
ATOM     92  O   UNL A   1      42.506  22.333  25.149  1.00  0.00    -0.744 OA
ENDBRANCH  85  89
ENDBRANCH  58  82
BRANCH  70  93
ATOM     93  C   UNL A   1      44.680  27.242  34.031  1.00  0.00     0.023 A 
ATOM     94  C   UNL A   1      44.373  26.096  34.792  1.00  0.00     0.031 A 
ATOM     95  C   UNL A   1      45.971  27.785  34.145  1.00  0.00     0.131 A 
ATOM     96  C   UNL A   1      45.327  25.559  35.665  1.00  0.00     0.055 A 
ATOM     97  C   UNL A   1      46.936  27.215  34.977  1.00  0.00     0.041 A 
ATOM     98  F   UNL A   1      46.312  28.885  33.453  1.00  0.00    -0.206 F 
ATOM     99  C   UNL A   1      46.610  26.107  35.754  1.00  0.00     0.022 A 
BRANCH  96 100
ATOM    100  S   UNL A   1      44.910  24.196  36.788  1.00  0.00     0.124 S 
ATOM    101  O   UNL A   1      43.990  24.843  37.719  1.00  0.00    -0.237 OA
ATOM    102  O   UNL A   1      44.299  23.227  35.881  1.00  0.00    -0.237 OA
ATOM    103  O   UNL A   1      46.194  23.800  37.356  1.00  0.00    -0.744 OA
ENDBRANCH  96 100
ENDBRANCH  70  93
ENDBRANCH  44  45
ENDBRANCH  37  39
ENDBRANCH  36  37
ENDBRANCH  35  36
ENDBRANCH  34  35
ENDBRANCH  33  34
ENDBRANCH   1  33
TORSDOF 23
ENDMDL
MODEL 2
REMARK VINA RESULT:     -10.7      0.929      7.371
REMARK SMILES C[C@@H]1CC[C@H](C)[N@H+]1Cc1cc2c(cc1Cl)C=C(C(=O)OCCOCCOCCOC(=O)c1ccc(-c3c4nc(c(-c5cc(S(=O)(=O)[O-])ccc5F)c5ccc([nH]5)c(-c5cc(S(=O)(=O)[O-])ccc5F)c5nc(c(-c6cc(S(=O)(=O)[O-])ccc6F)c6ccc3[nH]6)C=C5)C=C4)cc1)[C@@H](C(F)(F)F)O2
REMARK SMILES IDX 25 1 24 2 23 3 22 4 21 5 20 6 18 7 19 8 17 9 9 10 10 11
REMARK SMILES IDX 14 12 11 13 13 14 15 15 12 16 100 17 16 18 95 19 8 20 7 21
REMARK SMILES IDX 6 22 5 23 4 24 3 25 2 26 1 28 96 29 97 30 98 31 99 32 26 33
REMARK SMILES IDX 27 34 28 35 29 36 30 37 31 38 32 39 33 40 94 41 34 42 93 43
REMARK SMILES IDX 35 44 36 45 37 46 87 47 38 48 92 49 86 50 88 51 39 52 91 53
REMARK SMILES IDX 85 54 84 55 40 57 72 58 52 59 71 60 53 61 56 62 70 63 89 64
REMARK SMILES IDX 54 65 55 66 69 68 90 69 57 70 41 71 42 72 50 73 43 74 49 75
REMARK SMILES IDX 51 76 48 77 44 78 45 79 46 80 47 81 73 82 74 83 82 84 75 85
REMARK SMILES IDX 81 86 83 87 80 88 76 89 77 90 78 91 79 92 58 93 59 94 67 95
REMARK SMILES IDX 60 96 66 97 68 98 65 99 61 100 62 101 63 102 64 103
REMARK H PARENT 7 27 88 56 56 67
REMARK Flexibility Score: inf
ROOT
ATOM      1  C   UNL A   1      29.504  32.353  24.063  1.00  0.00     0.188 C 
ENDROOT
BRANCH   1   2
ATOM      2  C   UNL A   1      28.199  32.107  23.277  1.00  0.00     0.188 C 
BRANCH   2   3
ATOM      3  O   UNL A   1      28.395  32.104  21.875  1.00  0.00    -0.376 OA
BRANCH   3   4
ATOM      4  C   UNL A   1      28.658  30.859  21.251  1.00  0.00     0.202 C 
BRANCH   4   5
ATOM      5  C   UNL A   1      29.967  30.121  21.583  1.00  0.00     0.261 C 
BRANCH   5   6
ATOM      6  O   UNL A   1      29.879  28.690  21.656  1.00  0.00    -0.460 OA
BRANCH   6   7
ATOM      7  C   UNL A   1      29.873  28.145  22.890  1.00  0.00     0.338 C 
ATOM      8  O   UNL A   1      29.145  28.463  23.815  1.00  0.00    -0.246 OA
BRANCH   7   9
ATOM      9  C   UNL A   1      30.812  27.002  22.924  1.00  0.00     0.087 C 
ATOM     10  C   UNL A   1      33.091  22.616  23.933  1.00  0.00     0.029 A 
ATOM     11  C   UNL A   1      33.432  23.754  23.164  1.00  0.00     0.058 A 
ATOM     12  C   UNL A   1      31.831  22.610  24.555  1.00  0.00     0.050 A 
ATOM     13  C   UNL A   1      32.545  24.830  23.017  1.00  0.00     0.128 A 
ATOM     14  C   UNL A   1      30.910  23.637  24.323  1.00  0.00     0.033 A 
ATOM     15  Cl  UNL A   1      31.370  21.453  25.753  1.00  0.00    -0.084 Cl
ATOM     16  C   UNL A   1      31.269  24.753  23.570  1.00  0.00     0.019 A 
ATOM     17  O   UNL A   1      32.990  25.921  22.322  1.00  0.00    -0.475 OA
ATOM     18  C   UNL A   1      30.338  25.859  23.430  1.00  0.00     0.027 C 
ATOM     19  C   UNL A   1      32.225  27.162  22.424  1.00  0.00     0.316 C 
BRANCH  10  20
ATOM     20  C   UNL A   1      34.112  21.500  24.098  1.00  0.00     0.301 C 
BRANCH  20  21
ATOM     21  N   UNL A   1      35.282  21.750  24.952  1.00  0.00    -0.327 N 
ATOM     22  C   UNL A   1      34.584  22.332  27.252  1.00  0.00     0.075 C 
ATOM     23  C   UNL A   1      35.175  22.829  25.939  1.00  0.00     0.181 C 
ATOM     24  C   UNL A   1      36.608  23.323  26.127  1.00  0.00     0.071 C 
ATOM     25  C   UNL A   1      37.205  23.140  24.749  1.00  0.00     0.071 C 
ATOM     26  C   UNL A   1      36.578  21.838  24.265  1.00  0.00     0.181 C 
ATOM     27  H   UNL A   1      35.264  20.875  25.475  1.00  0.00     0.348 HD
ATOM     28  C   UNL A   1      37.426  20.619  24.631  1.00  0.00     0.075 C 
ENDBRANCH  20  21
ENDBRANCH  10  20
BRANCH  19  29
ATOM     29  C   UNL A   1      33.001  28.190  23.260  1.00  0.00     0.430 C 
ATOM     30  F   UNL A   1      33.079  29.388  22.630  1.00  0.00    -0.167 F 
ATOM     31  F   UNL A   1      32.391  28.421  24.448  1.00  0.00    -0.167 F 
ATOM     32  F   UNL A   1      34.263  27.790  23.527  1.00  0.00    -0.167 F 
ENDBRANCH  19  29
ENDBRANCH   7   9
ENDBRANCH   6   7
ENDBRANCH   5   6
ENDBRANCH   4   5
ENDBRANCH   3   4
ENDBRANCH   2   3
ENDBRANCH   1   2
BRANCH   1  33
ATOM     33  O   UNL A   1      29.790  31.578  25.223  1.00  0.00    -0.376 OA
BRANCH  33  34
ATOM     34  C   UNL A   1      31.119  31.564  25.734  1.00  0.00     0.202 C 
BRANCH  34  35
ATOM     35  C   UNL A   1      31.485  32.469  26.921  1.00  0.00     0.261 C 
BRANCH  35  36
ATOM     36  O   UNL A   1      32.594  33.354  26.697  1.00  0.00    -0.460 OA
BRANCH  36  37
ATOM     37  C   UNL A   1      33.058  33.999  27.798  1.00  0.00     0.338 C 
ATOM     38  O   UNL A   1      32.530  34.938  28.374  1.00  0.00    -0.246 OA
BRANCH  37  39
ATOM     39  C   UNL A   1      34.221  33.266  28.340  1.00  0.00     0.060 A 
ATOM     40  C   UNL A   1      35.450  33.898  28.529  1.00  0.00     0.016 A 
ATOM     41  C   UNL A   1      34.063  31.913  28.674  1.00  0.00     0.016 A 
ATOM     42  C   UNL A   1      36.516  33.178  29.075  1.00  0.00     0.010 A 
ATOM     43  C   UNL A   1      35.133  31.191  29.208  1.00  0.00     0.010 A 
ATOM     44  C   UNL A   1      36.365  31.824  29.428  1.00  0.00    -0.014 A 
BRANCH  44  45
ATOM     45  C   UNL A   1      37.447  31.132  30.174  1.00  0.00     0.031 A 
ATOM     46  C   UNL A   1      38.301  30.078  29.536  1.00  0.00     0.074 A 
ATOM     47  C   UNL A   1      37.657  31.489  31.456  1.00  0.00     0.049 A 
ATOM     48  N   UNL A   1      39.373  29.500  30.011  1.00  0.00    -0.248 NA
ATOM     49  C   UNL A   1      37.902  29.605  28.202  1.00  0.00     0.031 C 
ATOM     50  C   UNL A   1      36.854  32.470  32.187  1.00  0.00     0.029 A 
ATOM     51  N   UNL A   1      38.606  31.089  32.363  1.00  0.00    -0.354 N 
ATOM     52  C   UNL A   1      39.801  28.618  29.027  1.00  0.00     0.074 A 
ATOM     53  C   UNL A   1      38.838  28.697  27.949  1.00  0.00     0.031 C 
ATOM     54  C   UNL A   1      37.364  32.624  33.418  1.00  0.00     0.029 A 
ATOM     55  C   UNL A   1      38.519  31.740  33.573  1.00  0.00     0.049 A 
ATOM     56  H   UNL A   1      39.283  30.403  32.169  1.00  0.00     0.167 HD
ATOM     57  C   UNL A   1      40.909  27.838  29.023  1.00  0.00     0.034 A 
ATOM     58  C   UNL A   1      39.293  31.657  34.675  1.00  0.00     0.034 A 
ATOM     59  C   UNL A   1      41.849  27.768  30.116  1.00  0.00     0.049 A 
ATOM     60  C   UNL A   1      40.512  30.770  34.644  1.00  0.00     0.074 A 
ATOM     61  C   UNL A   1      43.025  27.038  30.184  1.00  0.00     0.029 A 
ATOM     62  N   UNL A   1      41.730  28.437  31.325  1.00  0.00    -0.354 N 
ATOM     63  N   UNL A   1      40.975  30.041  33.657  1.00  0.00    -0.248 NA
ATOM     64  C   UNL A   1      41.330  30.713  35.864  1.00  0.00     0.031 C 
ATOM     65  C   UNL A   1      43.577  27.211  31.453  1.00  0.00     0.029 A 
ATOM     66  C   UNL A   1      42.795  28.116  32.152  1.00  0.00     0.049 A 
ATOM     67  H   UNL A   1      40.996  29.050  31.561  1.00  0.00     0.167 HD
ATOM     68  C   UNL A   1      42.161  29.477  34.121  1.00  0.00     0.074 A 
ATOM     69  C   UNL A   1      42.351  29.962  35.471  1.00  0.00     0.031 C 
ATOM     70  C   UNL A   1      43.010  28.633  33.482  1.00  0.00     0.034 A 
BRANCH  57  71
ATOM     71  C   UNL A   1      41.227  27.017  27.797  1.00  0.00     0.023 A 
ATOM     72  C   UNL A   1      41.048  25.620  27.814  1.00  0.00     0.031 A 
ATOM     73  C   UNL A   1      41.892  27.589  26.699  1.00  0.00     0.131 A 
ATOM     74  C   UNL A   1      41.580  24.838  26.779  1.00  0.00     0.055 A 
ATOM     75  C   UNL A   1      42.383  26.810  25.650  1.00  0.00     0.041 A 
ATOM     76  F   UNL A   1      42.093  28.916  26.640  1.00  0.00    -0.206 F 
ATOM     77  C   UNL A   1      42.243  25.426  25.696  1.00  0.00     0.022 A 
BRANCH  74  78
ATOM     78  S   UNL A   1      41.509  23.026  26.840  1.00  0.00     0.124 S 
ATOM     79  O   UNL A   1      40.070  22.780  26.762  1.00  0.00    -0.237 OA
ATOM     80  O   UNL A   1      42.271  22.652  25.653  1.00  0.00    -0.237 OA
ATOM     81  O   UNL A   1      42.127  22.695  28.119  1.00  0.00    -0.744 OA
ENDBRANCH  74  78
ENDBRANCH  57  71
BRANCH  58  82
ATOM     82  C   UNL A   1      38.980  32.516  35.855  1.00  0.00     0.023 A 
ATOM     83  C   UNL A   1      39.471  33.830  35.950  1.00  0.00     0.031 A 
ATOM     84  C   UNL A   1      38.253  32.003  36.945  1.00  0.00     0.131 A 
ATOM     85  C   UNL A   1      39.276  34.565  37.126  1.00  0.00     0.055 A 
ATOM     86  C   UNL A   1      38.000  32.765  38.086  1.00  0.00     0.041 A 
ATOM     87  F   UNL A   1      37.781  30.747  36.912  1.00  0.00    -0.206 F 
ATOM     88  C   UNL A   1      38.525  34.049  38.187  1.00  0.00     0.022 A 
BRANCH  85  89
ATOM     89  S   UNL A   1      40.097  36.165  37.369  1.00  0.00     0.124 S 
ATOM     90  O   UNL A   1      41.425  35.760  37.816  1.00  0.00    -0.237 OA
ATOM     91  O   UNL A   1      40.029  36.744  36.030  1.00  0.00    -0.237 OA
ATOM     92  O   UNL A   1      39.267  36.828  38.371  1.00  0.00    -0.744 OA
ENDBRANCH  85  89
ENDBRANCH  58  82
BRANCH  70  93
ATOM     93  C   UNL A   1      44.266  28.181  34.192  1.00  0.00     0.023 A 
ATOM     94  C   UNL A   1      44.214  27.079  35.070  1.00  0.00     0.031 A 
ATOM     95  C   UNL A   1      45.457  28.924  34.132  1.00  0.00     0.131 A 
ATOM     96  C   UNL A   1      45.314  26.782  35.885  1.00  0.00     0.055 A 
ATOM     97  C   UNL A   1      46.568  28.592  34.908  1.00  0.00     0.041 A 
ATOM     98  F   UNL A   1      45.554  29.991  33.322  1.00  0.00    -0.206 F 
ATOM     99  C   UNL A   1      46.494  27.527  35.801  1.00  0.00     0.022 A 
BRANCH  96 100
ATOM    100  S   UNL A   1      45.220  25.486  37.151  1.00  0.00     0.124 S 
ATOM    101  O   UNL A   1      44.206  24.594  36.596  1.00  0.00    -0.237 OA
ATOM    102  O   UNL A   1      46.582  24.957  37.151  1.00  0.00    -0.237 OA
ATOM    103  O   UNL A   1      44.825  26.201  38.360  1.00  0.00    -0.744 OA
ENDBRANCH  96 100
ENDBRANCH  70  93
ENDBRANCH  44  45
ENDBRANCH  37  39
ENDBRANCH  36  37
ENDBRANCH  35  36
ENDBRANCH  34  35
ENDBRANCH  33  34
ENDBRANCH   1  33
TORSDOF 23
ENDMDL
MODEL 3
REMARK VINA RESULT:     -10.7      2.353      7.580
REMARK SMILES C[C@@H]1CC[C@H](C)[N@H+]1Cc1cc2c(cc1Cl)C=C(C(=O)OCCOCCOCCOC(=O)c1ccc(-c3c4nc(c(-c5cc(S(=O)(=O)[O-])ccc5F)c5ccc([nH]5)c(-c5cc(S(=O)(=O)[O-])ccc5F)c5nc(c(-c6cc(S(=O)(=O)[O-])ccc6F)c6ccc3[nH]6)C=C5)C=C4)cc1)[C@@H](C(F)(F)F)O2
REMARK SMILES IDX 25 1 24 2 23 3 22 4 21 5 20 6 18 7 19 8 17 9 9 10 10 11
REMARK SMILES IDX 14 12 11 13 13 14 15 15 12 16 100 17 16 18 95 19 8 20 7 21
REMARK SMILES IDX 6 22 5 23 4 24 3 25 2 26 1 28 96 29 97 30 98 31 99 32 26 33
REMARK SMILES IDX 27 34 28 35 29 36 30 37 31 38 32 39 33 40 94 41 34 42 93 43
REMARK SMILES IDX 35 44 36 45 37 46 87 47 38 48 92 49 86 50 88 51 39 52 91 53
REMARK SMILES IDX 85 54 84 55 40 57 72 58 52 59 71 60 53 61 56 62 70 63 89 64
REMARK SMILES IDX 54 65 55 66 69 68 90 69 57 70 41 71 42 72 50 73 43 74 49 75
REMARK SMILES IDX 51 76 48 77 44 78 45 79 46 80 47 81 73 82 74 83 82 84 75 85
REMARK SMILES IDX 81 86 83 87 80 88 76 89 77 90 78 91 79 92 58 93 59 94 67 95
REMARK SMILES IDX 60 96 66 97 68 98 65 99 61 100 62 101 63 102 64 103
REMARK H PARENT 7 27 88 56 56 67
REMARK Flexibility Score: inf
ROOT
ATOM      1  C   UNL A   1      34.312  29.598  27.009  1.00  0.00     0.188 C 
ENDROOT
BRANCH   1   2
ATOM      2  C   UNL A   1      33.449  28.332  27.198  1.00  0.00     0.188 C 
BRANCH   2   3
ATOM      3  O   UNL A   1      32.313  28.310  26.354  1.00  0.00    -0.376 OA
BRANCH   3   4
ATOM      4  C   UNL A   1      31.663  29.542  26.095  1.00  0.00     0.202 C 
BRANCH   4   5
ATOM      5  C   UNL A   1      31.381  29.944  24.636  1.00  0.00     0.261 C 
BRANCH   5   6
ATOM      6  O   UNL A   1      30.165  29.433  24.069  1.00  0.00    -0.460 OA
BRANCH   6   7
ATOM      7  C   UNL A   1      30.265  28.836  22.862  1.00  0.00     0.338 C 
ATOM      8  O   UNL A   1      30.153  29.380  21.778  1.00  0.00    -0.246 OA
BRANCH   7   9
ATOM      9  C   UNL A   1      30.658  27.422  23.048  1.00  0.00     0.087 C 
ATOM     10  C   UNL A   1      31.354  22.775  24.884  1.00  0.00     0.029 A 
ATOM     11  C   UNL A   1      31.787  23.454  23.721  1.00  0.00     0.058 A 
ATOM     12  C   UNL A   1      30.499  23.469  25.757  1.00  0.00     0.050 A 
ATOM     13  C   UNL A   1      31.372  24.764  23.442  1.00  0.00     0.128 A 
ATOM     14  C   UNL A   1      30.007  24.735  25.424  1.00  0.00     0.033 A 
ATOM     15  Cl  UNL A   1      30.112  22.913  27.347  1.00  0.00    -0.084 Cl
ATOM     16  C   UNL A   1      30.452  25.390  24.279  1.00  0.00     0.019 A 
ATOM     17  O   UNL A   1      31.904  25.369  22.336  1.00  0.00    -0.475 OA
ATOM     18  C   UNL A   1      30.014  26.747  24.007  1.00  0.00     0.027 C 
ATOM     19  C   UNL A   1      31.745  26.815  22.199  1.00  0.00     0.316 C 
BRANCH  10  20
ATOM     20  C   UNL A   1      31.876  21.372  25.161  1.00  0.00     0.301 C 
BRANCH  20  21
ATOM     21  N   UNL A   1      33.282  21.220  25.558  1.00  0.00    -0.327 N 
ATOM     22  C   UNL A   1      33.660  22.130  27.827  1.00  0.00     0.075 C 
ATOM     23  C   UNL A   1      33.884  22.311  26.331  1.00  0.00     0.181 C 
ATOM     24  C   UNL A   1      35.370  22.257  25.982  1.00  0.00     0.071 C 
ATOM     25  C   UNL A   1      35.355  21.801  24.540  1.00  0.00     0.071 C 
ATOM     26  C   UNL A   1      34.211  20.796  24.501  1.00  0.00     0.181 C 
ATOM     27  H   UNL A   1      33.163  20.439  26.203  1.00  0.00     0.348 HD
ATOM     28  C   UNL A   1      34.686  19.371  24.791  1.00  0.00     0.075 C 
ENDBRANCH  20  21
ENDBRANCH  10  20
BRANCH  19  29
ATOM     29  C   UNL A   1      33.091  27.516  22.428  1.00  0.00     0.430 C 
ATOM     30  F   UNL A   1      33.443  27.506  23.736  1.00  0.00    -0.167 F 
ATOM     31  F   UNL A   1      34.092  26.895  21.756  1.00  0.00    -0.167 F 
ATOM     32  F   UNL A   1      33.076  28.805  22.023  1.00  0.00    -0.167 F 
ENDBRANCH  19  29
ENDBRANCH   7   9
ENDBRANCH   6   7
ENDBRANCH   5   6
ENDBRANCH   4   5
ENDBRANCH   3   4
ENDBRANCH   2   3
ENDBRANCH   1   2
BRANCH   1  33
ATOM     33  O   UNL A   1      34.297  30.620  28.001  1.00  0.00    -0.376 OA
BRANCH  33  34
ATOM     34  C   UNL A   1      34.420  31.979  27.593  1.00  0.00     0.202 C 
BRANCH  34  35
ATOM     35  C   UNL A   1      33.231  32.936  27.774  1.00  0.00     0.261 C 
BRANCH  35  36
ATOM     36  O   UNL A   1      33.582  34.311  28.000  1.00  0.00    -0.460 OA
BRANCH  36  37
ATOM     37  C   UNL A   1      33.512  34.727  29.290  1.00  0.00     0.338 C 
ATOM     38  O   UNL A   1      32.615  35.380  29.802  1.00  0.00    -0.246 OA
BRANCH  37  39
ATOM     39  C   UNL A   1      34.601  34.098  30.067  1.00  0.00     0.060 A 
ATOM     40  C   UNL A   1      34.326  33.251  31.140  1.00  0.00     0.016 A 
ATOM     41  C   UNL A   1      35.927  34.363  29.697  1.00  0.00     0.016 A 
ATOM     42  C   UNL A   1      35.383  32.650  31.829  1.00  0.00     0.010 A 
ATOM     43  C   UNL A   1      36.983  33.772  30.395  1.00  0.00     0.010 A 
ATOM     44  C   UNL A   1      36.718  32.896  31.456  1.00  0.00    -0.014 A 
BRANCH  44  45
ATOM     45  C   UNL A   1      37.813  32.109  32.077  1.00  0.00     0.031 A 
ATOM     46  C   UNL A   1      38.493  30.987  31.352  1.00  0.00     0.074 A 
ATOM     47  C   UNL A   1      38.198  32.437  33.326  1.00  0.00     0.049 A 
ATOM     48  N   UNL A   1      39.558  30.315  31.704  1.00  0.00    -0.248 NA
ATOM     49  C   UNL A   1      37.906  30.559  30.073  1.00  0.00     0.031 C 
ATOM     50  C   UNL A   1      37.571  33.481  34.139  1.00  0.00     0.029 A 
ATOM     51  N   UNL A   1      39.204  31.951  34.122  1.00  0.00    -0.354 N 
ATOM     52  C   UNL A   1      39.792  29.405  30.681  1.00  0.00     0.074 A 
ATOM     53  C   UNL A   1      38.724  29.574  29.719  1.00  0.00     0.031 C 
ATOM     54  C   UNL A   1      38.229  33.582  35.304  1.00  0.00     0.029 A 
ATOM     55  C   UNL A   1      39.312  32.600  35.331  1.00  0.00     0.049 A 
ATOM     56  H   UNL A   1      39.792  31.209  33.855  1.00  0.00     0.167 HD
ATOM     57  C   UNL A   1      40.820  28.530  30.555  1.00  0.00     0.034 A 
ATOM     58  C   UNL A   1      40.195  32.443  36.338  1.00  0.00     0.034 A 
ATOM     59  C   UNL A   1      41.868  28.371  31.534  1.00  0.00     0.049 A 
ATOM     60  C   UNL A   1      41.320  31.452  36.173  1.00  0.00     0.074 A 
ATOM     61  C   UNL A   1      42.975  27.540  31.472  1.00  0.00     0.029 A 
ATOM     62  N   UNL A   1      41.945  29.041  32.746  1.00  0.00    -0.354 N 
ATOM     63  N   UNL A   1      41.603  30.691  35.143  1.00  0.00    -0.248 NA
ATOM     64  C   UNL A   1      42.263  31.316  37.293  1.00  0.00     0.031 C 
ATOM     65  C   UNL A   1      43.680  27.657  32.669  1.00  0.00     0.029 A 
ATOM     66  C   UNL A   1      43.065  28.623  33.449  1.00  0.00     0.049 A 
ATOM     67  H   UNL A   1      41.300  29.715  33.062  1.00  0.00     0.167 HD
ATOM     68  C   UNL A   1      42.780  30.022  35.471  1.00  0.00     0.074 A 
ATOM     69  C   UNL A   1      43.164  30.481  36.790  1.00  0.00     0.031 C 
ATOM     70  C   UNL A   1      43.473  29.111  34.744  1.00  0.00     0.034 A 
BRANCH  57  71
ATOM     71  C   UNL A   1      40.923  27.691  29.304  1.00  0.00     0.023 A 
ATOM     72  C   UNL A   1      41.860  28.022  28.305  1.00  0.00     0.031 A 
ATOM     73  C   UNL A   1      39.966  26.703  29.017  1.00  0.00     0.131 A 
ATOM     74  C   UNL A   1      41.781  27.409  27.048  1.00  0.00     0.055 A 
ATOM     75  C   UNL A   1      39.919  26.064  27.778  1.00  0.00     0.041 A 
ATOM     76  F   UNL A   1      39.047  26.357  29.935  1.00  0.00    -0.206 F 
ATOM     77  C   UNL A   1      40.818  26.430  26.780  1.00  0.00     0.022 A 
BRANCH  74  78
ATOM     78  S   UNL A   1      42.866  27.918  25.685  1.00  0.00     0.124 S 
ATOM     79  O   UNL A   1      41.935  28.630  24.812  1.00  0.00    -0.237 OA
ATOM     80  O   UNL A   1      43.843  28.757  26.372  1.00  0.00    -0.237 OA
ATOM     81  O   UNL A   1      43.376  26.659  25.155  1.00  0.00    -0.744 OA
ENDBRANCH  74  78
ENDBRANCH  57  71
BRANCH  58  82
ATOM     82  C   UNL A   1      40.094  33.318  37.543  1.00  0.00     0.023 A 
ATOM     83  C   UNL A   1      39.228  33.000  38.604  1.00  0.00     0.031 A 
ATOM     84  C   UNL A   1      40.802  34.532  37.610  1.00  0.00     0.131 A 
ATOM     85  C   UNL A   1      39.054  33.906  39.658  1.00  0.00     0.055 A 
ATOM     86  C   UNL A   1      40.679  35.398  38.697  1.00  0.00     0.041 A 
ATOM     87  F   UNL A   1      41.625  34.891  36.613  1.00  0.00    -0.206 F 
ATOM     88  C   UNL A   1      39.789  35.094  39.722  1.00  0.00     0.022 A 
BRANCH  85  89
ATOM     89  S   UNL A   1      37.773  33.634  40.914  1.00  0.00     0.124 S 
ATOM     90  O   UNL A   1      36.707  33.018  40.132  1.00  0.00    -0.237 OA
ATOM     91  O   UNL A   1      38.458  32.752  41.855  1.00  0.00    -0.237 OA
ATOM     92  O   UNL A   1      37.495  34.976  41.417  1.00  0.00    -0.744 OA
ENDBRANCH  85  89
ENDBRANCH  58  82
BRANCH  70  93
ATOM     93  C   UNL A   1      44.757  28.546  35.309  1.00  0.00     0.023 A 
ATOM     94  C   UNL A   1      44.715  27.402  36.132  1.00  0.00     0.031 A 
ATOM     95  C   UNL A   1      45.983  29.220  35.175  1.00  0.00     0.131 A 
ATOM     96  C   UNL A   1      45.863  26.996  36.824  1.00  0.00     0.055 A 
ATOM     97  C   UNL A   1      47.137  28.779  35.825  1.00  0.00     0.041 A 
ATOM     98  F   UNL A   1      46.075  30.323  34.414  1.00  0.00    -0.206 F 
ATOM     99  C   UNL A   1      47.076  27.672  36.667  1.00  0.00     0.022 A 
BRANCH  96 100
ATOM    100  S   UNL A   1      45.801  25.638  38.026  1.00  0.00     0.124 S 
ATOM    101  O   UNL A   1      44.394  25.250  37.972  1.00  0.00    -0.237 OA
ATOM    102  O   UNL A   1      46.735  24.675  37.450  1.00  0.00    -0.237 OA
ATOM    103  O   UNL A   1      46.229  26.255  39.278  1.00  0.00    -0.744 OA
ENDBRANCH  96 100
ENDBRANCH  70  93
ENDBRANCH  44  45
ENDBRANCH  37  39
ENDBRANCH  36  37
ENDBRANCH  35  36
ENDBRANCH  34  35
ENDBRANCH  33  34
ENDBRANCH   1  33
TORSDOF 23
ENDMDL
