MODEL 1
REMARK VINA RESULT:     -10.3      0.000      0.000
REMARK SMILES O=C(OCCOCCOCCOC(=O)[C@@H]1[C@H](C(=O)Nc2ccccc2OC(F)F)[C@@H]2C=C[C@H]1C2)c1ccc(-c2c3nc(c(-c4cc(S(=O)(=O)[O-])ccc4F)c4ccc([nH]4)c(-c4cc(S(=O)(=O)[O-])ccc4F)c4nc(c(-c5cc(S(=O)(=O)[O-])ccc5F)c5ccc2[nH]5)C=C4)C=C3)cc1
REMARK SMILES IDX 8 1 7 2 6 3 5 4 4 5 3 6 2 7 1 8 35 9 36 10 97 11 37 12 96 13
REMARK SMILES IDX 38 14 39 15 40 16 90 17 41 18 95 19 89 20 91 21 42 22 94 23
REMARK SMILES IDX 88 24 87 25 43 27 75 28 55 29 74 30 56 31 59 32 73 33 92 34
REMARK SMILES IDX 57 35 58 36 72 38 93 39 60 40 44 41 45 42 53 43 46 44 52 45
REMARK SMILES IDX 54 46 51 47 47 48 48 49 49 50 50 51 76 52 77 53 85 54 78 55
REMARK SMILES IDX 84 56 86 57 83 58 79 59 80 60 81 61 82 62 61 63 62 64 70 65
REMARK SMILES IDX 63 66 69 67 71 68 68 69 64 70 65 71 66 72 67 73 9 74 10 75
REMARK SMILES IDX 11 76 12 77 13 78 14 79 15 80 16 81 33 82 30 83 32 84 34 85
REMARK SMILES IDX 31 86 17 87 18 88 19 89 20 91 21 92 25 93 22 94 24 95 23 96
REMARK SMILES IDX 26 97 27 98 28 99 29 100
REMARK H PARENT 91 26 59 37 19 90
REMARK Flexibility Score: inf
ROOT
ATOM      1  C   UNL A   1      34.565  32.425  28.726  1.00  0.00     0.188 C 
ENDROOT
BRANCH   1   2
ATOM      2  C   UNL A   1      34.656  33.921  28.337  1.00  0.00     0.188 C 
BRANCH   2   3
ATOM      3  O   UNL A   1      33.414  34.596  28.255  1.00  0.00    -0.376 OA
BRANCH   3   4
ATOM      4  C   UNL A   1      33.380  35.955  28.730  1.00  0.00     0.202 C 
BRANCH   4   5
ATOM      5  C   UNL A   1      32.651  36.318  30.050  1.00  0.00     0.261 C 
BRANCH   5   6
ATOM      6  O   UNL A   1      32.606  35.184  30.920  1.00  0.00    -0.460 OA
BRANCH   6   7
ATOM      7  C   UNL A   1      33.140  35.326  32.153  1.00  0.00     0.338 C 
ATOM      8  O   UNL A   1      32.790  36.164  32.976  1.00  0.00    -0.246 OA
BRANCH   7   9
ATOM      9  C   UNL A   1      34.387  34.537  32.199  1.00  0.00     0.060 A 
ATOM     10  C   UNL A   1      34.354  33.222  32.687  1.00  0.00     0.016 A 
ATOM     11  C   UNL A   1      35.563  35.059  31.656  1.00  0.00     0.016 A 
ATOM     12  C   UNL A   1      35.455  32.391  32.559  1.00  0.00     0.010 A 
ATOM     13  C   UNL A   1      36.684  34.231  31.549  1.00  0.00     0.010 A 
ATOM     14  C   UNL A   1      36.632  32.900  32.008  1.00  0.00    -0.014 A 
BRANCH  14  15
ATOM     15  C   UNL A   1      37.878  32.163  32.310  1.00  0.00     0.031 A 
ATOM     16  C   UNL A   1      38.540  32.548  33.600  1.00  0.00     0.074 A 
ATOM     17  C   UNL A   1      38.325  31.144  31.556  1.00  0.00     0.049 A 
ATOM     18  N   UNL A   1      39.592  32.046  34.185  1.00  0.00    -0.248 NA
ATOM     19  C   UNL A   1      37.906  33.652  34.344  1.00  0.00     0.031 C 
ATOM     20  C   UNL A   1      37.690  30.646  30.339  1.00  0.00     0.029 A 
ATOM     21  N   UNL A   1      39.425  30.339  31.706  1.00  0.00    -0.354 N 
ATOM     22  C   UNL A   1      39.721  32.756  35.373  1.00  0.00     0.074 A 
ATOM     23  C   UNL A   1      38.703  33.777  35.384  1.00  0.00     0.031 C 
ATOM     24  C   UNL A   1      38.436  29.653  29.822  1.00  0.00     0.029 A 
ATOM     25  C   UNL A   1      39.598  29.440  30.678  1.00  0.00     0.049 A 
ATOM     26  H   UNL A   1      40.035  30.399  32.476  1.00  0.00     0.167 HD
ATOM     27  C   UNL A   1      40.594  32.553  36.384  1.00  0.00     0.034 A 
ATOM     28  C   UNL A   1      40.596  28.557  30.463  1.00  0.00     0.034 A 
ATOM     29  C   UNL A   1      41.651  31.586  36.296  1.00  0.00     0.049 A 
ATOM     30  C   UNL A   1      41.667  28.452  31.524  1.00  0.00     0.074 A 
ATOM     31  C   UNL A   1      42.680  31.338  37.180  1.00  0.00     0.029 A 
ATOM     32  N   UNL A   1      41.826  30.723  35.216  1.00  0.00    -0.354 N 
ATOM     33  N   UNL A   1      41.781  29.120  32.652  1.00  0.00    -0.248 NA
ATOM     34  C   UNL A   1      42.726  27.461  31.303  1.00  0.00     0.031 C 
ATOM     35  C   UNL A   1      43.516  30.374  36.602  1.00  0.00     0.029 A 
ATOM     36  C   UNL A   1      42.963  29.960  35.397  1.00  0.00     0.049 A 
ATOM     37  H   UNL A   1      41.226  30.666  34.437  1.00  0.00     0.167 HD
ATOM     38  C   UNL A   1      42.898  28.599  33.296  1.00  0.00     0.074 A 
ATOM     39  C   UNL A   1      43.423  27.562  32.428  1.00  0.00     0.031 C 
ATOM     40  C   UNL A   1      43.439  28.932  34.498  1.00  0.00     0.034 A 
BRANCH  27  41
ATOM     41  C   UNL A   1      40.450  33.477  37.568  1.00  0.00     0.023 A 
ATOM     42  C   UNL A   1      41.360  34.536  37.776  1.00  0.00     0.031 A 
ATOM     43  C   UNL A   1      39.547  33.173  38.598  1.00  0.00     0.131 A 
ATOM     44  C   UNL A   1      41.437  35.152  39.034  1.00  0.00     0.055 A 
ATOM     45  C   UNL A   1      39.562  33.862  39.812  1.00  0.00     0.041 A 
ATOM     46  F   UNL A   1      38.685  32.152  38.471  1.00  0.00    -0.206 F 
ATOM     47  C   UNL A   1      40.527  34.839  40.046  1.00  0.00     0.022 A 
BRANCH  44  48
ATOM     48  S   UNL A   1      42.884  36.188  39.406  1.00  0.00     0.124 S 
ATOM     49  O   UNL A   1      43.920  35.550  38.596  1.00  0.00    -0.237 OA
ATOM     50  O   UNL A   1      42.453  37.508  38.963  1.00  0.00    -0.237 OA
ATOM     51  O   UNL A   1      43.052  36.037  40.849  1.00  0.00    -0.744 OA
ENDBRANCH  44  48
ENDBRANCH  27  41
BRANCH  28  52
ATOM     52  C   UNL A   1      40.642  27.734  29.216  1.00  0.00     0.023 A 
ATOM     53  C   UNL A   1      41.524  28.030  28.163  1.00  0.00     0.031 A 
ATOM     54  C   UNL A   1      39.765  26.646  29.045  1.00  0.00     0.131 A 
ATOM     55  C   UNL A   1      41.488  27.270  26.978  1.00  0.00     0.055 A 
ATOM     56  C   UNL A   1      39.759  25.870  27.883  1.00  0.00     0.041 A 
ATOM     57  F   UNL A   1      38.896  26.314  30.014  1.00  0.00    -0.206 F 
ATOM     58  C   UNL A   1      40.618  26.186  26.836  1.00  0.00     0.022 A 
BRANCH  55  59
ATOM     59  S   UNL A   1      42.554  27.755  25.590  1.00  0.00     0.124 S 
ATOM     60  O   UNL A   1      43.834  27.969  26.256  1.00  0.00    -0.237 OA
ATOM     61  O   UNL A   1      42.468  26.586  24.720  1.00  0.00    -0.237 OA
ATOM     62  O   UNL A   1      41.912  28.961  25.071  1.00  0.00    -0.744 OA
ENDBRANCH  55  59
ENDBRANCH  28  52
BRANCH  40  63
ATOM     63  C   UNL A   1      44.618  28.121  34.962  1.00  0.00     0.023 A 
ATOM     64  C   UNL A   1      44.462  26.975  35.757  1.00  0.00     0.031 A 
ATOM     65  C   UNL A   1      45.915  28.487  34.560  1.00  0.00     0.131 A 
ATOM     66  C   UNL A   1      45.594  26.254  36.160  1.00  0.00     0.055 A 
ATOM     67  C   UNL A   1      47.031  27.731  34.913  1.00  0.00     0.041 A 
ATOM     68  F   UNL A   1      46.112  29.575  33.798  1.00  0.00    -0.206 F 
ATOM     69  C   UNL A   1      46.874  26.612  35.726  1.00  0.00     0.022 A 
BRANCH  66  70
ATOM     70  S   UNL A   1      45.379  24.877  37.318  1.00  0.00     0.124 S 
ATOM     71  O   UNL A   1      43.978  24.523  37.110  1.00  0.00    -0.237 OA
ATOM     72  O   UNL A   1      46.359  23.908  36.841  1.00  0.00    -0.237 OA
ATOM     73  O   UNL A   1      45.680  25.474  38.618  1.00  0.00    -0.744 OA
ENDBRANCH  66  70
ENDBRANCH  40  63
ENDBRANCH  14  15
ENDBRANCH   7   9
ENDBRANCH   6   7
ENDBRANCH   5   6
ENDBRANCH   4   5
ENDBRANCH   3   4
ENDBRANCH   2   3
ENDBRANCH   1   2
BRANCH   1  74
ATOM     74  O   UNL A   1      33.739  31.534  27.995  1.00  0.00    -0.376 OA
BRANCH  74  75
ATOM     75  C   UNL A   1      34.388  30.430  27.326  1.00  0.00     0.202 C 
BRANCH  75  76
ATOM     76  C   UNL A   1      33.634  29.054  27.240  1.00  0.00     0.261 C 
BRANCH  76  77
ATOM     77  O   UNL A   1      34.109  28.111  26.203  1.00  0.00    -0.463 OA
BRANCH  77  78
ATOM     78  C   UNL A   1      33.455  28.133  24.984  1.00  0.00     0.310 C 
ATOM     79  O   UNL A   1      33.511  29.124  24.254  1.00  0.00    -0.252 OA
BRANCH  78  80
ATOM     80  C   UNL A   1      32.523  26.913  24.649  1.00  0.00     0.119 C 
ATOM     81  C   UNL A   1      32.542  25.594  23.726  1.00  0.00     0.100 C 
ATOM     82  C   UNL A   1      31.105  27.486  24.268  1.00  0.00     0.027 C 
ATOM     83  C   UNL A   1      31.084  25.575  23.136  1.00  0.00     0.025 C 
ATOM     84  C   UNL A   1      31.047  27.831  22.792  1.00  0.00    -0.027 C 
ATOM     85  C   UNL A   1      30.259  26.210  24.240  1.00  0.00     0.017 C 
ATOM     86  C   UNL A   1      30.992  26.679  22.113  1.00  0.00    -0.027 C 
BRANCH  81  87
ATOM     87  C   UNL A   1      33.317  24.881  22.583  1.00  0.00     0.229 C 
ATOM     88  O   UNL A   1      33.773  25.609  21.684  1.00  0.00    -0.274 OA
ATOM     89  N   UNL A   1      33.811  23.615  22.553  1.00  0.00    -0.323 N 
ATOM     90  H   UNL A   1      34.518  23.466  21.884  1.00  0.00     0.170 HD
BRANCH  89  91
ATOM     91  C   UNL A   1      33.483  22.502  23.307  1.00  0.00     0.084 A 
ATOM     92  C   UNL A   1      32.381  21.718  22.967  1.00  0.00     0.030 A 
ATOM     93  C   UNL A   1      34.265  22.120  24.361  1.00  0.00     0.149 A 
ATOM     94  C   UNL A   1      32.272  20.422  23.480  1.00  0.00     0.002 A 
ATOM     95  C   UNL A   1      34.282  20.771  24.720  1.00  0.00     0.049 A 
ATOM     96  C   UNL A   1      33.283  19.914  24.286  1.00  0.00     0.004 A 
BRANCH  93  97
ATOM     97  O   UNL A   1      34.999  22.969  25.117  1.00  0.00    -0.433 OA
BRANCH  97  98
ATOM     98  C   UNL A   1      34.508  23.772  26.191  1.00  0.00     0.542 C 
ATOM     99  F   UNL A   1      34.898  25.052  25.989  1.00  0.00    -0.167 F 
ATOM    100  F   UNL A   1      33.179  23.720  26.268  1.00  0.00    -0.167 F 
ENDBRANCH  97  98
ENDBRANCH  93  97
ENDBRANCH  89  91
ENDBRANCH  81  87
ENDBRANCH  78  80
ENDBRANCH  77  78
ENDBRANCH  76  77
ENDBRANCH  75  76
ENDBRANCH  74  75
ENDBRANCH   1  74
TORSDOF 24
ENDMDL
MODEL 2
REMARK VINA RESULT:      -9.6      1.874      2.568
REMARK SMILES O=C(OCCOCCOCCOC(=O)[C@@H]1[C@H](C(=O)Nc2ccccc2OC(F)F)[C@@H]2C=C[C@H]1C2)c1ccc(-c2c3nc(c(-c4cc(S(=O)(=O)[O-])ccc4F)c4ccc([nH]4)c(-c4cc(S(=O)(=O)[O-])ccc4F)c4nc(c(-c5cc(S(=O)(=O)[O-])ccc5F)c5ccc2[nH]5)C=C4)C=C3)cc1
REMARK SMILES IDX 8 1 7 2 6 3 5 4 4 5 3 6 2 7 1 8 35 9 36 10 97 11 37 12 96 13
REMARK SMILES IDX 38 14 39 15 40 16 90 17 41 18 95 19 89 20 91 21 42 22 94 23
REMARK SMILES IDX 88 24 87 25 43 27 75 28 55 29 74 30 56 31 59 32 73 33 92 34
REMARK SMILES IDX 57 35 58 36 72 38 93 39 60 40 44 41 45 42 53 43 46 44 52 45
REMARK SMILES IDX 54 46 51 47 47 48 48 49 49 50 50 51 76 52 77 53 85 54 78 55
REMARK SMILES IDX 84 56 86 57 83 58 79 59 80 60 81 61 82 62 61 63 62 64 70 65
REMARK SMILES IDX 63 66 69 67 71 68 68 69 64 70 65 71 66 72 67 73 9 74 10 75
REMARK SMILES IDX 11 76 12 77 13 78 14 79 15 80 16 81 33 82 30 83 32 84 34 85
REMARK SMILES IDX 31 86 17 87 18 88 19 89 20 91 21 92 25 93 22 94 24 95 23 96
REMARK SMILES IDX 26 97 27 98 28 99 29 100
REMARK H PARENT 91 26 59 37 19 90
REMARK Flexibility Score: inf
ROOT
ATOM      1  C   UNL A   1      34.529  32.191  28.339  1.00  0.00     0.188 C 
ENDROOT
BRANCH   1   2
ATOM      2  C   UNL A   1      34.789  33.675  27.979  1.00  0.00     0.188 C 
BRANCH   2   3
ATOM      3  O   UNL A   1      33.642  34.505  27.995  1.00  0.00    -0.376 OA
BRANCH   3   4
ATOM      4  C   UNL A   1      33.736  35.729  28.747  1.00  0.00     0.202 C 
BRANCH   4   5
ATOM      5  C   UNL A   1      33.058  35.863  30.135  1.00  0.00     0.261 C 
BRANCH   5   6
ATOM      6  O   UNL A   1      33.450  34.782  30.985  1.00  0.00    -0.460 OA
BRANCH   6   7
ATOM      7  C   UNL A   1      33.781  35.082  32.260  1.00  0.00     0.338 C 
ATOM      8  O   UNL A   1      33.287  35.991  32.917  1.00  0.00    -0.246 OA
BRANCH   7   9
ATOM      9  C   UNL A   1      35.025  34.355  32.587  1.00  0.00     0.060 A 
ATOM     10  C   UNL A   1      36.261  34.894  32.198  1.00  0.00     0.016 A 
ATOM     11  C   UNL A   1      34.973  33.203  33.374  1.00  0.00     0.016 A 
ATOM     12  C   UNL A   1      37.447  34.346  32.658  1.00  0.00     0.010 A 
ATOM     13  C   UNL A   1      36.169  32.633  33.819  1.00  0.00     0.010 A 
ATOM     14  C   UNL A   1      37.406  33.201  33.454  1.00  0.00    -0.014 A 
BRANCH  14  15
ATOM     15  C   UNL A   1      38.647  32.401  33.529  1.00  0.00     0.031 A 
ATOM     16  C   UNL A   1      39.448  32.598  34.782  1.00  0.00     0.074 A 
ATOM     17  C   UNL A   1      38.980  31.479  32.609  1.00  0.00     0.049 A 
ATOM     18  N   UNL A   1      40.533  31.998  35.187  1.00  0.00    -0.248 NA
ATOM     19  C   UNL A   1      38.932  33.610  35.723  1.00  0.00     0.031 C 
ATOM     20  C   UNL A   1      38.209  31.160  31.410  1.00  0.00     0.029 A 
ATOM     21  N   UNL A   1      40.058  30.635  32.541  1.00  0.00    -0.354 N 
ATOM     22  C   UNL A   1      40.805  32.543  36.436  1.00  0.00     0.074 A 
ATOM     23  C   UNL A   1      39.832  33.578  36.682  1.00  0.00     0.031 C 
ATOM     24  C   UNL A   1      38.862  30.225  30.697  1.00  0.00     0.029 A 
ATOM     25  C   UNL A   1      40.094  29.873  31.394  1.00  0.00     0.049 A 
ATOM     26  H   UNL A   1      40.742  30.578  33.246  1.00  0.00     0.167 HD
ATOM     27  C   UNL A   1      41.766  32.189  37.318  1.00  0.00     0.034 A 
ATOM     28  C   UNL A   1      41.032  29.003  30.967  1.00  0.00     0.034 A 
ATOM     29  C   UNL A   1      42.772  31.215  36.999  1.00  0.00     0.049 A 
ATOM     30  C   UNL A   1      42.198  28.733  31.890  1.00  0.00     0.074 A 
ATOM     31  C   UNL A   1      43.874  30.829  37.734  1.00  0.00     0.029 A 
ATOM     32  N   UNL A   1      42.807  30.498  35.806  1.00  0.00    -0.354 N 
ATOM     33  N   UNL A   1      42.448  29.245  33.077  1.00  0.00    -0.248 NA
ATOM     34  C   UNL A   1      43.192  27.754  31.437  1.00  0.00     0.031 C 
ATOM     35  C   UNL A   1      44.611  29.929  36.954  1.00  0.00     0.029 A 
ATOM     36  C   UNL A   1      43.926  29.690  35.770  1.00  0.00     0.049 A 
ATOM     37  H   UNL A   1      42.131  30.558  35.091  1.00  0.00     0.167 HD
ATOM     38  C   UNL A   1      43.603  28.618  33.530  1.00  0.00     0.074 A 
ATOM     39  C   UNL A   1      44.000  27.690  32.487  1.00  0.00     0.031 C 
ATOM     40  C   UNL A   1      44.272  28.777  34.702  1.00  0.00     0.034 A 
BRANCH  27  41
ATOM     41  C   UNL A   1      41.775  32.953  38.619  1.00  0.00     0.023 A 
ATOM     42  C   UNL A   1      41.038  32.498  39.733  1.00  0.00     0.031 A 
ATOM     43  C   UNL A   1      42.335  34.238  38.680  1.00  0.00     0.131 A 
ATOM     44  C   UNL A   1      40.765  33.375  40.793  1.00  0.00     0.055 A 
ATOM     45  C   UNL A   1      42.146  35.068  39.787  1.00  0.00     0.041 A 
ATOM     46  F   UNL A   1      43.013  34.738  37.635  1.00  0.00    -0.206 F 
ATOM     47  C   UNL A   1      41.334  34.649  40.840  1.00  0.00     0.022 A 
BRANCH  44  48
ATOM     48  S   UNL A   1      39.472  32.918  41.986  1.00  0.00     0.124 S 
ATOM     49  O   UNL A   1      39.163  31.549  41.577  1.00  0.00    -0.237 OA
ATOM     50  O   UNL A   1      40.154  33.062  43.267  1.00  0.00    -0.237 OA
ATOM     51  O   UNL A   1      38.411  33.890  41.731  1.00  0.00    -0.744 OA
ENDBRANCH  44  48
ENDBRANCH  27  41
BRANCH  28  52
ATOM     52  C   UNL A   1      40.923  28.349  29.628  1.00  0.00     0.023 A 
ATOM     53  C   UNL A   1      41.819  28.639  28.584  1.00  0.00     0.031 A 
ATOM     54  C   UNL A   1      39.884  27.438  29.358  1.00  0.00     0.131 A 
ATOM     55  C   UNL A   1      41.641  28.051  27.317  1.00  0.00     0.055 A 
ATOM     56  C   UNL A   1      39.733  26.827  28.110  1.00  0.00     0.041 A 
ATOM     57  F   UNL A   1      38.994  27.121  30.313  1.00  0.00    -0.206 F 
ATOM     58  C   UNL A   1      40.610  27.140  27.077  1.00  0.00     0.022 A 
BRANCH  55  59
ATOM     59  S   UNL A   1      42.741  28.542  25.958  1.00  0.00     0.124 S 
ATOM     60  O   UNL A   1      41.915  28.263  24.789  1.00  0.00    -0.237 OA
ATOM     61  O   UNL A   1      42.980  29.951  26.256  1.00  0.00    -0.237 OA
ATOM     62  O   UNL A   1      43.901  27.669  26.125  1.00  0.00    -0.744 OA
ENDBRANCH  55  59
ENDBRANCH  28  52
BRANCH  40  63
ATOM     63  C   UNL A   1      45.461  27.884  34.935  1.00  0.00     0.023 A 
ATOM     64  C   UNL A   1      45.330  26.617  35.527  1.00  0.00     0.031 A 
ATOM     65  C   UNL A   1      46.736  28.300  34.515  1.00  0.00     0.131 A 
ATOM     66  C   UNL A   1      46.470  25.824  35.718  1.00  0.00     0.055 A 
ATOM     67  C   UNL A   1      47.855  27.481  34.653  1.00  0.00     0.041 A 
ATOM     68  F   UNL A   1      46.908  29.503  33.943  1.00  0.00    -0.206 F 
ATOM     69  C   UNL A   1      47.726  26.239  35.267  1.00  0.00     0.022 A 
BRANCH  66  70
ATOM     70  S   UNL A   1      46.299  24.268  36.630  1.00  0.00     0.124 S 
ATOM     71  O   UNL A   1      46.683  23.283  35.623  1.00  0.00    -0.237 OA
ATOM     72  O   UNL A   1      47.235  24.447  37.735  1.00  0.00    -0.237 OA
ATOM     73  O   UNL A   1      44.888  24.247  37.011  1.00  0.00    -0.744 OA
ENDBRANCH  66  70
ENDBRANCH  40  63
ENDBRANCH  14  15
ENDBRANCH   7   9
ENDBRANCH   6   7
ENDBRANCH   5   6
ENDBRANCH   4   5
ENDBRANCH   3   4
ENDBRANCH   2   3
ENDBRANCH   1   2
BRANCH   1  74
ATOM     74  O   UNL A   1      34.435  31.204  27.325  1.00  0.00    -0.376 OA
BRANCH  74  75
ATOM     75  C   UNL A   1      34.368  29.825  27.752  1.00  0.00     0.202 C 
BRANCH  75  76
ATOM     76  C   UNL A   1      33.560  28.804  26.870  1.00  0.00     0.261 C 
BRANCH  76  77
ATOM     77  O   UNL A   1      34.302  28.173  25.755  1.00  0.00    -0.463 OA
BRANCH  77  78
ATOM     78  C   UNL A   1      33.749  27.037  25.192  1.00  0.00     0.310 C 
ATOM     79  O   UNL A   1      34.171  26.590  24.125  1.00  0.00    -0.252 OA
BRANCH  78  80
ATOM     80  C   UNL A   1      32.473  26.442  25.890  1.00  0.00     0.119 C 
ATOM     81  C   UNL A   1      32.007  25.070  26.591  1.00  0.00     0.100 C 
ATOM     82  C   UNL A   1      31.248  26.679  24.926  1.00  0.00     0.027 C 
ATOM     83  C   UNL A   1      30.549  24.882  26.029  1.00  0.00     0.025 C 
ATOM     84  C   UNL A   1      31.129  25.547  23.923  1.00  0.00    -0.027 C 
ATOM     85  C   UNL A   1      30.072  26.308  25.833  1.00  0.00     0.017 C 
ATOM     86  C   UNL A   1      30.668  24.476  24.581  1.00  0.00    -0.027 C 
BRANCH  81  87
ATOM     87  C   UNL A   1      32.411  23.586  26.825  1.00  0.00     0.229 C 
ATOM     88  O   UNL A   1      31.646  22.910  27.535  1.00  0.00    -0.274 OA
ATOM     89  N   UNL A   1      33.323  22.839  26.152  1.00  0.00    -0.323 N 
ATOM     90  H   UNL A   1      33.209  21.866  26.248  1.00  0.00     0.170 HD
BRANCH  89  91
ATOM     91  C   UNL A   1      34.388  23.220  25.353  1.00  0.00     0.084 A 
ATOM     92  C   UNL A   1      35.513  23.821  25.917  1.00  0.00     0.030 A 
ATOM     93  C   UNL A   1      34.379  22.962  24.012  1.00  0.00     0.149 A 
ATOM     94  C   UNL A   1      36.709  23.861  25.194  1.00  0.00     0.002 A 
ATOM     95  C   UNL A   1      35.603  22.809  23.357  1.00  0.00     0.049 A 
ATOM     96  C   UNL A   1      36.775  23.263  23.942  1.00  0.00     0.004 A 
BRANCH  93  97
ATOM     97  O   UNL A   1      33.261  22.884  23.254  1.00  0.00    -0.433 OA
BRANCH  97  98
ATOM     98  C   UNL A   1      32.613  21.682  22.837  1.00  0.00     0.542 C 
ATOM     99  F   UNL A   1      32.579  20.822  23.881  1.00  0.00    -0.167 F 
ATOM    100  F   UNL A   1      31.370  21.921  22.420  1.00  0.00    -0.167 F 
ENDBRANCH  97  98
ENDBRANCH  93  97
ENDBRANCH  89  91
ENDBRANCH  81  87
ENDBRANCH  78  80
ENDBRANCH  77  78
ENDBRANCH  76  77
ENDBRANCH  75  76
ENDBRANCH  74  75
ENDBRANCH   1  74
TORSDOF 24
ENDMDL
MODEL 3
REMARK VINA RESULT:      -9.2      3.075      3.959
REMARK SMILES O=C(OCCOCCOCCOC(=O)[C@@H]1[C@H](C(=O)Nc2ccccc2OC(F)F)[C@@H]2C=C[C@H]1C2)c1ccc(-c2c3nc(c(-c4cc(S(=O)(=O)[O-])ccc4F)c4ccc([nH]4)c(-c4cc(S(=O)(=O)[O-])ccc4F)c4nc(c(-c5cc(S(=O)(=O)[O-])ccc5F)c5ccc2[nH]5)C=C4)C=C3)cc1
REMARK SMILES IDX 8 1 7 2 6 3 5 4 4 5 3 6 2 7 1 8 35 9 36 10 97 11 37 12 96 13
REMARK SMILES IDX 38 14 39 15 40 16 90 17 41 18 95 19 89 20 91 21 42 22 94 23
REMARK SMILES IDX 88 24 87 25 43 27 75 28 55 29 74 30 56 31 59 32 73 33 92 34
REMARK SMILES IDX 57 35 58 36 72 38 93 39 60 40 44 41 45 42 53 43 46 44 52 45
REMARK SMILES IDX 54 46 51 47 47 48 48 49 49 50 50 51 76 52 77 53 85 54 78 55
REMARK SMILES IDX 84 56 86 57 83 58 79 59 80 60 81 61 82 62 61 63 62 64 70 65
REMARK SMILES IDX 63 66 69 67 71 68 68 69 64 70 65 71 66 72 67 73 9 74 10 75
REMARK SMILES IDX 11 76 12 77 13 78 14 79 15 80 16 81 33 82 30 83 32 84 34 85
REMARK SMILES IDX 31 86 17 87 18 88 19 89 20 91 21 92 25 93 22 94 24 95 23 96
REMARK SMILES IDX 26 97 27 98 28 99 29 100
REMARK H PARENT 91 26 59 37 19 90
REMARK Flexibility Score: inf
ROOT
ATOM      1  C   UNL A   1      34.322  32.068  28.512  1.00  0.00     0.188 C 
ENDROOT
BRANCH   1   2
ATOM      2  C   UNL A   1      34.956  33.388  28.008  1.00  0.00     0.188 C 
BRANCH   2   3
ATOM      3  O   UNL A   1      34.085  34.506  27.998  1.00  0.00    -0.376 OA
BRANCH   3   4
ATOM      4  C   UNL A   1      34.195  35.424  29.102  1.00  0.00     0.202 C 
BRANCH   4   5
ATOM      5  C   UNL A   1      33.651  35.050  30.505  1.00  0.00     0.261 C 
BRANCH   5   6
ATOM      6  O   UNL A   1      34.724  34.650  31.361  1.00  0.00    -0.460 OA
BRANCH   6   7
ATOM      7  C   UNL A   1      34.632  33.435  31.946  1.00  0.00     0.338 C 
ATOM      8  O   UNL A   1      33.651  33.021  32.551  1.00  0.00    -0.246 OA
BRANCH   7   9
ATOM      9  C   UNL A   1      35.991  32.857  32.002  1.00  0.00     0.060 A 
ATOM     10  C   UNL A   1      37.010  33.415  31.215  1.00  0.00     0.016 A 
ATOM     11  C   UNL A   1      36.279  31.840  32.913  1.00  0.00     0.016 A 
ATOM     12  C   UNL A   1      38.329  33.031  31.390  1.00  0.00     0.010 A 
ATOM     13  C   UNL A   1      37.606  31.432  33.074  1.00  0.00     0.010 A 
ATOM     14  C   UNL A   1      38.630  32.022  32.305  1.00  0.00    -0.014 A 
BRANCH  14  15
ATOM     15  C   UNL A   1      39.927  31.334  32.132  1.00  0.00     0.031 A 
ATOM     16  C   UNL A   1      40.989  31.735  33.111  1.00  0.00     0.074 A 
ATOM     17  C   UNL A   1      40.113  30.339  31.247  1.00  0.00     0.049 A 
ATOM     18  N   UNL A   1      42.196  31.272  33.276  1.00  0.00    -0.248 NA
ATOM     19  C   UNL A   1      40.622  32.808  34.054  1.00  0.00     0.031 C 
ATOM     20  C   UNL A   1      39.105  29.824  30.323  1.00  0.00     0.029 A 
ATOM     21  N   UNL A   1      41.222  29.577  30.982  1.00  0.00    -0.354 N 
ATOM     22  C   UNL A   1      42.713  31.978  34.356  1.00  0.00     0.074 A 
ATOM     23  C   UNL A   1      41.731  32.957  34.748  1.00  0.00     0.031 C 
ATOM     24  C   UNL A   1      39.654  28.865  29.556  1.00  0.00     0.029 A 
ATOM     25  C   UNL A   1      41.050  28.692  29.941  1.00  0.00     0.049 A 
ATOM     26  H   UNL A   1      42.062  29.655  31.488  1.00  0.00     0.167 HD
ATOM     27  C   UNL A   1      43.895  31.802  34.989  1.00  0.00     0.034 A 
ATOM     28  C   UNL A   1      41.937  27.851  29.368  1.00  0.00     0.034 A 
ATOM     29  C   UNL A   1      44.885  30.878  34.512  1.00  0.00     0.049 A 
ATOM     30  C   UNL A   1      43.318  27.781  29.980  1.00  0.00     0.074 A 
ATOM     31  C   UNL A   1      46.169  30.666  34.970  1.00  0.00     0.029 A 
ATOM     32  N   UNL A   1      44.696  30.031  33.423  1.00  0.00    -0.354 N 
ATOM     33  N   UNL A   1      43.801  28.445  31.008  1.00  0.00    -0.248 NA
ATOM     34  C   UNL A   1      44.263  26.835  29.378  1.00  0.00     0.031 C 
ATOM     35  C   UNL A   1      46.778  29.739  34.113  1.00  0.00     0.029 A 
ATOM     36  C   UNL A   1      45.848  29.313  33.174  1.00  0.00     0.049 A 
ATOM     37  H   UNL A   1      43.861  29.956  32.905  1.00  0.00     0.167 HD
ATOM     38  C   UNL A   1      45.091  27.965  31.204  1.00  0.00     0.074 A 
ATOM     39  C   UNL A   1      45.310  26.956  30.185  1.00  0.00     0.031 C 
ATOM     40  C   UNL A   1      46.010  28.310  32.144  1.00  0.00     0.034 A 
BRANCH  27  41
ATOM     41  C   UNL A   1      44.148  32.712  36.165  1.00  0.00     0.023 A 
ATOM     42  C   UNL A   1      43.734  32.349  37.465  1.00  0.00     0.031 A 
ATOM     43  C   UNL A   1      44.601  34.024  35.961  1.00  0.00     0.131 A 
ATOM     44  C   UNL A   1      43.649  33.327  38.467  1.00  0.00     0.055 A 
ATOM     45  C   UNL A   1      44.611  34.965  36.992  1.00  0.00     0.041 A 
ATOM     46  F   UNL A   1      44.971  34.436  34.738  1.00  0.00    -0.206 F 
ATOM     47  C   UNL A   1      44.108  34.627  38.247  1.00  0.00     0.022 A 
BRANCH  44  48
ATOM     48  S   UNL A   1      42.714  32.940  39.978  1.00  0.00     0.124 S 
ATOM     49  O   UNL A   1      42.167  34.249  40.330  1.00  0.00    -0.237 OA
ATOM     50  O   UNL A   1      41.750  31.951  39.513  1.00  0.00    -0.237 OA
ATOM     51  O   UNL A   1      43.736  32.435  40.893  1.00  0.00    -0.744 OA
ENDBRANCH  44  48
ENDBRANCH  27  41
BRANCH  28  52
ATOM     52  C   UNL A   1      41.566  27.040  28.170  1.00  0.00     0.023 A 
ATOM     53  C   UNL A   1      41.332  25.657  28.253  1.00  0.00     0.031 A 
ATOM     54  C   UNL A   1      41.477  27.640  26.899  1.00  0.00     0.131 A 
ATOM     55  C   UNL A   1      41.051  24.917  27.088  1.00  0.00     0.055 A 
ATOM     56  C   UNL A   1      41.159  26.909  25.751  1.00  0.00     0.041 A 
ATOM     57  F   UNL A   1      41.693  28.957  26.753  1.00  0.00    -0.206 F 
ATOM     58  C   UNL A   1      40.954  25.536  25.840  1.00  0.00     0.022 A 
BRANCH  55  59
ATOM     59  S   UNL A   1      40.875  23.114  27.213  1.00  0.00     0.124 S 
ATOM     60  O   UNL A   1      41.488  22.842  28.508  1.00  0.00    -0.237 OA
ATOM     61  O   UNL A   1      39.427  22.946  27.139  1.00  0.00    -0.237 OA
ATOM     62  O   UNL A   1      41.616  22.617  26.056  1.00  0.00    -0.744 OA
ENDBRANCH  55  59
ENDBRANCH  28  52
BRANCH  40  63
ATOM     63  C   UNL A   1      47.305  27.544  32.144  1.00  0.00     0.023 A 
ATOM     64  C   UNL A   1      48.413  27.962  31.390  1.00  0.00     0.031 A 
ATOM     65  C   UNL A   1      47.435  26.399  32.950  1.00  0.00     0.131 A 
ATOM     66  C   UNL A   1      49.597  27.213  31.428  1.00  0.00     0.055 A 
ATOM     67  C   UNL A   1      48.634  25.694  33.029  1.00  0.00     0.041 A 
ATOM     68  F   UNL A   1      46.402  25.962  33.689  1.00  0.00    -0.206 F 
ATOM     69  C   UNL A   1      49.721  26.095  32.258  1.00  0.00     0.022 A 
BRANCH  66  70
ATOM     70  S   UNL A   1      50.955  27.680  30.322  1.00  0.00     0.124 S 
ATOM     71  O   UNL A   1      50.254  28.424  29.281  1.00  0.00    -0.237 OA
ATOM     72  O   UNL A   1      51.816  28.467  31.198  1.00  0.00    -0.237 OA
ATOM     73  O   UNL A   1      51.509  26.395  29.900  1.00  0.00    -0.744 OA
ENDBRANCH  66  70
ENDBRANCH  40  63
ENDBRANCH  14  15
ENDBRANCH   7   9
ENDBRANCH   6   7
ENDBRANCH   5   6
ENDBRANCH   4   5
ENDBRANCH   3   4
ENDBRANCH   2   3
ENDBRANCH   1   2
BRANCH   1  74
ATOM     74  O   UNL A   1      33.684  31.178  27.609  1.00  0.00    -0.376 OA
BRANCH  74  75
ATOM     75  C   UNL A   1      34.403  29.978  27.249  1.00  0.00     0.202 C 
BRANCH  75  76
ATOM     76  C   UNL A   1      33.597  28.637  27.095  1.00  0.00     0.261 C 
BRANCH  76  77
ATOM     77  O   UNL A   1      34.328  27.500  26.492  1.00  0.00    -0.463 OA
BRANCH  77  78
ATOM     78  C   UNL A   1      33.657  26.752  25.540  1.00  0.00     0.310 C 
ATOM     79  O   UNL A   1      34.036  25.618  25.245  1.00  0.00    -0.252 OA
BRANCH  78  80
ATOM     80  C   UNL A   1      32.501  27.468  24.753  1.00  0.00     0.119 C 
ATOM     81  C   UNL A   1      30.971  27.191  24.335  1.00  0.00     0.100 C 
ATOM     82  C   UNL A   1      33.081  27.920  23.359  1.00  0.00     0.027 C 
ATOM     83  C   UNL A   1      30.931  27.697  22.846  1.00  0.00     0.025 C 
ATOM     84  C   UNL A   1      32.969  26.798  22.344  1.00  0.00    -0.027 C 
ATOM     85  C   UNL A   1      31.955  28.816  22.838  1.00  0.00     0.017 C 
ATOM     86  C   UNL A   1      31.678  26.692  22.004  1.00  0.00    -0.027 C 
BRANCH  81  87
ATOM     87  C   UNL A   1      29.866  26.097  24.290  1.00  0.00     0.229 C 
ATOM     88  O   UNL A   1      28.773  26.434  23.803  1.00  0.00    -0.274 OA
ATOM     89  N   UNL A   1      29.995  24.754  24.447  1.00  0.00    -0.323 N 
ATOM     90  H   UNL A   1      29.250  24.224  24.083  1.00  0.00     0.170 HD
BRANCH  89  91
ATOM     91  C   UNL A   1      31.002  24.007  25.036  1.00  0.00     0.084 A 
ATOM     92  C   UNL A   1      31.167  24.013  26.420  1.00  0.00     0.030 A 
ATOM     93  C   UNL A   1      31.812  23.211  24.277  1.00  0.00     0.149 A 
ATOM     94  C   UNL A   1      31.914  23.000  27.030  1.00  0.00     0.002 A 
ATOM     95  C   UNL A   1      32.385  22.086  24.875  1.00  0.00     0.049 A 
ATOM     96  C   UNL A   1      32.444  21.976  26.255  1.00  0.00     0.004 A 
BRANCH  93  97
ATOM     97  O   UNL A   1      32.137  23.457  22.987  1.00  0.00    -0.433 OA
BRANCH  97  98
ATOM     98  C   UNL A   1      33.344  23.059  22.336  1.00  0.00     0.542 C 
ATOM     99  F   UNL A   1      33.191  23.220  21.001  1.00  0.00    -0.167 F 
ATOM    100  F   UNL A   1      34.382  23.783  22.755  1.00  0.00    -0.167 F 
ENDBRANCH  97  98
ENDBRANCH  93  97
ENDBRANCH  89  91
ENDBRANCH  81  87
ENDBRANCH  78  80
ENDBRANCH  77  78
ENDBRANCH  76  77
ENDBRANCH  75  76
ENDBRANCH  74  75
ENDBRANCH   1  74
TORSDOF 24
ENDMDL
