MODEL 1
REMARK VINA RESULT:     -11.6      0.000      0.000
REMARK SMILES O=C(OCCOCCOCCOC(=O)c1ccc([C@H]2Nc3ccc(Cl)cc3[C@@H]3C=CC[C@@H]23)cc1)c1ccc(-c2c3nc(c(-c4cc(S(=O)(=O)[O-])ccc4F)c4ccc([nH]4)c(-c4cc(S(=O)(=O)[O-])ccc4F)c4nc(c(-c5cc(S(=O)(=O)[O-])ccc5F)c5ccc2[nH]5)C=C4)C=C3)cc1
REMARK SMILES IDX 7 1 6 2 5 3 4 4 3 5 2 6 1 7 35 8 36 9 97 10 37 11 96 12
REMARK SMILES IDX 38 13 39 14 40 15 90 16 41 17 95 18 89 19 91 20 42 21 94 22
REMARK SMILES IDX 88 23 87 24 43 26 75 27 55 28 74 29 56 30 59 31 73 32 92 33
REMARK SMILES IDX 57 34 58 35 72 37 93 38 60 39 44 40 45 41 53 42 46 43 52 44
REMARK SMILES IDX 54 45 51 46 47 47 48 48 49 49 50 50 76 51 77 52 85 53 78 54
REMARK SMILES IDX 84 55 86 56 83 57 79 58 80 59 81 60 82 61 61 62 62 63 70 64
REMARK SMILES IDX 63 65 69 66 71 67 68 68 64 69 65 70 66 71 67 72 8 73 9 74
REMARK SMILES IDX 10 75 11 76 12 77 13 78 14 79 15 80 16 81 34 82 17 83 33 84
REMARK SMILES IDX 18 85 19 86 20 87 32 88 21 89 28 91 31 92 22 93 27 94 29 95
REMARK SMILES IDX 30 96 23 97 26 98 24 99 25 100
REMARK H PARENT 91 25 59 36 20 90
REMARK Flexibility Score: inf
ROOT
ATOM      1  C   UNL A   1      33.794  34.658  27.937  1.00  0.00     0.188 C 
ENDROOT
BRANCH   1   2
ATOM      2  O   UNL A   1      32.802  35.150  28.840  1.00  0.00    -0.376 OA
BRANCH   2   3
ATOM      3  C   UNL A   1      33.298  35.995  29.879  1.00  0.00     0.202 C 
BRANCH   3   4
ATOM      4  C   UNL A   1      33.616  35.281  31.201  1.00  0.00     0.261 C 
BRANCH   4   5
ATOM      5  O   UNL A   1      33.907  33.887  31.013  1.00  0.00    -0.460 OA
BRANCH   5   6
ATOM      6  C   UNL A   1      34.503  33.074  31.922  1.00  0.00     0.338 C 
ATOM      7  O   UNL A   1      33.893  32.737  32.933  1.00  0.00    -0.246 OA
BRANCH   6   8
ATOM      8  C   UNL A   1      35.860  32.517  31.679  1.00  0.00     0.060 A 
ATOM      9  C   UNL A   1      36.530  31.678  32.574  1.00  0.00     0.016 A 
ATOM     10  C   UNL A   1      36.465  32.798  30.457  1.00  0.00     0.016 A 
ATOM     11  C   UNL A   1      37.829  31.235  32.336  1.00  0.00     0.010 A 
ATOM     12  C   UNL A   1      37.715  32.248  30.166  1.00  0.00     0.010 A 
ATOM     13  C   UNL A   1      38.425  31.466  31.106  1.00  0.00    -0.014 A 
BRANCH  13  14
ATOM     14  C   UNL A   1      39.753  30.877  30.746  1.00  0.00     0.031 A 
ATOM     15  C   UNL A   1      40.914  31.823  30.581  1.00  0.00     0.074 A 
ATOM     16  C   UNL A   1      39.871  29.578  30.378  1.00  0.00     0.049 A 
ATOM     17  N   UNL A   1      42.014  31.686  29.890  1.00  0.00    -0.248 NA
ATOM     18  C   UNL A   1      40.762  33.140  31.222  1.00  0.00     0.031 C 
ATOM     19  C   UNL A   1      38.817  28.555  30.447  1.00  0.00     0.029 A 
ATOM     20  N   UNL A   1      40.906  28.920  29.750  1.00  0.00    -0.354 N 
ATOM     21  C   UNL A   1      42.666  32.911  29.990  1.00  0.00     0.074 A 
ATOM     22  C   UNL A   1      41.775  33.806  30.695  1.00  0.00     0.031 C 
ATOM     23  C   UNL A   1      39.232  27.437  29.829  1.00  0.00     0.029 A 
ATOM     24  C   UNL A   1      40.554  27.671  29.275  1.00  0.00     0.049 A 
ATOM     25  H   UNL A   1      41.808  29.302  29.649  1.00  0.00     0.167 HD
ATOM     26  C   UNL A   1      43.918  33.242  29.589  1.00  0.00     0.034 A 
ATOM     27  C   UNL A   1      41.193  26.833  28.435  1.00  0.00     0.034 A 
ATOM     28  C   UNL A   1      44.802  32.313  28.939  1.00  0.00     0.049 A 
ATOM     29  C   UNL A   1      42.560  27.227  27.945  1.00  0.00     0.074 A 
ATOM     30  C   UNL A   1      46.126  32.479  28.577  1.00  0.00     0.029 A 
ATOM     31  N   UNL A   1      44.443  31.025  28.562  1.00  0.00    -0.354 N 
ATOM     32  N   UNL A   1      43.195  28.367  28.100  1.00  0.00    -0.248 NA
ATOM     33  C   UNL A   1      43.313  26.209  27.205  1.00  0.00     0.031 C 
ATOM     34  C   UNL A   1      46.559  31.299  27.957  1.00  0.00     0.029 A 
ATOM     35  C   UNL A   1      45.517  30.382  27.975  1.00  0.00     0.049 A 
ATOM     36  H   UNL A   1      43.552  30.627  28.696  1.00  0.00     0.167 HD
ATOM     37  C   UNL A   1      44.453  28.174  27.544  1.00  0.00     0.074 A 
ATOM     38  C   UNL A   1      44.474  26.821  27.023  1.00  0.00     0.031 C 
ATOM     39  C   UNL A   1      45.510  29.024  27.492  1.00  0.00     0.034 A 
BRANCH  26  40
ATOM     40  C   UNL A   1      44.382  34.648  29.889  1.00  0.00     0.023 A 
ATOM     41  C   UNL A   1      44.935  34.973  31.143  1.00  0.00     0.031 A 
ATOM     42  C   UNL A   1      44.195  35.691  28.968  1.00  0.00     0.131 A 
ATOM     43  C   UNL A   1      45.157  36.311  31.488  1.00  0.00     0.055 A 
ATOM     44  C   UNL A   1      44.515  37.014  29.283  1.00  0.00     0.041 A 
ATOM     45  F   UNL A   1      43.663  35.450  27.759  1.00  0.00    -0.206 F 
ATOM     46  C   UNL A   1      44.976  37.334  30.558  1.00  0.00     0.022 A 
BRANCH  43  47
ATOM     47  S   UNL A   1      45.513  36.701  33.225  1.00  0.00     0.124 S 
ATOM     48  O   UNL A   1      46.667  37.588  33.093  1.00  0.00    -0.237 OA
ATOM     49  O   UNL A   1      44.276  37.329  33.671  1.00  0.00    -0.237 OA
ATOM     50  O   UNL A   1      45.800  35.396  33.815  1.00  0.00    -0.744 OA
ENDBRANCH  43  47
ENDBRANCH  26  40
BRANCH  27  51
ATOM     51  C   UNL A   1      40.573  25.550  27.988  1.00  0.00     0.023 A 
ATOM     52  C   UNL A   1      41.263  24.335  28.115  1.00  0.00     0.031 A 
ATOM     53  C   UNL A   1      39.318  25.524  27.355  1.00  0.00     0.131 A 
ATOM     54  C   UNL A   1      40.723  23.160  27.566  1.00  0.00     0.055 A 
ATOM     55  C   UNL A   1      38.763  24.346  26.848  1.00  0.00     0.041 A 
ATOM     56  F   UNL A   1      38.607  26.649  27.203  1.00  0.00    -0.206 F 
ATOM     57  C   UNL A   1      39.474  23.156  26.939  1.00  0.00     0.022 A 
BRANCH  54  58
ATOM     58  S   UNL A   1      41.726  21.649  27.594  1.00  0.00     0.124 S 
ATOM     59  O   UNL A   1      40.741  20.648  27.989  1.00  0.00    -0.237 OA
ATOM     60  O   UNL A   1      42.196  21.579  26.215  1.00  0.00    -0.237 OA
ATOM     61  O   UNL A   1      42.753  21.943  28.589  1.00  0.00    -0.744 OA
ENDBRANCH  54  58
ENDBRANCH  27  51
BRANCH  39  62
ATOM     62  C   UNL A   1      46.798  28.460  26.959  1.00  0.00     0.023 A 
ATOM     63  C   UNL A   1      47.030  28.311  25.584  1.00  0.00     0.031 A 
ATOM     64  C   UNL A   1      47.797  28.046  27.858  1.00  0.00     0.131 A 
ATOM     65  C   UNL A   1      48.217  27.709  25.145  1.00  0.00     0.055 A 
ATOM     66  C   UNL A   1      49.000  27.503  27.414  1.00  0.00     0.041 A 
ATOM     67  F   UNL A   1      47.615  28.165  29.183  1.00  0.00    -0.206 F 
ATOM     68  C   UNL A   1      49.210  27.320  26.050  1.00  0.00     0.022 A 
BRANCH  65  69
ATOM     69  S   UNL A   1      48.410  27.364  23.377  1.00  0.00     0.124 S 
ATOM     70  O   UNL A   1      48.230  25.916  23.332  1.00  0.00    -0.237 OA
ATOM     71  O   UNL A   1      47.338  28.157  22.784  1.00  0.00    -0.237 OA
ATOM     72  O   UNL A   1      49.763  27.832  23.082  1.00  0.00    -0.744 OA
ENDBRANCH  65  69
ENDBRANCH  39  62
ENDBRANCH  13  14
ENDBRANCH   6   8
ENDBRANCH   5   6
ENDBRANCH   4   5
ENDBRANCH   3   4
ENDBRANCH   2   3
ENDBRANCH   1   2
BRANCH   1  73
ATOM     73  C   UNL A   1      33.728  33.127  27.843  1.00  0.00     0.188 C 
BRANCH  73  74
ATOM     74  O   UNL A   1      34.969  32.481  27.540  1.00  0.00    -0.376 OA
BRANCH  74  75
ATOM     75  C   UNL A   1      34.941  31.057  27.511  1.00  0.00     0.202 C 
BRANCH  75  76
ATOM     76  C   UNL A   1      33.570  30.375  27.363  1.00  0.00     0.261 C 
BRANCH  76  77
ATOM     77  O   UNL A   1      33.326  29.677  26.127  1.00  0.00    -0.460 OA
BRANCH  77  78
ATOM     78  C   UNL A   1      32.490  28.608  26.232  1.00  0.00     0.338 C 
ATOM     79  O   UNL A   1      31.472  28.533  26.899  1.00  0.00    -0.246 OA
BRANCH  78  80
ATOM     80  C   UNL A   1      33.034  27.441  25.505  1.00  0.00     0.060 A 
ATOM     81  C   UNL A   1      33.196  27.458  24.118  1.00  0.00     0.016 A 
ATOM     82  C   UNL A   1      33.281  26.266  26.215  1.00  0.00     0.016 A 
ATOM     83  C   UNL A   1      33.672  26.314  23.450  1.00  0.00     0.007 A 
ATOM     84  C   UNL A   1      33.763  25.133  25.546  1.00  0.00     0.007 A 
ATOM     85  C   UNL A   1      34.027  25.154  24.159  1.00  0.00    -0.025 A 
BRANCH  85  86
ATOM     86  C   UNL A   1      34.898  24.031  23.570  1.00  0.00     0.114 C 
ATOM     87  N   UNL A   1      35.925  23.472  24.501  1.00  0.00    -0.378 N 
ATOM     88  C   UNL A   1      34.032  22.870  23.065  1.00  0.00     0.031 C 
ATOM     89  C   UNL A   1      35.988  22.081  24.720  1.00  0.00     0.038 A 
ATOM     90  H   UNL A   1      36.555  24.073  24.961  1.00  0.00     0.161 HD
ATOM     91  C   UNL A   1      33.572  22.071  24.298  1.00  0.00     0.049 C 
ATOM     92  C   UNL A   1      32.812  23.054  22.186  1.00  0.00     0.034 C 
ATOM     93  C   UNL A   1      37.198  21.403  24.870  1.00  0.00     0.027 A 
ATOM     94  C   UNL A   1      34.804  21.302  24.654  1.00  0.00    -0.016 A 
ATOM     95  C   UNL A   1      32.368  21.378  23.797  1.00  0.00    -0.023 C 
ATOM     96  C   UNL A   1      31.962  21.919  22.647  1.00  0.00    -0.030 C 
ATOM     97  C   UNL A   1      37.225  19.998  24.938  1.00  0.00     0.022 A 
ATOM     98  C   UNL A   1      34.824  19.906  24.762  1.00  0.00     0.027 A 
ATOM     99  C   UNL A   1      36.041  19.260  24.891  1.00  0.00     0.041 A 
ATOM    100  Cl  UNL A   1      36.087  17.540  24.940  1.00  0.00    -0.084 Cl
ENDBRANCH  85  86
ENDBRANCH  78  80
ENDBRANCH  77  78
ENDBRANCH  76  77
ENDBRANCH  75  76
ENDBRANCH  74  75
ENDBRANCH  73  74
ENDBRANCH   1  73
TORSDOF 21
ENDMDL
MODEL 2
REMARK VINA RESULT:     -11.5      4.545      8.748
REMARK SMILES O=C(OCCOCCOCCOC(=O)c1ccc([C@H]2Nc3ccc(Cl)cc3[C@@H]3C=CC[C@@H]23)cc1)c1ccc(-c2c3nc(c(-c4cc(S(=O)(=O)[O-])ccc4F)c4ccc([nH]4)c(-c4cc(S(=O)(=O)[O-])ccc4F)c4nc(c(-c5cc(S(=O)(=O)[O-])ccc5F)c5ccc2[nH]5)C=C4)C=C3)cc1
REMARK SMILES IDX 7 1 6 2 5 3 4 4 3 5 2 6 1 7 35 8 36 9 97 10 37 11 96 12
REMARK SMILES IDX 38 13 39 14 40 15 90 16 41 17 95 18 89 19 91 20 42 21 94 22
REMARK SMILES IDX 88 23 87 24 43 26 75 27 55 28 74 29 56 30 59 31 73 32 92 33
REMARK SMILES IDX 57 34 58 35 72 37 93 38 60 39 44 40 45 41 53 42 46 43 52 44
REMARK SMILES IDX 54 45 51 46 47 47 48 48 49 49 50 50 76 51 77 52 85 53 78 54
REMARK SMILES IDX 84 55 86 56 83 57 79 58 80 59 81 60 82 61 61 62 62 63 70 64
REMARK SMILES IDX 63 65 69 66 71 67 68 68 64 69 65 70 66 71 67 72 8 73 9 74
REMARK SMILES IDX 10 75 11 76 12 77 13 78 14 79 15 80 16 81 34 82 17 83 33 84
REMARK SMILES IDX 18 85 19 86 20 87 32 88 21 89 28 91 31 92 22 93 27 94 29 95
REMARK SMILES IDX 30 96 23 97 26 98 24 99 25 100
REMARK H PARENT 91 25 59 36 20 90
REMARK Flexibility Score: inf
ROOT
ATOM      1  C   UNL A   1      31.640  30.120  25.848  1.00  0.00     0.188 C 
ENDROOT
BRANCH   1   2
ATOM      2  O   UNL A   1      32.421  30.200  27.042  1.00  0.00    -0.376 OA
BRANCH   2   3
ATOM      3  C   UNL A   1      33.050  31.462  27.266  1.00  0.00     0.202 C 
BRANCH   3   4
ATOM      4  C   UNL A   1      32.096  32.666  27.306  1.00  0.00     0.261 C 
BRANCH   4   5
ATOM      5  O   UNL A   1      32.772  33.886  27.651  1.00  0.00    -0.460 OA
BRANCH   5   6
ATOM      6  C   UNL A   1      33.217  34.220  28.889  1.00  0.00     0.338 C 
ATOM      7  O   UNL A   1      32.491  34.854  29.649  1.00  0.00    -0.246 OA
BRANCH   6   8
ATOM      8  C   UNL A   1      34.545  33.760  29.376  1.00  0.00     0.060 A 
ATOM      9  C   UNL A   1      35.761  34.299  28.946  1.00  0.00     0.016 A 
ATOM     10  C   UNL A   1      34.568  32.781  30.365  1.00  0.00     0.016 A 
ATOM     11  C   UNL A   1      36.984  33.791  29.376  1.00  0.00     0.010 A 
ATOM     12  C   UNL A   1      35.793  32.363  30.889  1.00  0.00     0.010 A 
ATOM     13  C   UNL A   1      37.024  32.852  30.395  1.00  0.00    -0.014 A 
BRANCH  13  14
ATOM     14  C   UNL A   1      38.315  32.392  30.999  1.00  0.00     0.031 A 
ATOM     15  C   UNL A   1      39.034  31.253  30.325  1.00  0.00     0.074 A 
ATOM     16  C   UNL A   1      38.719  32.834  32.215  1.00  0.00     0.049 A 
ATOM     17  N   UNL A   1      39.885  30.394  30.816  1.00  0.00    -0.248 NA
ATOM     18  C   UNL A   1      38.669  31.009  28.920  1.00  0.00     0.031 C 
ATOM     19  C   UNL A   1      38.094  33.905  33.005  1.00  0.00     0.029 A 
ATOM     20  N   UNL A   1      39.689  32.344  33.063  1.00  0.00    -0.354 N 
ATOM     21  C   UNL A   1      40.130  29.489  29.787  1.00  0.00     0.074 A 
ATOM     22  C   UNL A   1      39.239  29.837  28.701  1.00  0.00     0.031 C 
ATOM     23  C   UNL A   1      38.643  33.944  34.229  1.00  0.00     0.029 A 
ATOM     24  C   UNL A   1      39.621  32.875  34.338  1.00  0.00     0.049 A 
ATOM     25  H   UNL A   1      40.365  31.683  32.788  1.00  0.00     0.167 HD
ATOM     26  C   UNL A   1      41.056  28.501  29.726  1.00  0.00     0.034 A 
ATOM     27  C   UNL A   1      40.227  32.503  35.483  1.00  0.00     0.034 A 
ATOM     28  C   UNL A   1      41.966  28.216  30.802  1.00  0.00     0.049 A 
ATOM     29  C   UNL A   1      41.214  31.368  35.425  1.00  0.00     0.074 A 
ATOM     30  C   UNL A   1      43.020  27.321  30.837  1.00  0.00     0.029 A 
ATOM     31  N   UNL A   1      41.931  28.841  32.043  1.00  0.00    -0.354 N 
ATOM     32  N   UNL A   1      41.484  30.560  34.426  1.00  0.00    -0.248 NA
ATOM     33  C   UNL A   1      42.007  31.124  36.635  1.00  0.00     0.031 C 
ATOM     34  C   UNL A   1      43.604  27.386  32.109  1.00  0.00     0.029 A 
ATOM     35  C   UNL A   1      42.943  28.356  32.850  1.00  0.00     0.049 A 
ATOM     36  H   UNL A   1      41.280  29.530  32.308  1.00  0.00     0.167 HD
ATOM     37  C   UNL A   1      42.534  29.762  34.863  1.00  0.00     0.074 A 
ATOM     38  C   UNL A   1      42.825  30.166  36.224  1.00  0.00     0.031 C 
ATOM     39  C   UNL A   1      43.221  28.801  34.193  1.00  0.00     0.034 A 
BRANCH  26  40
ATOM     40  C   UNL A   1      41.130  27.712  28.440  1.00  0.00     0.023 A 
ATOM     41  C   UNL A   1      40.504  26.455  28.329  1.00  0.00     0.031 A 
ATOM     42  C   UNL A   1      41.894  28.160  27.352  1.00  0.00     0.131 A 
ATOM     43  C   UNL A   1      40.759  25.639  27.220  1.00  0.00     0.055 A 
ATOM     44  C   UNL A   1      42.061  27.382  26.203  1.00  0.00     0.041 A 
ATOM     45  F   UNL A   1      42.524  29.345  27.398  1.00  0.00    -0.206 F 
ATOM     46  C   UNL A   1      41.513  26.103  26.142  1.00  0.00     0.022 A 
BRANCH  43  47
ATOM     47  S   UNL A   1      40.237  23.902  27.296  1.00  0.00     0.124 S 
ATOM     48  O   UNL A   1      38.854  24.034  27.748  1.00  0.00    -0.237 OA
ATOM     49  O   UNL A   1      40.416  23.455  25.920  1.00  0.00    -0.237 OA
ATOM     50  O   UNL A   1      41.153  23.312  28.269  1.00  0.00    -0.744 OA
ENDBRANCH  43  47
ENDBRANCH  26  40
BRANCH  27  51
ATOM     51  C   UNL A   1      39.933  33.182  36.780  1.00  0.00     0.023 A 
ATOM     52  C   UNL A   1      39.008  32.637  37.683  1.00  0.00     0.031 A 
ATOM     53  C   UNL A   1      40.508  34.423  37.104  1.00  0.00     0.131 A 
ATOM     54  C   UNL A   1      38.642  33.357  38.833  1.00  0.00     0.055 A 
ATOM     55  C   UNL A   1      40.174  35.117  38.271  1.00  0.00     0.041 A 
ATOM     56  F   UNL A   1      41.399  34.998  36.285  1.00  0.00    -0.206 F 
ATOM     57  C   UNL A   1      39.225  34.590  39.136  1.00  0.00     0.022 A 
BRANCH  54  58
ATOM     58  S   UNL A   1      37.315  32.701  39.881  1.00  0.00     0.124 S 
ATOM     59  O   UNL A   1      36.223  32.564  38.924  1.00  0.00    -0.237 OA
ATOM     60  O   UNL A   1      37.905  31.458  40.365  1.00  0.00    -0.237 OA
ATOM     61  O   UNL A   1      37.136  33.741  40.891  1.00  0.00    -0.744 OA
ENDBRANCH  54  58
ENDBRANCH  27  51
BRANCH  39  62
ATOM     62  C   UNL A   1      44.418  28.222  34.893  1.00  0.00     0.023 A 
ATOM     63  C   UNL A   1      44.327  27.071  35.690  1.00  0.00     0.031 A 
ATOM     64  C   UNL A   1      45.667  28.857  34.770  1.00  0.00     0.131 A 
ATOM     65  C   UNL A   1      45.458  26.619  36.382  1.00  0.00     0.055 A 
ATOM     66  C   UNL A   1      46.801  28.368  35.413  1.00  0.00     0.041 A 
ATOM     67  F   UNL A   1      45.799  29.964  34.021  1.00  0.00    -0.206 F 
ATOM     68  C   UNL A   1      46.698  27.249  36.234  1.00  0.00     0.022 A 
BRANCH  65  69
ATOM     69  S   UNL A   1      45.269  25.242  37.545  1.00  0.00     0.124 S 
ATOM     70  O   UNL A   1      45.924  24.152  36.828  1.00  0.00    -0.237 OA
ATOM     71  O   UNL A   1      45.966  25.734  38.729  1.00  0.00    -0.237 OA
ATOM     72  O   UNL A   1      43.820  25.111  37.688  1.00  0.00    -0.744 OA
ENDBRANCH  65  69
ENDBRANCH  39  62
ENDBRANCH  13  14
ENDBRANCH   6   8
ENDBRANCH   5   6
ENDBRANCH   4   5
ENDBRANCH   3   4
ENDBRANCH   2   3
ENDBRANCH   1   2
BRANCH   1  73
ATOM     73  C   UNL A   1      31.585  28.674  25.334  1.00  0.00     0.188 C 
BRANCH  73  74
ATOM     74  O   UNL A   1      32.413  27.744  26.039  1.00  0.00    -0.376 OA
BRANCH  74  75
ATOM     75  C   UNL A   1      33.505  27.197  25.306  1.00  0.00     0.202 C 
BRANCH  75  76
ATOM     76  C   UNL A   1      33.857  27.853  23.959  1.00  0.00     0.261 C 
BRANCH  76  77
ATOM     77  O   UNL A   1      33.788  27.012  22.793  1.00  0.00    -0.460 OA
BRANCH  77  78
ATOM     78  C   UNL A   1      32.541  26.563  22.486  1.00  0.00     0.338 C 
ATOM     79  O   UNL A   1      31.597  27.227  22.091  1.00  0.00    -0.246 OA
BRANCH  78  80
ATOM     80  C   UNL A   1      32.403  25.126  22.805  1.00  0.00     0.060 A 
ATOM     81  C   UNL A   1      33.471  24.240  22.647  1.00  0.00     0.016 A 
ATOM     82  C   UNL A   1      31.146  24.638  23.164  1.00  0.00     0.016 A 
ATOM     83  C   UNL A   1      33.294  22.869  22.915  1.00  0.00     0.007 A 
ATOM     84  C   UNL A   1      30.979  23.274  23.438  1.00  0.00     0.007 A 
ATOM     85  C   UNL A   1      32.064  22.372  23.379  1.00  0.00    -0.025 A 
BRANCH  85  86
ATOM     86  C   UNL A   1      31.901  20.998  24.050  1.00  0.00     0.114 C 
ATOM     87  N   UNL A   1      32.173  19.825  23.165  1.00  0.00    -0.378 N 
ATOM     88  C   UNL A   1      32.799  20.879  25.287  1.00  0.00     0.031 C 
ATOM     89  C   UNL A   1      33.087  18.835  23.576  1.00  0.00     0.038 A 
ATOM     90  H   UNL A   1      31.715  19.745  22.296  1.00  0.00     0.161 HD
ATOM     91  C   UNL A   1      34.235  20.631  24.789  1.00  0.00     0.049 C 
ATOM     92  C   UNL A   1      32.889  21.939  26.364  1.00  0.00     0.034 C 
ATOM     93  C   UNL A   1      32.883  17.478  23.320  1.00  0.00     0.027 A 
ATOM     94  C   UNL A   1      34.189  19.188  24.396  1.00  0.00    -0.016 A 
ATOM     95  C   UNL A   1      35.051  21.075  25.937  1.00  0.00    -0.023 C 
ATOM     96  C   UNL A   1      34.311  21.786  26.789  1.00  0.00    -0.030 C 
ATOM     97  C   UNL A   1      33.741  16.511  23.875  1.00  0.00     0.022 A 
ATOM     98  C   UNL A   1      35.068  18.231  24.917  1.00  0.00     0.027 A 
ATOM     99  C   UNL A   1      34.829  16.892  24.662  1.00  0.00     0.041 A 
ATOM    100  Cl  UNL A   1      35.853  15.699  25.366  1.00  0.00    -0.084 Cl
ENDBRANCH  85  86
ENDBRANCH  78  80
ENDBRANCH  77  78
ENDBRANCH  76  77
ENDBRANCH  75  76
ENDBRANCH  74  75
ENDBRANCH  73  74
ENDBRANCH   1  73
TORSDOF 21
ENDMDL
MODEL 3
REMARK VINA RESULT:     -11.4      3.926      5.433
REMARK SMILES O=C(OCCOCCOCCOC(=O)c1ccc([C@H]2Nc3ccc(Cl)cc3[C@@H]3C=CC[C@@H]23)cc1)c1ccc(-c2c3nc(c(-c4cc(S(=O)(=O)[O-])ccc4F)c4ccc([nH]4)c(-c4cc(S(=O)(=O)[O-])ccc4F)c4nc(c(-c5cc(S(=O)(=O)[O-])ccc5F)c5ccc2[nH]5)C=C4)C=C3)cc1
REMARK SMILES IDX 7 1 6 2 5 3 4 4 3 5 2 6 1 7 35 8 36 9 97 10 37 11 96 12
REMARK SMILES IDX 38 13 39 14 40 15 90 16 41 17 95 18 89 19 91 20 42 21 94 22
REMARK SMILES IDX 88 23 87 24 43 26 75 27 55 28 74 29 56 30 59 31 73 32 92 33
REMARK SMILES IDX 57 34 58 35 72 37 93 38 60 39 44 40 45 41 53 42 46 43 52 44
REMARK SMILES IDX 54 45 51 46 47 47 48 48 49 49 50 50 76 51 77 52 85 53 78 54
REMARK SMILES IDX 84 55 86 56 83 57 79 58 80 59 81 60 82 61 61 62 62 63 70 64
REMARK SMILES IDX 63 65 69 66 71 67 68 68 64 69 65 70 66 71 67 72 8 73 9 74
REMARK SMILES IDX 10 75 11 76 12 77 13 78 14 79 15 80 16 81 34 82 17 83 33 84
REMARK SMILES IDX 18 85 19 86 20 87 32 88 21 89 28 91 31 92 22 93 27 94 29 95
REMARK SMILES IDX 30 96 23 97 26 98 24 99 25 100
REMARK H PARENT 91 25 59 36 20 90
REMARK Flexibility Score: inf
ROOT
ATOM      1  C   UNL A   1      31.463  30.116  25.377  1.00  0.00     0.188 C 
ENDROOT
BRANCH   1   2
ATOM      2  O   UNL A   1      32.684  29.485  24.988  1.00  0.00    -0.376 OA
BRANCH   2   3
ATOM      3  C   UNL A   1      33.773  29.671  25.893  1.00  0.00     0.202 C 
BRANCH   3   4
ATOM      4  C   UNL A   1      33.373  29.850  27.364  1.00  0.00     0.261 C 
BRANCH   4   5
ATOM      5  O   UNL A   1      33.716  31.151  27.870  1.00  0.00    -0.460 OA
BRANCH   5   6
ATOM      6  C   UNL A   1      34.970  31.667  27.935  1.00  0.00     0.338 C 
ATOM      7  O   UNL A   1      35.191  32.793  27.499  1.00  0.00    -0.246 OA
BRANCH   6   8
ATOM      8  C   UNL A   1      36.071  30.921  28.600  1.00  0.00     0.060 A 
ATOM      9  C   UNL A   1      35.869  29.893  29.525  1.00  0.00     0.016 A 
ATOM     10  C   UNL A   1      37.377  31.226  28.226  1.00  0.00     0.016 A 
ATOM     11  C   UNL A   1      36.929  29.268  30.176  1.00  0.00     0.010 A 
ATOM     12  C   UNL A   1      38.437  30.510  28.785  1.00  0.00     0.010 A 
ATOM     13  C   UNL A   1      38.233  29.526  29.779  1.00  0.00    -0.014 A 
BRANCH  13  14
ATOM     14  C   UNL A   1      39.396  28.766  30.338  1.00  0.00     0.031 A 
ATOM     15  C   UNL A   1      40.135  29.377  31.499  1.00  0.00     0.074 A 
ATOM     16  C   UNL A   1      39.897  27.680  29.702  1.00  0.00     0.049 A 
ATOM     17  N   UNL A   1      41.366  29.196  31.896  1.00  0.00    -0.248 NA
ATOM     18  C   UNL A   1      39.397  30.397  32.262  1.00  0.00     0.031 C 
ATOM     19  C   UNL A   1      39.308  27.003  28.537  1.00  0.00     0.029 A 
ATOM     20  N   UNL A   1      41.097  27.023  29.872  1.00  0.00    -0.354 N 
ATOM     21  C   UNL A   1      41.555  30.104  32.933  1.00  0.00     0.074 A 
ATOM     22  C   UNL A   1      40.358  30.914  33.008  1.00  0.00     0.031 C 
ATOM     23  C   UNL A   1      40.167  26.086  28.064  1.00  0.00     0.029 A 
ATOM     24  C   UNL A   1      41.388  26.139  28.849  1.00  0.00     0.049 A 
ATOM     25  H   UNL A   1      41.689  27.168  30.645  1.00  0.00     0.167 HD
ATOM     26  C   UNL A   1      42.603  30.213  33.788  1.00  0.00     0.034 A 
ATOM     27  C   UNL A   1      42.528  25.492  28.539  1.00  0.00     0.034 A 
ATOM     28  C   UNL A   1      43.756  29.356  33.723  1.00  0.00     0.049 A 
ATOM     29  C   UNL A   1      43.709  25.657  29.458  1.00  0.00     0.074 A 
ATOM     30  C   UNL A   1      44.835  29.282  34.584  1.00  0.00     0.029 A 
ATOM     31  N   UNL A   1      43.970  28.406  32.732  1.00  0.00    -0.354 N 
ATOM     32  N   UNL A   1      43.853  26.474  30.476  1.00  0.00    -0.248 NA
ATOM     33  C   UNL A   1      44.861  24.783  29.212  1.00  0.00     0.031 C 
ATOM     34  C   UNL A   1      45.714  28.306  34.097  1.00  0.00     0.029 A 
ATOM     35  C   UNL A   1      45.159  27.739  32.959  1.00  0.00     0.049 A 
ATOM     36  H   UNL A   1      43.361  28.232  31.978  1.00  0.00     0.167 HD
ATOM     37  C   UNL A   1      45.083  26.156  31.039  1.00  0.00     0.074 A 
ATOM     38  C   UNL A   1      45.651  25.097  30.229  1.00  0.00     0.031 C 
ATOM     39  C   UNL A   1      45.681  26.670  32.145  1.00  0.00     0.034 A 
BRANCH  26  40
ATOM     40  C   UNL A   1      42.500  31.267  34.864  1.00  0.00     0.023 A 
ATOM     41  C   UNL A   1      42.845  32.606  34.598  1.00  0.00     0.031 A 
ATOM     42  C   UNL A   1      42.146  30.933  36.181  1.00  0.00     0.131 A 
ATOM     43  C   UNL A   1      42.956  33.526  35.648  1.00  0.00     0.055 A 
ATOM     44  C   UNL A   1      42.162  31.881  37.208  1.00  0.00     0.041 A 
ATOM     45  F   UNL A   1      41.817  29.672  36.503  1.00  0.00    -0.206 F 
ATOM     46  C   UNL A   1      42.592  33.181  36.949  1.00  0.00     0.022 A 
BRANCH  43  47
ATOM     47  S   UNL A   1      43.754  35.121  35.310  1.00  0.00     0.124 S 
ATOM     48  O   UNL A   1      44.915  34.704  34.527  1.00  0.00    -0.237 OA
ATOM     49  O   UNL A   1      42.722  35.844  34.580  1.00  0.00    -0.237 OA
ATOM     50  O   UNL A   1      44.059  35.639  36.640  1.00  0.00    -0.744 OA
ENDBRANCH  43  47
ENDBRANCH  26  40
BRANCH  27  51
ATOM     51  C   UNL A   1      42.636  24.638  27.319  1.00  0.00     0.023 A 
ATOM     52  C   UNL A   1      42.142  23.325  27.313  1.00  0.00     0.031 A 
ATOM     53  C   UNL A   1      43.304  25.088  26.166  1.00  0.00     0.131 A 
ATOM     54  C   UNL A   1      42.373  22.492  26.206  1.00  0.00     0.055 A 
ATOM     55  C   UNL A   1      43.495  24.271  25.049  1.00  0.00     0.041 A 
ATOM     56  F   UNL A   1      43.800  26.331  26.106  1.00  0.00    -0.206 F 
ATOM     57  C   UNL A   1      43.040  22.958  25.070  1.00  0.00     0.022 A 
BRANCH  54  58
ATOM     58  S   UNL A   1      41.874  20.751  26.311  1.00  0.00     0.124 S 
ATOM     59  O   UNL A   1      42.219  20.427  27.690  1.00  0.00    -0.237 OA
ATOM     60  O   UNL A   1      40.450  20.832  26.006  1.00  0.00    -0.237 OA
ATOM     61  O   UNL A   1      42.693  20.102  25.291  1.00  0.00    -0.744 OA
ENDBRANCH  54  58
ENDBRANCH  27  51
BRANCH  39  62
ATOM     62  C   UNL A   1      46.951  26.001  32.591  1.00  0.00     0.023 A 
ATOM     63  C   UNL A   1      46.952  24.965  33.537  1.00  0.00     0.031 A 
ATOM     64  C   UNL A   1      48.183  26.435  32.068  1.00  0.00     0.131 A 
ATOM     65  C   UNL A   1      48.171  24.430  33.974  1.00  0.00     0.055 A 
ATOM     66  C   UNL A   1      49.387  25.858  32.463  1.00  0.00     0.041 A 
ATOM     67  F   UNL A   1      48.229  27.428  31.165  1.00  0.00    -0.206 F 
ATOM     68  C   UNL A   1      49.387  24.858  33.430  1.00  0.00     0.022 A 
BRANCH  65  69
ATOM     69  S   UNL A   1      48.152  23.223  35.325  1.00  0.00     0.124 S 
ATOM     70  O   UNL A   1      49.549  23.224  35.748  1.00  0.00    -0.237 OA
ATOM     71  O   UNL A   1      47.203  23.816  36.261  1.00  0.00    -0.237 OA
ATOM     72  O   UNL A   1      47.699  21.992  34.679  1.00  0.00    -0.744 OA
ENDBRANCH  65  69
ENDBRANCH  39  62
ENDBRANCH  13  14
ENDBRANCH   6   8
ENDBRANCH   5   6
ENDBRANCH   4   5
ENDBRANCH   3   4
ENDBRANCH   2   3
ENDBRANCH   1   2
BRANCH   1  73
ATOM     73  C   UNL A   1      30.423  30.022  24.251  1.00  0.00     0.188 C 
BRANCH  73  74
ATOM     74  O   UNL A   1      29.955  28.702  23.961  1.00  0.00    -0.376 OA
BRANCH  74  75
ATOM     75  C   UNL A   1      29.907  28.343  22.584  1.00  0.00     0.202 C 
BRANCH  75  76
ATOM     76  C   UNL A   1      31.016  27.420  22.050  1.00  0.00     0.261 C 
BRANCH  76  77
ATOM     77  O   UNL A   1      32.168  27.239  22.895  1.00  0.00    -0.460 OA
BRANCH  77  78
ATOM     78  C   UNL A   1      33.064  26.317  22.448  1.00  0.00     0.338 C 
ATOM     79  O   UNL A   1      33.850  26.444  21.524  1.00  0.00    -0.246 OA
BRANCH  78  80
ATOM     80  C   UNL A   1      32.900  25.033  23.161  1.00  0.00     0.060 A 
ATOM     81  C   UNL A   1      33.094  23.811  22.514  1.00  0.00     0.016 A 
ATOM     82  C   UNL A   1      32.434  25.053  24.476  1.00  0.00     0.016 A 
ATOM     83  C   UNL A   1      32.884  22.604  23.210  1.00  0.00     0.007 A 
ATOM     84  C   UNL A   1      32.235  23.849  25.166  1.00  0.00     0.007 A 
ATOM     85  C   UNL A   1      32.516  22.602  24.566  1.00  0.00    -0.025 A 
BRANCH  85  86
ATOM     86  C   UNL A   1      32.643  21.372  25.479  1.00  0.00     0.114 C 
ATOM     87  N   UNL A   1      32.073  20.108  24.922  1.00  0.00    -0.378 N 
ATOM     88  C   UNL A   1      34.108  21.110  25.849  1.00  0.00     0.031 C 
ATOM     89  C   UNL A   1      32.866  18.944  24.873  1.00  0.00     0.038 A 
ATOM     90  H   UNL A   1      31.146  20.088  24.590  1.00  0.00     0.161 HD
ATOM     91  C   UNL A   1      34.780  20.457  24.628  1.00  0.00     0.049 C 
ATOM     92  C   UNL A   1      35.053  22.184  26.344  1.00  0.00     0.034 C 
ATOM     93  C   UNL A   1      32.345  17.674  25.124  1.00  0.00     0.027 A 
ATOM     94  C   UNL A   1      34.269  19.053  24.697  1.00  0.00    -0.016 A 
ATOM     95  C   UNL A   1      36.209  20.753  24.854  1.00  0.00    -0.023 C 
ATOM     96  C   UNL A   1      36.348  21.693  25.790  1.00  0.00    -0.030 C 
ATOM     97  C   UNL A   1      33.197  16.558  25.211  1.00  0.00     0.022 A 
ATOM     98  C   UNL A   1      35.115  17.939  24.743  1.00  0.00     0.027 A 
ATOM     99  C   UNL A   1      34.572  16.695  25.014  1.00  0.00     0.041 A 
ATOM    100  Cl  UNL A   1      35.611  15.329  25.157  1.00  0.00    -0.084 Cl
ENDBRANCH  85  86
ENDBRANCH  78  80
ENDBRANCH  77  78
ENDBRANCH  76  77
ENDBRANCH  75  76
ENDBRANCH  74  75
ENDBRANCH  73  74
ENDBRANCH   1  73
TORSDOF 21
ENDMDL
