MODEL 1
REMARK VINA RESULT:     -11.7      0.000      0.000
REMARK SMILES Cc1cc(C(=O)OCCOCCOCCOC(=O)c2ccc(-c3c4nc(c(-c5cc(S(=O)(=O)[O-])ccc5F)c5ccc([nH]5)c(-c5cc(S(=O)(=O)[O-])ccc5F)c5nc(c(-c6cc(S(=O)(=O)[O-])ccc6F)c6ccc3[nH]6)C=C5)C=C4)cc2)ccc1NC(=O)N1C[C@@H](C)[C@H](C)C1
REMARK SMILES IDX 12 1 11 2 10 3 9 4 8 5 7 6 5 7 6 8 4 9 1 10 2 11 3 12 84 13
REMARK SMILES IDX 83 14 82 15 85 16 86 17 87 19 88 20 89 21 94 22 90 23 92 24
REMARK SMILES IDX 91 25 93 26 13 27 14 28 15 29 16 30 17 31 18 32 19 33 20 34
REMARK SMILES IDX 81 35 21 36 80 37 22 38 23 39 24 40 74 41 25 42 79 43 73 44
REMARK SMILES IDX 75 45 26 46 78 47 72 48 71 49 27 51 59 52 39 53 58 54 40 55
REMARK SMILES IDX 43 56 57 57 76 58 41 59 42 60 56 62 77 63 44 64 28 65 29 66
REMARK SMILES IDX 37 67 30 68 36 69 38 70 35 71 31 72 32 73 33 74 34 75 60 76
REMARK SMILES IDX 61 77 69 78 62 79 68 80 70 81 67 82 63 83 64 84 65 85 66 86
REMARK SMILES IDX 45 87 46 88 54 89 47 90 53 91 55 92 52 93 48 94 49 95 50 96
REMARK SMILES IDX 51 97
REMARK H PARENT 85 18 75 50 43 61
REMARK Flexibility Score: inf
ROOT
ATOM      1  C   UNL A   1      34.364  30.639  27.263  1.00  0.00     0.188 C 
ENDROOT
BRANCH   1   2
ATOM      2  C   UNL A   1      32.872  30.294  27.321  1.00  0.00     0.188 C 
BRANCH   2   3
ATOM      3  O   UNL A   1      32.737  28.858  27.524  1.00  0.00    -0.376 OA
BRANCH   3   4
ATOM      4  C   UNL A   1      31.401  28.304  27.557  1.00  0.00     0.202 C 
BRANCH   4   5
ATOM      5  C   UNL A   1      31.074  26.965  26.587  1.00  0.00     0.261 C 
BRANCH   5   6
ATOM      6  O   UNL A   1      31.675  25.498  26.886  1.00  0.00    -0.460 OA
BRANCH   6   7
ATOM      7  C   UNL A   1      31.413  24.160  26.660  1.00  0.00     0.338 C 
ATOM      8  O   UNL A   1      30.921  23.372  27.455  1.00  0.00    -0.246 OA
BRANCH   7   9
ATOM      9  C   UNL A   1      31.970  23.532  25.392  1.00  0.00     0.060 A 
ATOM     10  C   UNL A   1      35.173  23.114  23.202  1.00  0.00     0.046 C 
ATOM     11  C   UNL A   1      33.737  23.345  23.616  1.00  0.00    -0.027 A 
ATOM     12  C   UNL A   1      33.348  23.455  24.986  1.00  0.00     0.021 A 
ATOM     13  C   UNL A   1      32.716  23.518  22.684  1.00  0.00     0.045 A 
ATOM     14  C   UNL A   1      31.375  23.385  23.084  1.00  0.00     0.027 A 
ATOM     15  C   UNL A   1      31.001  23.378  24.421  1.00  0.00     0.018 A 
BRANCH  13  16
ATOM     16  N   UNL A   1      32.977  24.016  21.385  1.00  0.00    -0.308 N 
ATOM     17  C   UNL A   1      32.564  25.257  20.945  1.00  0.00     0.321 C 
ATOM     18  H   UNL A   1      33.481  23.446  20.761  1.00  0.00     0.171 HD
ATOM     19  O   UNL A   1      32.258  25.443  19.768  1.00  0.00    -0.248 OA
ATOM     20  N   UNL A   1      32.504  26.255  21.896  1.00  0.00    -0.324 N 
ATOM     21  C   UNL A   1      31.410  27.197  21.969  1.00  0.00     0.125 C 
ATOM     22  C   UNL A   1      33.589  26.614  22.810  1.00  0.00     0.125 C 
ATOM     23  C   UNL A   1      31.884  28.307  22.905  1.00  0.00     0.010 C 
ATOM     24  C   UNL A   1      32.970  27.631  23.767  1.00  0.00     0.010 C 
ATOM     25  C   UNL A   1      30.753  28.889  23.743  1.00  0.00     0.010 C 
ATOM     26  C   UNL A   1      33.981  28.627  24.324  1.00  0.00     0.010 C 
ENDBRANCH  13  16
ENDBRANCH   7   9
ENDBRANCH   6   7
ENDBRANCH   5   6
ENDBRANCH   4   5
ENDBRANCH   3   4
ENDBRANCH   2   3
ENDBRANCH   1   2
BRANCH   1  27
ATOM     27  O   UNL A   1      34.416  32.065  27.258  1.00  0.00    -0.376 OA
BRANCH  27  28
ATOM     28  C   UNL A   1      34.127  32.718  28.473  1.00  0.00     0.202 C 
BRANCH  28  29
ATOM     29  C   UNL A   1      35.377  33.320  29.123  1.00  0.00     0.261 C 
BRANCH  29  30
ATOM     30  O   UNL A   1      36.439  32.337  29.188  1.00  0.00    -0.460 OA
BRANCH  30  31
ATOM     31  C   UNL A   1      36.369  31.431  30.233  1.00  0.00     0.338 C 
ATOM     32  O   UNL A   1      35.783  31.646  31.252  1.00  0.00    -0.246 OA
BRANCH  31  33
ATOM     33  C   UNL A   1      37.076  30.144  29.857  1.00  0.00     0.060 A 
ATOM     34  C   UNL A   1      37.308  29.045  30.690  1.00  0.00     0.016 A 
ATOM     35  C   UNL A   1      37.766  30.125  28.691  1.00  0.00     0.016 A 
ATOM     36  C   UNL A   1      38.284  28.004  30.349  1.00  0.00     0.010 A 
ATOM     37  C   UNL A   1      38.866  29.259  28.614  1.00  0.00     0.010 A 
ATOM     38  C   UNL A   1      39.159  28.085  29.261  1.00  0.00    -0.014 A 
BRANCH  38  39
ATOM     39  C   UNL A   1      40.487  27.304  28.954  1.00  0.00     0.031 A 
ATOM     40  C   UNL A   1      40.812  25.804  28.517  1.00  0.00     0.074 A 
ATOM     41  C   UNL A   1      41.611  28.049  28.996  1.00  0.00     0.049 A 
ATOM     42  N   UNL A   1      41.571  24.935  29.156  1.00  0.00    -0.248 NA
ATOM     43  C   UNL A   1      40.461  25.212  27.222  1.00  0.00     0.031 C 
ATOM     44  C   UNL A   1      42.978  27.640  28.691  1.00  0.00     0.029 A 
ATOM     45  N   UNL A   1      41.744  29.298  29.588  1.00  0.00    -0.354 N 
ATOM     46  C   UNL A   1      41.732  23.782  28.341  1.00  0.00     0.074 A 
ATOM     47  C   UNL A   1      40.892  23.959  27.221  1.00  0.00     0.031 C 
ATOM     48  C   UNL A   1      43.806  28.435  29.389  1.00  0.00     0.029 A 
ATOM     49  C   UNL A   1      42.989  29.306  30.220  1.00  0.00     0.049 A 
ATOM     50  H   UNL A   1      41.090  30.034  29.566  1.00  0.00     0.167 HD
ATOM     51  C   UNL A   1      42.720  22.837  28.371  1.00  0.00     0.034 A 
ATOM     52  C   UNL A   1      43.038  29.422  31.576  1.00  0.00     0.034 A 
ATOM     53  C   UNL A   1      43.843  23.367  29.081  1.00  0.00     0.049 A 
ATOM     54  C   UNL A   1      43.667  28.213  32.234  1.00  0.00     0.074 A 
ATOM     55  C   UNL A   1      44.949  24.067  28.636  1.00  0.00     0.029 A 
ATOM     56  N   UNL A   1      43.720  23.590  30.430  1.00  0.00    -0.354 N 
ATOM     57  N   UNL A   1      43.860  27.060  31.646  1.00  0.00    -0.248 NA
ATOM     58  C   UNL A   1      44.146  28.226  33.610  1.00  0.00     0.031 C 
ATOM     59  C   UNL A   1      45.411  24.845  29.727  1.00  0.00     0.029 A 
ATOM     60  C   UNL A   1      44.646  24.525  30.834  1.00  0.00     0.049 A 
ATOM     61  H   UNL A   1      43.068  23.148  31.021  1.00  0.00     0.167 HD
ATOM     62  C   UNL A   1      44.440  26.188  32.534  1.00  0.00     0.074 A 
ATOM     63  C   UNL A   1      44.632  26.981  33.734  1.00  0.00     0.031 C 
ATOM     64  C   UNL A   1      44.706  24.881  32.232  1.00  0.00     0.034 A 
BRANCH  51  65
ATOM     65  C   UNL A   1      42.774  21.641  27.410  1.00  0.00     0.023 A 
ATOM     66  C   UNL A   1      43.829  21.443  26.491  1.00  0.00     0.031 A 
ATOM     67  C   UNL A   1      41.767  20.644  27.392  1.00  0.00     0.131 A 
ATOM     68  C   UNL A   1      43.787  20.388  25.543  1.00  0.00     0.055 A 
ATOM     69  C   UNL A   1      41.695  19.639  26.414  1.00  0.00     0.041 A 
ATOM     70  F   UNL A   1      40.798  20.630  28.323  1.00  0.00    -0.206 F 
ATOM     71  C   UNL A   1      42.698  19.521  25.466  1.00  0.00     0.022 A 
BRANCH  68  72
ATOM     72  S   UNL A   1      45.188  20.133  24.407  1.00  0.00     0.124 S 
ATOM     73  O   UNL A   1      44.691  20.706  23.161  1.00  0.00    -0.237 OA
ATOM     74  O   UNL A   1      46.260  20.864  25.074  1.00  0.00    -0.237 OA
ATOM     75  O   UNL A   1      45.357  18.679  24.389  1.00  0.00    -0.744 OA
ENDBRANCH  68  72
ENDBRANCH  51  65
BRANCH  52  76
ATOM     76  C   UNL A   1      41.989  30.333  32.156  1.00  0.00     0.023 A 
ATOM     77  C   UNL A   1      42.143  31.720  31.904  1.00  0.00     0.031 A 
ATOM     78  C   UNL A   1      40.742  29.912  32.640  1.00  0.00     0.131 A 
ATOM     79  C   UNL A   1      41.049  32.594  31.955  1.00  0.00     0.055 A 
ATOM     80  C   UNL A   1      39.669  30.812  32.786  1.00  0.00     0.041 A 
ATOM     81  F   UNL A   1      40.487  28.610  32.829  1.00  0.00    -0.206 F 
ATOM     82  C   UNL A   1      39.809  32.152  32.411  1.00  0.00     0.022 A 
BRANCH  79  83
ATOM     83  S   UNL A   1      41.171  34.212  31.121  1.00  0.00     0.124 S 
ATOM     84  O   UNL A   1      42.109  34.927  31.977  1.00  0.00    -0.237 OA
ATOM     85  O   UNL A   1      41.659  33.866  29.787  1.00  0.00    -0.237 OA
ATOM     86  O   UNL A   1      39.792  34.690  31.141  1.00  0.00    -0.744 OA
ENDBRANCH  79  83
ENDBRANCH  52  76
BRANCH  64  87
ATOM     87  C   UNL A   1      45.083  23.797  33.216  1.00  0.00     0.023 A 
ATOM     88  C   UNL A   1      46.386  23.637  33.688  1.00  0.00     0.031 A 
ATOM     89  C   UNL A   1      44.111  22.937  33.794  1.00  0.00     0.131 A 
ATOM     90  C   UNL A   1      46.713  22.604  34.576  1.00  0.00     0.055 A 
ATOM     91  C   UNL A   1      44.418  21.994  34.778  1.00  0.00     0.041 A 
ATOM     92  F   UNL A   1      42.820  22.977  33.433  1.00  0.00    -0.206 F 
ATOM     93  C   UNL A   1      45.735  21.801  35.157  1.00  0.00     0.022 A 
BRANCH  90  94
ATOM     94  S   UNL A   1      48.467  22.254  34.827  1.00  0.00     0.124 S 
ATOM     95  O   UNL A   1      48.608  22.470  36.266  1.00  0.00    -0.237 OA
ATOM     96  O   UNL A   1      48.577  20.869  34.382  1.00  0.00    -0.237 OA
ATOM     97  O   UNL A   1      49.138  23.241  33.984  1.00  0.00    -0.744 OA
ENDBRANCH  90  94
ENDBRANCH  64  87
ENDBRANCH  38  39
ENDBRANCH  31  33
ENDBRANCH  30  31
ENDBRANCH  29  30
ENDBRANCH  28  29
ENDBRANCH  27  28
ENDBRANCH   1  27
TORSDOF 21
ENDMDL
MODEL 2
REMARK VINA RESULT:     -11.4      2.300      2.754
REMARK SMILES Cc1cc(C(=O)OCCOCCOCCOC(=O)c2ccc(-c3c4nc(c(-c5cc(S(=O)(=O)[O-])ccc5F)c5ccc([nH]5)c(-c5cc(S(=O)(=O)[O-])ccc5F)c5nc(c(-c6cc(S(=O)(=O)[O-])ccc6F)c6ccc3[nH]6)C=C5)C=C4)cc2)ccc1NC(=O)N1C[C@@H](C)[C@H](C)C1
REMARK SMILES IDX 12 1 11 2 10 3 9 4 8 5 7 6 5 7 6 8 4 9 1 10 2 11 3 12 84 13
REMARK SMILES IDX 83 14 82 15 85 16 86 17 87 19 88 20 89 21 94 22 90 23 92 24
REMARK SMILES IDX 91 25 93 26 13 27 14 28 15 29 16 30 17 31 18 32 19 33 20 34
REMARK SMILES IDX 81 35 21 36 80 37 22 38 23 39 24 40 74 41 25 42 79 43 73 44
REMARK SMILES IDX 75 45 26 46 78 47 72 48 71 49 27 51 59 52 39 53 58 54 40 55
REMARK SMILES IDX 43 56 57 57 76 58 41 59 42 60 56 62 77 63 44 64 28 65 29 66
REMARK SMILES IDX 37 67 30 68 36 69 38 70 35 71 31 72 32 73 33 74 34 75 60 76
REMARK SMILES IDX 61 77 69 78 62 79 68 80 70 81 67 82 63 83 64 84 65 85 66 86
REMARK SMILES IDX 45 87 46 88 54 89 47 90 53 91 55 92 52 93 48 94 49 95 50 96
REMARK SMILES IDX 51 97
REMARK H PARENT 85 18 75 50 43 61
REMARK Flexibility Score: inf
ROOT
ATOM      1  C   UNL A   1      34.220  30.765  27.180  1.00  0.00     0.188 C 
ENDROOT
BRANCH   1   2
ATOM      2  C   UNL A   1      32.747  30.347  27.249  1.00  0.00     0.188 C 
BRANCH   2   3
ATOM      3  O   UNL A   1      32.684  28.915  27.505  1.00  0.00    -0.376 OA
BRANCH   3   4
ATOM      4  C   UNL A   1      31.377  28.303  27.600  1.00  0.00     0.202 C 
BRANCH   4   5
ATOM      5  C   UNL A   1      31.050  26.976  26.612  1.00  0.00     0.261 C 
BRANCH   5   6
ATOM      6  O   UNL A   1      31.675  25.513  26.874  1.00  0.00    -0.460 OA
BRANCH   6   7
ATOM      7  C   UNL A   1      31.411  24.173  26.660  1.00  0.00     0.338 C 
ATOM      8  O   UNL A   1      30.925  23.392  27.466  1.00  0.00    -0.246 OA
BRANCH   7   9
ATOM      9  C   UNL A   1      31.954  23.536  25.392  1.00  0.00     0.060 A 
ATOM     10  C   UNL A   1      35.148  23.052  23.202  1.00  0.00     0.046 C 
ATOM     11  C   UNL A   1      33.717  23.314  23.616  1.00  0.00    -0.027 A 
ATOM     12  C   UNL A   1      33.331  23.430  24.986  1.00  0.00     0.021 A 
ATOM     13  C   UNL A   1      32.700  23.509  22.683  1.00  0.00     0.045 A 
ATOM     14  C   UNL A   1      31.357  23.404  23.083  1.00  0.00     0.027 A 
ATOM     15  C   UNL A   1      30.983  23.403  24.420  1.00  0.00     0.018 A 
BRANCH  13  16
ATOM     16  N   UNL A   1      32.972  24.003  21.386  1.00  0.00    -0.308 N 
ATOM     17  C   UNL A   1      32.575  25.248  20.943  1.00  0.00     0.321 C 
ATOM     18  H   UNL A   1      33.473  23.427  20.765  1.00  0.00     0.171 HD
ATOM     19  O   UNL A   1      32.276  25.436  19.764  1.00  0.00    -0.248 OA
ATOM     20  N   UNL A   1      32.520  26.247  21.892  1.00  0.00    -0.324 N 
ATOM     21  C   UNL A   1      31.436  27.200  21.960  1.00  0.00     0.125 C 
ATOM     22  C   UNL A   1      33.604  26.596  22.810  1.00  0.00     0.125 C 
ATOM     23  C   UNL A   1      31.916  28.306  22.897  1.00  0.00     0.010 C 
ATOM     24  C   UNL A   1      32.991  27.620  23.764  1.00  0.00     0.010 C 
ATOM     25  C   UNL A   1      30.788  28.901  23.728  1.00  0.00     0.010 C 
ATOM     26  C   UNL A   1      34.010  28.607  24.324  1.00  0.00     0.010 C 
ENDBRANCH  13  16
ENDBRANCH   7   9
ENDBRANCH   6   7
ENDBRANCH   5   6
ENDBRANCH   4   5
ENDBRANCH   3   4
ENDBRANCH   2   3
ENDBRANCH   1   2
BRANCH   1  27
ATOM     27  O   UNL A   1      34.207  32.189  27.269  1.00  0.00    -0.376 OA
BRANCH  27  28
ATOM     28  C   UNL A   1      33.329  32.760  28.212  1.00  0.00     0.202 C 
BRANCH  28  29
ATOM     29  C   UNL A   1      34.067  33.585  29.272  1.00  0.00     0.261 C 
BRANCH  29  30
ATOM     30  O   UNL A   1      35.398  33.055  29.492  1.00  0.00    -0.460 OA
BRANCH  30  31
ATOM     31  C   UNL A   1      35.520  32.111  30.498  1.00  0.00     0.338 C 
ATOM     32  O   UNL A   1      34.958  32.195  31.549  1.00  0.00    -0.246 OA
BRANCH  31  33
ATOM     33  C   UNL A   1      36.401  30.967  30.037  1.00  0.00     0.060 A 
ATOM     34  C   UNL A   1      36.840  29.888  30.810  1.00  0.00     0.016 A 
ATOM     35  C   UNL A   1      37.029  31.100  28.844  1.00  0.00     0.016 A 
ATOM     36  C   UNL A   1      37.949  29.027  30.385  1.00  0.00     0.010 A 
ATOM     37  C   UNL A   1      38.245  30.422  28.683  1.00  0.00     0.010 A 
ATOM     38  C   UNL A   1      38.747  29.285  29.266  1.00  0.00    -0.014 A 
BRANCH  38  39
ATOM     39  C   UNL A   1      40.165  28.734  28.870  1.00  0.00     0.031 A 
ATOM     40  C   UNL A   1      40.702  27.316  28.375  1.00  0.00     0.074 A 
ATOM     41  C   UNL A   1      41.156  29.650  28.877  1.00  0.00     0.049 A 
ATOM     42  N   UNL A   1      41.623  26.568  28.950  1.00  0.00    -0.248 NA
ATOM     43  C   UNL A   1      40.380  26.701  27.083  1.00  0.00     0.031 C 
ATOM     44  C   UNL A   1      42.552  29.473  28.492  1.00  0.00     0.029 A 
ATOM     45  N   UNL A   1      41.119  30.892  29.496  1.00  0.00    -0.354 N 
ATOM     46  C   UNL A   1      41.922  25.472  28.096  1.00  0.00     0.074 A 
ATOM     47  C   UNL A   1      41.005  25.534  27.025  1.00  0.00     0.031 C 
ATOM     48  C   UNL A   1      43.279  30.377  29.169  1.00  0.00     0.029 A 
ATOM     49  C   UNL A   1      42.380  31.088  30.065  1.00  0.00     0.049 A 
ATOM     50  H   UNL A   1      40.355  31.513  29.528  1.00  0.00     0.167 HD
ATOM     51  C   UNL A   1      43.049  24.698  28.049  1.00  0.00     0.034 A 
ATOM     52  C   UNL A   1      42.483  31.184  31.420  1.00  0.00     0.034 A 
ATOM     53  C   UNL A   1      44.109  25.389  28.716  1.00  0.00     0.049 A 
ATOM     54  C   UNL A   1      43.331  30.079  32.011  1.00  0.00     0.074 A 
ATOM     55  C   UNL A   1      45.063  26.267  28.236  1.00  0.00     0.029 A 
ATOM     56  N   UNL A   1      44.025  25.562  30.076  1.00  0.00    -0.354 N 
ATOM     57  N   UNL A   1      43.674  28.983  31.381  1.00  0.00    -0.248 NA
ATOM     58  C   UNL A   1      43.877  30.141  33.360  1.00  0.00     0.031 C 
ATOM     59  C   UNL A   1      45.454  27.087  29.324  1.00  0.00     0.029 A 
ATOM     60  C   UNL A   1      44.811  26.625  30.459  1.00  0.00     0.049 A 
ATOM     61  H   UNL A   1      43.485  25.008  30.685  1.00  0.00     0.167 HD
ATOM     62  C   UNL A   1      44.434  28.199  32.213  1.00  0.00     0.074 A 
ATOM     63  C   UNL A   1      44.562  28.989  33.425  1.00  0.00     0.031 C 
ATOM     64  C   UNL A   1      44.889  26.958  31.861  1.00  0.00     0.034 A 
BRANCH  51  65
ATOM     65  C   UNL A   1      43.241  23.546  27.053  1.00  0.00     0.023 A 
ATOM     66  C   UNL A   1      42.586  22.301  27.186  1.00  0.00     0.031 A 
ATOM     67  C   UNL A   1      44.084  23.662  25.921  1.00  0.00     0.131 A 
ATOM     68  C   UNL A   1      42.874  21.223  26.310  1.00  0.00     0.055 A 
ATOM     69  C   UNL A   1      44.417  22.578  25.092  1.00  0.00     0.041 A 
ATOM     70  F   UNL A   1      44.634  24.843  25.593  1.00  0.00    -0.206 F 
ATOM     71  C   UNL A   1      43.827  21.341  25.300  1.00  0.00     0.022 A 
BRANCH  68  72
ATOM     72  S   UNL A   1      41.974  19.649  26.480  1.00  0.00     0.124 S 
ATOM     73  O   UNL A   1      40.590  20.052  26.262  1.00  0.00    -0.237 OA
ATOM     74  O   UNL A   1      42.583  18.834  25.435  1.00  0.00    -0.237 OA
ATOM     75  O   UNL A   1      42.280  19.223  27.847  1.00  0.00    -0.744 OA
ENDBRANCH  68  72
ENDBRANCH  51  65
BRANCH  52  76
ATOM     76  C   UNL A   1      41.335  31.902  32.077  1.00  0.00     0.023 A 
ATOM     77  C   UNL A   1      40.378  31.094  32.742  1.00  0.00     0.031 A 
ATOM     78  C   UNL A   1      41.302  33.277  32.350  1.00  0.00     0.131 A 
ATOM     79  C   UNL A   1      39.568  31.615  33.760  1.00  0.00     0.055 A 
ATOM     80  C   UNL A   1      40.416  33.815  33.304  1.00  0.00     0.041 A 
ATOM     81  F   UNL A   1      42.220  34.100  31.827  1.00  0.00    -0.206 F 
ATOM     82  C   UNL A   1      39.568  32.979  34.038  1.00  0.00     0.022 A 
BRANCH  79  83
ATOM     83  S   UNL A   1      38.765  30.464  34.926  1.00  0.00     0.124 S 
ATOM     84  O   UNL A   1      37.797  31.328  35.590  1.00  0.00    -0.237 OA
ATOM     85  O   UNL A   1      38.208  29.434  34.051  1.00  0.00    -0.237 OA
ATOM     86  O   UNL A   1      39.881  30.004  35.746  1.00  0.00    -0.744 OA
ENDBRANCH  79  83
ENDBRANCH  52  76
BRANCH  64  87
ATOM     87  C   UNL A   1      45.487  25.930  32.794  1.00  0.00     0.023 A 
ATOM     88  C   UNL A   1      44.701  25.063  33.553  1.00  0.00     0.031 A 
ATOM     89  C   UNL A   1      46.890  25.719  32.878  1.00  0.00     0.131 A 
ATOM     90  C   UNL A   1      45.283  24.141  34.433  1.00  0.00     0.055 A 
ATOM     91  C   UNL A   1      47.463  24.709  33.656  1.00  0.00     0.041 A 
ATOM     92  F   UNL A   1      47.766  26.479  32.204  1.00  0.00    -0.206 F 
ATOM     93  C   UNL A   1      46.657  23.928  34.466  1.00  0.00     0.022 A 
BRANCH  90  94
ATOM     94  S   UNL A   1      44.192  23.340  35.630  1.00  0.00     0.124 S 
ATOM     95  O   UNL A   1      43.029  23.024  34.804  1.00  0.00    -0.237 OA
ATOM     96  O   UNL A   1      44.988  22.198  36.064  1.00  0.00    -0.237 OA
ATOM     97  O   UNL A   1      43.972  24.373  36.639  1.00  0.00    -0.744 OA
ENDBRANCH  90  94
ENDBRANCH  64  87
ENDBRANCH  38  39
ENDBRANCH  31  33
ENDBRANCH  30  31
ENDBRANCH  29  30
ENDBRANCH  28  29
ENDBRANCH  27  28
ENDBRANCH   1  27
TORSDOF 21
ENDMDL
MODEL 3
REMARK VINA RESULT:     -11.1      3.514      5.578
REMARK SMILES Cc1cc(C(=O)OCCOCCOCCOC(=O)c2ccc(-c3c4nc(c(-c5cc(S(=O)(=O)[O-])ccc5F)c5ccc([nH]5)c(-c5cc(S(=O)(=O)[O-])ccc5F)c5nc(c(-c6cc(S(=O)(=O)[O-])ccc6F)c6ccc3[nH]6)C=C5)C=C4)cc2)ccc1NC(=O)N1C[C@@H](C)[C@H](C)C1
REMARK SMILES IDX 12 1 11 2 10 3 9 4 8 5 7 6 5 7 6 8 4 9 1 10 2 11 3 12 84 13
REMARK SMILES IDX 83 14 82 15 85 16 86 17 87 19 88 20 89 21 94 22 90 23 92 24
REMARK SMILES IDX 91 25 93 26 13 27 14 28 15 29 16 30 17 31 18 32 19 33 20 34
REMARK SMILES IDX 81 35 21 36 80 37 22 38 23 39 24 40 74 41 25 42 79 43 73 44
REMARK SMILES IDX 75 45 26 46 78 47 72 48 71 49 27 51 59 52 39 53 58 54 40 55
REMARK SMILES IDX 43 56 57 57 76 58 41 59 42 60 56 62 77 63 44 64 28 65 29 66
REMARK SMILES IDX 37 67 30 68 36 69 38 70 35 71 31 72 32 73 33 74 34 75 60 76
REMARK SMILES IDX 61 77 69 78 62 79 68 80 70 81 67 82 63 83 64 84 65 85 66 86
REMARK SMILES IDX 45 87 46 88 54 89 47 90 53 91 55 92 52 93 48 94 49 95 50 96
REMARK SMILES IDX 51 97
REMARK H PARENT 85 18 75 50 43 61
REMARK Flexibility Score: inf
ROOT
ATOM      1  C   UNL A   1      33.268  36.197  28.799  1.00  0.00     0.188 C 
ENDROOT
BRANCH   1   2
ATOM      2  C   UNL A   1      34.206  35.039  29.158  1.00  0.00     0.188 C 
BRANCH   2   3
ATOM      3  O   UNL A   1      34.351  34.183  27.989  1.00  0.00    -0.376 OA
BRANCH   3   4
ATOM      4  C   UNL A   1      33.536  32.989  27.922  1.00  0.00     0.202 C 
BRANCH   4   5
ATOM      5  C   UNL A   1      34.303  31.496  28.079  1.00  0.00     0.261 C 
BRANCH   5   6
ATOM      6  O   UNL A   1      34.151  30.314  26.993  1.00  0.00    -0.460 OA
BRANCH   6   7
ATOM      7  C   UNL A   1      33.320  29.262  26.653  1.00  0.00     0.338 C 
ATOM      8  O   UNL A   1      33.126  28.249  27.310  1.00  0.00    -0.246 OA
BRANCH   7   9
ATOM      9  C   UNL A   1      32.745  29.238  25.247  1.00  0.00     0.060 A 
ATOM     10  C   UNL A   1      29.654  28.204  23.100  1.00  0.00     0.046 C 
ATOM     11  C   UNL A   1      31.081  28.407  23.558  1.00  0.00    -0.027 A 
ATOM     12  C   UNL A   1      31.399  28.909  24.857  1.00  0.00     0.021 A 
ATOM     13  C   UNL A   1      32.171  28.067  22.758  1.00  0.00     0.045 A 
ATOM     14  C   UNL A   1      33.445  28.578  23.061  1.00  0.00     0.027 A 
ATOM     15  C   UNL A   1      33.731  29.170  24.283  1.00  0.00     0.018 A 
BRANCH  13  16
ATOM     16  N   UNL A   1      32.074  27.065  21.764  1.00  0.00    -0.308 N 
ATOM     17  C   UNL A   1      32.741  25.859  21.825  1.00  0.00     0.321 C 
ATOM     18  H   UNL A   1      31.498  27.239  20.984  1.00  0.00     0.171 HD
ATOM     19  O   UNL A   1      33.133  25.299  20.802  1.00  0.00    -0.248 OA
ATOM     20  N   UNL A   1      32.951  25.339  23.085  1.00  0.00    -0.324 N 
ATOM     21  C   UNL A   1      34.203  24.736  23.481  1.00  0.00     0.125 C 
ATOM     22  C   UNL A   1      31.916  25.153  24.102  1.00  0.00     0.125 C 
ATOM     23  C   UNL A   1      33.912  24.003  24.789  1.00  0.00     0.010 C 
ATOM     24  C   UNL A   1      32.676  24.728  25.357  1.00  0.00     0.010 C 
ATOM     25  C   UNL A   1      35.094  24.026  25.749  1.00  0.00     0.010 C 
ATOM     26  C   UNL A   1      31.854  23.845  26.289  1.00  0.00     0.010 C 
ENDBRANCH  13  16
ENDBRANCH   7   9
ENDBRANCH   6   7
ENDBRANCH   5   6
ENDBRANCH   4   5
ENDBRANCH   3   4
ENDBRANCH   2   3
ENDBRANCH   1   2
BRANCH   1  27
ATOM     27  O   UNL A   1      32.530  36.459  29.991  1.00  0.00    -0.376 OA
BRANCH  27  28
ATOM     28  C   UNL A   1      33.247  36.993  31.081  1.00  0.00     0.202 C 
BRANCH  28  29
ATOM     29  C   UNL A   1      32.791  36.410  32.422  1.00  0.00     0.261 C 
BRANCH  29  30
ATOM     30  O   UNL A   1      33.928  35.911  33.170  1.00  0.00    -0.460 OA
BRANCH  30  31
ATOM     31  C   UNL A   1      34.076  34.535  33.211  1.00  0.00     0.338 C 
ATOM     32  O   UNL A   1      33.155  33.774  33.179  1.00  0.00    -0.246 OA
BRANCH  31  33
ATOM     33  C   UNL A   1      35.546  34.168  33.236  1.00  0.00     0.060 A 
ATOM     34  C   UNL A   1      36.609  34.950  32.774  1.00  0.00     0.016 A 
ATOM     35  C   UNL A   1      35.867  32.879  33.502  1.00  0.00     0.016 A 
ATOM     36  C   UNL A   1      37.941  34.385  32.527  1.00  0.00     0.010 A 
ATOM     37  C   UNL A   1      37.062  32.392  32.953  1.00  0.00     0.010 A 
ATOM     38  C   UNL A   1      38.226  33.017  32.586  1.00  0.00    -0.014 A 
BRANCH  38  39
ATOM     39  C   UNL A   1      39.434  32.197  32.003  1.00  0.00     0.031 A 
ATOM     40  C   UNL A   1      39.550  30.944  31.023  1.00  0.00     0.074 A 
ATOM     41  C   UNL A   1      40.655  32.668  32.333  1.00  0.00     0.049 A 
ATOM     42  N   UNL A   1      40.118  29.782  31.278  1.00  0.00    -0.248 NA
ATOM     43  C   UNL A   1      39.199  30.958  29.599  1.00  0.00     0.031 C 
ATOM     44  C   UNL A   1      41.959  32.178  31.897  1.00  0.00     0.029 A 
ATOM     45  N   UNL A   1      40.941  33.556  33.361  1.00  0.00    -0.354 N 
ATOM     46  C   UNL A   1      40.152  29.016  30.082  1.00  0.00     0.074 A 
ATOM     47  C   UNL A   1      39.428  29.746  29.116  1.00  0.00     0.031 C 
ATOM     48  C   UNL A   1      42.852  32.495  32.849  1.00  0.00     0.029 A 
ATOM     49  C   UNL A   1      42.126  33.111  33.950  1.00  0.00     0.049 A 
ATOM     50  H   UNL A   1      40.413  34.344  33.623  1.00  0.00     0.167 HD
ATOM     51  C   UNL A   1      40.976  27.977  29.748  1.00  0.00     0.034 A 
ATOM     52  C   UNL A   1      42.101  32.693  35.246  1.00  0.00     0.034 A 
ATOM     53  C   UNL A   1      42.117  27.998  30.609  1.00  0.00     0.049 A 
ATOM     54  C   UNL A   1      42.487  31.237  35.388  1.00  0.00     0.074 A 
ATOM     55  C   UNL A   1      43.347  28.615  30.472  1.00  0.00     0.029 A 
ATOM     56  N   UNL A   1      41.939  27.709  31.941  1.00  0.00    -0.354 N 
ATOM     57  N   UNL A   1      42.536  30.378  34.401  1.00  0.00    -0.248 NA
ATOM     58  C   UNL A   1      42.867  30.644  36.663  1.00  0.00     0.031 C 
ATOM     59  C   UNL A   1      43.849  28.829  31.780  1.00  0.00     0.029 A 
ATOM     60  C   UNL A   1      42.970  28.248  32.676  1.00  0.00     0.049 A 
ATOM     61  H   UNL A   1      41.187  27.194  32.313  1.00  0.00     0.167 HD
ATOM     62  C   UNL A   1      42.912  29.149  34.885  1.00  0.00     0.074 A 
ATOM     63  C   UNL A   1      43.144  29.382  36.299  1.00  0.00     0.031 C 
ATOM     64  C   UNL A   1      42.990  28.031  34.103  1.00  0.00     0.034 A 
BRANCH  51  65
ATOM     65  C   UNL A   1      40.907  27.245  28.400  1.00  0.00     0.023 A 
ATOM     66  C   UNL A   1      40.132  26.081  28.198  1.00  0.00     0.031 A 
ATOM     67  C   UNL A   1      41.612  27.701  27.259  1.00  0.00     0.131 A 
ATOM     68  C   UNL A   1      40.181  25.370  26.972  1.00  0.00     0.055 A 
ATOM     69  C   UNL A   1      41.711  26.964  26.068  1.00  0.00     0.041 A 
ATOM     70  F   UNL A   1      42.253  28.882  27.274  1.00  0.00    -0.206 F 
ATOM     71  C   UNL A   1      41.010  25.776  25.928  1.00  0.00     0.022 A 
BRANCH  68  72
ATOM     72  S   UNL A   1      39.130  23.902  26.731  1.00  0.00     0.124 S 
ATOM     73  O   UNL A   1      40.083  22.806  26.872  1.00  0.00    -0.237 OA
ATOM     74  O   UNL A   1      38.149  24.049  27.800  1.00  0.00    -0.237 OA
ATOM     75  O   UNL A   1      38.595  24.079  25.380  1.00  0.00    -0.744 OA
ENDBRANCH  68  72
ENDBRANCH  51  65
BRANCH  52  76
ATOM     76  C   UNL A   1      41.170  33.479  36.130  1.00  0.00     0.023 A 
ATOM     77  C   UNL A   1      39.844  32.992  36.249  1.00  0.00     0.031 A 
ATOM     78  C   UNL A   1      41.577  34.442  37.065  1.00  0.00     0.131 A 
ATOM     79  C   UNL A   1      39.047  33.314  37.356  1.00  0.00     0.055 A 
ATOM     80  C   UNL A   1      40.736  34.841  38.123  1.00  0.00     0.041 A 
ATOM     81  F   UNL A   1      42.838  34.897  37.073  1.00  0.00    -0.206 F 
ATOM     82  C   UNL A   1      39.479  34.251  38.292  1.00  0.00     0.022 A 
BRANCH  79  83
ATOM     83  S   UNL A   1      37.601  32.270  37.738  1.00  0.00     0.124 S 
ATOM     84  O   UNL A   1      37.646  32.206  39.193  1.00  0.00    -0.237 OA
ATOM     85  O   UNL A   1      36.484  33.022  37.165  1.00  0.00    -0.237 OA
ATOM     86  O   UNL A   1      37.902  31.029  37.032  1.00  0.00    -0.744 OA
ENDBRANCH  79  83
ENDBRANCH  52  76
BRANCH  64  87
ATOM     87  C   UNL A   1      43.126  26.607  34.593  1.00  0.00     0.023 A 
ATOM     88  C   UNL A   1      44.366  25.994  34.774  1.00  0.00     0.031 A 
ATOM     89  C   UNL A   1      41.998  25.840  34.993  1.00  0.00     0.131 A 
ATOM     90  C   UNL A   1      44.460  24.662  35.200  1.00  0.00     0.055 A 
ATOM     91  C   UNL A   1      42.104  24.560  35.543  1.00  0.00     0.041 A 
ATOM     92  F   UNL A   1      40.744  26.302  34.874  1.00  0.00    -0.206 F 
ATOM     93  C   UNL A   1      43.343  23.948  35.623  1.00  0.00     0.022 A 
BRANCH  90  94
ATOM     94  S   UNL A   1      46.069  23.856  35.041  1.00  0.00     0.124 S 
ATOM     95  O   UNL A   1      46.147  23.105  36.292  1.00  0.00    -0.237 OA
ATOM     96  O   UNL A   1      45.900  23.056  33.832  1.00  0.00    -0.237 OA
ATOM     97  O   UNL A   1      47.004  24.973  34.929  1.00  0.00    -0.744 OA
ENDBRANCH  90  94
ENDBRANCH  64  87
ENDBRANCH  38  39
ENDBRANCH  31  33
ENDBRANCH  30  31
ENDBRANCH  29  30
ENDBRANCH  28  29
ENDBRANCH  27  28
ENDBRANCH   1  27
TORSDOF 21
ENDMDL
