MODEL 1
REMARK VINA RESULT:     -11.3      0.000      0.000
REMARK SMILES Cc1c(C(=O)OCCOCCOCCOC(=O)c2ccc(-c3c4nc(c(-c5cc(S(=O)(=O)[O-])ccc5F)c5ccc([nH]5)c(-c5cc(S(=O)(=O)[O-])ccc5F)c5nc(c(-c6cc(S(=O)(=O)[O-])ccc6F)c6ccc3[nH]6)C=C5)C=C4)cc2)sc2c1=C(CSc1nncn1-c1ccccc1)CC(=O)N=2
REMARK SMILES IDX 10 1 9 2 8 3 7 4 6 5 4 6 5 7 3 8 1 9 2 10 83 11 81 12 82 13
REMARK SMILES IDX 84 14 101 15 98 16 99 17 100 18 85 19 86 20 87 21 88 22
REMARK SMILES IDX 91 23 89 24 90 25 92 26 93 27 97 28 94 29 96 30 95 31 11 32
REMARK SMILES IDX 12 33 13 34 14 35 15 36 16 37 17 38 18 39 19 40 80 41 20 42
REMARK SMILES IDX 79 43 21 44 22 45 23 46 73 47 24 48 78 49 72 50 74 51 25 52
REMARK SMILES IDX 77 53 71 54 70 55 26 57 58 58 38 59 57 60 39 61 42 62 56 63
REMARK SMILES IDX 75 64 40 65 41 66 55 68 76 69 43 70 27 71 28 72 36 73 29 74
REMARK SMILES IDX 35 75 37 76 34 77 30 78 31 79 32 80 33 81 59 82 60 83 68 84
REMARK SMILES IDX 61 85 67 86 69 87 66 88 62 89 63 90 64 91 65 92 44 93 45 94
REMARK SMILES IDX 53 95 46 96 52 97 54 98 51 99 47 100 48 101 49 102 50 103
REMARK H PARENT 74 56 42 67
REMARK Flexibility Score: inf
ROOT
ATOM      1  C   UNL A   1      40.475  21.702  27.151  1.00  0.00     0.188 C 
ENDROOT
BRANCH   1   2
ATOM      2  O   UNL A   1      39.191  21.325  26.682  1.00  0.00    -0.376 OA
BRANCH   2   3
ATOM      3  C   UNL A   1      39.162  20.284  25.714  1.00  0.00     0.202 C 
BRANCH   3   4
ATOM      4  C   UNL A   1      37.892  20.193  24.862  1.00  0.00     0.261 C 
BRANCH   4   5
ATOM      5  O   UNL A   1      36.797  21.026  25.280  1.00  0.00    -0.459 OA
BRANCH   5   6
ATOM      6  C   UNL A   1      36.321  21.973  24.443  1.00  0.00     0.348 C 
ATOM      7  O   UNL A   1      36.938  22.444  23.498  1.00  0.00    -0.245 OA
BRANCH   6   8
ATOM      8  C   UNL A   1      34.939  22.368  24.845  1.00  0.00     0.118 A 
ATOM      9  C   UNL A   1      34.842  24.693  23.865  1.00  0.00     0.047 C 
ATOM     10  C   UNL A   1      34.261  23.474  24.480  1.00  0.00    -0.016 A 
ATOM     11  C   UNL A   1      32.889  23.474  24.928  1.00  0.00     0.016 A 
ATOM     12  S   UNL A   1      34.051  21.366  25.970  1.00  0.00    -0.108 S 
ATOM     13  C   UNL A   1      32.676  22.473  26.004  1.00  0.00     0.128 A 
ATOM     14  C   UNL A   1      31.755  24.007  24.437  1.00  0.00    -0.040 C 
ATOM     15  N   UNL A   1      31.673  22.313  26.783  1.00  0.00    -0.202 NA
ATOM     16  C   UNL A   1      30.572  24.084  25.389  1.00  0.00     0.135 C 
ATOM     17  C   UNL A   1      30.635  23.202  26.642  1.00  0.00     0.251 C 
ATOM     18  O   UNL A   1      29.726  23.283  27.468  1.00  0.00    -0.272 OA
BRANCH  14  19
ATOM     19  C   UNL A   1      31.426  24.590  23.071  1.00  0.00     0.110 C 
BRANCH  19  20
ATOM     20  S   UNL A   1      30.943  26.344  22.988  1.00  0.00    -0.081 SA
BRANCH  20  21
ATOM     21  C   UNL A   1      32.522  27.048  22.805  1.00  0.00     0.195 A 
ATOM     22  N   UNL A   1      33.200  27.020  21.678  1.00  0.00    -0.123 NA
ATOM     23  N   UNL A   1      33.087  27.967  23.670  1.00  0.00    -0.277 N 
ATOM     24  N   UNL A   1      34.202  27.955  21.765  1.00  0.00    -0.138 NA
ATOM     25  C   UNL A   1      34.097  28.540  22.937  1.00  0.00     0.231 A 
BRANCH  23  26
ATOM     26  C   UNL A   1      32.705  28.349  24.973  1.00  0.00     0.049 A 
ATOM     27  C   UNL A   1      32.375  27.380  25.928  1.00  0.00     0.027 A 
ATOM     28  C   UNL A   1      32.608  29.714  25.282  1.00  0.00     0.027 A 
ATOM     29  C   UNL A   1      31.898  27.785  27.179  1.00  0.00     0.002 A 
ATOM     30  C   UNL A   1      32.086  30.104  26.516  1.00  0.00     0.002 A 
ATOM     31  C   UNL A   1      31.725  29.141  27.459  1.00  0.00     0.000 A 
ENDBRANCH  23  26
ENDBRANCH  20  21
ENDBRANCH  19  20
ENDBRANCH  14  19
ENDBRANCH   6   8
ENDBRANCH   5   6
ENDBRANCH   4   5
ENDBRANCH   3   4
ENDBRANCH   2   3
ENDBRANCH   1   2
BRANCH   1  32
ATOM     32  C   UNL A   1      41.622  21.441  26.155  1.00  0.00     0.188 C 
BRANCH  32  33
ATOM     33  O   UNL A   1      42.652  20.496  26.438  1.00  0.00    -0.376 OA
BRANCH  33  34
ATOM     34  C   UNL A   1      42.656  19.210  25.831  1.00  0.00     0.202 C 
BRANCH  34  35
ATOM     35  C   UNL A   1      43.949  18.623  25.275  1.00  0.00     0.261 C 
BRANCH  35  36
ATOM     36  O   UNL A   1      44.997  19.565  25.127  1.00  0.00    -0.460 OA
BRANCH  36  37
ATOM     37  C   UNL A   1      44.824  20.408  24.086  1.00  0.00     0.338 C 
ATOM     38  O   UNL A   1      44.548  20.106  22.937  1.00  0.00    -0.246 OA
BRANCH  37  39
ATOM     39  C   UNL A   1      45.076  21.782  24.535  1.00  0.00     0.060 A 
ATOM     40  C   UNL A   1      46.019  21.949  25.551  1.00  0.00     0.016 A 
ATOM     41  C   UNL A   1      44.238  22.828  24.118  1.00  0.00     0.016 A 
ATOM     42  C   UNL A   1      45.991  23.114  26.286  1.00  0.00     0.010 A 
ATOM     43  C   UNL A   1      44.205  23.987  24.860  1.00  0.00     0.010 A 
ATOM     44  C   UNL A   1      45.027  24.078  25.982  1.00  0.00    -0.014 A 
BRANCH  44  45
ATOM     45  C   UNL A   1      44.893  25.193  26.891  1.00  0.00     0.031 A 
ATOM     46  C   UNL A   1      46.045  26.107  26.922  1.00  0.00     0.074 A 
ATOM     47  C   UNL A   1      43.770  25.417  27.597  1.00  0.00     0.049 A 
ATOM     48  N   UNL A   1      46.884  26.284  27.883  1.00  0.00    -0.248 NA
ATOM     49  C   UNL A   1      46.390  26.803  25.676  1.00  0.00     0.031 C 
ATOM     50  C   UNL A   1      42.477  24.751  27.435  1.00  0.00     0.029 A 
ATOM     51  N   UNL A   1      43.524  26.375  28.533  1.00  0.00    -0.354 N 
ATOM     52  C   UNL A   1      47.712  27.314  27.460  1.00  0.00     0.074 A 
ATOM     53  C   UNL A   1      47.510  27.426  26.041  1.00  0.00     0.031 C 
ATOM     54  C   UNL A   1      41.533  25.465  28.087  1.00  0.00     0.029 A 
ATOM     55  C   UNL A   1      42.176  26.558  28.801  1.00  0.00     0.049 A 
ATOM     56  H   UNL A   1      44.237  26.889  28.978  1.00  0.00     0.167 HD
ATOM     57  C   UNL A   1      48.270  28.168  28.359  1.00  0.00     0.034 A 
ATOM     58  C   UNL A   1      41.617  27.584  29.490  1.00  0.00     0.034 A 
ATOM     59  C   UNL A   1      48.283  27.588  29.690  1.00  0.00     0.049 A 
ATOM     60  C   UNL A   1      42.664  28.152  30.373  1.00  0.00     0.074 A 
ATOM     61  C   UNL A   1      48.765  26.403  30.221  1.00  0.00     0.029 A 
ATOM     62  N   UNL A   1      47.428  28.093  30.645  1.00  0.00    -0.354 N 
ATOM     63  N   UNL A   1      43.195  27.505  31.376  1.00  0.00    -0.248 NA
ATOM     64  C   UNL A   1      43.435  29.297  29.908  1.00  0.00     0.031 C 
ATOM     65  C   UNL A   1      47.830  26.033  31.233  1.00  0.00     0.029 A 
ATOM     66  C   UNL A   1      46.860  27.033  31.308  1.00  0.00     0.049 A 
ATOM     67  H   UNL A   1      47.254  29.046  30.822  1.00  0.00     0.167 HD
ATOM     68  C   UNL A   1      44.529  27.881  31.384  1.00  0.00     0.074 A 
ATOM     69  C   UNL A   1      44.585  29.079  30.553  1.00  0.00     0.031 C 
ATOM     70  C   UNL A   1      45.501  27.026  31.821  1.00  0.00     0.034 A 
BRANCH  57  71
ATOM     71  C   UNL A   1      48.408  29.660  28.117  1.00  0.00     0.023 A 
ATOM     72  C   UNL A   1      47.209  30.385  27.996  1.00  0.00     0.031 A 
ATOM     73  C   UNL A   1      49.573  30.341  27.691  1.00  0.00     0.131 A 
ATOM     74  C   UNL A   1      47.174  31.615  27.320  1.00  0.00     0.055 A 
ATOM     75  C   UNL A   1      49.543  31.605  27.093  1.00  0.00     0.041 A 
ATOM     76  F   UNL A   1      50.798  29.808  27.743  1.00  0.00    -0.206 F 
ATOM     77  C   UNL A   1      48.333  32.229  26.860  1.00  0.00     0.022 A 
BRANCH  74  78
ATOM     78  S   UNL A   1      45.554  32.261  26.845  1.00  0.00     0.124 S 
ATOM     79  O   UNL A   1      44.763  31.937  28.029  1.00  0.00    -0.237 OA
ATOM     80  O   UNL A   1      45.849  33.674  26.633  1.00  0.00    -0.237 OA
ATOM     81  O   UNL A   1      45.226  31.500  25.644  1.00  0.00    -0.744 OA
ENDBRANCH  74  78
ENDBRANCH  57  71
BRANCH  58  82
ATOM     82  C   UNL A   1      40.311  28.232  29.211  1.00  0.00     0.023 A 
ATOM     83  C   UNL A   1      39.420  28.599  30.236  1.00  0.00     0.031 A 
ATOM     84  C   UNL A   1      40.010  28.705  27.911  1.00  0.00     0.131 A 
ATOM     85  C   UNL A   1      38.287  29.392  29.943  1.00  0.00     0.055 A 
ATOM     86  C   UNL A   1      38.878  29.466  27.622  1.00  0.00     0.041 A 
ATOM     87  F   UNL A   1      40.854  28.514  26.885  1.00  0.00    -0.206 F 
ATOM     88  C   UNL A   1      38.013  29.821  28.643  1.00  0.00     0.022 A 
BRANCH  85  89
ATOM     89  S   UNL A   1      37.213  29.980  31.288  1.00  0.00     0.124 S 
ATOM     90  O   UNL A   1      35.985  30.315  30.580  1.00  0.00    -0.237 OA
ATOM     91  O   UNL A   1      37.158  28.823  32.175  1.00  0.00    -0.237 OA
ATOM     92  O   UNL A   1      37.944  31.128  31.829  1.00  0.00    -0.744 OA
ENDBRANCH  85  89
ENDBRANCH  58  82
BRANCH  70  93
ATOM     93  C   UNL A   1      45.098  25.856  32.693  1.00  0.00     0.023 A 
ATOM     94  C   UNL A   1      44.990  25.898  34.100  1.00  0.00     0.031 A 
ATOM     95  C   UNL A   1      44.711  24.667  32.047  1.00  0.00     0.131 A 
ATOM     96  C   UNL A   1      44.527  24.771  34.807  1.00  0.00     0.055 A 
ATOM     97  C   UNL A   1      44.237  23.559  32.747  1.00  0.00     0.041 A 
ATOM     98  F   UNL A   1      44.761  24.572  30.707  1.00  0.00    -0.206 F 
ATOM     99  C   UNL A   1      44.150  23.604  34.133  1.00  0.00     0.022 A 
BRANCH  96 100
ATOM    100  S   UNL A   1      44.421  24.797  36.624  1.00  0.00     0.124 S 
ATOM    101  O   UNL A   1      45.202  25.970  36.999  1.00  0.00    -0.237 OA
ATOM    102  O   UNL A   1      42.981  24.888  36.853  1.00  0.00    -0.237 OA
ATOM    103  O   UNL A   1      45.017  23.519  37.017  1.00  0.00    -0.744 OA
ENDBRANCH  96 100
ENDBRANCH  70  93
ENDBRANCH  44  45
ENDBRANCH  37  39
ENDBRANCH  36  37
ENDBRANCH  35  36
ENDBRANCH  34  35
ENDBRANCH  33  34
ENDBRANCH  32  33
ENDBRANCH   1  32
TORSDOF 24
ENDMDL
MODEL 2
REMARK VINA RESULT:     -11.3      2.645      6.523
REMARK SMILES Cc1c(C(=O)OCCOCCOCCOC(=O)c2ccc(-c3c4nc(c(-c5cc(S(=O)(=O)[O-])ccc5F)c5ccc([nH]5)c(-c5cc(S(=O)(=O)[O-])ccc5F)c5nc(c(-c6cc(S(=O)(=O)[O-])ccc6F)c6ccc3[nH]6)C=C5)C=C4)cc2)sc2c1=C(CSc1nncn1-c1ccccc1)CC(=O)N=2
REMARK SMILES IDX 10 1 9 2 8 3 7 4 6 5 4 6 5 7 3 8 1 9 2 10 83 11 81 12 82 13
REMARK SMILES IDX 84 14 101 15 98 16 99 17 100 18 85 19 86 20 87 21 88 22
REMARK SMILES IDX 91 23 89 24 90 25 92 26 93 27 97 28 94 29 96 30 95 31 11 32
REMARK SMILES IDX 12 33 13 34 14 35 15 36 16 37 17 38 18 39 19 40 80 41 20 42
REMARK SMILES IDX 79 43 21 44 22 45 23 46 73 47 24 48 78 49 72 50 74 51 25 52
REMARK SMILES IDX 77 53 71 54 70 55 26 57 58 58 38 59 57 60 39 61 42 62 56 63
REMARK SMILES IDX 75 64 40 65 41 66 55 68 76 69 43 70 27 71 28 72 36 73 29 74
REMARK SMILES IDX 35 75 37 76 34 77 30 78 31 79 32 80 33 81 59 82 60 83 68 84
REMARK SMILES IDX 61 85 67 86 69 87 66 88 62 89 63 90 64 91 65 92 44 93 45 94
REMARK SMILES IDX 53 95 46 96 52 97 54 98 51 99 47 100 48 101 49 102 50 103
REMARK H PARENT 74 56 42 67
REMARK Flexibility Score: inf
ROOT
ATOM      1  C   UNL A   1      37.581  21.401  25.220  1.00  0.00     0.188 C 
ENDROOT
BRANCH   1   2
ATOM      2  O   UNL A   1      36.295  21.530  25.801  1.00  0.00    -0.376 OA
BRANCH   2   3
ATOM      3  C   UNL A   1      35.243  20.833  25.146  1.00  0.00     0.202 C 
BRANCH   3   4
ATOM      4  C   UNL A   1      33.838  21.039  25.723  1.00  0.00     0.261 C 
BRANCH   4   5
ATOM      5  O   UNL A   1      32.817  21.385  24.773  1.00  0.00    -0.459 OA
BRANCH   5   6
ATOM      6  C   UNL A   1      33.005  22.434  23.943  1.00  0.00     0.348 C 
ATOM      7  O   UNL A   1      33.333  22.346  22.768  1.00  0.00    -0.245 OA
BRANCH   6   8
ATOM      8  C   UNL A   1      32.767  23.715  24.671  1.00  0.00     0.118 A 
ATOM      9  C   UNL A   1      35.132  24.587  24.816  1.00  0.00     0.047 C 
ATOM     10  C   UNL A   1      33.657  24.696  24.921  1.00  0.00    -0.016 A 
ATOM     11  C   UNL A   1      33.060  25.867  25.518  1.00  0.00     0.016 A 
ATOM     12  S   UNL A   1      31.194  24.029  25.368  1.00  0.00    -0.108 S 
ATOM     13  C   UNL A   1      31.717  25.561  26.075  1.00  0.00     0.128 A 
ATOM     14  C   UNL A   1      33.352  27.180  25.474  1.00  0.00    -0.040 C 
ATOM     15  N   UNL A   1      30.973  26.263  26.844  1.00  0.00    -0.202 NA
ATOM     16  C   UNL A   1      32.695  28.059  26.526  1.00  0.00     0.135 C 
ATOM     17  C   UNL A   1      31.477  27.474  27.252  1.00  0.00     0.251 C 
ATOM     18  O   UNL A   1      30.955  28.129  28.153  1.00  0.00    -0.272 OA
BRANCH  14  19
ATOM     19  C   UNL A   1      34.268  27.977  24.557  1.00  0.00     0.110 C 
BRANCH  19  20
ATOM     20  S   UNL A   1      33.513  28.846  23.146  1.00  0.00    -0.081 SA
BRANCH  20  21
ATOM     21  C   UNL A   1      33.045  27.464  22.200  1.00  0.00     0.195 A 
ATOM     22  N   UNL A   1      33.907  26.614  21.686  1.00  0.00    -0.123 NA
ATOM     23  N   UNL A   1      31.771  26.927  22.155  1.00  0.00    -0.277 N 
ATOM     24  N   UNL A   1      33.219  25.479  21.332  1.00  0.00    -0.138 NA
ATOM     25  C   UNL A   1      31.960  25.662  21.655  1.00  0.00     0.231 A 
BRANCH  23  26
ATOM     26  C   UNL A   1      30.541  27.458  22.595  1.00  0.00     0.049 A 
ATOM     27  C   UNL A   1      29.680  26.690  23.386  1.00  0.00     0.027 A 
ATOM     28  C   UNL A   1      30.168  28.745  22.181  1.00  0.00     0.027 A 
ATOM     29  C   UNL A   1      28.420  27.198  23.722  1.00  0.00     0.002 A 
ATOM     30  C   UNL A   1      28.892  29.222  22.482  1.00  0.00     0.002 A 
ATOM     31  C   UNL A   1      28.017  28.446  23.244  1.00  0.00     0.000 A 
ENDBRANCH  23  26
ENDBRANCH  20  21
ENDBRANCH  19  20
ENDBRANCH  14  19
ENDBRANCH   6   8
ENDBRANCH   5   6
ENDBRANCH   4   5
ENDBRANCH   3   4
ENDBRANCH   2   3
ENDBRANCH   1   2
BRANCH   1  32
ATOM     32  C   UNL A   1      38.705  22.127  25.985  1.00  0.00     0.188 C 
BRANCH  32  33
ATOM     33  O   UNL A   1      40.020  21.580  26.072  1.00  0.00    -0.376 OA
BRANCH  33  34
ATOM     34  C   UNL A   1      40.224  20.205  26.372  1.00  0.00     0.202 C 
BRANCH  34  35
ATOM     35  C   UNL A   1      41.406  19.451  25.773  1.00  0.00     0.261 C 
BRANCH  35  36
ATOM     36  O   UNL A   1      42.649  19.736  26.389  1.00  0.00    -0.460 OA
BRANCH  36  37
ATOM     37  C   UNL A   1      43.310  20.770  25.824  1.00  0.00     0.338 C 
ATOM     38  O   UNL A   1      43.648  20.873  24.656  1.00  0.00    -0.246 OA
BRANCH  37  39
ATOM     39  C   UNL A   1      43.619  21.763  26.858  1.00  0.00     0.060 A 
ATOM     40  C   UNL A   1      42.922  21.657  28.063  1.00  0.00     0.016 A 
ATOM     41  C   UNL A   1      44.405  22.885  26.551  1.00  0.00     0.016 A 
ATOM     42  C   UNL A   1      42.853  22.763  28.880  1.00  0.00     0.010 A 
ATOM     43  C   UNL A   1      44.326  23.993  27.364  1.00  0.00     0.010 A 
ATOM     44  C   UNL A   1      43.486  23.940  28.474  1.00  0.00    -0.014 A 
BRANCH  44  45
ATOM     45  C   UNL A   1      43.231  25.133  29.249  1.00  0.00     0.031 A 
ATOM     46  C   UNL A   1      42.193  26.017  28.698  1.00  0.00     0.074 A 
ATOM     47  C   UNL A   1      43.841  25.374  30.423  1.00  0.00     0.049 A 
ATOM     48  N   UNL A   1      42.350  27.189  28.185  1.00  0.00    -0.248 NA
ATOM     49  C   UNL A   1      40.836  25.472  28.571  1.00  0.00     0.031 C 
ATOM     50  C   UNL A   1      44.664  24.445  31.199  1.00  0.00     0.029 A 
ATOM     51  N   UNL A   1      43.756  26.473  31.222  1.00  0.00    -0.354 N 
ATOM     52  C   UNL A   1      41.067  27.641  27.909  1.00  0.00     0.074 A 
ATOM     53  C   UNL A   1      40.221  26.478  27.951  1.00  0.00     0.031 C 
ATOM     54  C   UNL A   1      44.822  24.938  32.446  1.00  0.00     0.029 A 
ATOM     55  C   UNL A   1      44.215  26.259  32.514  1.00  0.00     0.049 A 
ATOM     56  H   UNL A   1      43.401  27.338  30.913  1.00  0.00     0.167 HD
ATOM     57  C   UNL A   1      40.774  28.967  27.959  1.00  0.00     0.034 A 
ATOM     58  C   UNL A   1      44.037  27.072  33.584  1.00  0.00     0.034 A 
ATOM     59  C   UNL A   1      41.978  29.771  27.843  1.00  0.00     0.049 A 
ATOM     60  C   UNL A   1      43.789  28.441  33.069  1.00  0.00     0.074 A 
ATOM     61  C   UNL A   1      43.012  29.833  26.924  1.00  0.00     0.029 A 
ATOM     62  N   UNL A   1      42.438  30.444  28.954  1.00  0.00    -0.354 N 
ATOM     63  N   UNL A   1      44.682  29.147  32.430  1.00  0.00    -0.248 NA
ATOM     64  C   UNL A   1      42.414  28.891  32.894  1.00  0.00     0.031 C 
ATOM     65  C   UNL A   1      44.182  30.116  27.689  1.00  0.00     0.029 A 
ATOM     66  C   UNL A   1      43.799  30.269  29.021  1.00  0.00     0.049 A 
ATOM     67  H   UNL A   1      41.889  30.960  29.588  1.00  0.00     0.167 HD
ATOM     68  C   UNL A   1      43.972  29.835  31.458  1.00  0.00     0.074 A 
ATOM     69  C   UNL A   1      42.578  29.743  31.878  1.00  0.00     0.031 C 
ATOM     70  C   UNL A   1      44.547  30.159  30.262  1.00  0.00     0.034 A 
BRANCH  57  71
ATOM     71  C   UNL A   1      39.478  29.516  28.528  1.00  0.00     0.023 A 
ATOM     72  C   UNL A   1      39.354  29.491  29.928  1.00  0.00     0.031 A 
ATOM     73  C   UNL A   1      38.277  29.750  27.817  1.00  0.00     0.131 A 
ATOM     74  C   UNL A   1      38.091  29.506  30.541  1.00  0.00     0.055 A 
ATOM     75  C   UNL A   1      37.029  29.849  28.440  1.00  0.00     0.041 A 
ATOM     76  F   UNL A   1      38.211  29.816  26.484  1.00  0.00    -0.206 F 
ATOM     77  C   UNL A   1      36.924  29.678  29.807  1.00  0.00     0.022 A 
BRANCH  74  78
ATOM     78  S   UNL A   1      38.004  29.048  32.288  1.00  0.00     0.124 S 
ATOM     79  O   UNL A   1      38.311  27.622  32.221  1.00  0.00    -0.237 OA
ATOM     80  O   UNL A   1      39.033  29.904  32.870  1.00  0.00    -0.237 OA
ATOM     81  O   UNL A   1      36.631  29.377  32.655  1.00  0.00    -0.744 OA
ENDBRANCH  74  78
ENDBRANCH  57  71
BRANCH  58  82
ATOM     82  C   UNL A   1      43.818  26.651  34.991  1.00  0.00     0.023 A 
ATOM     83  C   UNL A   1      44.742  26.936  36.013  1.00  0.00     0.031 A 
ATOM     84  C   UNL A   1      42.563  26.138  35.396  1.00  0.00     0.131 A 
ATOM     85  C   UNL A   1      44.402  26.698  37.364  1.00  0.00     0.055 A 
ATOM     86  C   UNL A   1      42.241  25.881  36.728  1.00  0.00     0.041 A 
ATOM     87  F   UNL A   1      41.568  25.944  34.515  1.00  0.00    -0.206 F 
ATOM     88  C   UNL A   1      43.160  26.169  37.722  1.00  0.00     0.022 A 
BRANCH  85  89
ATOM     89  S   UNL A   1      45.542  27.194  38.692  1.00  0.00     0.124 S 
ATOM     90  O   UNL A   1      46.534  26.127  38.663  1.00  0.00    -0.237 OA
ATOM     91  O   UNL A   1      45.988  28.509  38.248  1.00  0.00    -0.237 OA
ATOM     92  O   UNL A   1      44.690  27.209  39.882  1.00  0.00    -0.744 OA
ENDBRANCH  85  89
ENDBRANCH  58  82
BRANCH  70  93
ATOM     93  C   UNL A   1      46.057  30.165  30.161  1.00  0.00     0.023 A 
ATOM     94  C   UNL A   1      46.853  29.029  29.900  1.00  0.00     0.031 A 
ATOM     95  C   UNL A   1      46.707  31.412  30.237  1.00  0.00     0.131 A 
ATOM     96  C   UNL A   1      48.247  29.165  29.745  1.00  0.00     0.055 A 
ATOM     97  C   UNL A   1      48.085  31.545  30.067  1.00  0.00     0.041 A 
ATOM     98  F   UNL A   1      46.004  32.536  30.453  1.00  0.00    -0.206 F 
ATOM     99  C   UNL A   1      48.862  30.419  29.828  1.00  0.00     0.022 A 
BRANCH  96 100
ATOM    100  S   UNL A   1      49.291  27.703  29.449  1.00  0.00     0.124 S 
ATOM    101  O   UNL A   1      48.704  27.094  28.261  1.00  0.00    -0.237 OA
ATOM    102  O   UNL A   1      50.616  28.293  29.277  1.00  0.00    -0.237 OA
ATOM    103  O   UNL A   1      49.133  26.918  30.675  1.00  0.00    -0.744 OA
ENDBRANCH  96 100
ENDBRANCH  70  93
ENDBRANCH  44  45
ENDBRANCH  37  39
ENDBRANCH  36  37
ENDBRANCH  35  36
ENDBRANCH  34  35
ENDBRANCH  33  34
ENDBRANCH  32  33
ENDBRANCH   1  32
TORSDOF 24
ENDMDL
MODEL 3
REMARK VINA RESULT:     -11.3      3.305      4.703
REMARK SMILES Cc1c(C(=O)OCCOCCOCCOC(=O)c2ccc(-c3c4nc(c(-c5cc(S(=O)(=O)[O-])ccc5F)c5ccc([nH]5)c(-c5cc(S(=O)(=O)[O-])ccc5F)c5nc(c(-c6cc(S(=O)(=O)[O-])ccc6F)c6ccc3[nH]6)C=C5)C=C4)cc2)sc2c1=C(CSc1nncn1-c1ccccc1)CC(=O)N=2
REMARK SMILES IDX 10 1 9 2 8 3 7 4 6 5 4 6 5 7 3 8 1 9 2 10 83 11 81 12 82 13
REMARK SMILES IDX 84 14 101 15 98 16 99 17 100 18 85 19 86 20 87 21 88 22
REMARK SMILES IDX 91 23 89 24 90 25 92 26 93 27 97 28 94 29 96 30 95 31 11 32
REMARK SMILES IDX 12 33 13 34 14 35 15 36 16 37 17 38 18 39 19 40 80 41 20 42
REMARK SMILES IDX 79 43 21 44 22 45 23 46 73 47 24 48 78 49 72 50 74 51 25 52
REMARK SMILES IDX 77 53 71 54 70 55 26 57 58 58 38 59 57 60 39 61 42 62 56 63
REMARK SMILES IDX 75 64 40 65 41 66 55 68 76 69 43 70 27 71 28 72 36 73 29 74
REMARK SMILES IDX 35 75 37 76 34 77 30 78 31 79 32 80 33 81 59 82 60 83 68 84
REMARK SMILES IDX 61 85 67 86 69 87 66 88 62 89 63 90 64 91 65 92 44 93 45 94
REMARK SMILES IDX 53 95 46 96 52 97 54 98 51 99 47 100 48 101 49 102 50 103
REMARK H PARENT 74 56 42 67
REMARK Flexibility Score: inf
ROOT
ATOM      1  C   UNL A   1      37.193  21.345  25.178  1.00  0.00     0.188 C 
ENDROOT
BRANCH   1   2
ATOM      2  O   UNL A   1      35.964  20.948  25.764  1.00  0.00    -0.376 OA
BRANCH   2   3
ATOM      3  C   UNL A   1      34.882  20.745  24.865  1.00  0.00     0.202 C 
BRANCH   3   4
ATOM      4  C   UNL A   1      33.484  21.034  25.420  1.00  0.00     0.261 C 
BRANCH   4   5
ATOM      5  O   UNL A   1      32.496  21.424  24.452  1.00  0.00    -0.459 OA
BRANCH   5   6
ATOM      6  C   UNL A   1      32.719  22.500  23.666  1.00  0.00     0.348 C 
ATOM      7  O   UNL A   1      33.030  22.449  22.484  1.00  0.00    -0.245 OA
BRANCH   6   8
ATOM      8  C   UNL A   1      32.545  23.757  24.452  1.00  0.00     0.118 A 
ATOM      9  C   UNL A   1      34.953  24.492  24.648  1.00  0.00     0.047 C 
ATOM     10  C   UNL A   1      33.485  24.676  24.751  1.00  0.00    -0.016 A 
ATOM     11  C   UNL A   1      32.948  25.848  25.400  1.00  0.00     0.016 A 
ATOM     12  S   UNL A   1      30.987  24.123  25.156  1.00  0.00    -0.108 S 
ATOM     13  C   UNL A   1      31.587  25.589  25.936  1.00  0.00     0.128 A 
ATOM     14  C   UNL A   1      33.310  27.144  25.419  1.00  0.00    -0.040 C 
ATOM     15  N   UNL A   1      30.876  26.294  26.734  1.00  0.00    -0.202 NA
ATOM     16  C   UNL A   1      32.694  28.008  26.508  1.00  0.00     0.135 C 
ATOM     17  C   UNL A   1      31.441  27.456  27.200  1.00  0.00     0.251 C 
ATOM     18  O   UNL A   1      30.949  28.096  28.129  1.00  0.00    -0.272 OA
BRANCH  14  19
ATOM     19  C   UNL A   1      34.274  27.932  24.544  1.00  0.00     0.110 C 
BRANCH  19  20
ATOM     20  S   UNL A   1      33.580  28.884  23.156  1.00  0.00    -0.081 SA
BRANCH  20  21
ATOM     21  C   UNL A   1      33.048  27.559  22.162  1.00  0.00     0.195 A 
ATOM     22  N   UNL A   1      33.866  26.669  21.647  1.00  0.00    -0.123 NA
ATOM     23  N   UNL A   1      31.743  27.108  22.074  1.00  0.00    -0.277 N 
ATOM     24  N   UNL A   1      33.116  25.589  21.246  1.00  0.00    -0.138 NA
ATOM     25  C   UNL A   1      31.863  25.846  21.546  1.00  0.00     0.231 A 
BRANCH  23  26
ATOM     26  C   UNL A   1      30.539  27.706  22.499  1.00  0.00     0.049 A 
ATOM     27  C   UNL A   1      29.611  26.975  23.249  1.00  0.00     0.027 A 
ATOM     28  C   UNL A   1      30.260  29.025  22.112  1.00  0.00     0.027 A 
ATOM     29  C   UNL A   1      28.378  27.555  23.569  1.00  0.00     0.002 A 
ATOM     30  C   UNL A   1      29.010  29.575  22.396  1.00  0.00     0.002 A 
ATOM     31  C   UNL A   1      28.068  28.838  23.116  1.00  0.00     0.000 A 
ENDBRANCH  23  26
ENDBRANCH  20  21
ENDBRANCH  19  20
ENDBRANCH  14  19
ENDBRANCH   6   8
ENDBRANCH   5   6
ENDBRANCH   4   5
ENDBRANCH   3   4
ENDBRANCH   2   3
ENDBRANCH   1   2
BRANCH   1  32
ATOM     32  C   UNL A   1      37.822  22.605  25.803  1.00  0.00     0.188 C 
BRANCH  32  33
ATOM     33  O   UNL A   1      39.228  22.701  26.029  1.00  0.00    -0.376 OA
BRANCH  33  34
ATOM     34  C   UNL A   1      39.996  21.554  26.367  1.00  0.00     0.202 C 
BRANCH  34  35
ATOM     35  C   UNL A   1      41.483  21.496  26.035  1.00  0.00     0.261 C 
BRANCH  35  36
ATOM     36  O   UNL A   1      42.278  22.412  26.768  1.00  0.00    -0.460 OA
BRANCH  36  37
ATOM     37  C   UNL A   1      42.360  23.634  26.198  1.00  0.00     0.338 C 
ATOM     38  O   UNL A   1      42.771  23.895  25.079  1.00  0.00    -0.246 OA
BRANCH  37  39
ATOM     39  C   UNL A   1      41.918  24.644  27.165  1.00  0.00     0.060 A 
ATOM     40  C   UNL A   1      41.018  25.607  26.704  1.00  0.00     0.016 A 
ATOM     41  C   UNL A   1      42.553  24.757  28.412  1.00  0.00     0.016 A 
ATOM     42  C   UNL A   1      40.900  26.785  27.408  1.00  0.00     0.010 A 
ATOM     43  C   UNL A   1      42.443  25.939  29.108  1.00  0.00     0.010 A 
ATOM     44  C   UNL A   1      41.680  26.965  28.553  1.00  0.00    -0.014 A 
BRANCH  44  45
ATOM     45  C   UNL A   1      41.685  28.279  29.154  1.00  0.00     0.031 A 
ATOM     46  C   UNL A   1      42.794  29.148  28.731  1.00  0.00     0.074 A 
ATOM     47  C   UNL A   1      40.707  28.699  29.976  1.00  0.00     0.049 A 
ATOM     48  N   UNL A   1      43.791  29.551  29.441  1.00  0.00    -0.248 NA
ATOM     49  C   UNL A   1      42.879  29.492  27.307  1.00  0.00     0.031 C 
ATOM     50  C   UNL A   1      39.427  28.039  30.237  1.00  0.00     0.029 A 
ATOM     51  N   UNL A   1      40.611  29.870  30.664  1.00  0.00    -0.354 N 
ATOM     52  C   UNL A   1      44.495  30.421  28.619  1.00  0.00     0.074 A 
ATOM     53  C   UNL A   1      44.028  30.167  27.283  1.00  0.00     0.031 C 
ATOM     54  C   UNL A   1      38.600  28.914  30.849  1.00  0.00     0.029 A 
ATOM     55  C   UNL A   1      39.330  30.142  31.124  1.00  0.00     0.049 A 
ATOM     56  H   UNL A   1      41.377  30.468  30.820  1.00  0.00     0.167 HD
ATOM     57  C   UNL A   1      45.184  31.467  29.147  1.00  0.00     0.034 A 
ATOM     58  C   UNL A   1      38.879  31.321  31.618  1.00  0.00     0.034 A 
ATOM     59  C   UNL A   1      45.463  31.250  30.555  1.00  0.00     0.049 A 
ATOM     60  C   UNL A   1      40.055  32.078  32.114  1.00  0.00     0.074 A 
ATOM     61  C   UNL A   1      46.071  30.233  31.273  1.00  0.00     0.029 A 
ATOM     62  N   UNL A   1      44.785  32.000  31.492  1.00  0.00    -0.354 N 
ATOM     63  N   UNL A   1      40.782  31.702  33.131  1.00  0.00    -0.248 NA
ATOM     64  C   UNL A   1      40.690  33.050  31.234  1.00  0.00     0.031 C 
ATOM     65  C   UNL A   1      45.352  30.154  32.502  1.00  0.00     0.029 A 
ATOM     66  C   UNL A   1      44.383  31.158  32.499  1.00  0.00     0.049 A 
ATOM     67  H   UNL A   1      44.618  32.970  31.447  1.00  0.00     0.167 HD
ATOM     68  C   UNL A   1      42.082  32.041  32.791  1.00  0.00     0.074 A 
ATOM     69  C   UNL A   1      41.946  32.983  31.685  1.00  0.00     0.031 C 
ATOM     70  C   UNL A   1      43.144  31.309  33.242  1.00  0.00     0.034 A 
BRANCH  57  71
ATOM     71  C   UNL A   1      45.229  32.844  28.508  1.00  0.00     0.023 A 
ATOM     72  C   UNL A   1      44.438  33.023  27.360  1.00  0.00     0.031 A 
ATOM     73  C   UNL A   1      46.197  33.850  28.742  1.00  0.00     0.131 A 
ATOM     74  C   UNL A   1      44.737  34.029  26.428  1.00  0.00     0.055 A 
ATOM     75  C   UNL A   1      46.435  34.901  27.850  1.00  0.00     0.041 A 
ATOM     76  F   UNL A   1      47.027  33.845  29.789  1.00  0.00    -0.206 F 
ATOM     77  C   UNL A   1      45.736  34.968  26.660  1.00  0.00     0.022 A 
BRANCH  74  78
ATOM     78  S   UNL A   1      43.952  33.923  24.803  1.00  0.00     0.124 S 
ATOM     79  O   UNL A   1      43.499  32.535  24.799  1.00  0.00    -0.237 OA
ATOM     80  O   UNL A   1      42.913  34.942  24.908  1.00  0.00    -0.237 OA
ATOM     81  O   UNL A   1      45.042  34.229  23.881  1.00  0.00    -0.744 OA
ENDBRANCH  74  78
ENDBRANCH  57  71
BRANCH  58  82
ATOM     82  C   UNL A   1      37.525  31.900  31.432  1.00  0.00     0.023 A 
ATOM     83  C   UNL A   1      36.972  32.125  30.158  1.00  0.00     0.031 A 
ATOM     84  C   UNL A   1      36.651  32.045  32.536  1.00  0.00     0.131 A 
ATOM     85  C   UNL A   1      35.612  32.485  30.027  1.00  0.00     0.055 A 
ATOM     86  C   UNL A   1      35.316  32.425  32.404  1.00  0.00     0.041 A 
ATOM     87  F   UNL A   1      37.043  31.739  33.783  1.00  0.00    -0.206 F 
ATOM     88  C   UNL A   1      34.787  32.639  31.143  1.00  0.00     0.022 A 
BRANCH  85  89
ATOM     89  S   UNL A   1      34.864  32.640  28.376  1.00  0.00     0.124 S 
ATOM     90  O   UNL A   1      33.693  33.465  28.642  1.00  0.00    -0.237 OA
ATOM     91  O   UNL A   1      35.935  33.259  27.603  1.00  0.00    -0.237 OA
ATOM     92  O   UNL A   1      34.569  31.254  28.006  1.00  0.00    -0.744 OA
ENDBRANCH  85  89
ENDBRANCH  58  82
BRANCH  70  93
ATOM     93  C   UNL A   1      42.947  30.412  34.446  1.00  0.00     0.023 A 
ATOM     94  C   UNL A   1      42.451  29.091  34.396  1.00  0.00     0.031 A 
ATOM     95  C   UNL A   1      43.379  30.898  35.695  1.00  0.00     0.131 A 
ATOM     96  C   UNL A   1      42.386  28.317  35.571  1.00  0.00     0.055 A 
ATOM     97  C   UNL A   1      43.328  30.124  36.853  1.00  0.00     0.041 A 
ATOM     98  F   UNL A   1      43.889  32.137  35.805  1.00  0.00    -0.206 F 
ATOM     99  C   UNL A   1      42.823  28.831  36.797  1.00  0.00     0.022 A 
BRANCH  96 100
ATOM    100  S   UNL A   1      41.712  26.626  35.528  1.00  0.00     0.124 S 
ATOM    101  O   UNL A   1      42.876  25.797  35.240  1.00  0.00    -0.237 OA
ATOM    102  O   UNL A   1      41.140  26.483  36.865  1.00  0.00    -0.237 OA
ATOM    103  O   UNL A   1      40.723  26.682  34.450  1.00  0.00    -0.744 OA
ENDBRANCH  96 100
ENDBRANCH  70  93
ENDBRANCH  44  45
ENDBRANCH  37  39
ENDBRANCH  36  37
ENDBRANCH  35  36
ENDBRANCH  34  35
ENDBRANCH  33  34
ENDBRANCH  32  33
ENDBRANCH   1  32
TORSDOF 24
ENDMDL
