MODEL 1
REMARK VINA RESULT:      -9.4      0.000      0.000
REMARK SMILES C/C(=N\NC(N)=S)c1nnn(-c2ccc(C(=O)OCCOCCOCCOC(=O)c3ccc(-c4c5nc(c(-c6cc(S(=O)(=O)[O-])ccc6F)c6ccc([nH]6)c(-c6cc(S(=O)(=O)[O-])ccc6F)c6nc(c(-c7cc(S(=O)(=O)[O-])ccc7F)c7ccc4[nH]7)C=C6)C=C5)cc3)cc2)c1C
REMARK SMILES IDX 22 1 21 2 20 3 19 4 18 5 16 6 17 7 15 8 12 9 13 10 94 11
REMARK SMILES IDX 14 12 93 13 11 14 8 15 9 16 95 17 10 18 96 19 2 20 1 21 3 22
REMARK SMILES IDX 4 23 5 25 7 26 6 27 23 30 24 31 25 32 26 33 27 34 28 35
REMARK SMILES IDX 29 36 30 37 31 38 92 39 32 40 91 41 33 42 34 43 35 44 85 45
REMARK SMILES IDX 36 46 90 47 84 48 86 49 37 50 89 51 83 52 82 53 38 55 70 56
REMARK SMILES IDX 50 57 69 58 51 59 54 60 68 61 87 62 52 63 53 64 67 66 88 67
REMARK SMILES IDX 55 68 39 69 40 70 48 71 41 72 47 73 49 74 46 75 42 76 43 77
REMARK SMILES IDX 44 78 45 79 71 80 72 81 80 82 73 83 79 84 81 85 78 86 74 87
REMARK SMILES IDX 75 88 76 89 77 90 56 91 57 92 65 93 58 94 64 95 66 96 63 97
REMARK SMILES IDX 59 98 60 99 61 100 62 101
REMARK H PARENT 4 24 6 28 6 29 86 54 54 65
REMARK Flexibility Score: inf
ROOT
ATOM      1  C   UNL A   1      34.788  33.853  27.890  1.00  0.00     0.188 C 
ENDROOT
BRANCH   1   2
ATOM      2  O   UNL A   1      33.619  33.265  28.434  1.00  0.00    -0.376 OA
BRANCH   2   3
ATOM      3  C   UNL A   1      32.780  32.431  27.652  1.00  0.00     0.202 C 
BRANCH   3   4
ATOM      4  C   UNL A   1      33.154  30.994  27.243  1.00  0.00     0.261 C 
BRANCH   4   5
ATOM      5  O   UNL A   1      32.104  30.026  27.297  1.00  0.00    -0.460 OA
BRANCH   5   6
ATOM      6  C   UNL A   1      31.761  29.451  26.125  1.00  0.00     0.338 C 
ATOM      7  O   UNL A   1      31.259  30.000  25.154  1.00  0.00    -0.246 OA
BRANCH   6   8
ATOM      8  C   UNL A   1      32.203  28.041  26.113  1.00  0.00     0.060 A 
ATOM      9  C   UNL A   1      33.027  25.421  25.785  1.00  0.00     0.067 A 
ATOM     10  C   UNL A   1      33.970  26.441  25.636  1.00  0.00     0.029 A 
ATOM     11  C   UNL A   1      31.732  25.686  26.251  1.00  0.00     0.029 A 
ATOM     12  C   UNL A   1      33.540  27.761  25.777  1.00  0.00     0.018 A 
ATOM     13  C   UNL A   1      31.319  27.002  26.422  1.00  0.00     0.018 A 
BRANCH   9  14
ATOM     14  N   UNL A   1      33.266  24.179  25.164  1.00  0.00    -0.217 N 
ATOM     15  C   UNL A   1      33.805  22.094  24.850  1.00  0.00     0.132 A 
ATOM     16  N   UNL A   1      32.996  22.503  23.821  1.00  0.00    -0.128 NA
ATOM     17  C   UNL A   1      33.949  23.125  25.754  1.00  0.00     0.071 A 
ATOM     18  N   UNL A   1      32.597  23.745  24.077  1.00  0.00    -0.061 NA
ATOM     19  C   UNL A   1      34.510  23.152  27.126  1.00  0.00     0.069 C 
BRANCH  15  20
ATOM     20  C   UNL A   1      34.230  20.719  25.028  1.00  0.00     0.087 C 
ATOM     21  C   UNL A   1      35.714  20.465  24.978  1.00  0.00     0.071 C 
ATOM     22  N   UNL A   1      33.275  19.855  25.213  1.00  0.00    -0.176 NA
BRANCH  22  23
ATOM     23  N   UNL A   1      33.541  18.534  25.425  1.00  0.00    -0.254 N 
ATOM     24  H   UNL A   1      34.040  18.319  26.246  1.00  0.00     0.193 HD
BRANCH  23  25
ATOM     25  C   UNL A   1      33.194  17.462  24.626  1.00  0.00     0.184 C 
ATOM     26  S   UNL A   1      34.130  16.564  23.584  1.00  0.00    -0.040 S 
BRANCH  25  27
ATOM     27  N   UNL A   1      31.872  17.132  24.755  1.00  0.00    -0.375 N 
ATOM     28  H   UNL A   1      31.559  16.659  25.560  1.00  0.00     0.159 HD
ATOM     29  H   UNL A   1      31.233  17.367  24.044  1.00  0.00     0.159 HD
ENDBRANCH  25  27
ENDBRANCH  23  25
ENDBRANCH  22  23
ENDBRANCH  15  20
ENDBRANCH   9  14
ENDBRANCH   6   8
ENDBRANCH   5   6
ENDBRANCH   4   5
ENDBRANCH   3   4
ENDBRANCH   2   3
ENDBRANCH   1   2
BRANCH   1  30
ATOM     30  C   UNL A   1      36.191  33.327  28.259  1.00  0.00     0.188 C 
BRANCH  30  31
ATOM     31  O   UNL A   1      36.600  33.526  29.593  1.00  0.00    -0.376 OA
BRANCH  31  32
ATOM     32  C   UNL A   1      36.764  32.446  30.496  1.00  0.00     0.202 C 
BRANCH  32  33
ATOM     33  C   UNL A   1      35.924  31.169  30.512  1.00  0.00     0.261 C 
BRANCH  33  34
ATOM     34  O   UNL A   1      36.598  29.948  30.291  1.00  0.00    -0.460 OA
BRANCH  34  35
ATOM     35  C   UNL A   1      36.706  29.630  28.983  1.00  0.00     0.338 C 
ATOM     36  O   UNL A   1      35.867  29.806  28.117  1.00  0.00    -0.246 OA
BRANCH  35  37
ATOM     37  C   UNL A   1      37.964  28.916  28.778  1.00  0.00     0.060 A 
ATOM     38  C   UNL A   1      38.387  28.081  29.811  1.00  0.00     0.016 A 
ATOM     39  C   UNL A   1      38.825  29.366  27.767  1.00  0.00     0.016 A 
ATOM     40  C   UNL A   1      39.740  27.884  29.960  1.00  0.00     0.010 A 
ATOM     41  C   UNL A   1      40.175  29.193  27.937  1.00  0.00     0.010 A 
ATOM     42  C   UNL A   1      40.616  28.530  29.079  1.00  0.00    -0.014 A 
BRANCH  42  43
ATOM     43  C   UNL A   1      42.036  28.360  29.289  1.00  0.00     0.031 A 
ATOM     44  C   UNL A   1      42.564  27.240  28.486  1.00  0.00     0.074 A 
ATOM     45  C   UNL A   1      42.779  29.186  30.050  1.00  0.00     0.049 A 
ATOM     46  N   UNL A   1      42.904  26.072  28.914  1.00  0.00    -0.248 NA
ATOM     47  C   UNL A   1      42.456  27.334  27.019  1.00  0.00     0.031 C 
ATOM     48  C   UNL A   1      42.376  30.450  30.669  1.00  0.00     0.029 A 
ATOM     49  N   UNL A   1      44.103  29.112  30.353  1.00  0.00    -0.354 N 
ATOM     50  C   UNL A   1      43.338  25.391  27.786  1.00  0.00     0.074 A 
ATOM     51  C   UNL A   1      42.780  26.090  26.664  1.00  0.00     0.031 C 
ATOM     52  C   UNL A   1      43.482  31.124  31.064  1.00  0.00     0.029 A 
ATOM     53  C   UNL A   1      44.657  30.299  30.830  1.00  0.00     0.049 A 
ATOM     54  H   UNL A   1      44.627  28.287  30.244  1.00  0.00     0.167 HD
ATOM     55  C   UNL A   1      44.388  24.531  27.871  1.00  0.00     0.034 A 
ATOM     56  C   UNL A   1      45.985  30.594  30.941  1.00  0.00     0.034 A 
ATOM     57  C   UNL A   1      44.607  24.127  29.247  1.00  0.00     0.049 A 
ATOM     58  C   UNL A   1      46.714  29.297  30.959  1.00  0.00     0.074 A 
ATOM     59  C   UNL A   1      43.803  23.561  30.221  1.00  0.00     0.029 A 
ATOM     60  N   UNL A   1      45.681  24.666  29.924  1.00  0.00    -0.354 N 
ATOM     61  N   UNL A   1      46.619  28.439  31.937  1.00  0.00    -0.248 NA
ATOM     62  C   UNL A   1      47.124  28.729  29.683  1.00  0.00     0.031 C 
ATOM     63  C   UNL A   1      44.168  24.219  31.432  1.00  0.00     0.029 A 
ATOM     64  C   UNL A   1      45.240  25.071  31.161  1.00  0.00     0.049 A 
ATOM     65  H   UNL A   1      46.600  24.747  29.581  1.00  0.00     0.167 HD
ATOM     66  C   UNL A   1      46.509  27.201  31.322  1.00  0.00     0.074 A 
ATOM     67  C   UNL A   1      46.914  27.433  29.934  1.00  0.00     0.031 C 
ATOM     68  C   UNL A   1      45.822  26.174  31.906  1.00  0.00     0.034 A 
BRANCH  55  69
ATOM     69  C   UNL A   1      45.461  24.417  26.807  1.00  0.00     0.023 A 
ATOM     70  C   UNL A   1      46.050  25.621  26.385  1.00  0.00     0.031 A 
ATOM     71  C   UNL A   1      45.721  23.291  25.989  1.00  0.00     0.131 A 
ATOM     72  C   UNL A   1      46.713  25.705  25.151  1.00  0.00     0.055 A 
ATOM     73  C   UNL A   1      46.444  23.367  24.796  1.00  0.00     0.041 A 
ATOM     74  F   UNL A   1      45.230  22.072  26.232  1.00  0.00    -0.206 F 
ATOM     75  C   UNL A   1      46.911  24.587  24.350  1.00  0.00     0.022 A 
BRANCH  72  76
ATOM     76  S   UNL A   1      47.135  27.349  24.531  1.00  0.00     0.124 S 
ATOM     77  O   UNL A   1      45.829  27.999  24.536  1.00  0.00    -0.237 OA
ATOM     78  O   UNL A   1      48.089  27.809  25.534  1.00  0.00    -0.237 OA
ATOM     79  O   UNL A   1      47.698  27.077  23.212  1.00  0.00    -0.744 OA
ENDBRANCH  72  76
ENDBRANCH  55  69
BRANCH  56  80
ATOM     80  C   UNL A   1      46.656  31.907  30.683  1.00  0.00     0.023 A 
ATOM     81  C   UNL A   1      47.265  32.239  29.449  1.00  0.00     0.031 A 
ATOM     82  C   UNL A   1      46.488  32.969  31.601  1.00  0.00     0.131 A 
ATOM     83  C   UNL A   1      47.667  33.573  29.182  1.00  0.00     0.055 A 
ATOM     84  C   UNL A   1      46.890  34.280  31.334  1.00  0.00     0.041 A 
ATOM     85  F   UNL A   1      45.840  32.793  32.763  1.00  0.00    -0.206 F 
ATOM     86  C   UNL A   1      47.474  34.591  30.119  1.00  0.00     0.022 A 
BRANCH  83  87
ATOM     87  S   UNL A   1      48.377  34.040  27.565  1.00  0.00     0.124 S 
ATOM     88  O   UNL A   1      47.196  34.109  26.713  1.00  0.00    -0.237 OA
ATOM     89  O   UNL A   1      49.040  35.304  27.864  1.00  0.00    -0.237 OA
ATOM     90  O   UNL A   1      49.287  32.934  27.258  1.00  0.00    -0.744 OA
ENDBRANCH  83  87
ENDBRANCH  56  80
BRANCH  68  91
ATOM     91  C   UNL A   1      45.480  26.265  33.382  1.00  0.00     0.023 A 
ATOM     92  C   UNL A   1      44.309  26.842  33.924  1.00  0.00     0.031 A 
ATOM     93  C   UNL A   1      46.366  25.636  34.277  1.00  0.00     0.131 A 
ATOM     94  C   UNL A   1      44.075  26.789  35.314  1.00  0.00     0.055 A 
ATOM     95  C   UNL A   1      46.118  25.562  35.647  1.00  0.00     0.041 A 
ATOM     96  F   UNL A   1      47.489  25.051  33.828  1.00  0.00    -0.206 F 
ATOM     97  C   UNL A   1      44.974  26.147  36.172  1.00  0.00     0.022 A 
BRANCH  94  98
ATOM     98  S   UNL A   1      42.613  27.589  36.052  1.00  0.00     0.124 S 
ATOM     99  O   UNL A   1      42.654  27.166  37.446  1.00  0.00    -0.237 OA
ATOM    100  O   UNL A   1      42.873  29.004  35.805  1.00  0.00    -0.237 OA
ATOM    101  O   UNL A   1      41.497  27.034  35.280  1.00  0.00    -0.744 OA
ENDBRANCH  94  98
ENDBRANCH  68  91
ENDBRANCH  42  43
ENDBRANCH  35  37
ENDBRANCH  34  35
ENDBRANCH  33  34
ENDBRANCH  32  33
ENDBRANCH  31  32
ENDBRANCH  30  31
ENDBRANCH   1  30
TORSDOF 25
ENDMDL
MODEL 2
REMARK VINA RESULT:      -8.6      4.379      9.641
REMARK SMILES C/C(=N\NC(N)=S)c1nnn(-c2ccc(C(=O)OCCOCCOCCOC(=O)c3ccc(-c4c5nc(c(-c6cc(S(=O)(=O)[O-])ccc6F)c6ccc([nH]6)c(-c6cc(S(=O)(=O)[O-])ccc6F)c6nc(c(-c7cc(S(=O)(=O)[O-])ccc7F)c7ccc4[nH]7)C=C6)C=C5)cc3)cc2)c1C
REMARK SMILES IDX 22 1 21 2 20 3 19 4 18 5 16 6 17 7 15 8 12 9 13 10 94 11
REMARK SMILES IDX 14 12 93 13 11 14 8 15 9 16 95 17 10 18 96 19 2 20 1 21 3 22
REMARK SMILES IDX 4 23 5 25 7 26 6 27 23 30 24 31 25 32 26 33 27 34 28 35
REMARK SMILES IDX 29 36 30 37 31 38 92 39 32 40 91 41 33 42 34 43 35 44 85 45
REMARK SMILES IDX 36 46 90 47 84 48 86 49 37 50 89 51 83 52 82 53 38 55 70 56
REMARK SMILES IDX 50 57 69 58 51 59 54 60 68 61 87 62 52 63 53 64 67 66 88 67
REMARK SMILES IDX 55 68 39 69 40 70 48 71 41 72 47 73 49 74 46 75 42 76 43 77
REMARK SMILES IDX 44 78 45 79 71 80 72 81 80 82 73 83 79 84 81 85 78 86 74 87
REMARK SMILES IDX 75 88 76 89 77 90 56 91 57 92 65 93 58 94 64 95 66 96 63 97
REMARK SMILES IDX 59 98 60 99 61 100 62 101
REMARK H PARENT 4 24 6 28 6 29 86 54 54 65
REMARK Flexibility Score: inf
ROOT
ATOM      1  C   UNL A   1      42.215  23.962  25.873  1.00  0.00     0.188 C 
ENDROOT
BRANCH   1   2
ATOM      2  O   UNL A   1      42.446  22.690  26.455  1.00  0.00    -0.376 OA
BRANCH   2   3
ATOM      3  C   UNL A   1      41.723  21.544  26.038  1.00  0.00     0.202 C 
BRANCH   3   4
ATOM      4  C   UNL A   1      40.342  21.160  26.602  1.00  0.00     0.261 C 
BRANCH   4   5
ATOM      5  O   UNL A   1      39.217  21.433  25.765  1.00  0.00    -0.460 OA
BRANCH   5   6
ATOM      6  C   UNL A   1      38.529  22.561  26.039  1.00  0.00     0.338 C 
ATOM      7  O   UNL A   1      38.943  23.556  26.617  1.00  0.00    -0.246 OA
BRANCH   6   8
ATOM      8  C   UNL A   1      37.190  22.493  25.414  1.00  0.00     0.060 A 
ATOM      9  C   UNL A   1      34.646  22.653  24.341  1.00  0.00     0.067 A 
ATOM     10  C   UNL A   1      35.703  23.245  23.645  1.00  0.00     0.029 A 
ATOM     11  C   UNL A   1      34.873  21.852  25.469  1.00  0.00     0.029 A 
ATOM     12  C   UNL A   1      36.979  23.183  24.208  1.00  0.00     0.018 A 
ATOM     13  C   UNL A   1      36.152  21.766  26.006  1.00  0.00     0.018 A 
BRANCH   9  14
ATOM     14  N   UNL A   1      33.337  23.117  24.111  1.00  0.00    -0.217 N 
ATOM     15  C   UNL A   1      31.580  24.400  24.040  1.00  0.00     0.132 A 
ATOM     16  N   UNL A   1      31.434  23.397  23.117  1.00  0.00    -0.128 NA
ATOM     17  C   UNL A   1      32.810  24.282  24.650  1.00  0.00     0.071 A 
ATOM     18  N   UNL A   1      32.554  22.680  23.103  1.00  0.00    -0.061 NA
ATOM     19  C   UNL A   1      33.558  25.211  25.531  1.00  0.00     0.069 C 
BRANCH  15  20
ATOM     20  C   UNL A   1      30.657  25.513  24.155  1.00  0.00     0.087 C 
ATOM     21  C   UNL A   1      29.895  25.618  25.450  1.00  0.00     0.071 C 
ATOM     22  N   UNL A   1      30.593  26.300  23.121  1.00  0.00    -0.176 NA
BRANCH  22  23
ATOM     23  N   UNL A   1      29.788  27.401  23.113  1.00  0.00    -0.254 N 
ATOM     24  H   UNL A   1      28.837  27.242  22.914  1.00  0.00     0.193 HD
BRANCH  23  25
ATOM     25  C   UNL A   1      30.148  28.714  23.352  1.00  0.00     0.184 C 
ATOM     26  S   UNL A   1      31.307  29.331  24.373  1.00  0.00    -0.040 S 
BRANCH  25  27
ATOM     27  N   UNL A   1      29.409  29.592  22.607  1.00  0.00    -0.375 N 
ATOM     28  H   UNL A   1      28.533  29.900  22.933  1.00  0.00     0.159 HD
ATOM     29  H   UNL A   1      29.754  29.917  21.743  1.00  0.00     0.159 HD
ENDBRANCH  25  27
ENDBRANCH  23  25
ENDBRANCH  22  23
ENDBRANCH  15  20
ENDBRANCH   9  14
ENDBRANCH   6   8
ENDBRANCH   5   6
ENDBRANCH   4   5
ENDBRANCH   3   4
ENDBRANCH   2   3
ENDBRANCH   1   2
BRANCH   1  30
ATOM     30  C   UNL A   1      43.180  25.140  26.120  1.00  0.00     0.188 C 
BRANCH  30  31
ATOM     31  O   UNL A   1      43.698  25.259  27.425  1.00  0.00    -0.376 OA
BRANCH  31  32
ATOM     32  C   UNL A   1      45.060  24.996  27.718  1.00  0.00     0.202 C 
BRANCH  32  33
ATOM     33  C   UNL A   1      46.196  24.964  26.696  1.00  0.00     0.261 C 
BRANCH  33  34
ATOM     34  O   UNL A   1      46.468  26.157  25.992  1.00  0.00    -0.460 OA
BRANCH  34  35
ATOM     35  C   UNL A   1      47.266  27.006  26.675  1.00  0.00     0.338 C 
ATOM     36  O   UNL A   1      48.294  26.726  27.266  1.00  0.00    -0.246 OA
BRANCH  35  37
ATOM     37  C   UNL A   1      46.632  28.322  26.704  1.00  0.00     0.060 A 
ATOM     38  C   UNL A   1      47.224  29.286  27.519  1.00  0.00     0.016 A 
ATOM     39  C   UNL A   1      45.318  28.437  26.227  1.00  0.00     0.016 A 
ATOM     40  C   UNL A   1      46.411  30.260  28.051  1.00  0.00     0.010 A 
ATOM     41  C   UNL A   1      44.505  29.391  26.783  1.00  0.00     0.010 A 
ATOM     42  C   UNL A   1      45.043  30.232  27.753  1.00  0.00    -0.014 A 
BRANCH  42  43
ATOM     43  C   UNL A   1      44.195  31.227  28.370  1.00  0.00     0.031 A 
ATOM     44  C   UNL A   1      44.453  32.568  27.811  1.00  0.00     0.074 A 
ATOM     45  C   UNL A   1      43.235  30.932  29.267  1.00  0.00     0.049 A 
ATOM     46  N   UNL A   1      45.090  33.534  28.379  1.00  0.00    -0.248 NA
ATOM     47  C   UNL A   1      44.209  32.773  26.372  1.00  0.00     0.031 C 
ATOM     48  C   UNL A   1      42.759  29.611  29.679  1.00  0.00     0.029 A 
ATOM     49  N   UNL A   1      42.405  31.774  29.940  1.00  0.00    -0.354 N 
ATOM     50  C   UNL A   1      45.056  34.573  27.459  1.00  0.00     0.074 A 
ATOM     51  C   UNL A   1      44.774  33.967  26.189  1.00  0.00     0.031 C 
ATOM     52  C   UNL A   1      41.584  29.747  30.338  1.00  0.00     0.029 A 
ATOM     53  C   UNL A   1      41.282  31.162  30.494  1.00  0.00     0.049 A 
ATOM     54  H   UNL A   1      42.584  32.737  30.029  1.00  0.00     0.167 HD
ATOM     55  C   UNL A   1      44.921  35.857  27.885  1.00  0.00     0.034 A 
ATOM     56  C   UNL A   1      40.162  31.783  30.965  1.00  0.00     0.034 A 
ATOM     57  C   UNL A   1      45.284  35.971  29.286  1.00  0.00     0.049 A 
ATOM     58  C   UNL A   1      40.542  33.191  31.259  1.00  0.00     0.074 A 
ATOM     59  C   UNL A   1      46.409  35.632  30.017  1.00  0.00     0.029 A 
ATOM     60  N   UNL A   1      44.274  36.118  30.213  1.00  0.00    -0.354 N 
ATOM     61  N   UNL A   1      41.369  33.523  32.212  1.00  0.00    -0.248 NA
ATOM     62  C   UNL A   1      40.421  34.167  30.185  1.00  0.00     0.031 C 
ATOM     63  C   UNL A   1      45.909  35.109  31.246  1.00  0.00     0.029 A 
ATOM     64  C   UNL A   1      44.521  35.250  31.249  1.00  0.00     0.049 A 
ATOM     65  H   UNL A   1      43.510  36.736  30.145  1.00  0.00     0.167 HD
ATOM     66  C   UNL A   1      42.191  34.493  31.656  1.00  0.00     0.074 A 
ATOM     67  C   UNL A   1      41.504  34.911  30.433  1.00  0.00     0.031 C 
ATOM     68  C   UNL A   1      43.482  34.655  32.071  1.00  0.00     0.034 A 
BRANCH  55  69
ATOM     69  C   UNL A   1      44.058  36.884  27.182  1.00  0.00     0.023 A 
ATOM     70  C   UNL A   1      44.676  38.108  26.870  1.00  0.00     0.031 A 
ATOM     71  C   UNL A   1      42.647  36.869  27.075  1.00  0.00     0.131 A 
ATOM     72  C   UNL A   1      43.911  39.259  26.626  1.00  0.00     0.055 A 
ATOM     73  C   UNL A   1      41.894  38.003  26.761  1.00  0.00     0.041 A 
ATOM     74  F   UNL A   1      41.896  35.797  27.346  1.00  0.00    -0.206 F 
ATOM     75  C   UNL A   1      42.523  39.218  26.573  1.00  0.00     0.022 A 
BRANCH  72  76
ATOM     76  S   UNL A   1      44.771  40.847  26.577  1.00  0.00     0.124 S 
ATOM     77  O   UNL A   1      45.532  40.798  27.821  1.00  0.00    -0.237 OA
ATOM     78  O   UNL A   1      45.542  40.730  25.344  1.00  0.00    -0.237 OA
ATOM     79  O   UNL A   1      43.683  41.819  26.542  1.00  0.00    -0.744 OA
ENDBRANCH  72  76
ENDBRANCH  55  69
BRANCH  56  80
ATOM     80  C   UNL A   1      38.741  31.328  30.843  1.00  0.00     0.023 A 
ATOM     81  C   UNL A   1      37.937  31.588  29.707  1.00  0.00     0.031 A 
ATOM     82  C   UNL A   1      38.225  30.395  31.771  1.00  0.00     0.131 A 
ATOM     83  C   UNL A   1      36.690  30.931  29.543  1.00  0.00     0.055 A 
ATOM     84  C   UNL A   1      36.995  29.753  31.606  1.00  0.00     0.041 A 
ATOM     85  F   UNL A   1      38.939  29.999  32.836  1.00  0.00    -0.206 F 
ATOM     86  C   UNL A   1      36.225  30.012  30.486  1.00  0.00     0.022 A 
BRANCH  83  87
ATOM     87  S   UNL A   1      35.676  31.189  28.046  1.00  0.00     0.124 S 
ATOM     88  O   UNL A   1      36.180  30.158  27.145  1.00  0.00    -0.237 OA
ATOM     89  O   UNL A   1      34.319  31.010  28.548  1.00  0.00    -0.237 OA
ATOM     90  O   UNL A   1      36.000  32.560  27.645  1.00  0.00    -0.744 OA
ENDBRANCH  83  87
ENDBRANCH  56  80
BRANCH  68  91
ATOM     91  C   UNL A   1      43.917  34.022  33.381  1.00  0.00     0.023 A 
ATOM     92  C   UNL A   1      44.385  32.697  33.543  1.00  0.00     0.031 A 
ATOM     93  C   UNL A   1      43.943  34.860  34.512  1.00  0.00     0.131 A 
ATOM     94  C   UNL A   1      44.837  32.259  34.805  1.00  0.00     0.055 A 
ATOM     95  C   UNL A   1      44.415  34.431  35.751  1.00  0.00     0.041 A 
ATOM     96  F   UNL A   1      43.530  36.136  34.425  1.00  0.00    -0.206 F 
ATOM     97  C   UNL A   1      44.855  33.124  35.904  1.00  0.00     0.022 A 
BRANCH  94  98
ATOM     98  S   UNL A   1      45.374  30.536  35.064  1.00  0.00     0.124 S 
ATOM     99  O   UNL A   1      46.828  30.615  35.005  1.00  0.00    -0.237 OA
ATOM    100  O   UNL A   1      44.803  30.223  36.370  1.00  0.00    -0.237 OA
ATOM    101  O   UNL A   1      44.758  29.818  33.944  1.00  0.00    -0.744 OA
ENDBRANCH  94  98
ENDBRANCH  68  91
ENDBRANCH  42  43
ENDBRANCH  35  37
ENDBRANCH  34  35
ENDBRANCH  33  34
ENDBRANCH  32  33
ENDBRANCH  31  32
ENDBRANCH  30  31
ENDBRANCH   1  30
TORSDOF 25
ENDMDL
MODEL 3
REMARK VINA RESULT:      -8.5      7.991     14.288
REMARK SMILES C/C(=N\NC(N)=S)c1nnn(-c2ccc(C(=O)OCCOCCOCCOC(=O)c3ccc(-c4c5nc(c(-c6cc(S(=O)(=O)[O-])ccc6F)c6ccc([nH]6)c(-c6cc(S(=O)(=O)[O-])ccc6F)c6nc(c(-c7cc(S(=O)(=O)[O-])ccc7F)c7ccc4[nH]7)C=C6)C=C5)cc3)cc2)c1C
REMARK SMILES IDX 22 1 21 2 20 3 19 4 18 5 16 6 17 7 15 8 12 9 13 10 94 11
REMARK SMILES IDX 14 12 93 13 11 14 8 15 9 16 95 17 10 18 96 19 2 20 1 21 3 22
REMARK SMILES IDX 4 23 5 25 7 26 6 27 23 30 24 31 25 32 26 33 27 34 28 35
REMARK SMILES IDX 29 36 30 37 31 38 92 39 32 40 91 41 33 42 34 43 35 44 85 45
REMARK SMILES IDX 36 46 90 47 84 48 86 49 37 50 89 51 83 52 82 53 38 55 70 56
REMARK SMILES IDX 50 57 69 58 51 59 54 60 68 61 87 62 52 63 53 64 67 66 88 67
REMARK SMILES IDX 55 68 39 69 40 70 48 71 41 72 47 73 49 74 46 75 42 76 43 77
REMARK SMILES IDX 44 78 45 79 71 80 72 81 80 82 73 83 79 84 81 85 78 86 74 87
REMARK SMILES IDX 75 88 76 89 77 90 56 91 57 92 65 93 58 94 64 95 66 96 63 97
REMARK SMILES IDX 59 98 60 99 61 100 62 101
REMARK H PARENT 4 24 6 28 6 29 86 54 54 65
REMARK Flexibility Score: inf
ROOT
ATOM      1  C   UNL A   1      47.097  37.823  27.045  1.00  0.00     0.188 C 
ENDROOT
BRANCH   1   2
ATOM      2  O   UNL A   1      46.018  37.063  26.530  1.00  0.00    -0.376 OA
BRANCH   2   3
ATOM      3  C   UNL A   1      44.831  36.864  27.280  1.00  0.00     0.202 C 
BRANCH   3   4
ATOM      4  C   UNL A   1      43.568  37.732  27.118  1.00  0.00     0.261 C 
BRANCH   4   5
ATOM      5  O   UNL A   1      43.653  39.071  27.607  1.00  0.00    -0.460 OA
BRANCH   5   6
ATOM      6  C   UNL A   1      42.513  39.794  27.570  1.00  0.00     0.338 C 
ATOM      7  O   UNL A   1      41.611  39.792  28.397  1.00  0.00    -0.246 OA
BRANCH   6   8
ATOM      8  C   UNL A   1      42.549  40.723  26.421  1.00  0.00     0.060 A 
ATOM      9  C   UNL A   1      42.591  42.214  24.092  1.00  0.00     0.067 A 
ATOM     10  C   UNL A   1      41.361  41.752  24.567  1.00  0.00     0.029 A 
ATOM     11  C   UNL A   1      43.763  42.078  24.848  1.00  0.00     0.029 A 
ATOM     12  C   UNL A   1      41.352  40.978  25.728  1.00  0.00     0.018 A 
ATOM     13  C   UNL A   1      43.742  41.334  26.022  1.00  0.00     0.018 A 
BRANCH   9  14
ATOM     14  N   UNL A   1      42.717  42.523  22.723  1.00  0.00    -0.217 N 
ATOM     15  C   UNL A   1      43.388  43.430  20.862  1.00  0.00     0.132 A 
ATOM     16  N   UNL A   1      42.791  42.227  20.580  1.00  0.00    -0.128 NA
ATOM     17  C   UNL A   1      43.408  43.619  22.227  1.00  0.00     0.071 A 
ATOM     18  N   UNL A   1      42.476  41.642  21.731  1.00  0.00    -0.061 NA
ATOM     19  C   UNL A   1      44.122  44.611  23.066  1.00  0.00     0.069 C 
BRANCH  15  20
ATOM     20  C   UNL A   1      44.074  44.228  19.864  1.00  0.00     0.087 C 
ATOM     21  C   UNL A   1      43.206  44.892  18.827  1.00  0.00     0.071 C 
ATOM     22  N   UNL A   1      45.368  44.283  19.980  1.00  0.00    -0.176 NA
BRANCH  22  23
ATOM     23  N   UNL A   1      46.129  45.026  19.126  1.00  0.00    -0.254 N 
ATOM     24  H   UNL A   1      45.639  45.547  18.450  1.00  0.00     0.193 HD
BRANCH  23  25
ATOM     25  C   UNL A   1      47.506  45.134  19.096  1.00  0.00     0.184 C 
ATOM     26  S   UNL A   1      48.470  46.226  18.292  1.00  0.00    -0.040 S 
BRANCH  25  27
ATOM     27  N   UNL A   1      48.114  44.178  19.863  1.00  0.00    -0.375 N 
ATOM     28  H   UNL A   1      48.138  44.274  20.842  1.00  0.00     0.159 HD
ATOM     29  H   UNL A   1      48.526  43.392  19.436  1.00  0.00     0.159 HD
ENDBRANCH  25  27
ENDBRANCH  23  25
ENDBRANCH  22  23
ENDBRANCH  15  20
ENDBRANCH   9  14
ENDBRANCH   6   8
ENDBRANCH   5   6
ENDBRANCH   4   5
ENDBRANCH   3   4
ENDBRANCH   2   3
ENDBRANCH   1   2
BRANCH   1  30
ATOM     30  C   UNL A   1      47.003  38.513  28.422  1.00  0.00     0.188 C 
BRANCH  30  31
ATOM     31  O   UNL A   1      46.975  39.922  28.412  1.00  0.00    -0.376 OA
BRANCH  31  32
ATOM     32  C   UNL A   1      46.112  40.661  29.260  1.00  0.00     0.202 C 
BRANCH  32  33
ATOM     33  C   UNL A   1      45.727  40.274  30.688  1.00  0.00     0.261 C 
BRANCH  33  34
ATOM     34  O   UNL A   1      45.135  39.007  30.878  1.00  0.00    -0.460 OA
BRANCH  34  35
ATOM     35  C   UNL A   1      44.099  39.030  31.745  1.00  0.00     0.338 C 
ATOM     36  O   UNL A   1      43.455  40.006  32.087  1.00  0.00    -0.246 OA
BRANCH  35  37
ATOM     37  C   UNL A   1      43.941  37.696  32.319  1.00  0.00     0.060 A 
ATOM     38  C   UNL A   1      44.109  36.616  31.454  1.00  0.00     0.016 A 
ATOM     39  C   UNL A   1      43.296  37.580  33.559  1.00  0.00     0.016 A 
ATOM     40  C   UNL A   1      43.418  35.460  31.732  1.00  0.00     0.010 A 
ATOM     41  C   UNL A   1      42.584  36.436  33.818  1.00  0.00     0.010 A 
ATOM     42  C   UNL A   1      42.585  35.427  32.858  1.00  0.00    -0.014 A 
BRANCH  42  43
ATOM     43  C   UNL A   1      41.820  34.225  33.100  1.00  0.00     0.031 A 
ATOM     44  C   UNL A   1      40.650  34.149  32.205  1.00  0.00     0.074 A 
ATOM     45  C   UNL A   1      42.196  33.267  33.969  1.00  0.00     0.049 A 
ATOM     46  N   UNL A   1      39.417  34.356  32.522  1.00  0.00    -0.248 NA
ATOM     47  C   UNL A   1      40.895  34.096  30.753  1.00  0.00     0.031 C 
ATOM     48  C   UNL A   1      43.459  33.158  34.700  1.00  0.00     0.029 A 
ATOM     49  N   UNL A   1      41.550  32.120  34.310  1.00  0.00    -0.354 N 
ATOM     50  C   UNL A   1      38.707  34.159  31.346  1.00  0.00     0.074 A 
ATOM     51  C   UNL A   1      39.663  34.290  30.283  1.00  0.00     0.031 C 
ATOM     52  C   UNL A   1      43.575  31.905  35.202  1.00  0.00     0.029 A 
ATOM     53  C   UNL A   1      42.354  31.162  34.927  1.00  0.00     0.049 A 
ATOM     54  H   UNL A   1      40.592  31.977  34.135  1.00  0.00     0.167 HD
ATOM     55  C   UNL A   1      37.484  33.568  31.379  1.00  0.00     0.034 A 
ATOM     56  C   UNL A   1      42.056  29.844  35.115  1.00  0.00     0.034 A 
ATOM     57  C   UNL A   1      36.917  33.641  32.713  1.00  0.00     0.049 A 
ATOM     58  C   UNL A   1      40.576  29.721  35.026  1.00  0.00     0.074 A 
ATOM     59  C   UNL A   1      36.665  34.678  33.594  1.00  0.00     0.029 A 
ATOM     60  N   UNL A   1      36.901  32.495  33.481  1.00  0.00    -0.354 N 
ATOM     61  N   UNL A   1      39.762  30.236  35.906  1.00  0.00    -0.248 NA
ATOM     62  C   UNL A   1      39.991  29.487  33.713  1.00  0.00     0.031 C 
ATOM     63  C   UNL A   1      37.012  34.167  34.879  1.00  0.00     0.029 A 
ATOM     64  C   UNL A   1      37.355  32.821  34.736  1.00  0.00     0.049 A 
ATOM     65  H   UNL A   1      36.617  31.602  33.182  1.00  0.00     0.167 HD
ATOM     66  C   UNL A   1      38.736  30.801  35.162  1.00  0.00     0.074 A 
ATOM     67  C   UNL A   1      38.887  30.232  33.822  1.00  0.00     0.031 C 
ATOM     68  C   UNL A   1      38.050  31.894  35.612  1.00  0.00     0.034 A 
BRANCH  55  69
ATOM     69  C   UNL A   1      37.014  32.561  30.349  1.00  0.00     0.023 A 
ATOM     70  C   UNL A   1      37.798  31.403  30.208  1.00  0.00     0.031 A 
ATOM     71  C   UNL A   1      36.068  32.786  29.321  1.00  0.00     0.131 A 
ATOM     72  C   UNL A   1      37.734  30.628  29.040  1.00  0.00     0.055 A 
ATOM     73  C   UNL A   1      35.959  31.968  28.193  1.00  0.00     0.041 A 
ATOM     74  F   UNL A   1      35.250  33.842  29.286  1.00  0.00    -0.206 F 
ATOM     75  C   UNL A   1      36.822  30.903  28.028  1.00  0.00     0.022 A 
BRANCH  72  76
ATOM     76  S   UNL A   1      39.007  29.370  28.793  1.00  0.00     0.124 S 
ATOM     77  O   UNL A   1      38.373  28.200  29.391  1.00  0.00    -0.237 OA
ATOM     78  O   UNL A   1      39.140  29.361  27.341  1.00  0.00    -0.237 OA
ATOM     79  O   UNL A   1      40.154  29.904  29.522  1.00  0.00    -0.744 OA
ENDBRANCH  72  76
ENDBRANCH  55  69
BRANCH  56  80
ATOM     80  C   UNL A   1      42.982  28.673  35.020  1.00  0.00     0.023 A 
ATOM     81  C   UNL A   1      43.205  27.954  33.819  1.00  0.00     0.031 A 
ATOM     82  C   UNL A   1      43.866  28.392  36.086  1.00  0.00     0.131 A 
ATOM     83  C   UNL A   1      44.266  27.017  33.730  1.00  0.00     0.055 A 
ATOM     84  C   UNL A   1      44.907  27.464  35.993  1.00  0.00     0.041 A 
ATOM     85  F   UNL A   1      43.811  29.077  37.239  1.00  0.00    -0.206 F 
ATOM     86  C   UNL A   1      45.117  26.778  34.810  1.00  0.00     0.022 A 
BRANCH  83  87
ATOM     87  S   UNL A   1      44.623  26.141  32.166  1.00  0.00     0.124 S 
ATOM     88  O   UNL A   1      44.336  24.754  32.512  1.00  0.00    -0.237 OA
ATOM     89  O   UNL A   1      43.707  26.782  31.229  1.00  0.00    -0.237 OA
ATOM     90  O   UNL A   1      46.038  26.431  31.927  1.00  0.00    -0.744 OA
ENDBRANCH  83  87
ENDBRANCH  56  80
BRANCH  68  91
ATOM     91  C   UNL A   1      38.159  32.278  37.076  1.00  0.00     0.023 A 
ATOM     92  C   UNL A   1      37.307  31.832  38.113  1.00  0.00     0.031 A 
ATOM     93  C   UNL A   1      39.263  33.072  37.442  1.00  0.00     0.131 A 
ATOM     94  C   UNL A   1      37.569  32.201  39.448  1.00  0.00     0.055 A 
ATOM     95  C   UNL A   1      39.534  33.412  38.766  1.00  0.00     0.041 A 
ATOM     96  F   UNL A   1      40.124  33.514  36.510  1.00  0.00    -0.206 F 
ATOM     97  C   UNL A   1      38.681  32.984  39.775  1.00  0.00     0.022 A 
BRANCH  94  98
ATOM     98  S   UNL A   1      36.447  31.706  40.797  1.00  0.00     0.124 S 
ATOM     99  O   UNL A   1      37.231  30.748  41.565  1.00  0.00    -0.237 OA
ATOM    100  O   UNL A   1      36.169  32.979  41.456  1.00  0.00    -0.237 OA
ATOM    101  O   UNL A   1      35.301  31.128  40.089  1.00  0.00    -0.744 OA
ENDBRANCH  94  98
ENDBRANCH  68  91
ENDBRANCH  42  43
ENDBRANCH  35  37
ENDBRANCH  34  35
ENDBRANCH  33  34
ENDBRANCH  32  33
ENDBRANCH  31  32
ENDBRANCH  30  31
ENDBRANCH   1  30
TORSDOF 25
ENDMDL
