MODEL 1
REMARK VINA RESULT:     -11.4      0.000      0.000
REMARK SMILES COc1ccc(Cl)c2c1N[C@@H](c1ccc(C(=O)OCCOCCOCCOC(=O)c3ccc(-c4c5nc(c(-c6cc(S(=O)(=O)[O-])ccc6F)c6ccc([nH]6)c(-c6cc(S(=O)(=O)[O-])ccc6F)c6nc(c(-c7cc(S(=O)(=O)[O-])ccc7F)c7ccc4[nH]7)C=C6)C=C5)cc3)cc1)[C@@H]1CC=C[C@H]21
REMARK SMILES IDX 23 1 22 2 21 3 20 4 19 5 18 6 16 7 17 8 15 9 12 10 13 11
REMARK SMILES IDX 94 12 14 13 93 14 11 15 3 16 4 17 9 18 5 19 8 20 10 21 6 22
REMARK SMILES IDX 99 23 7 25 95 26 98 27 96 28 97 29 2 30 1 31 24 32 25 33
REMARK SMILES IDX 26 34 27 35 28 36 29 37 30 38 31 39 92 40 32 41 91 42 33 43
REMARK SMILES IDX 34 44 35 45 85 46 36 47 90 48 84 49 86 50 37 51 89 52 83 53
REMARK SMILES IDX 82 54 38 56 70 57 50 58 69 59 51 60 54 61 68 62 87 63 52 64
REMARK SMILES IDX 53 65 67 67 88 68 55 69 39 70 40 71 48 72 41 73 47 74 49 75
REMARK SMILES IDX 46 76 42 77 43 78 44 79 45 80 71 81 72 82 80 83 73 84 79 85
REMARK SMILES IDX 81 86 78 87 74 88 75 89 76 90 77 91 56 92 57 93 65 94 58 95
REMARK SMILES IDX 64 96 66 97 63 98 59 99 60 100 61 101 62 102
REMARK H PARENT 10 24 86 55 54 66
REMARK Flexibility Score: inf
ROOT
ATOM      1  C   UNL A   1      31.400  30.082  25.059  1.00  0.00     0.188 C 
ENDROOT
BRANCH   1   2
ATOM      2  C   UNL A   1      30.903  31.362  25.767  1.00  0.00     0.188 C 
BRANCH   2   3
ATOM      3  O   UNL A   1      29.974  32.115  25.025  1.00  0.00    -0.376 OA
BRANCH   3   4
ATOM      4  C   UNL A   1      29.328  31.552  23.899  1.00  0.00     0.202 C 
BRANCH   4   5
ATOM      5  C   UNL A   1      27.803  31.402  23.719  1.00  0.00     0.261 C 
BRANCH   5   6
ATOM      6  O   UNL A   1      27.315  30.169  23.188  1.00  0.00    -0.460 OA
BRANCH   6   7
ATOM      7  C   UNL A   1      28.020  29.658  22.145  1.00  0.00     0.338 C 
ATOM      8  O   UNL A   1      28.074  30.105  21.013  1.00  0.00    -0.246 OA
BRANCH   7   9
ATOM      9  C   UNL A   1      28.872  28.544  22.618  1.00  0.00     0.060 A 
ATOM     10  C   UNL A   1      30.532  26.394  23.368  1.00  0.00    -0.025 A 
ATOM     11  C   UNL A   1      31.014  27.417  22.533  1.00  0.00     0.007 A 
ATOM     12  C   UNL A   1      29.242  26.540  23.913  1.00  0.00     0.007 A 
ATOM     13  C   UNL A   1      30.196  28.491  22.172  1.00  0.00     0.016 A 
ATOM     14  C   UNL A   1      28.401  27.581  23.513  1.00  0.00     0.016 A 
BRANCH  10  15
ATOM     15  C   UNL A   1      31.304  25.088  23.590  1.00  0.00     0.114 C 
ATOM     16  C   UNL A   1      31.866  23.166  26.768  1.00  0.00     0.142 A 
ATOM     17  C   UNL A   1      32.738  22.243  27.345  1.00  0.00     0.050 A 
ATOM     18  C   UNL A   1      32.129  23.746  25.510  1.00  0.00     0.083 A 
ATOM     19  C   UNL A   1      33.883  21.857  26.657  1.00  0.00     0.025 A 
ATOM     20  C   UNL A   1      33.289  23.356  24.818  1.00  0.00     0.005 A 
ATOM     21  N   UNL A   1      31.279  24.713  24.993  1.00  0.00    -0.375 N 
ATOM     22  C   UNL A   1      34.158  22.411  25.405  1.00  0.00     0.047 A 
ATOM     23  C   UNL A   1      33.623  24.011  23.506  1.00  0.00     0.051 C 
ATOM     24  H   UNL A   1      30.640  25.158  25.595  1.00  0.00     0.161 HD
ATOM     25  Cl  UNL A   1      35.634  21.916  24.642  1.00  0.00    -0.084 Cl
ATOM     26  C   UNL A   1      32.775  25.246  23.126  1.00  0.00     0.031 C 
ATOM     27  C   UNL A   1      33.444  23.134  22.292  1.00  0.00    -0.023 C 
ATOM     28  C   UNL A   1      32.948  25.299  21.593  1.00  0.00     0.034 C 
ATOM     29  C   UNL A   1      33.080  23.857  21.227  1.00  0.00    -0.030 C 
BRANCH  16  30
ATOM     30  O   UNL A   1      30.791  23.559  27.527  1.00  0.00    -0.495 OA
ATOM     31  C   UNL A   1      29.648  22.734  27.298  1.00  0.00     0.278 C 
ENDBRANCH  16  30
ENDBRANCH  10  15
ENDBRANCH   7   9
ENDBRANCH   6   7
ENDBRANCH   5   6
ENDBRANCH   4   5
ENDBRANCH   3   4
ENDBRANCH   2   3
ENDBRANCH   1   2
BRANCH   1  32
ATOM     32  O   UNL A   1      31.267  28.819  25.691  1.00  0.00    -0.376 OA
BRANCH  32  33
ATOM     33  C   UNL A   1      31.765  28.670  27.014  1.00  0.00     0.202 C 
BRANCH  33  34
ATOM     34  C   UNL A   1      33.268  28.476  27.294  1.00  0.00     0.261 C 
BRANCH  34  35
ATOM     35  O   UNL A   1      34.152  29.484  26.780  1.00  0.00    -0.460 OA
BRANCH  35  36
ATOM     36  C   UNL A   1      34.496  30.470  27.644  1.00  0.00     0.338 C 
ATOM     37  O   UNL A   1      33.798  31.402  28.020  1.00  0.00    -0.246 OA
BRANCH  36  38
ATOM     38  C   UNL A   1      35.819  30.172  28.220  1.00  0.00     0.060 A 
ATOM     39  C   UNL A   1      36.971  30.378  27.445  1.00  0.00     0.016 A 
ATOM     40  C   UNL A   1      35.916  29.643  29.506  1.00  0.00     0.016 A 
ATOM     41  C   UNL A   1      38.228  30.067  27.961  1.00  0.00     0.010 A 
ATOM     42  C   UNL A   1      37.173  29.294  30.006  1.00  0.00     0.010 A 
ATOM     43  C   UNL A   1      38.330  29.486  29.229  1.00  0.00    -0.014 A 
BRANCH  43  44
ATOM     44  C   UNL A   1      39.622  28.911  29.668  1.00  0.00     0.031 A 
ATOM     45  C   UNL A   1      40.370  29.599  30.772  1.00  0.00     0.074 A 
ATOM     46  C   UNL A   1      40.119  27.802  29.096  1.00  0.00     0.049 A 
ATOM     47  N   UNL A   1      41.529  29.301  31.294  1.00  0.00    -0.248 NA
ATOM     48  C   UNL A   1      39.726  30.783  31.369  1.00  0.00     0.031 C 
ATOM     49  C   UNL A   1      39.465  27.033  28.041  1.00  0.00     0.029 A 
ATOM     50  N   UNL A   1      41.301  27.139  29.319  1.00  0.00    -0.354 N 
ATOM     51  C   UNL A   1      41.757  30.255  32.275  1.00  0.00     0.074 A 
ATOM     52  C   UNL A   1      40.630  31.161  32.261  1.00  0.00     0.031 C 
ATOM     53  C   UNL A   1      40.267  26.013  27.689  1.00  0.00     0.029 A 
ATOM     54  C   UNL A   1      41.502  26.074  28.473  1.00  0.00     0.049 A 
ATOM     55  H   UNL A   1      41.944  27.402  30.016  1.00  0.00     0.167 HD
ATOM     56  C   UNL A   1      42.810  30.360  33.118  1.00  0.00     0.034 A 
ATOM     57  C   UNL A   1      42.566  25.256  28.334  1.00  0.00     0.034 A 
ATOM     58  C   UNL A   1      43.931  29.460  33.120  1.00  0.00     0.049 A 
ATOM     59  C   UNL A   1      43.756  25.428  29.246  1.00  0.00     0.074 A 
ATOM     60  C   UNL A   1      45.031  29.473  33.958  1.00  0.00     0.029 A 
ATOM     61  N   UNL A   1      44.105  28.397  32.246  1.00  0.00    -0.354 N 
ATOM     62  N   UNL A   1      43.933  26.294  30.217  1.00  0.00    -0.248 NA
ATOM     63  C   UNL A   1      44.889  24.509  29.057  1.00  0.00     0.031 C 
ATOM     64  C   UNL A   1      45.900  28.461  33.551  1.00  0.00     0.029 A 
ATOM     65  C   UNL A   1      45.309  27.767  32.506  1.00  0.00     0.049 A 
ATOM     66  H   UNL A   1      43.466  28.131  31.545  1.00  0.00     0.167 HD
ATOM     67  C   UNL A   1      45.178  26.005  30.771  1.00  0.00     0.074 A 
ATOM     68  C   UNL A   1      45.706  24.874  30.038  1.00  0.00     0.031 C 
ATOM     69  C   UNL A   1      45.823  26.624  31.791  1.00  0.00     0.034 A 
BRANCH  56  70
ATOM     70  C   UNL A   1      42.820  31.482  34.119  1.00  0.00     0.023 A 
ATOM     71  C   UNL A   1      42.024  31.392  35.276  1.00  0.00     0.031 A 
ATOM     72  C   UNL A   1      43.493  32.688  33.859  1.00  0.00     0.131 A 
ATOM     73  C   UNL A   1      41.880  32.508  36.105  1.00  0.00     0.055 A 
ATOM     74  C   UNL A   1      43.376  33.786  34.711  1.00  0.00     0.041 A 
ATOM     75  F   UNL A   1      44.271  32.814  32.772  1.00  0.00    -0.206 F 
ATOM     76  C   UNL A   1      42.555  33.704  35.833  1.00  0.00     0.022 A 
BRANCH  73  77
ATOM     77  S   UNL A   1      40.769  32.469  37.537  1.00  0.00     0.124 S 
ATOM     78  O   UNL A   1      41.628  31.894  38.570  1.00  0.00    -0.237 OA
ATOM     79  O   UNL A   1      40.446  33.882  37.708  1.00  0.00    -0.237 OA
ATOM     80  O   UNL A   1      39.669  31.614  37.102  1.00  0.00    -0.744 OA
ENDBRANCH  73  77
ENDBRANCH  56  70
BRANCH  57  81
ATOM     81  C   UNL A   1      42.526  24.181  27.302  1.00  0.00     0.023 A 
ATOM     82  C   UNL A   1      41.857  22.969  27.549  1.00  0.00     0.031 A 
ATOM     83  C   UNL A   1      43.225  24.318  26.091  1.00  0.00     0.131 A 
ATOM     84  C   UNL A   1      41.951  21.921  26.625  1.00  0.00     0.055 A 
ATOM     85  C   UNL A   1      43.265  23.292  25.145  1.00  0.00     0.041 A 
ATOM     86  F   UNL A   1      43.880  25.455  25.814  1.00  0.00    -0.206 F 
ATOM     87  C   UNL A   1      42.637  22.080  25.417  1.00  0.00     0.022 A 
BRANCH  84  88
ATOM     88  S   UNL A   1      41.259  20.287  27.000  1.00  0.00     0.124 S 
ATOM     89  O   UNL A   1      42.392  19.404  26.740  1.00  0.00    -0.237 OA
ATOM     90  O   UNL A   1      40.888  20.441  28.404  1.00  0.00    -0.237 OA
ATOM     91  O   UNL A   1      40.141  20.164  26.069  1.00  0.00    -0.744 OA
ENDBRANCH  84  88
ENDBRANCH  57  81
BRANCH  69  92
ATOM     92  C   UNL A   1      47.174  26.107  32.226  1.00  0.00     0.023 A 
ATOM     93  C   UNL A   1      48.314  26.388  31.448  1.00  0.00     0.031 A 
ATOM     94  C   UNL A   1      47.304  25.207  33.296  1.00  0.00     0.131 A 
ATOM     95  C   UNL A   1      49.525  25.740  31.724  1.00  0.00     0.055 A 
ATOM     96  C   UNL A   1      48.524  24.599  33.597  1.00  0.00     0.041 A 
ATOM     97  F   UNL A   1      46.244  24.896  34.059  1.00  0.00    -0.206 F 
ATOM     98  C   UNL A   1      49.637  24.854  32.800  1.00  0.00     0.022 A 
BRANCH  95  99
ATOM     99  S   UNL A   1      50.972  25.965  30.654  1.00  0.00     0.124 S 
ATOM    100  O   UNL A   1      52.027  25.316  31.431  1.00  0.00    -0.237 OA
ATOM    101  O   UNL A   1      50.568  25.259  29.442  1.00  0.00    -0.237 OA
ATOM    102  O   UNL A   1      51.097  27.413  30.528  1.00  0.00    -0.744 OA
ENDBRANCH  95  99
ENDBRANCH  69  92
ENDBRANCH  43  44
ENDBRANCH  36  38
ENDBRANCH  35  36
ENDBRANCH  34  35
ENDBRANCH  33  34
ENDBRANCH  32  33
ENDBRANCH   1  32
TORSDOF 22
ENDMDL
MODEL 2
REMARK VINA RESULT:     -10.9      3.468      5.050
REMARK SMILES COc1ccc(Cl)c2c1N[C@@H](c1ccc(C(=O)OCCOCCOCCOC(=O)c3ccc(-c4c5nc(c(-c6cc(S(=O)(=O)[O-])ccc6F)c6ccc([nH]6)c(-c6cc(S(=O)(=O)[O-])ccc6F)c6nc(c(-c7cc(S(=O)(=O)[O-])ccc7F)c7ccc4[nH]7)C=C6)C=C5)cc3)cc1)[C@@H]1CC=C[C@H]21
REMARK SMILES IDX 23 1 22 2 21 3 20 4 19 5 18 6 16 7 17 8 15 9 12 10 13 11
REMARK SMILES IDX 94 12 14 13 93 14 11 15 3 16 4 17 9 18 5 19 8 20 10 21 6 22
REMARK SMILES IDX 99 23 7 25 95 26 98 27 96 28 97 29 2 30 1 31 24 32 25 33
REMARK SMILES IDX 26 34 27 35 28 36 29 37 30 38 31 39 92 40 32 41 91 42 33 43
REMARK SMILES IDX 34 44 35 45 85 46 36 47 90 48 84 49 86 50 37 51 89 52 83 53
REMARK SMILES IDX 82 54 38 56 70 57 50 58 69 59 51 60 54 61 68 62 87 63 52 64
REMARK SMILES IDX 53 65 67 67 88 68 55 69 39 70 40 71 48 72 41 73 47 74 49 75
REMARK SMILES IDX 46 76 42 77 43 78 44 79 45 80 71 81 72 82 80 83 73 84 79 85
REMARK SMILES IDX 81 86 78 87 74 88 75 89 76 90 77 91 56 92 57 93 65 94 58 95
REMARK SMILES IDX 64 96 66 97 63 98 59 99 60 100 61 101 62 102
REMARK H PARENT 10 24 86 55 54 66
REMARK Flexibility Score: inf
ROOT
ATOM      1  C   UNL A   1      29.900  31.870  24.429  1.00  0.00     0.188 C 
ENDROOT
BRANCH   1   2
ATOM      2  C   UNL A   1      28.886  31.057  23.592  1.00  0.00     0.188 C 
BRANCH   2   3
ATOM      3  O   UNL A   1      29.351  30.681  22.318  1.00  0.00    -0.376 OA
BRANCH   3   4
ATOM      4  C   UNL A   1      30.239  29.589  22.170  1.00  0.00     0.202 C 
BRANCH   4   5
ATOM      5  C   UNL A   1      30.381  28.405  23.149  1.00  0.00     0.261 C 
BRANCH   5   6
ATOM      6  O   UNL A   1      31.204  28.592  24.301  1.00  0.00    -0.460 OA
BRANCH   6   7
ATOM      7  C   UNL A   1      32.543  28.593  24.073  1.00  0.00     0.338 C 
ATOM      8  O   UNL A   1      33.228  29.551  23.760  1.00  0.00    -0.246 OA
BRANCH   7   9
ATOM      9  C   UNL A   1      33.110  27.271  24.423  1.00  0.00     0.060 A 
ATOM     10  C   UNL A   1      34.096  24.691  24.979  1.00  0.00    -0.025 A 
ATOM     11  C   UNL A   1      34.070  25.182  23.663  1.00  0.00     0.007 A 
ATOM     12  C   UNL A   1      33.731  25.568  26.018  1.00  0.00     0.007 A 
ATOM     13  C   UNL A   1      33.594  26.467  23.387  1.00  0.00     0.016 A 
ATOM     14  C   UNL A   1      33.202  26.833  25.745  1.00  0.00     0.016 A 
BRANCH  10  15
ATOM     15  C   UNL A   1      34.376  23.217  25.297  1.00  0.00     0.114 C 
ATOM     16  C   UNL A   1      37.665  21.418  25.535  1.00  0.00     0.142 A 
ATOM     17  C   UNL A   1      38.220  20.142  25.442  1.00  0.00     0.050 A 
ATOM     18  C   UNL A   1      36.310  21.660  25.230  1.00  0.00     0.083 A 
ATOM     19  C   UNL A   1      37.417  19.071  25.067  1.00  0.00     0.025 A 
ATOM     20  C   UNL A   1      35.501  20.575  24.849  1.00  0.00     0.005 A 
ATOM     21  N   UNL A   1      35.804  22.951  25.265  1.00  0.00    -0.375 N 
ATOM     22  C   UNL A   1      36.070  19.285  24.770  1.00  0.00     0.047 A 
ATOM     23  C   UNL A   1      34.071  20.821  24.455  1.00  0.00     0.051 C 
ATOM     24  H   UNL A   1      36.430  23.710  25.267  1.00  0.00     0.161 HD
ATOM     25  Cl  UNL A   1      35.155  17.904  24.258  1.00  0.00    -0.084 Cl
ATOM     26  C   UNL A   1      33.659  22.300  24.273  1.00  0.00     0.031 C 
ATOM     27  C   UNL A   1      33.045  20.339  25.449  1.00  0.00    -0.023 C 
ATOM     28  C   UNL A   1      32.127  22.234  24.453  1.00  0.00     0.034 C 
ATOM     29  C   UNL A   1      31.959  21.121  25.436  1.00  0.00    -0.030 C 
BRANCH  16  30
ATOM     30  O   UNL A   1      38.525  22.445  25.841  1.00  0.00    -0.495 OA
ATOM     31  C   UNL A   1      39.851  21.974  26.082  1.00  0.00     0.278 C 
ENDBRANCH  16  30
ENDBRANCH  10  15
ENDBRANCH   7   9
ENDBRANCH   6   7
ENDBRANCH   5   6
ENDBRANCH   4   5
ENDBRANCH   3   4
ENDBRANCH   2   3
ENDBRANCH   1   2
BRANCH   1  32
ATOM     32  O   UNL A   1      30.306  31.405  25.706  1.00  0.00    -0.376 OA
BRANCH  32  33
ATOM     33  C   UNL A   1      31.591  31.781  26.184  1.00  0.00     0.202 C 
BRANCH  33  34
ATOM     34  C   UNL A   1      31.799  33.057  27.024  1.00  0.00     0.261 C 
BRANCH  34  35
ATOM     35  O   UNL A   1      33.155  33.393  27.354  1.00  0.00    -0.460 OA
BRANCH  35  36
ATOM     36  C   UNL A   1      33.321  34.210  28.423  1.00  0.00     0.338 C 
ATOM     37  O   UNL A   1      32.610  35.148  28.756  1.00  0.00    -0.246 OA
BRANCH  36  38
ATOM     38  C   UNL A   1      34.426  33.702  29.256  1.00  0.00     0.060 A 
ATOM     39  C   UNL A   1      35.732  34.157  29.022  1.00  0.00     0.016 A 
ATOM     40  C   UNL A   1      34.175  32.740  30.234  1.00  0.00     0.016 A 
ATOM     41  C   UNL A   1      36.793  33.661  29.777  1.00  0.00     0.010 A 
ATOM     42  C   UNL A   1      35.245  32.213  30.961  1.00  0.00     0.010 A 
ATOM     43  C   UNL A   1      36.558  32.656  30.722  1.00  0.00    -0.014 A 
BRANCH  43  44
ATOM     44  C   UNL A   1      37.704  31.941  31.328  1.00  0.00     0.031 A 
ATOM     45  C   UNL A   1      38.218  32.413  32.657  1.00  0.00     0.074 A 
ATOM     46  C   UNL A   1      38.276  30.893  30.710  1.00  0.00     0.049 A 
ATOM     47  N   UNL A   1      39.226  31.968  33.357  1.00  0.00    -0.248 NA
ATOM     48  C   UNL A   1      37.501  33.540  33.280  1.00  0.00     0.031 C 
ATOM     49  C   UNL A   1      37.840  30.328  29.436  1.00  0.00     0.029 A 
ATOM     50  N   UNL A   1      39.358  30.129  31.071  1.00  0.00    -0.354 N 
ATOM     51  C   UNL A   1      39.268  32.755  34.499  1.00  0.00     0.074 A 
ATOM     52  C   UNL A   1      38.202  33.726  34.388  1.00  0.00     0.031 C 
ATOM     53  C   UNL A   1      38.664  29.317  29.107  1.00  0.00     0.029 A 
ATOM     54  C   UNL A   1      39.701  29.184  30.133  1.00  0.00     0.049 A 
ATOM     55  H   UNL A   1      39.843  30.247  31.919  1.00  0.00     0.167 HD
ATOM     56  C   UNL A   1      40.115  32.669  35.549  1.00  0.00     0.034 A 
ATOM     57  C   UNL A   1      40.742  28.326  30.096  1.00  0.00     0.034 A 
ATOM     58  C   UNL A   1      41.178  31.706  35.648  1.00  0.00     0.049 A 
ATOM     59  C   UNL A   1      41.711  28.287  31.253  1.00  0.00     0.074 A 
ATOM     60  C   UNL A   1      42.070  31.526  36.690  1.00  0.00     0.029 A 
ATOM     61  N   UNL A   1      41.501  30.770  34.678  1.00  0.00    -0.354 N 
ATOM     62  N   UNL A   1      41.702  28.992  32.359  1.00  0.00    -0.248 NA
ATOM     63  C   UNL A   1      42.826  27.332  31.166  1.00  0.00     0.031 C 
ATOM     64  C   UNL A   1      42.972  30.527  36.324  1.00  0.00     0.029 A 
ATOM     65  C   UNL A   1      42.598  30.030  35.084  1.00  0.00     0.049 A 
ATOM     66  H   UNL A   1      41.021  30.648  33.827  1.00  0.00     0.167 HD
ATOM     67  C   UNL A   1      42.787  28.546  33.111  1.00  0.00     0.074 A 
ATOM     68  C   UNL A   1      43.423  27.499  32.340  1.00  0.00     0.031 C 
ATOM     69  C   UNL A   1      43.216  28.969  34.326  1.00  0.00     0.034 A 
BRANCH  56  70
ATOM     70  C   UNL A   1      39.946  33.634  36.691  1.00  0.00     0.023 A 
ATOM     71  C   UNL A   1      39.357  33.198  37.891  1.00  0.00     0.031 A 
ATOM     72  C   UNL A   1      40.227  35.002  36.539  1.00  0.00     0.131 A 
ATOM     73  C   UNL A   1      39.020  34.131  38.876  1.00  0.00     0.055 A 
ATOM     74  C   UNL A   1      39.925  35.924  37.541  1.00  0.00     0.041 A 
ATOM     75  F   UNL A   1      40.798  35.461  35.413  1.00  0.00    -0.206 F 
ATOM     76  C   UNL A   1      39.305  35.492  38.711  1.00  0.00     0.022 A 
BRANCH  73  77
ATOM     77  S   UNL A   1      38.152  33.624  40.384  1.00  0.00     0.124 S 
ATOM     78  O   UNL A   1      38.194  34.847  41.183  1.00  0.00    -0.237 OA
ATOM     79  O   UNL A   1      36.836  33.260  39.867  1.00  0.00    -0.237 OA
ATOM     80  O   UNL A   1      38.958  32.522  40.898  1.00  0.00    -0.744 OA
ENDBRANCH  73  77
ENDBRANCH  56  70
BRANCH  57  81
ATOM     81  C   UNL A   1      40.891  27.414  28.926  1.00  0.00     0.023 A 
ATOM     82  C   UNL A   1      41.861  27.661  27.938  1.00  0.00     0.031 A 
ATOM     83  C   UNL A   1      40.011  26.335  28.737  1.00  0.00     0.131 A 
ATOM     84  C   UNL A   1      41.890  26.876  26.779  1.00  0.00     0.055 A 
ATOM     85  C   UNL A   1      40.084  25.516  27.609  1.00  0.00     0.041 A 
ATOM     86  F   UNL A   1      39.068  26.064  29.652  1.00  0.00    -0.206 F 
ATOM     87  C   UNL A   1      41.019  25.794  26.615  1.00  0.00     0.022 A 
BRANCH  84  88
ATOM     88  S   UNL A   1      43.003  27.285  25.407  1.00  0.00     0.124 S 
ATOM     89  O   UNL A   1      43.138  26.001  24.725  1.00  0.00    -0.237 OA
ATOM     90  O   UNL A   1      42.230  28.300  24.695  1.00  0.00    -0.237 OA
ATOM     91  O   UNL A   1      44.207  27.772  26.073  1.00  0.00    -0.744 OA
ENDBRANCH  84  88
ENDBRANCH  57  81
BRANCH  69  92
ATOM     92  C   UNL A   1      44.422  28.307  34.949  1.00  0.00     0.023 A 
ATOM     93  C   UNL A   1      44.249  27.203  35.806  1.00  0.00     0.031 A 
ATOM     94  C   UNL A   1      45.705  28.866  34.835  1.00  0.00     0.131 A 
ATOM     95  C   UNL A   1      45.333  26.721  36.552  1.00  0.00     0.055 A 
ATOM     96  C   UNL A   1      46.793  28.352  35.544  1.00  0.00     0.041 A 
ATOM     97  F   UNL A   1      45.919  29.927  34.041  1.00  0.00    -0.206 F 
ATOM     98  C   UNL A   1      46.605  27.285  36.418  1.00  0.00     0.022 A 
BRANCH  95  99
ATOM     99  S   UNL A   1      45.114  25.399  37.775  1.00  0.00     0.124 S 
ATOM    100  O   UNL A   1      44.242  26.038  38.759  1.00  0.00    -0.237 OA
ATOM    101  O   UNL A   1      44.489  24.347  36.979  1.00  0.00    -0.237 OA
ATOM    102  O   UNL A   1      46.469  25.119  38.238  1.00  0.00    -0.744 OA
ENDBRANCH  95  99
ENDBRANCH  69  92
ENDBRANCH  43  44
ENDBRANCH  36  38
ENDBRANCH  35  36
ENDBRANCH  34  35
ENDBRANCH  33  34
ENDBRANCH  32  33
ENDBRANCH   1  32
TORSDOF 22
ENDMDL
MODEL 3
REMARK VINA RESULT:     -10.7      3.052      4.362
REMARK SMILES COc1ccc(Cl)c2c1N[C@@H](c1ccc(C(=O)OCCOCCOCCOC(=O)c3ccc(-c4c5nc(c(-c6cc(S(=O)(=O)[O-])ccc6F)c6ccc([nH]6)c(-c6cc(S(=O)(=O)[O-])ccc6F)c6nc(c(-c7cc(S(=O)(=O)[O-])ccc7F)c7ccc4[nH]7)C=C6)C=C5)cc3)cc1)[C@@H]1CC=C[C@H]21
REMARK SMILES IDX 23 1 22 2 21 3 20 4 19 5 18 6 16 7 17 8 15 9 12 10 13 11
REMARK SMILES IDX 94 12 14 13 93 14 11 15 3 16 4 17 9 18 5 19 8 20 10 21 6 22
REMARK SMILES IDX 99 23 7 25 95 26 98 27 96 28 97 29 2 30 1 31 24 32 25 33
REMARK SMILES IDX 26 34 27 35 28 36 29 37 30 38 31 39 92 40 32 41 91 42 33 43
REMARK SMILES IDX 34 44 35 45 85 46 36 47 90 48 84 49 86 50 37 51 89 52 83 53
REMARK SMILES IDX 82 54 38 56 70 57 50 58 69 59 51 60 54 61 68 62 87 63 52 64
REMARK SMILES IDX 53 65 67 67 88 68 55 69 39 70 40 71 48 72 41 73 47 74 49 75
REMARK SMILES IDX 46 76 42 77 43 78 44 79 45 80 71 81 72 82 80 83 73 84 79 85
REMARK SMILES IDX 81 86 78 87 74 88 75 89 76 90 77 91 56 92 57 93 65 94 58 95
REMARK SMILES IDX 64 96 66 97 63 98 59 99 60 100 61 101 62 102
REMARK H PARENT 10 24 86 55 54 66
REMARK Flexibility Score: inf
ROOT
ATOM      1  C   UNL A   1      29.757  32.034  24.320  1.00  0.00     0.188 C 
ENDROOT
BRANCH   1   2
ATOM      2  C   UNL A   1      28.440  31.703  23.582  1.00  0.00     0.188 C 
BRANCH   2   3
ATOM      3  O   UNL A   1      28.606  31.329  22.236  1.00  0.00    -0.376 OA
BRANCH   3   4
ATOM      4  C   UNL A   1      29.057  30.030  21.900  1.00  0.00     0.202 C 
BRANCH   4   5
ATOM      5  C   UNL A   1      29.068  28.810  22.845  1.00  0.00     0.261 C 
BRANCH   5   6
ATOM      6  O   UNL A   1      30.187  28.659  23.719  1.00  0.00    -0.460 OA
BRANCH   6   7
ATOM      7  C   UNL A   1      31.393  28.517  23.111  1.00  0.00     0.338 C 
ATOM      8  O   UNL A   1      31.880  29.257  22.275  1.00  0.00    -0.246 OA
BRANCH   7   9
ATOM      9  C   UNL A   1      32.136  27.398  23.733  1.00  0.00     0.060 A 
ATOM     10  C   UNL A   1      33.559  25.200  24.776  1.00  0.00    -0.025 A 
ATOM     11  C   UNL A   1      34.041  25.905  23.660  1.00  0.00     0.007 A 
ATOM     12  C   UNL A   1      32.415  25.699  25.427  1.00  0.00     0.007 A 
ATOM     13  C   UNL A   1      33.344  27.003  23.151  1.00  0.00     0.016 A 
ATOM     14  C   UNL A   1      31.683  26.762  24.891  1.00  0.00     0.016 A 
BRANCH  10  15
ATOM     15  C   UNL A   1      34.153  23.856  25.215  1.00  0.00     0.114 C 
ATOM     16  C   UNL A   1      37.755  22.856  25.586  1.00  0.00     0.142 A 
ATOM     17  C   UNL A   1      38.579  21.731  25.597  1.00  0.00     0.050 A 
ATOM     18  C   UNL A   1      36.384  22.766  25.269  1.00  0.00     0.083 A 
ATOM     19  C   UNL A   1      38.039  20.481  25.317  1.00  0.00     0.025 A 
ATOM     20  C   UNL A   1      35.840  21.501  24.984  1.00  0.00     0.005 A 
ATOM     21  N   UNL A   1      35.605  23.911  25.198  1.00  0.00    -0.375 N 
ATOM     22  C   UNL A   1      36.681  20.367  25.010  1.00  0.00     0.047 A 
ATOM     23  C   UNL A   1      34.397  21.391  24.578  1.00  0.00     0.051 C 
ATOM     24  H   UNL A   1      36.048  24.787  25.134  1.00  0.00     0.161 HD
ATOM     25  Cl  UNL A   1      36.101  18.780  24.621  1.00  0.00    -0.084 Cl
ATOM     26  C   UNL A   1      33.671  22.721  24.275  1.00  0.00     0.031 C 
ATOM     27  C   UNL A   1      33.489  20.777  25.613  1.00  0.00    -0.023 C 
ATOM     28  C   UNL A   1      32.189  22.333  24.467  1.00  0.00     0.034 C 
ATOM     29  C   UNL A   1      32.258  21.296  25.540  1.00  0.00    -0.030 C 
BRANCH  16  30
ATOM     30  O   UNL A   1      38.362  24.069  25.801  1.00  0.00    -0.495 OA
ATOM     31  C   UNL A   1      38.335  24.441  27.179  1.00  0.00     0.278 C 
ENDBRANCH  16  30
ENDBRANCH  10  15
ENDBRANCH   7   9
ENDBRANCH   6   7
ENDBRANCH   5   6
ENDBRANCH   4   5
ENDBRANCH   3   4
ENDBRANCH   2   3
ENDBRANCH   1   2
BRANCH   1  32
ATOM     32  O   UNL A   1      30.137  31.293  25.469  1.00  0.00    -0.376 OA
BRANCH  32  33
ATOM     33  C   UNL A   1      31.394  31.576  26.069  1.00  0.00     0.202 C 
BRANCH  33  34
ATOM     34  C   UNL A   1      31.607  32.823  26.950  1.00  0.00     0.261 C 
BRANCH  34  35
ATOM     35  O   UNL A   1      32.906  33.432  26.896  1.00  0.00    -0.460 OA
BRANCH  35  36
ATOM     36  C   UNL A   1      33.372  33.942  28.063  1.00  0.00     0.338 C 
ATOM     37  O   UNL A   1      32.845  34.798  28.760  1.00  0.00    -0.246 OA
BRANCH  36  38
ATOM     38  C   UNL A   1      34.565  33.185  28.482  1.00  0.00     0.060 A 
ATOM     39  C   UNL A   1      34.415  31.883  28.984  1.00  0.00     0.016 A 
ATOM     40  C   UNL A   1      35.824  33.781  28.423  1.00  0.00     0.016 A 
ATOM     41  C   UNL A   1      35.529  31.167  29.418  1.00  0.00     0.010 A 
ATOM     42  C   UNL A   1      36.934  33.076  28.896  1.00  0.00     0.010 A 
ATOM     43  C   UNL A   1      36.788  31.776  29.412  1.00  0.00    -0.014 A 
BRANCH  43  44
ATOM     44  C   UNL A   1      37.917  31.127  30.115  1.00  0.00     0.031 A 
ATOM     45  C   UNL A   1      38.193  31.519  31.537  1.00  0.00     0.074 A 
ATOM     46  C   UNL A   1      38.682  30.207  29.502  1.00  0.00     0.049 A 
ATOM     47  N   UNL A   1      39.143  31.113  32.336  1.00  0.00    -0.248 NA
ATOM     48  C   UNL A   1      37.275  32.501  32.141  1.00  0.00     0.031 C 
ATOM     49  C   UNL A   1      38.487  29.726  28.137  1.00  0.00     0.029 A 
ATOM     50  N   UNL A   1      39.787  29.527  29.949  1.00  0.00    -0.354 N 
ATOM     51  C   UNL A   1      38.942  31.787  33.532  1.00  0.00     0.074 A 
ATOM     52  C   UNL A   1      37.797  32.650  33.350  1.00  0.00     0.031 C 
ATOM     53  C   UNL A   1      39.458  28.841  27.848  1.00  0.00     0.029 A 
ATOM     54  C   UNL A   1      40.358  28.717  28.997  1.00  0.00     0.049 A 
ATOM     55  H   UNL A   1      40.138  29.611  30.865  1.00  0.00     0.167 HD
ATOM     56  C   UNL A   1      39.647  31.687  34.682  1.00  0.00     0.034 A 
ATOM     57  C   UNL A   1      41.486  27.977  29.038  1.00  0.00     0.034 A 
ATOM     58  C   UNL A   1      40.790  30.832  34.853  1.00  0.00     0.049 A 
ATOM     59  C   UNL A   1      42.290  27.926  30.315  1.00  0.00     0.074 A 
ATOM     60  C   UNL A   1      41.551  30.645  35.993  1.00  0.00     0.029 A 
ATOM     61  N   UNL A   1      41.345  30.032  33.865  1.00  0.00    -0.354 N 
ATOM     62  N   UNL A   1      42.054  28.516  31.462  1.00  0.00    -0.248 NA
ATOM     63  C   UNL A   1      43.509  27.102  30.310  1.00  0.00     0.031 C 
ATOM     64  C   UNL A   1      42.601  29.784  35.679  1.00  0.00     0.029 A 
ATOM     65  C   UNL A   1      42.455  29.373  34.363  1.00  0.00     0.049 A 
ATOM     66  H   UNL A   1      40.999  29.945  32.947  1.00  0.00     0.167 HD
ATOM     67  C   UNL A   1      43.074  28.113  32.322  1.00  0.00     0.074 A 
ATOM     68  C   UNL A   1      43.921  27.215  31.567  1.00  0.00     0.031 C 
ATOM     69  C   UNL A   1      43.286  28.458  33.616  1.00  0.00     0.034 A 
BRANCH  56  70
ATOM     70  C   UNL A   1      39.218  32.515  35.862  1.00  0.00     0.023 A 
ATOM     71  C   UNL A   1      39.760  33.800  36.047  1.00  0.00     0.031 A 
ATOM     72  C   UNL A   1      38.397  31.980  36.870  1.00  0.00     0.131 A 
ATOM     73  C   UNL A   1      39.515  34.489  37.239  1.00  0.00     0.055 A 
ATOM     74  C   UNL A   1      38.125  32.688  38.040  1.00  0.00     0.041 A 
ATOM     75  F   UNL A   1      37.851  30.761  36.730  1.00  0.00    -0.206 F 
ATOM     76  C   UNL A   1      38.697  33.943  38.236  1.00  0.00     0.022 A 
BRANCH  73  77
ATOM     77  S   UNL A   1      40.292  36.093  37.565  1.00  0.00     0.124 S 
ATOM     78  O   UNL A   1      40.431  36.641  36.217  1.00  0.00    -0.237 OA
ATOM     79  O   UNL A   1      39.295  36.748  38.406  1.00  0.00    -0.237 OA
ATOM     80  O   UNL A   1      41.548  35.746  38.222  1.00  0.00    -0.744 OA
ENDBRANCH  73  77
ENDBRANCH  56  70
BRANCH  57  81
ATOM     81  C   UNL A   1      41.892  27.202  27.831  1.00  0.00     0.023 A 
ATOM     82  C   UNL A   1      41.821  25.797  27.819  1.00  0.00     0.031 A 
ATOM     83  C   UNL A   1      42.433  27.849  26.708  1.00  0.00     0.131 A 
ATOM     84  C   UNL A   1      42.338  25.083  26.731  1.00  0.00     0.055 A 
ATOM     85  C   UNL A   1      42.891  27.136  25.599  1.00  0.00     0.041 A 
ATOM     86  F   UNL A   1      42.523  29.187  26.677  1.00  0.00    -0.206 F 
ATOM     87  C   UNL A   1      42.858  25.744  25.613  1.00  0.00     0.022 A 
BRANCH  84  88
ATOM     88  S   UNL A   1      42.432  23.273  26.768  1.00  0.00     0.124 S 
ATOM     89  O   UNL A   1      42.224  22.924  25.365  1.00  0.00    -0.237 OA
ATOM     90  O   UNL A   1      43.785  23.060  27.276  1.00  0.00    -0.237 OA
ATOM     91  O   UNL A   1      41.356  22.890  27.677  1.00  0.00    -0.744 OA
ENDBRANCH  84  88
ENDBRANCH  57  81
BRANCH  69  92
ATOM     92  C   UNL A   1      44.466  27.866  34.349  1.00  0.00     0.023 A 
ATOM     93  C   UNL A   1      44.328  26.634  35.017  1.00  0.00     0.031 A 
ATOM     94  C   UNL A   1      45.655  28.591  34.529  1.00  0.00     0.131 A 
ATOM     95  C   UNL A   1      45.344  26.185  35.871  1.00  0.00     0.055 A 
ATOM     96  C   UNL A   1      46.685  28.117  35.345  1.00  0.00     0.041 A 
ATOM     97  F   UNL A   1      45.830  29.777  33.924  1.00  0.00    -0.206 F 
ATOM     98  C   UNL A   1      46.524  26.916  36.031  1.00  0.00     0.022 A 
BRANCH  95  99
ATOM     99  S   UNL A   1      45.137  24.678  36.861  1.00  0.00     0.124 S 
ATOM    100  O   UNL A   1      44.562  25.205  38.098  1.00  0.00    -0.237 OA
ATOM    101  O   UNL A   1      44.224  23.893  36.036  1.00  0.00    -0.237 OA
ATOM    102  O   UNL A   1      46.491  24.148  36.983  1.00  0.00    -0.744 OA
ENDBRANCH  95  99
ENDBRANCH  69  92
ENDBRANCH  43  44
ENDBRANCH  36  38
ENDBRANCH  35  36
ENDBRANCH  34  35
ENDBRANCH  33  34
ENDBRANCH  32  33
ENDBRANCH   1  32
TORSDOF 22
ENDMDL
