MODEL 1
REMARK VINA RESULT:     -12.9      0.000      0.000
REMARK SMILES COc1ccc(S(=O)(=O)N2CCCC[C@@H]2C(=O)OCCOCCOCCOC(=O)c2ccc(-c3c4nc(c(-c5cc(S(=O)(=O)[O-])ccc5F)c5ccc([nH]5)c(-c5cc(S(=O)(=O)[O-])ccc5F)c5nc(c(-c6cc(S(=O)(=O)[O-])ccc6F)c6ccc3[nH]6)C=C5)C=C4)cc2)cc1C
REMARK SMILES IDX 22 1 21 2 20 3 19 4 18 5 16 6 17 7 15 8 10 9 11 10 12 11
REMARK SMILES IDX 14 12 13 13 7 14 8 15 9 16 6 17 3 18 4 19 94 20 5 21 93 22
REMARK SMILES IDX 95 23 2 24 1 25 23 26 24 27 25 28 26 29 27 30 28 31 29 32
REMARK SMILES IDX 30 33 31 34 92 35 32 36 91 37 33 38 34 39 35 40 85 41 36 42
REMARK SMILES IDX 90 43 84 44 86 45 37 46 89 47 83 48 82 49 38 51 70 52 50 53
REMARK SMILES IDX 69 54 51 55 54 56 68 57 87 58 52 59 53 60 67 62 88 63 55 64
REMARK SMILES IDX 39 65 40 66 48 67 41 68 47 69 49 70 46 71 42 72 43 73 44 74
REMARK SMILES IDX 45 75 71 76 72 77 80 78 73 79 79 80 81 81 78 82 74 83 75 84
REMARK SMILES IDX 76 85 77 86 56 87 57 88 65 89 58 90 64 91 66 92 63 93 59 94
REMARK SMILES IDX 60 95 61 96 62 97
REMARK H PARENT 86 50 54 61
REMARK Flexibility Score: inf
ROOT
ATOM      1  C   UNL A   1      40.157  21.730  26.144  1.00  0.00     0.188 C 
ENDROOT
BRANCH   1   2
ATOM      2  O   UNL A   1      38.735  21.924  26.031  1.00  0.00    -0.376 OA
BRANCH   2   3
ATOM      3  C   UNL A   1      38.041  23.172  25.962  1.00  0.00     0.202 C 
BRANCH   3   4
ATOM      4  C   UNL A   1      36.428  23.615  25.578  1.00  0.00     0.261 C 
BRANCH   4   5
ATOM      5  O   UNL A   1      35.560  24.326  24.181  1.00  0.00    -0.462 OA
BRANCH   5   6
ATOM      6  C   UNL A   1      34.266  24.326  23.481  1.00  0.00     0.324 C 
ATOM      7  O   UNL A   1      33.979  24.814  22.387  1.00  0.00    -0.250 OA
BRANCH   6   8
ATOM      8  C   UNL A   1      33.069  23.589  24.008  1.00  0.00     0.183 C 
ATOM      9  N   UNL A   1      32.385  24.096  25.307  1.00  0.00    -0.184 NA
ATOM     10  C   UNL A   1      31.238  23.272  25.774  1.00  0.00     0.103 C 
ATOM     11  C   UNL A   1      31.556  21.790  25.735  1.00  0.00     0.017 C 
ATOM     12  C   UNL A   1      33.337  22.103  24.055  1.00  0.00     0.032 C 
ATOM     13  C   UNL A   1      32.044  21.371  24.361  1.00  0.00     0.004 C 
BRANCH   9  14
ATOM     14  S   UNL A   1      32.145  25.798  25.725  1.00  0.00     0.243 S 
ATOM     15  O   UNL A   1      33.415  26.430  26.004  1.00  0.00    -0.207 OA
ATOM     16  O   UNL A   1      31.149  25.788  26.783  1.00  0.00    -0.207 OA
BRANCH  14  17
ATOM     17  C   UNL A   1      31.316  26.702  24.406  1.00  0.00     0.083 A 
ATOM     18  C   UNL A   1      30.138  28.506  22.593  1.00  0.00     0.121 A 
ATOM     19  C   UNL A   1      31.526  28.383  22.647  1.00  0.00     0.048 A 
ATOM     20  C   UNL A   1      29.325  27.679  23.381  1.00  0.00    -0.008 A 
ATOM     21  C   UNL A   1      32.116  27.486  23.552  1.00  0.00     0.025 A 
ATOM     22  C   UNL A   1      29.927  26.796  24.306  1.00  0.00     0.029 A 
ATOM     23  C   UNL A   1      27.828  27.748  23.298  1.00  0.00     0.048 C 
BRANCH  18  24
ATOM     24  O   UNL A   1      29.607  29.397  21.693  1.00  0.00    -0.496 OA
ATOM     25  C   UNL A   1      29.285  30.641  22.318  1.00  0.00     0.278 C 
ENDBRANCH  18  24
ENDBRANCH  14  17
ENDBRANCH   9  14
ENDBRANCH   6   8
ENDBRANCH   5   6
ENDBRANCH   4   5
ENDBRANCH   3   4
ENDBRANCH   2   3
ENDBRANCH   1   2
BRANCH   1  26
ATOM     26  C   UNL A   1      40.826  21.250  27.422  1.00  0.00     0.188 C 
BRANCH  26  27
ATOM     27  O   UNL A   1      41.998  20.507  27.132  1.00  0.00    -0.376 OA
BRANCH  27  28
ATOM     28  C   UNL A   1      41.826  19.507  26.147  1.00  0.00     0.202 C 
BRANCH  28  29
ATOM     29  C   UNL A   1      43.155  18.940  25.614  1.00  0.00     0.261 C 
BRANCH  29  30
ATOM     30  O   UNL A   1      44.245  19.879  25.764  1.00  0.00    -0.460 OA
BRANCH  30  31
ATOM     31  C   UNL A   1      44.568  20.651  24.665  1.00  0.00     0.338 C 
ATOM     32  O   UNL A   1      44.616  20.215  23.532  1.00  0.00    -0.246 OA
BRANCH  31  33
ATOM     33  C   UNL A   1      44.735  22.082  25.086  1.00  0.00     0.060 A 
ATOM     34  C   UNL A   1      45.699  22.637  25.934  1.00  0.00     0.016 A 
ATOM     35  C   UNL A   1      43.686  22.879  24.803  1.00  0.00     0.016 A 
ATOM     36  C   UNL A   1      45.461  23.870  26.687  1.00  0.00     0.010 A 
ATOM     37  C   UNL A   1      43.403  23.851  25.749  1.00  0.00     0.010 A 
ATOM     38  C   UNL A   1      44.202  24.487  26.750  1.00  0.00    -0.014 A 
BRANCH  38  39
ATOM     39  C   UNL A   1      43.731  25.722  27.906  1.00  0.00     0.031 A 
ATOM     40  C   UNL A   1      42.265  26.664  28.133  1.00  0.00     0.074 A 
ATOM     41  C   UNL A   1      44.727  26.228  28.672  1.00  0.00     0.049 A 
ATOM     42  N   UNL A   1      42.228  27.916  28.553  1.00  0.00    -0.248 NA
ATOM     43  C   UNL A   1      40.827  26.348  27.804  1.00  0.00     0.031 C 
ATOM     44  C   UNL A   1      44.645  27.209  29.751  1.00  0.00     0.029 A 
ATOM     45  N   UNL A   1      46.098  26.045  28.501  1.00  0.00    -0.354 N 
ATOM     46  C   UNL A   1      40.899  28.391  28.567  1.00  0.00     0.074 A 
ATOM     47  C   UNL A   1      40.106  27.426  27.956  1.00  0.00     0.031 C 
ATOM     48  C   UNL A   1      45.852  27.773  29.907  1.00  0.00     0.029 A 
ATOM     49  C   UNL A   1      46.715  27.243  28.871  1.00  0.00     0.049 A 
ATOM     50  H   UNL A   1      46.546  25.228  28.180  1.00  0.00     0.167 HD
ATOM     51  C   UNL A   1      40.450  29.516  29.177  1.00  0.00     0.034 A 
ATOM     52  C   UNL A   1      47.461  27.938  27.970  1.00  0.00     0.034 A 
ATOM     53  C   UNL A   1      41.583  30.277  29.609  1.00  0.00     0.049 A 
ATOM     54  C   UNL A   1      46.950  29.357  27.770  1.00  0.00     0.074 A 
ATOM     55  C   UNL A   1      42.281  30.391  30.795  1.00  0.00     0.029 A 
ATOM     56  N   UNL A   1      42.428  30.723  28.607  1.00  0.00    -0.354 N 
ATOM     57  N   UNL A   1      45.886  29.864  28.339  1.00  0.00    -0.248 NA
ATOM     58  C   UNL A   1      47.580  30.306  26.862  1.00  0.00     0.031 C 
ATOM     59  C   UNL A   1      43.563  30.937  30.484  1.00  0.00     0.029 A 
ATOM     60  C   UNL A   1      43.606  31.208  29.128  1.00  0.00     0.049 A 
ATOM     61  H   UNL A   1      42.213  30.697  27.647  1.00  0.00     0.167 HD
ATOM     62  C   UNL A   1      45.633  31.123  27.844  1.00  0.00     0.074 A 
ATOM     63  C   UNL A   1      46.734  31.348  26.922  1.00  0.00     0.031 C 
ATOM     64  C   UNL A   1      44.523  31.850  28.201  1.00  0.00     0.034 A 
BRANCH  51  65
ATOM     65  C   UNL A   1      38.976  29.675  29.592  1.00  0.00     0.023 A 
ATOM     66  C   UNL A   1      38.267  30.810  29.166  1.00  0.00     0.031 A 
ATOM     67  C   UNL A   1      38.254  28.846  30.494  1.00  0.00     0.131 A 
ATOM     68  C   UNL A   1      37.013  31.148  29.729  1.00  0.00     0.055 A 
ATOM     69  C   UNL A   1      37.075  29.244  31.148  1.00  0.00     0.041 A 
ATOM     70  F   UNL A   1      38.615  27.577  30.738  1.00  0.00    -0.206 F 
ATOM     71  C   UNL A   1      36.452  30.417  30.774  1.00  0.00     0.022 A 
BRANCH  68  72
ATOM     72  S   UNL A   1      36.078  32.544  29.045  1.00  0.00     0.124 S 
ATOM     73  O   UNL A   1      36.985  33.664  29.268  1.00  0.00    -0.237 OA
ATOM     74  O   UNL A   1      35.882  32.130  27.660  1.00  0.00    -0.237 OA
ATOM     75  O   UNL A   1      34.859  32.569  29.854  1.00  0.00    -0.744 OA
ENDBRANCH  68  72
ENDBRANCH  51  65
BRANCH  52  76
ATOM     76  C   UNL A   1      48.193  27.060  26.985  1.00  0.00     0.023 A 
ATOM     77  C   UNL A   1      47.851  27.191  25.609  1.00  0.00     0.031 A 
ATOM     78  C   UNL A   1      49.371  26.359  27.272  1.00  0.00     0.131 A 
ATOM     79  C   UNL A   1      48.734  26.787  24.596  1.00  0.00     0.055 A 
ATOM     80  C   UNL A   1      50.210  25.867  26.254  1.00  0.00     0.041 A 
ATOM     81  F   UNL A   1      49.802  26.239  28.533  1.00  0.00    -0.206 F 
ATOM     82  C   UNL A   1      49.906  26.102  24.911  1.00  0.00     0.022 A 
BRANCH  79  83
ATOM     83  S   UNL A   1      48.504  27.393  22.891  1.00  0.00     0.124 S 
ATOM     84  O   UNL A   1      47.221  28.082  22.978  1.00  0.00    -0.237 OA
ATOM     85  O   UNL A   1      49.667  28.246  22.663  1.00  0.00    -0.237 OA
ATOM     86  O   UNL A   1      48.509  26.159  22.108  1.00  0.00    -0.744 OA
ENDBRANCH  79  83
ENDBRANCH  52  76
BRANCH  64  87
ATOM     87  C   UNL A   1      44.112  33.217  27.656  1.00  0.00     0.023 A 
ATOM     88  C   UNL A   1      43.925  34.337  28.471  1.00  0.00     0.031 A 
ATOM     89  C   UNL A   1      43.844  33.440  26.275  1.00  0.00     0.131 A 
ATOM     90  C   UNL A   1      43.630  35.602  27.928  1.00  0.00     0.055 A 
ATOM     91  C   UNL A   1      43.529  34.691  25.736  1.00  0.00     0.041 A 
ATOM     92  F   UNL A   1      43.847  32.457  25.365  1.00  0.00    -0.206 F 
ATOM     93  C   UNL A   1      43.443  35.792  26.562  1.00  0.00     0.022 A 
BRANCH  90  94
ATOM     94  S   UNL A   1      43.481  36.997  29.066  1.00  0.00     0.124 S 
ATOM     95  O   UNL A   1      44.706  37.747  28.803  1.00  0.00    -0.237 OA
ATOM     96  O   UNL A   1      42.246  37.629  28.611  1.00  0.00    -0.237 OA
ATOM     97  O   UNL A   1      43.411  36.366  30.382  1.00  0.00    -0.744 OA
ENDBRANCH  90  94
ENDBRANCH  64  87
ENDBRANCH  38  39
ENDBRANCH  31  33
ENDBRANCH  30  31
ENDBRANCH  29  30
ENDBRANCH  28  29
ENDBRANCH  27  28
ENDBRANCH  26  27
ENDBRANCH   1  26
TORSDOF 23
ENDMDL
MODEL 2
REMARK VINA RESULT:     -12.8      2.698      4.457
REMARK SMILES COc1ccc(S(=O)(=O)N2CCCC[C@@H]2C(=O)OCCOCCOCCOC(=O)c2ccc(-c3c4nc(c(-c5cc(S(=O)(=O)[O-])ccc5F)c5ccc([nH]5)c(-c5cc(S(=O)(=O)[O-])ccc5F)c5nc(c(-c6cc(S(=O)(=O)[O-])ccc6F)c6ccc3[nH]6)C=C5)C=C4)cc2)cc1C
REMARK SMILES IDX 22 1 21 2 20 3 19 4 18 5 16 6 17 7 15 8 10 9 11 10 12 11
REMARK SMILES IDX 14 12 13 13 7 14 8 15 9 16 6 17 3 18 4 19 94 20 5 21 93 22
REMARK SMILES IDX 95 23 2 24 1 25 23 26 24 27 25 28 26 29 27 30 28 31 29 32
REMARK SMILES IDX 30 33 31 34 92 35 32 36 91 37 33 38 34 39 35 40 85 41 36 42
REMARK SMILES IDX 90 43 84 44 86 45 37 46 89 47 83 48 82 49 38 51 70 52 50 53
REMARK SMILES IDX 69 54 51 55 54 56 68 57 87 58 52 59 53 60 67 62 88 63 55 64
REMARK SMILES IDX 39 65 40 66 48 67 41 68 47 69 49 70 46 71 42 72 43 73 44 74
REMARK SMILES IDX 45 75 71 76 72 77 80 78 73 79 79 80 81 81 78 82 74 83 75 84
REMARK SMILES IDX 76 85 77 86 56 87 57 88 65 89 58 90 64 91 66 92 63 93 59 94
REMARK SMILES IDX 60 95 61 96 62 97
REMARK H PARENT 86 50 54 61
REMARK Flexibility Score: inf
ROOT
ATOM      1  C   UNL A   1      40.193  20.986  26.620  1.00  0.00     0.188 C 
ENDROOT
BRANCH   1   2
ATOM      2  O   UNL A   1      38.987  21.720  26.341  1.00  0.00    -0.376 OA
BRANCH   2   3
ATOM      3  C   UNL A   1      37.981  21.386  25.381  1.00  0.00     0.202 C 
BRANCH   3   4
ATOM      4  C   UNL A   1      37.004  22.309  24.313  1.00  0.00     0.261 C 
BRANCH   4   5
ATOM      5  O   UNL A   1      35.863  23.685  24.437  1.00  0.00    -0.462 OA
BRANCH   5   6
ATOM      6  C   UNL A   1      34.753  24.354  23.741  1.00  0.00     0.324 C 
ATOM      7  O   UNL A   1      34.271  24.103  22.635  1.00  0.00    -0.250 OA
BRANCH   6   8
ATOM      8  C   UNL A   1      33.945  25.444  24.381  1.00  0.00     0.183 C 
ATOM      9  N   UNL A   1      32.756  25.059  25.303  1.00  0.00    -0.184 NA
ATOM     10  C   UNL A   1      31.989  26.209  25.851  1.00  0.00     0.103 C 
ATOM     11  C   UNL A   1      31.684  27.243  24.785  1.00  0.00     0.017 C 
ATOM     12  C   UNL A   1      33.551  26.485  23.360  1.00  0.00     0.032 C 
ATOM     13  C   UNL A   1      32.949  27.682  24.072  1.00  0.00     0.004 C 
BRANCH   9  14
ATOM     14  S   UNL A   1      32.758  23.706  26.443  1.00  0.00     0.243 S 
ATOM     15  O   UNL A   1      31.605  23.778  27.311  1.00  0.00    -0.207 OA
ATOM     16  O   UNL A   1      34.073  23.740  27.062  1.00  0.00    -0.207 OA
BRANCH  14  17
ATOM     17  C   UNL A   1      32.758  22.116  25.597  1.00  0.00     0.083 A 
ATOM     18  C   UNL A   1      33.221  19.719  24.193  1.00  0.00     0.121 A 
ATOM     19  C   UNL A   1      33.701  19.865  25.494  1.00  0.00     0.048 A 
ATOM     20  C   UNL A   1      32.442  20.729  23.610  1.00  0.00    -0.008 A 
ATOM     21  C   UNL A   1      33.473  21.060  26.195  1.00  0.00     0.025 A 
ATOM     22  C   UNL A   1      32.238  21.938  24.313  1.00  0.00     0.029 A 
ATOM     23  C   UNL A   1      31.863  20.573  22.234  1.00  0.00     0.048 C 
BRANCH  18  24
ATOM     24  O   UNL A   1      33.469  18.533  23.546  1.00  0.00    -0.496 OA
ATOM     25  C   UNL A   1      32.632  17.485  24.039  1.00  0.00     0.278 C 
ENDBRANCH  18  24
ENDBRANCH  14  17
ENDBRANCH   9  14
ENDBRANCH   6   8
ENDBRANCH   5   6
ENDBRANCH   4   5
ENDBRANCH   3   4
ENDBRANCH   2   3
ENDBRANCH   1   2
BRANCH   1  26
ATOM     26  C   UNL A   1      40.478  19.614  26.032  1.00  0.00     0.188 C 
BRANCH  26  27
ATOM     27  O   UNL A   1      41.717  19.606  25.342  1.00  0.00    -0.376 OA
BRANCH  27  28
ATOM     28  C   UNL A   1      42.802  20.128  26.084  1.00  0.00     0.202 C 
BRANCH  28  29
ATOM     29  C   UNL A   1      43.597  21.208  25.327  1.00  0.00     0.261 C 
BRANCH  29  30
ATOM     30  O   UNL A   1      42.772  22.343  24.978  1.00  0.00    -0.460 OA
BRANCH  30  31
ATOM     31  C   UNL A   1      43.303  23.600  25.198  1.00  0.00     0.338 C 
ATOM     32  O   UNL A   1      44.433  23.914  24.880  1.00  0.00    -0.246 OA
BRANCH  31  33
ATOM     33  C   UNL A   1      42.248  24.499  25.773  1.00  0.00     0.060 A 
ATOM     34  C   UNL A   1      41.917  25.807  25.401  1.00  0.00     0.016 A 
ATOM     35  C   UNL A   1      41.729  24.082  26.943  1.00  0.00     0.016 A 
ATOM     36  C   UNL A   1      41.293  26.750  26.331  1.00  0.00     0.010 A 
ATOM     37  C   UNL A   1      41.428  25.083  27.854  1.00  0.00     0.010 A 
ATOM     38  C   UNL A   1      41.143  26.476  27.699  1.00  0.00    -0.014 A 
BRANCH  38  39
ATOM     39  C   UNL A   1      40.769  27.661  28.939  1.00  0.00     0.031 A 
ATOM     40  C   UNL A   1      39.660  29.023  29.010  1.00  0.00     0.074 A 
ATOM     41  C   UNL A   1      41.615  27.700  29.997  1.00  0.00     0.049 A 
ATOM     42  N   UNL A   1      39.892  30.154  29.652  1.00  0.00    -0.248 NA
ATOM     43  C   UNL A   1      38.348  29.266  28.307  1.00  0.00     0.031 C 
ATOM     44  C   UNL A   1      41.537  28.521  31.202  1.00  0.00     0.029 A 
ATOM     45  N   UNL A   1      42.853  27.071  30.109  1.00  0.00    -0.354 N 
ATOM     46  C   UNL A   1      38.825  31.057  29.457  1.00  0.00     0.074 A 
ATOM     47  C   UNL A   1      37.981  30.503  28.502  1.00  0.00     0.031 C 
ATOM     48  C   UNL A   1      42.764  28.608  31.738  1.00  0.00     0.029 A 
ATOM     49  C   UNL A   1      43.677  27.930  30.841  1.00  0.00     0.049 A 
ATOM     50  H   UNL A   1      43.100  26.190  29.743  1.00  0.00     0.167 HD
ATOM     51  C   UNL A   1      38.591  32.193  30.160  1.00  0.00     0.034 A 
ATOM     52  C   UNL A   1      44.822  28.418  30.291  1.00  0.00     0.034 A 
ATOM     53  C   UNL A   1      39.733  32.458  30.982  1.00  0.00     0.049 A 
ATOM     54  C   UNL A   1      44.848  29.939  30.266  1.00  0.00     0.074 A 
ATOM     55  C   UNL A   1      40.069  32.190  32.293  1.00  0.00     0.029 A 
ATOM     56  N   UNL A   1      40.920  32.691  30.308  1.00  0.00    -0.354 N 
ATOM     57  N   UNL A   1      43.876  30.717  30.668  1.00  0.00    -0.248 NA
ATOM     58  C   UNL A   1      45.968  30.704  29.733  1.00  0.00     0.031 C 
ATOM     59  C   UNL A   1      41.490  32.286  32.398  1.00  0.00     0.029 A 
ATOM     60  C   UNL A   1      41.993  32.674  31.168  1.00  0.00     0.049 A 
ATOM     61  H   UNL A   1      40.986  32.849  29.338  1.00  0.00     0.167 HD
ATOM     62  C   UNL A   1      44.171  32.032  30.389  1.00  0.00     0.074 A 
ATOM     63  C   UNL A   1      45.501  31.962  29.805  1.00  0.00     0.031 C 
ATOM     64  C   UNL A   1      43.285  33.056  30.622  1.00  0.00     0.034 A 
BRANCH  51  65
ATOM     65  C   UNL A   1      37.182  32.808  30.253  1.00  0.00     0.023 A 
ATOM     66  C   UNL A   1      36.597  32.981  31.518  1.00  0.00     0.031 A 
ATOM     67  C   UNL A   1      36.318  33.119  29.167  1.00  0.00     0.131 A 
ATOM     68  C   UNL A   1      35.220  33.281  31.656  1.00  0.00     0.055 A 
ATOM     69  C   UNL A   1      34.929  33.287  29.299  1.00  0.00     0.041 A 
ATOM     70  F   UNL A   1      36.783  33.342  27.929  1.00  0.00    -0.206 F 
ATOM     71  C   UNL A   1      34.367  33.354  30.557  1.00  0.00     0.022 A 
BRANCH  68  72
ATOM     72  S   UNL A   1      34.548  33.629  33.304  1.00  0.00     0.124 S 
ATOM     73  O   UNL A   1      34.608  35.085  33.364  1.00  0.00    -0.237 OA
ATOM     74  O   UNL A   1      33.218  33.035  33.223  1.00  0.00    -0.237 OA
ATOM     75  O   UNL A   1      35.472  32.937  34.204  1.00  0.00    -0.744 OA
ENDBRANCH  68  72
ENDBRANCH  51  65
BRANCH  52  76
ATOM     76  C   UNL A   1      45.496  27.455  29.343  1.00  0.00     0.023 A 
ATOM     77  C   UNL A   1      45.249  27.625  27.952  1.00  0.00     0.031 A 
ATOM     78  C   UNL A   1      46.562  26.616  29.692  1.00  0.00     0.131 A 
ATOM     79  C   UNL A   1      46.131  27.114  26.987  1.00  0.00     0.055 A 
ATOM     80  C   UNL A   1      47.390  26.025  28.719  1.00  0.00     0.041 A 
ATOM     81  F   UNL A   1      46.905  26.447  30.974  1.00  0.00    -0.206 F 
ATOM     82  C   UNL A   1      47.192  26.292  27.363  1.00  0.00     0.022 A 
BRANCH  79  83
ATOM     83  S   UNL A   1      46.072  27.740  25.275  1.00  0.00     0.124 S 
ATOM     84  O   UNL A   1      47.071  28.803  25.299  1.00  0.00    -0.237 OA
ATOM     85  O   UNL A   1      46.409  26.573  24.463  1.00  0.00    -0.237 OA
ATOM     86  O   UNL A   1      44.684  28.177  25.140  1.00  0.00    -0.744 OA
ENDBRANCH  79  83
ENDBRANCH  52  76
BRANCH  64  87
ATOM     87  C   UNL A   1      43.483  34.533  30.281  1.00  0.00     0.023 A 
ATOM     88  C   UNL A   1      43.413  35.029  28.977  1.00  0.00     0.031 A 
ATOM     89  C   UNL A   1      43.799  35.509  31.269  1.00  0.00     0.131 A 
ATOM     90  C   UNL A   1      43.515  36.407  28.706  1.00  0.00     0.055 A 
ATOM     91  C   UNL A   1      43.922  36.876  31.000  1.00  0.00     0.041 A 
ATOM     92  F   UNL A   1      44.031  35.200  32.551  1.00  0.00    -0.206 F 
ATOM     93  C   UNL A   1      43.755  37.339  29.710  1.00  0.00     0.022 A 
BRANCH  90  94
ATOM     94  S   UNL A   1      43.337  36.947  26.991  1.00  0.00     0.124 S 
ATOM     95  O   UNL A   1      44.173  38.144  26.953  1.00  0.00    -0.237 OA
ATOM     96  O   UNL A   1      43.852  35.795  26.256  1.00  0.00    -0.237 OA
ATOM     97  O   UNL A   1      41.903  37.188  26.849  1.00  0.00    -0.744 OA
ENDBRANCH  90  94
ENDBRANCH  64  87
ENDBRANCH  38  39
ENDBRANCH  31  33
ENDBRANCH  30  31
ENDBRANCH  29  30
ENDBRANCH  28  29
ENDBRANCH  27  28
ENDBRANCH  26  27
ENDBRANCH   1  26
TORSDOF 23
ENDMDL
MODEL 3
REMARK VINA RESULT:     -12.7      2.391      4.187
REMARK SMILES COc1ccc(S(=O)(=O)N2CCCC[C@@H]2C(=O)OCCOCCOCCOC(=O)c2ccc(-c3c4nc(c(-c5cc(S(=O)(=O)[O-])ccc5F)c5ccc([nH]5)c(-c5cc(S(=O)(=O)[O-])ccc5F)c5nc(c(-c6cc(S(=O)(=O)[O-])ccc6F)c6ccc3[nH]6)C=C5)C=C4)cc2)cc1C
REMARK SMILES IDX 22 1 21 2 20 3 19 4 18 5 16 6 17 7 15 8 10 9 11 10 12 11
REMARK SMILES IDX 14 12 13 13 7 14 8 15 9 16 6 17 3 18 4 19 94 20 5 21 93 22
REMARK SMILES IDX 95 23 2 24 1 25 23 26 24 27 25 28 26 29 27 30 28 31 29 32
REMARK SMILES IDX 30 33 31 34 92 35 32 36 91 37 33 38 34 39 35 40 85 41 36 42
REMARK SMILES IDX 90 43 84 44 86 45 37 46 89 47 83 48 82 49 38 51 70 52 50 53
REMARK SMILES IDX 69 54 51 55 54 56 68 57 87 58 52 59 53 60 67 62 88 63 55 64
REMARK SMILES IDX 39 65 40 66 48 67 41 68 47 69 49 70 46 71 42 72 43 73 44 74
REMARK SMILES IDX 45 75 71 76 72 77 80 78 73 79 79 80 81 81 78 82 74 83 75 84
REMARK SMILES IDX 76 85 77 86 56 87 57 88 65 89 58 90 64 91 66 92 63 93 59 94
REMARK SMILES IDX 60 95 61 96 62 97
REMARK H PARENT 86 50 54 61
REMARK Flexibility Score: inf
ROOT
ATOM      1  C   UNL A   1      40.329  20.948  26.526  1.00  0.00     0.188 C 
ENDROOT
BRANCH   1   2
ATOM      2  O   UNL A   1      39.226  21.782  26.127  1.00  0.00    -0.376 OA
BRANCH   2   3
ATOM      3  C   UNL A   1      38.068  21.380  25.392  1.00  0.00     0.202 C 
BRANCH   3   4
ATOM      4  C   UNL A   1      36.943  22.213  24.397  1.00  0.00     0.261 C 
BRANCH   4   5
ATOM      5  O   UNL A   1      35.923  23.681  24.516  1.00  0.00    -0.462 OA
BRANCH   5   6
ATOM      6  C   UNL A   1      34.789  24.375  23.884  1.00  0.00     0.324 C 
ATOM      7  O   UNL A   1      34.316  24.215  22.758  1.00  0.00    -0.250 OA
BRANCH   6   8
ATOM      8  C   UNL A   1      33.945  25.371  24.624  1.00  0.00     0.183 C 
ATOM      9  N   UNL A   1      32.769  24.858  25.500  1.00  0.00    -0.184 NA
ATOM     10  C   UNL A   1      31.964  25.923  26.154  1.00  0.00     0.103 C 
ATOM     11  C   UNL A   1      31.625  27.045  25.192  1.00  0.00     0.017 C 
ATOM     12  C   UNL A   1      33.517  26.492  23.707  1.00  0.00     0.032 C 
ATOM     13  C   UNL A   1      32.874  27.593  24.530  1.00  0.00     0.004 C 
BRANCH   9  14
ATOM     14  S   UNL A   1      32.817  23.402  26.504  1.00  0.00     0.243 S 
ATOM     15  O   UNL A   1      31.757  23.433  27.485  1.00  0.00    -0.207 OA
ATOM     16  O   UNL A   1      34.185  23.326  26.990  1.00  0.00    -0.207 OA
BRANCH  14  17
ATOM     17  C   UNL A   1      32.662  21.902  25.518  1.00  0.00     0.083 A 
ATOM     18  C   UNL A   1      32.895  19.584  23.936  1.00  0.00     0.121 A 
ATOM     19  C   UNL A   1      33.281  19.552  25.276  1.00  0.00     0.048 A 
ATOM     20  C   UNL A   1      32.319  20.742  23.394  1.00  0.00    -0.008 A 
ATOM     21  C   UNL A   1      33.167  20.708  26.066  1.00  0.00     0.025 A 
ATOM     22  C   UNL A   1      32.231  21.908  24.189  1.00  0.00     0.029 A 
ATOM     23  C   UNL A   1      31.841  20.785  21.973  1.00  0.00     0.048 C 
BRANCH  18  24
ATOM     24  O   UNL A   1      33.025  18.430  23.203  1.00  0.00    -0.496 OA
ATOM     25  C   UNL A   1      33.119  17.282  24.049  1.00  0.00     0.278 C 
ENDBRANCH  18  24
ENDBRANCH  14  17
ENDBRANCH   9  14
ENDBRANCH   6   8
ENDBRANCH   5   6
ENDBRANCH   4   5
ENDBRANCH   3   4
ENDBRANCH   2   3
ENDBRANCH   1   2
BRANCH   1  26
ATOM     26  C   UNL A   1      40.596  19.583  25.911  1.00  0.00     0.188 C 
BRANCH  26  27
ATOM     27  O   UNL A   1      41.904  19.519  25.370  1.00  0.00    -0.376 OA
BRANCH  27  28
ATOM     28  C   UNL A   1      42.896  20.141  26.164  1.00  0.00     0.202 C 
BRANCH  28  29
ATOM     29  C   UNL A   1      43.813  21.087  25.366  1.00  0.00     0.261 C 
BRANCH  29  30
ATOM     30  O   UNL A   1      43.083  22.202  24.803  1.00  0.00    -0.460 OA
BRANCH  30  31
ATOM     31  C   UNL A   1      43.592  23.466  25.028  1.00  0.00     0.338 C 
ATOM     32  O   UNL A   1      44.710  23.808  24.695  1.00  0.00    -0.246 OA
BRANCH  31  33
ATOM     33  C   UNL A   1      42.530  24.338  25.632  1.00  0.00     0.060 A 
ATOM     34  C   UNL A   1      42.205  25.662  25.321  1.00  0.00     0.016 A 
ATOM     35  C   UNL A   1      41.992  23.863  26.772  1.00  0.00     0.016 A 
ATOM     36  C   UNL A   1      41.568  26.559  26.288  1.00  0.00     0.010 A 
ATOM     37  C   UNL A   1      41.678  24.816  27.727  1.00  0.00     0.010 A 
ATOM     38  C   UNL A   1      41.397  26.216  27.638  1.00  0.00    -0.014 A 
BRANCH  38  39
ATOM     39  C   UNL A   1      41.004  27.337  28.931  1.00  0.00     0.031 A 
ATOM     40  C   UNL A   1      39.799  28.604  29.103  1.00  0.00     0.074 A 
ATOM     41  C   UNL A   1      41.905  27.418  29.940  1.00  0.00     0.049 A 
ATOM     42  N   UNL A   1      39.979  29.735  29.763  1.00  0.00    -0.248 NA
ATOM     43  C   UNL A   1      38.433  28.759  28.482  1.00  0.00     0.031 C 
ATOM     44  C   UNL A   1      41.834  28.201  31.170  1.00  0.00     0.029 A 
ATOM     45  N   UNL A   1      43.193  26.887  29.964  1.00  0.00    -0.354 N 
ATOM     46  C   UNL A   1      38.835  30.555  29.654  1.00  0.00     0.074 A 
ATOM     47  C   UNL A   1      37.982  29.958  28.733  1.00  0.00     0.031 C 
ATOM     48  C   UNL A   1      43.080  28.373  31.639  1.00  0.00     0.029 A 
ATOM     49  C   UNL A   1      43.989  27.791  30.672  1.00  0.00     0.049 A 
ATOM     50  H   UNL A   1      43.486  26.038  29.559  1.00  0.00     0.167 HD
ATOM     51  C   UNL A   1      38.554  31.651  30.402  1.00  0.00     0.034 A 
ATOM     52  C   UNL A   1      45.058  28.381  30.073  1.00  0.00     0.034 A 
ATOM     53  C   UNL A   1      39.718  31.987  31.165  1.00  0.00     0.049 A 
ATOM     54  C   UNL A   1      44.964  29.900  30.090  1.00  0.00     0.074 A 
ATOM     55  C   UNL A   1      40.150  31.714  32.447  1.00  0.00     0.029 A 
ATOM     56  N   UNL A   1      40.842  32.329  30.432  1.00  0.00    -0.354 N 
ATOM     57  N   UNL A   1      43.959  30.589  30.568  1.00  0.00    -0.248 NA
ATOM     58  C   UNL A   1      45.987  30.764  29.517  1.00  0.00     0.031 C 
ATOM     59  C   UNL A   1      41.563  31.920  32.474  1.00  0.00     0.029 A 
ATOM     60  C   UNL A   1      41.962  32.377  31.230  1.00  0.00     0.049 A 
ATOM     61  H   UNL A   1      40.839  32.515  29.465  1.00  0.00     0.167 HD
ATOM     62  C   UNL A   1      44.134  31.930  30.311  1.00  0.00     0.074 A 
ATOM     63  C   UNL A   1      45.429  31.979  29.651  1.00  0.00     0.031 C 
ATOM     64  C   UNL A   1      43.185  32.873  30.622  1.00  0.00     0.034 A 
BRANCH  51  65
ATOM     65  C   UNL A   1      37.110  32.150  30.591  1.00  0.00     0.023 A 
ATOM     66  C   UNL A   1      36.488  32.849  29.544  1.00  0.00     0.031 A 
ATOM     67  C   UNL A   1      36.343  32.096  31.788  1.00  0.00     0.131 A 
ATOM     68  C   UNL A   1      35.281  33.561  29.750  1.00  0.00     0.055 A 
ATOM     69  C   UNL A   1      35.219  32.904  32.032  1.00  0.00     0.041 A 
ATOM     70  F   UNL A   1      36.603  31.208  32.760  1.00  0.00    -0.206 F 
ATOM     71  C   UNL A   1      34.687  33.659  31.006  1.00  0.00     0.022 A 
BRANCH  68  72
ATOM     72  S   UNL A   1      34.451  34.330  28.333  1.00  0.00     0.124 S 
ATOM     73  O   UNL A   1      33.257  33.505  28.186  1.00  0.00    -0.237 OA
ATOM     74  O   UNL A   1      34.245  35.696  28.804  1.00  0.00    -0.237 OA
ATOM     75  O   UNL A   1      35.427  34.198  27.250  1.00  0.00    -0.744 OA
ENDBRANCH  68  72
ENDBRANCH  51  65
BRANCH  52  76
ATOM     76  C   UNL A   1      45.748  27.499  29.062  1.00  0.00     0.023 A 
ATOM     77  C   UNL A   1      45.383  27.658  27.695  1.00  0.00     0.031 A 
ATOM     78  C   UNL A   1      46.912  26.763  29.316  1.00  0.00     0.131 A 
ATOM     79  C   UNL A   1      46.236  27.246  26.659  1.00  0.00     0.055 A 
ATOM     80  C   UNL A   1      47.718  26.265  28.276  1.00  0.00     0.041 A 
ATOM     81  F   UNL A   1      47.364  26.615  30.567  1.00  0.00    -0.206 F 
ATOM     82  C   UNL A   1      47.396  26.526  26.942  1.00  0.00     0.022 A 
BRANCH  79  83
ATOM     83  S   UNL A   1      45.990  27.881  24.967  1.00  0.00     0.124 S 
ATOM     84  O   UNL A   1      46.720  26.908  24.162  1.00  0.00    -0.237 OA
ATOM     85  O   UNL A   1      44.539  27.880  24.800  1.00  0.00    -0.237 OA
ATOM     86  O   UNL A   1      46.579  29.216  25.037  1.00  0.00    -0.744 OA
ENDBRANCH  79  83
ENDBRANCH  52  76
BRANCH  64  87
ATOM     87  C   UNL A   1      43.247  34.369  30.313  1.00  0.00     0.023 A 
ATOM     88  C   UNL A   1      43.551  35.334  31.277  1.00  0.00     0.031 A 
ATOM     89  C   UNL A   1      42.954  34.895  29.022  1.00  0.00     0.131 A 
ATOM     90  C   UNL A   1      43.684  36.694  30.940  1.00  0.00     0.055 A 
ATOM     91  C   UNL A   1      43.065  36.249  28.690  1.00  0.00     0.041 A 
ATOM     92  F   UNL A   1      42.521  34.136  28.008  1.00  0.00    -0.206 F 
ATOM     93  C   UNL A   1      43.457  37.160  29.650  1.00  0.00     0.022 A 
BRANCH  90  94
ATOM     94  S   UNL A   1      44.151  37.848  32.251  1.00  0.00     0.124 S 
ATOM     95  O   UNL A   1      43.948  39.145  31.612  1.00  0.00    -0.237 OA
ATOM     96  O   UNL A   1      43.201  37.508  33.306  1.00  0.00    -0.237 OA
ATOM     97  O   UNL A   1      45.544  37.507  32.533  1.00  0.00    -0.744 OA
ENDBRANCH  90  94
ENDBRANCH  64  87
ENDBRANCH  38  39
ENDBRANCH  31  33
ENDBRANCH  30  31
ENDBRANCH  29  30
ENDBRANCH  28  29
ENDBRANCH  27  28
ENDBRANCH  26  27
ENDBRANCH   1  26
TORSDOF 23
ENDMDL
