MODEL 1
REMARK VINA RESULT:     -12.2      0.000      0.000
REMARK SMILES C[C@@](NC(=O)[C@H]1COc2ccccc21)(C(=O)OCCOCCOCCOC(=O)c1ccc(-c2c3nc(c(-c4cc(S(=O)(=O)[O-])ccc4F)c4ccc([nH]4)c(-c4cc(S(=O)(=O)[O-])ccc4F)c4nc(c(-c5cc(S(=O)(=O)[O-])ccc5F)c5ccc2[nH]5)C=C4)C=C3)cc1)C(F)(F)F
REMARK SMILES IDX 22 1 21 2 20 3 19 4 18 5 17 6 15 7 16 8 2 9 1 10 3 11 4 12
REMARK SMILES IDX 5 14 6 15 7 16 14 17 8 18 9 19 13 20 10 21 12 22 11 23 92 24
REMARK SMILES IDX 93 25 94 26 95 27 23 28 24 29 25 30 26 31 27 32 28 33 29 34
REMARK SMILES IDX 30 35 91 36 31 37 90 38 32 39 33 40 34 41 84 42 35 43 89 44
REMARK SMILES IDX 83 45 85 46 36 47 88 48 82 49 81 50 37 52 69 53 49 54 68 55
REMARK SMILES IDX 50 56 53 57 67 58 86 59 51 60 52 61 66 63 87 64 54 65 38 66
REMARK SMILES IDX 39 67 47 68 40 69 46 70 48 71 45 72 41 73 42 74 43 75 44 76
REMARK SMILES IDX 70 77 71 78 79 79 72 80 78 81 80 82 77 83 73 84 74 85 75 86
REMARK SMILES IDX 76 87 55 88 56 89 64 90 57 91 63 92 65 93 62 94 58 95 59 96
REMARK SMILES IDX 60 97 61 98
REMARK H PARENT 3 13 85 51 53 62
REMARK Flexibility Score: inf
ROOT
ATOM      1  C   UNL A   1      32.002  28.537  26.764  1.00  0.00     0.188 C 
ENDROOT
BRANCH   1   2
ATOM      2  C   UNL A   1      30.879  27.485  26.460  1.00  0.00     0.188 C 
BRANCH   2   3
ATOM      3  O   UNL A   1      30.922  26.090  26.869  1.00  0.00    -0.376 OA
BRANCH   3   4
ATOM      4  C   UNL A   1      30.552  24.928  26.082  1.00  0.00     0.202 C 
BRANCH   4   5
ATOM      5  C   UNL A   1      30.486  23.211  26.604  1.00  0.00     0.261 C 
BRANCH   5   6
ATOM      6  O   UNL A   1      31.811  21.813  25.831  1.00  0.00    -0.461 OA
BRANCH   6   7
ATOM      7  C   UNL A   1      33.071  21.153  25.874  1.00  0.00     0.341 C 
ATOM      8  O   UNL A   1      33.672  20.761  26.869  1.00  0.00    -0.249 OA
BRANCH   7   9
ATOM      9  C   UNL A   1      33.422  20.744  24.480  1.00  0.00     0.231 C 
ATOM     10  C   UNL A   1      32.083  20.625  23.710  1.00  0.00     0.058 C 
BRANCH   9  11
ATOM     11  N   UNL A   1      34.403  21.687  23.803  1.00  0.00    -0.332 N 
ATOM     12  C   UNL A   1      34.512  23.055  23.720  1.00  0.00     0.232 C 
ATOM     13  H   UNL A   1      35.117  21.215  23.318  1.00  0.00     0.164 HD
ATOM     14  O   UNL A   1      35.527  23.494  23.165  1.00  0.00    -0.274 OA
BRANCH  12  15
ATOM     15  C   UNL A   1      33.436  24.064  24.209  1.00  0.00     0.150 C 
ATOM     16  C   UNL A   1      34.031  24.561  26.066  1.00  0.00     0.248 C 
ATOM     17  C   UNL A   1      33.431  25.699  23.171  1.00  0.00     0.010 A 
ATOM     18  O   UNL A   1      34.423  26.456  25.879  1.00  0.00    -0.492 OA
ATOM     19  C   UNL A   1      33.958  27.072  24.162  1.00  0.00     0.123 A 
ATOM     20  C   UNL A   1      33.165  25.939  21.871  1.00  0.00     0.008 A 
ATOM     21  C   UNL A   1      34.038  28.369  23.796  1.00  0.00     0.047 A 
ATOM     22  C   UNL A   1      33.328  27.322  21.543  1.00  0.00     0.001 A 
ATOM     23  C   UNL A   1      33.712  28.453  22.437  1.00  0.00     0.004 A 
ENDBRANCH  12  15
ENDBRANCH   9  11
BRANCH   9  24
ATOM     24  C   UNL A   1      33.979  19.318  24.636  1.00  0.00     0.422 C 
ATOM     25  F   UNL A   1      33.783  18.534  23.556  1.00  0.00    -0.168 F 
ATOM     26  F   UNL A   1      35.328  19.395  24.809  1.00  0.00    -0.168 F 
ATOM     27  F   UNL A   1      33.481  18.691  25.721  1.00  0.00    -0.168 F 
ENDBRANCH   9  24
ENDBRANCH   7   9
ENDBRANCH   6   7
ENDBRANCH   5   6
ENDBRANCH   4   5
ENDBRANCH   3   4
ENDBRANCH   2   3
ENDBRANCH   1   2
BRANCH   1  28
ATOM     28  O   UNL A   1      31.643  29.782  27.329  1.00  0.00    -0.376 OA
BRANCH  28  29
ATOM     29  C   UNL A   1      31.715  30.882  26.446  1.00  0.00     0.202 C 
BRANCH  29  30
ATOM     30  C   UNL A   1      31.473  32.297  27.025  1.00  0.00     0.261 C 
BRANCH  30  31
ATOM     31  O   UNL A   1      32.543  33.270  26.891  1.00  0.00    -0.460 OA
BRANCH  31  32
ATOM     32  C   UNL A   1      33.255  33.580  28.009  1.00  0.00     0.338 C 
ATOM     33  O   UNL A   1      32.819  34.203  28.965  1.00  0.00    -0.246 OA
BRANCH  32  34
ATOM     34  C   UNL A   1      34.601  32.915  28.046  1.00  0.00     0.060 A 
ATOM     35  C   UNL A   1      34.652  31.509  28.043  1.00  0.00     0.016 A 
ATOM     36  C   UNL A   1      35.788  33.627  28.230  1.00  0.00     0.016 A 
ATOM     37  C   UNL A   1      35.845  30.822  28.328  1.00  0.00     0.010 A 
ATOM     38  C   UNL A   1      36.984  32.934  28.531  1.00  0.00     0.010 A 
ATOM     39  C   UNL A   1      37.007  31.528  28.655  1.00  0.00    -0.014 A 
BRANCH  39  40
ATOM     40  C   UNL A   1      38.122  30.837  29.392  1.00  0.00     0.031 A 
ATOM     41  C   UNL A   1      38.329  31.182  30.855  1.00  0.00     0.074 A 
ATOM     42  C   UNL A   1      38.907  29.889  28.839  1.00  0.00     0.049 A 
ATOM     43  N   UNL A   1      39.236  30.760  31.702  1.00  0.00    -0.248 NA
ATOM     44  C   UNL A   1      37.378  32.145  31.432  1.00  0.00     0.031 C 
ATOM     45  C   UNL A   1      38.796  29.386  27.472  1.00  0.00     0.029 A 
ATOM     46  N   UNL A   1      39.965  29.177  29.368  1.00  0.00    -0.354 N 
ATOM     47  C   UNL A   1      38.975  31.420  32.902  1.00  0.00     0.074 A 
ATOM     48  C   UNL A   1      37.854  32.299  32.657  1.00  0.00     0.031 C 
ATOM     49  C   UNL A   1      39.745  28.453  27.270  1.00  0.00     0.029 A 
ATOM     50  C   UNL A   1      40.562  28.312  28.477  1.00  0.00     0.049 A 
ATOM     51  H   UNL A   1      40.266  29.279  30.301  1.00  0.00     0.167 HD
ATOM     52  C   UNL A   1      39.601  31.302  34.103  1.00  0.00     0.034 A 
ATOM     53  C   UNL A   1      41.645  27.512  28.608  1.00  0.00     0.034 A 
ATOM     54  C   UNL A   1      40.719  30.425  34.352  1.00  0.00     0.049 A 
ATOM     55  C   UNL A   1      42.391  27.469  29.929  1.00  0.00     0.074 A 
ATOM     56  C   UNL A   1      41.405  30.222  35.539  1.00  0.00     0.029 A 
ATOM     57  N   UNL A   1      41.329  29.616  33.403  1.00  0.00    -0.354 N 
ATOM     58  N   UNL A   1      42.131  28.099  31.052  1.00  0.00    -0.248 NA
ATOM     59  C   UNL A   1      43.571  26.595  29.997  1.00  0.00     0.031 C 
ATOM     60  C   UNL A   1      42.483  29.368  35.284  1.00  0.00     0.029 A 
ATOM     61  C   UNL A   1      42.407  28.947  33.967  1.00  0.00     0.049 A 
ATOM     62  H   UNL A   1      41.039  29.528  32.467  1.00  0.00     0.167 HD
ATOM     63  C   UNL A   1      43.085  27.653  31.969  1.00  0.00     0.074 A 
ATOM     64  C   UNL A   1      43.917  26.699  31.271  1.00  0.00     0.031 C 
ATOM     65  C   UNL A   1      43.246  27.996  33.274  1.00  0.00     0.034 A 
BRANCH  52  66
ATOM     66  C   UNL A   1      39.126  32.200  35.227  1.00  0.00     0.023 A 
ATOM     67  C   UNL A   1      39.572  33.526  35.367  1.00  0.00     0.031 A 
ATOM     68  C   UNL A   1      38.229  31.706  36.192  1.00  0.00     0.131 A 
ATOM     69  C   UNL A   1      39.186  34.281  36.485  1.00  0.00     0.055 A 
ATOM     70  C   UNL A   1      37.775  32.493  37.251  1.00  0.00     0.041 A 
ATOM     71  F   UNL A   1      37.784  30.441  36.129  1.00  0.00    -0.206 F 
ATOM     72  C   UNL A   1      38.267  33.785  37.413  1.00  0.00     0.022 A 
BRANCH  69  73
ATOM     73  S   UNL A   1      40.025  35.859  36.801  1.00  0.00     0.124 S 
ATOM     74  O   UNL A   1      39.315  36.339  37.984  1.00  0.00    -0.237 OA
ATOM     75  O   UNL A   1      41.408  35.445  37.009  1.00  0.00    -0.237 OA
ATOM     76  O   UNL A   1      39.779  36.629  35.583  1.00  0.00    -0.744 OA
ENDBRANCH  69  73
ENDBRANCH  52  66
BRANCH  53  77
ATOM     77  C   UNL A   1      42.140  26.693  27.454  1.00  0.00     0.023 A 
ATOM     78  C   UNL A   1      41.799  25.335  27.322  1.00  0.00     0.031 A 
ATOM     79  C   UNL A   1      43.038  27.235  26.518  1.00  0.00     0.131 A 
ATOM     80  C   UNL A   1      42.392  24.556  26.312  1.00  0.00     0.055 A 
ATOM     81  C   UNL A   1      43.573  26.472  25.476  1.00  0.00     0.041 A 
ATOM     82  F   UNL A   1      43.417  28.520  26.604  1.00  0.00    -0.206 F 
ATOM     83  C   UNL A   1      43.261  25.121  25.377  1.00  0.00     0.022 A 
BRANCH  80  84
ATOM     84  S   UNL A   1      42.096  22.764  26.301  1.00  0.00     0.124 S 
ATOM     85  O   UNL A   1      40.647  22.702  26.444  1.00  0.00    -0.237 OA
ATOM     86  O   UNL A   1      42.631  22.374  25.001  1.00  0.00    -0.237 OA
ATOM     87  O   UNL A   1      42.858  22.286  27.453  1.00  0.00    -0.744 OA
ENDBRANCH  80  84
ENDBRANCH  53  77
BRANCH  65  88
ATOM     88  C   UNL A   1      44.322  27.275  34.062  1.00  0.00     0.023 A 
ATOM     89  C   UNL A   1      44.185  25.938  34.475  1.00  0.00     0.031 A 
ATOM     90  C   UNL A   1      45.501  27.954  34.426  1.00  0.00     0.131 A 
ATOM     91  C   UNL A   1      45.167  25.350  35.290  1.00  0.00     0.055 A 
ATOM     92  C   UNL A   1      46.511  27.338  35.168  1.00  0.00     0.041 A 
ATOM     93  F   UNL A   1      45.693  29.233  34.068  1.00  0.00    -0.206 F 
ATOM     94  C   UNL A   1      46.339  26.034  35.620  1.00  0.00     0.022 A 
BRANCH  91  95
ATOM     95  S   UNL A   1      44.833  23.725  36.026  1.00  0.00     0.124 S 
ATOM     96  O   UNL A   1      45.158  23.956  37.429  1.00  0.00    -0.237 OA
ATOM     97  O   UNL A   1      43.419  23.530  35.723  1.00  0.00    -0.237 OA
ATOM     98  O   UNL A   1      45.747  22.831  35.316  1.00  0.00    -0.744 OA
ENDBRANCH  91  95
ENDBRANCH  65  88
ENDBRANCH  39  40
ENDBRANCH  32  34
ENDBRANCH  31  32
ENDBRANCH  30  31
ENDBRANCH  29  30
ENDBRANCH  28  29
ENDBRANCH   1  28
TORSDOF 23
ENDMDL
MODEL 2
REMARK VINA RESULT:     -12.0      2.895      4.528
REMARK SMILES C[C@@](NC(=O)[C@H]1COc2ccccc21)(C(=O)OCCOCCOCCOC(=O)c1ccc(-c2c3nc(c(-c4cc(S(=O)(=O)[O-])ccc4F)c4ccc([nH]4)c(-c4cc(S(=O)(=O)[O-])ccc4F)c4nc(c(-c5cc(S(=O)(=O)[O-])ccc5F)c5ccc2[nH]5)C=C4)C=C3)cc1)C(F)(F)F
REMARK SMILES IDX 22 1 21 2 20 3 19 4 18 5 17 6 15 7 16 8 2 9 1 10 3 11 4 12
REMARK SMILES IDX 5 14 6 15 7 16 14 17 8 18 9 19 13 20 10 21 12 22 11 23 92 24
REMARK SMILES IDX 93 25 94 26 95 27 23 28 24 29 25 30 26 31 27 32 28 33 29 34
REMARK SMILES IDX 30 35 91 36 31 37 90 38 32 39 33 40 34 41 84 42 35 43 89 44
REMARK SMILES IDX 83 45 85 46 36 47 88 48 82 49 81 50 37 52 69 53 49 54 68 55
REMARK SMILES IDX 50 56 53 57 67 58 86 59 51 60 52 61 66 63 87 64 54 65 38 66
REMARK SMILES IDX 39 67 47 68 40 69 46 70 48 71 45 72 41 73 42 74 43 75 44 76
REMARK SMILES IDX 70 77 71 78 79 79 72 80 78 81 80 82 77 83 73 84 74 85 75 86
REMARK SMILES IDX 76 87 55 88 56 89 64 90 57 91 63 92 65 93 62 94 58 95 59 96
REMARK SMILES IDX 60 97 61 98
REMARK H PARENT 3 13 85 51 53 62
REMARK Flexibility Score: inf
ROOT
ATOM      1  C   UNL A   1      34.226  34.254  27.956  1.00  0.00     0.188 C 
ENDROOT
BRANCH   1   2
ATOM      2  C   UNL A   1      34.811  32.834  28.276  1.00  0.00     0.188 C 
BRANCH   2   3
ATOM      3  O   UNL A   1      34.023  31.615  28.352  1.00  0.00    -0.376 OA
BRANCH   3   4
ATOM      4  C   UNL A   1      33.553  30.798  27.249  1.00  0.00     0.202 C 
BRANCH   4   5
ATOM      5  C   UNL A   1      31.936  30.818  26.465  1.00  0.00     0.261 C 
BRANCH   5   6
ATOM      6  O   UNL A   1      31.198  29.131  25.506  1.00  0.00    -0.461 OA
BRANCH   6   7
ATOM      7  C   UNL A   1      31.375  28.059  24.588  1.00  0.00     0.341 C 
ATOM      8  O   UNL A   1      31.142  28.066  23.383  1.00  0.00    -0.249 OA
BRANCH   7   9
ATOM      9  C   UNL A   1      32.173  26.996  25.271  1.00  0.00     0.231 C 
ATOM     10  C   UNL A   1      32.032  27.254  26.792  1.00  0.00     0.058 C 
BRANCH   9  11
ATOM     11  N   UNL A   1      31.762  25.586  24.878  1.00  0.00    -0.332 N 
ATOM     12  C   UNL A   1      32.158  24.330  25.271  1.00  0.00     0.232 C 
ATOM     13  H   UNL A   1      31.058  25.569  24.191  1.00  0.00     0.164 HD
ATOM     14  O   UNL A   1      31.513  23.380  24.810  1.00  0.00    -0.274 OA
BRANCH  12  15
ATOM     15  C   UNL A   1      33.378  24.028  26.187  1.00  0.00     0.150 C 
ATOM     16  C   UNL A   1      32.726  22.576  27.417  1.00  0.00     0.248 C 
ATOM     17  C   UNL A   1      34.875  23.293  25.202  1.00  0.00     0.010 A 
ATOM     18  O   UNL A   1      33.869  21.081  26.929  1.00  0.00    -0.492 OA
ATOM     19  C   UNL A   1      35.170  21.610  25.677  1.00  0.00     0.123 A 
ATOM     20  C   UNL A   1      35.647  23.805  24.223  1.00  0.00     0.008 A 
ATOM     21  C   UNL A   1      36.152  20.792  25.240  1.00  0.00     0.047 A 
ATOM     22  C   UNL A   1      36.624  22.863  23.769  1.00  0.00     0.001 A 
ATOM     23  C   UNL A   1      36.873  21.473  24.253  1.00  0.00     0.004 A 
ENDBRANCH  12  15
ENDBRANCH   9  11
BRANCH   9  24
ATOM     24  C   UNL A   1      33.629  27.319  24.893  1.00  0.00     0.422 C 
ATOM     25  F   UNL A   1      33.867  28.634  24.705  1.00  0.00    -0.168 F 
ATOM     26  F   UNL A   1      34.440  26.931  25.917  1.00  0.00    -0.168 F 
ATOM     27  F   UNL A   1      34.033  26.646  23.798  1.00  0.00    -0.168 F 
ENDBRANCH   9  24
ENDBRANCH   7   9
ENDBRANCH   6   7
ENDBRANCH   5   6
ENDBRANCH   4   5
ENDBRANCH   3   4
ENDBRANCH   2   3
ENDBRANCH   1   2
BRANCH   1  28
ATOM     28  O   UNL A   1      33.094  34.708  28.669  1.00  0.00    -0.376 OA
BRANCH  28  29
ATOM     29  C   UNL A   1      33.118  36.077  29.020  1.00  0.00     0.202 C 
BRANCH  29  30
ATOM     30  C   UNL A   1      32.562  36.482  30.406  1.00  0.00     0.261 C 
BRANCH  30  31
ATOM     31  O   UNL A   1      33.420  36.278  31.560  1.00  0.00    -0.460 OA
BRANCH  31  32
ATOM     32  C   UNL A   1      33.373  35.062  32.171  1.00  0.00     0.338 C 
ATOM     33  O   UNL A   1      32.435  34.650  32.836  1.00  0.00    -0.246 OA
BRANCH  32  34
ATOM     34  C   UNL A   1      34.526  34.176  31.795  1.00  0.00     0.060 A 
ATOM     35  C   UNL A   1      34.414  32.795  32.039  1.00  0.00     0.016 A 
ATOM     36  C   UNL A   1      35.750  34.680  31.352  1.00  0.00     0.016 A 
ATOM     37  C   UNL A   1      35.531  31.946  31.952  1.00  0.00     0.010 A 
ATOM     38  C   UNL A   1      36.876  33.827  31.279  1.00  0.00     0.010 A 
ATOM     39  C   UNL A   1      36.794  32.467  31.648  1.00  0.00    -0.014 A 
BRANCH  39  40
ATOM     40  C   UNL A   1      38.031  31.686  31.998  1.00  0.00     0.031 A 
ATOM     41  C   UNL A   1      38.722  31.998  33.312  1.00  0.00     0.074 A 
ATOM     42  C   UNL A   1      38.524  30.687  31.235  1.00  0.00     0.049 A 
ATOM     43  N   UNL A   1      39.819  31.500  33.828  1.00  0.00    -0.248 NA
ATOM     44  C   UNL A   1      38.082  33.024  34.149  1.00  0.00     0.031 C 
ATOM     45  C   UNL A   1      37.941  30.209  29.984  1.00  0.00     0.029 A 
ATOM     46  N   UNL A   1      39.639  29.892  31.406  1.00  0.00    -0.354 N 
ATOM     47  C   UNL A   1      40.008  32.165  35.039  1.00  0.00     0.074 A 
ATOM     48  C   UNL A   1      38.937  33.129  35.155  1.00  0.00     0.031 C 
ATOM     49  C   UNL A   1      38.703  29.210  29.501  1.00  0.00     0.029 A 
ATOM     50  C   UNL A   1      39.851  28.994  30.383  1.00  0.00     0.049 A 
ATOM     51  H   UNL A   1      40.230  29.961  32.191  1.00  0.00     0.167 HD
ATOM     52  C   UNL A   1      40.975  31.987  35.977  1.00  0.00     0.034 A 
ATOM     53  C   UNL A   1      40.856  28.113  30.170  1.00  0.00     0.034 A 
ATOM     54  C   UNL A   1      42.046  31.025  35.866  1.00  0.00     0.049 A 
ATOM     55  C   UNL A   1      41.981  28.000  31.182  1.00  0.00     0.074 A 
ATOM     56  C   UNL A   1      43.059  30.758  36.772  1.00  0.00     0.029 A 
ATOM     57  N   UNL A   1      42.256  30.183  34.782  1.00  0.00    -0.354 N 
ATOM     58  N   UNL A   1      42.143  28.635  32.320  1.00  0.00    -0.248 NA
ATOM     59  C   UNL A   1      43.052  27.038  30.879  1.00  0.00     0.031 C 
ATOM     60  C   UNL A   1      43.931  29.828  36.197  1.00  0.00     0.029 A 
ATOM     61  C   UNL A   1      43.405  29.428  34.980  1.00  0.00     0.049 A 
ATOM     62  H   UNL A   1      41.675  30.127  33.990  1.00  0.00     0.167 HD
ATOM     63  C   UNL A   1      43.305  28.109  32.889  1.00  0.00     0.074 A 
ATOM     64  C   UNL A   1      43.795  27.102  31.974  1.00  0.00     0.031 C 
ATOM     65  C   UNL A   1      43.903  28.424  34.068  1.00  0.00     0.034 A 
BRANCH  52  66
ATOM     66  C   UNL A   1      40.956  32.906  37.181  1.00  0.00     0.023 A 
ATOM     67  C   UNL A   1      40.330  32.546  38.389  1.00  0.00     0.031 A 
ATOM     68  C   UNL A   1      41.553  34.177  37.108  1.00  0.00     0.131 A 
ATOM     69  C   UNL A   1      40.246  33.475  39.438  1.00  0.00     0.055 A 
ATOM     70  C   UNL A   1      41.548  35.061  38.188  1.00  0.00     0.041 A 
ATOM     71  F   UNL A   1      42.146  34.590  35.976  1.00  0.00    -0.206 F 
ATOM     72  C   UNL A   1      40.876  34.719  39.357  1.00  0.00     0.022 A 
BRANCH  69  73
ATOM     73  S   UNL A   1      39.164  33.100  40.846  1.00  0.00     0.124 S 
ATOM     74  O   UNL A   1      38.411  34.345  40.978  1.00  0.00    -0.237 OA
ATOM     75  O   UNL A   1      38.413  31.946  40.368  1.00  0.00    -0.237 OA
ATOM     76  O   UNL A   1      40.100  32.830  41.936  1.00  0.00    -0.744 OA
ENDBRANCH  69  73
ENDBRANCH  52  66
BRANCH  53  77
ATOM     77  C   UNL A   1      40.891  27.272  28.930  1.00  0.00     0.023 A 
ATOM     78  C   UNL A   1      41.867  27.470  27.938  1.00  0.00     0.031 A 
ATOM     79  C   UNL A   1      39.888  26.318  28.678  1.00  0.00     0.131 A 
ATOM     80  C   UNL A   1      41.790  26.766  26.724  1.00  0.00     0.055 A 
ATOM     81  C   UNL A   1      39.854  25.573  27.497  1.00  0.00     0.041 A 
ATOM     82  F   UNL A   1      38.917  26.098  29.579  1.00  0.00    -0.206 F 
ATOM     83  C   UNL A   1      40.801  25.805  26.505  1.00  0.00     0.022 A 
BRANCH  80  84
ATOM     84  S   UNL A   1      42.937  27.200  25.384  1.00  0.00     0.124 S 
ATOM     85  O   UNL A   1      44.135  27.567  26.129  1.00  0.00    -0.237 OA
ATOM     86  O   UNL A   1      43.008  25.955  24.627  1.00  0.00    -0.237 OA
ATOM     87  O   UNL A   1      42.263  28.302  24.703  1.00  0.00    -0.744 OA
ENDBRANCH  80  84
ENDBRANCH  53  77
BRANCH  65  88
ATOM     88  C   UNL A   1      45.117  27.616  34.478  1.00  0.00     0.023 A 
ATOM     89  C   UNL A   1      45.012  26.397  35.171  1.00  0.00     0.031 A 
ATOM     90  C   UNL A   1      46.411  28.093  34.188  1.00  0.00     0.131 A 
ATOM     91  C   UNL A   1      46.171  25.739  35.617  1.00  0.00     0.055 A 
ATOM     92  C   UNL A   1      47.560  27.394  34.563  1.00  0.00     0.041 A 
ATOM     93  F   UNL A   1      46.582  29.252  33.534  1.00  0.00    -0.206 F 
ATOM     94  C   UNL A   1      47.444  26.219  35.298  1.00  0.00     0.022 A 
BRANCH  91  95
ATOM     95  S   UNL A   1      45.995  24.321  36.735  1.00  0.00     0.124 S 
ATOM     96  O   UNL A   1      44.648  23.854  36.421  1.00  0.00    -0.237 OA
ATOM     97  O   UNL A   1      47.086  23.450  36.311  1.00  0.00    -0.237 OA
ATOM     98  O   UNL A   1      46.152  24.910  38.065  1.00  0.00    -0.744 OA
ENDBRANCH  91  95
ENDBRANCH  65  88
ENDBRANCH  39  40
ENDBRANCH  32  34
ENDBRANCH  31  32
ENDBRANCH  30  31
ENDBRANCH  29  30
ENDBRANCH  28  29
ENDBRANCH   1  28
TORSDOF 23
ENDMDL
MODEL 3
REMARK VINA RESULT:     -11.8      1.903      7.753
REMARK SMILES C[C@@](NC(=O)[C@H]1COc2ccccc21)(C(=O)OCCOCCOCCOC(=O)c1ccc(-c2c3nc(c(-c4cc(S(=O)(=O)[O-])ccc4F)c4ccc([nH]4)c(-c4cc(S(=O)(=O)[O-])ccc4F)c4nc(c(-c5cc(S(=O)(=O)[O-])ccc5F)c5ccc2[nH]5)C=C4)C=C3)cc1)C(F)(F)F
REMARK SMILES IDX 22 1 21 2 20 3 19 4 18 5 17 6 15 7 16 8 2 9 1 10 3 11 4 12
REMARK SMILES IDX 5 14 6 15 7 16 14 17 8 18 9 19 13 20 10 21 12 22 11 23 92 24
REMARK SMILES IDX 93 25 94 26 95 27 23 28 24 29 25 30 26 31 27 32 28 33 29 34
REMARK SMILES IDX 30 35 91 36 31 37 90 38 32 39 33 40 34 41 84 42 35 43 89 44
REMARK SMILES IDX 83 45 85 46 36 47 88 48 82 49 81 50 37 52 69 53 49 54 68 55
REMARK SMILES IDX 50 56 53 57 67 58 86 59 51 60 52 61 66 63 87 64 54 65 38 66
REMARK SMILES IDX 39 67 47 68 40 69 46 70 48 71 45 72 41 73 42 74 43 75 44 76
REMARK SMILES IDX 70 77 71 78 79 79 72 80 78 81 80 82 77 83 73 84 74 85 75 86
REMARK SMILES IDX 76 87 55 88 56 89 64 90 57 91 63 92 65 93 62 94 58 95 59 96
REMARK SMILES IDX 60 97 61 98
REMARK H PARENT 3 13 85 51 53 62
REMARK Flexibility Score: inf
ROOT
ATOM      1  C   UNL A   1      33.714  27.010  26.215  1.00  0.00     0.188 C 
ENDROOT
BRANCH   1   2
ATOM      2  C   UNL A   1      33.846  25.533  25.705  1.00  0.00     0.188 C 
BRANCH   2   3
ATOM      3  O   UNL A   1      35.104  24.882  25.378  1.00  0.00    -0.376 OA
BRANCH   3   4
ATOM      4  C   UNL A   1      35.422  24.131  24.177  1.00  0.00     0.202 C 
BRANCH   4   5
ATOM      5  C   UNL A   1      36.331  22.587  24.043  1.00  0.00     0.261 C 
BRANCH   5   6
ATOM      6  O   UNL A   1      35.566  20.830  24.840  1.00  0.00    -0.461 OA
BRANCH   6   7
ATOM      7  C   UNL A   1      34.704  19.703  24.738  1.00  0.00     0.341 C 
ATOM      8  O   UNL A   1      35.028  18.525  24.627  1.00  0.00    -0.249 OA
BRANCH   7   9
ATOM      9  C   UNL A   1      33.321  20.152  25.084  1.00  0.00     0.231 C 
ATOM     10  C   UNL A   1      32.567  18.896  25.587  1.00  0.00     0.058 C 
BRANCH   9  11
ATOM     11  N   UNL A   1      33.290  21.293  26.088  1.00  0.00    -0.332 N 
ATOM     12  C   UNL A   1      32.335  22.204  26.472  1.00  0.00     0.232 C 
ATOM     13  H   UNL A   1      34.142  21.403  26.569  1.00  0.00     0.164 HD
ATOM     14  O   UNL A   1      32.627  22.938  27.424  1.00  0.00    -0.274 OA
BRANCH  12  15
ATOM     15  C   UNL A   1      30.967  22.410  25.763  1.00  0.00     0.150 C 
ATOM     16  C   UNL A   1      29.708  22.905  27.252  1.00  0.00     0.248 C 
ATOM     17  C   UNL A   1      30.992  23.908  24.535  1.00  0.00     0.010 A 
ATOM     18  O   UNL A   1      29.205  24.722  26.778  1.00  0.00    -0.492 OA
ATOM     19  C   UNL A   1      29.936  25.209  25.114  1.00  0.00     0.123 A 
ATOM     20  C   UNL A   1      31.692  24.133  23.405  1.00  0.00     0.008 A 
ATOM     21  C   UNL A   1      29.667  26.384  24.503  1.00  0.00     0.047 A 
ATOM     22  C   UNL A   1      31.400  25.419  22.848  1.00  0.00     0.001 A 
ATOM     23  C   UNL A   1      30.447  26.454  23.343  1.00  0.00     0.004 A 
ENDBRANCH  12  15
ENDBRANCH   9  11
BRANCH   9  24
ATOM     24  C   UNL A   1      32.701  20.535  23.729  1.00  0.00     0.422 C 
ATOM     25  F   UNL A   1      33.280  21.605  23.146  1.00  0.00    -0.168 F 
ATOM     26  F   UNL A   1      32.868  19.496  22.864  1.00  0.00    -0.168 F 
ATOM     27  F   UNL A   1      31.374  20.759  23.820  1.00  0.00    -0.168 F 
ENDBRANCH   9  24
ENDBRANCH   7   9
ENDBRANCH   6   7
ENDBRANCH   5   6
ENDBRANCH   4   5
ENDBRANCH   3   4
ENDBRANCH   2   3
ENDBRANCH   1   2
BRANCH   1  28
ATOM     28  O   UNL A   1      32.663  27.817  25.724  1.00  0.00    -0.376 OA
BRANCH  28  29
ATOM     29  C   UNL A   1      31.842  28.398  26.716  1.00  0.00     0.202 C 
BRANCH  29  30
ATOM     30  C   UNL A   1      31.926  29.929  26.924  1.00  0.00     0.261 C 
BRANCH  30  31
ATOM     31  O   UNL A   1      33.144  30.599  26.502  1.00  0.00    -0.460 OA
BRANCH  31  32
ATOM     32  C   UNL A   1      33.741  31.438  27.392  1.00  0.00     0.338 C 
ATOM     33  O   UNL A   1      33.158  32.278  28.060  1.00  0.00    -0.246 OA
BRANCH  32  34
ATOM     34  C   UNL A   1      35.189  31.110  27.622  1.00  0.00     0.060 A 
ATOM     35  C   UNL A   1      35.580  29.759  27.587  1.00  0.00     0.016 A 
ATOM     36  C   UNL A   1      36.126  32.069  28.012  1.00  0.00     0.016 A 
ATOM     37  C   UNL A   1      36.850  29.356  28.038  1.00  0.00     0.010 A 
ATOM     38  C   UNL A   1      37.397  31.660  28.478  1.00  0.00     0.010 A 
ATOM     39  C   UNL A   1      37.744  30.294  28.565  1.00  0.00    -0.014 A 
BRANCH  39  40
ATOM     40  C   UNL A   1      38.873  29.840  29.449  1.00  0.00     0.031 A 
ATOM     41  C   UNL A   1      39.803  28.764  28.918  1.00  0.00     0.074 A 
ATOM     42  C   UNL A   1      39.136  30.375  30.659  1.00  0.00     0.049 A 
ATOM     43  N   UNL A   1      40.823  28.173  29.491  1.00  0.00    -0.248 NA
ATOM     44  C   UNL A   1      39.530  28.291  27.553  1.00  0.00     0.031 C 
ATOM     45  C   UNL A   1      38.390  31.464  31.285  1.00  0.00     0.029 A 
ATOM     46  N   UNL A   1      40.112  30.067  31.586  1.00  0.00    -0.354 N 
ATOM     47  C   UNL A   1      41.300  27.248  28.563  1.00  0.00     0.074 A 
ATOM     48  C   UNL A   1      40.429  27.329  27.411  1.00  0.00     0.031 C 
ATOM     49  C   UNL A   1      38.931  31.730  32.488  1.00  0.00     0.029 A 
ATOM     50  C   UNL A   1      40.041  30.810  32.744  1.00  0.00     0.049 A 
ATOM     51  H   UNL A   1      40.798  29.378  31.431  1.00  0.00     0.167 HD
ATOM     52  C   UNL A   1      42.368  26.412  28.650  1.00  0.00     0.034 A 
ATOM     53  C   UNL A   1      40.769  30.748  33.883  1.00  0.00     0.034 A 
ATOM     54  C   UNL A   1      43.240  26.328  29.798  1.00  0.00     0.049 A 
ATOM     55  C   UNL A   1      41.896  29.739  33.999  1.00  0.00     0.074 A 
ATOM     56  C   UNL A   1      44.358  25.528  29.971  1.00  0.00     0.029 A 
ATOM     57  N   UNL A   1      43.090  27.054  30.972  1.00  0.00    -0.354 N 
ATOM     58  N   UNL A   1      42.332  28.874  33.113  1.00  0.00    -0.248 NA
ATOM     59  C   UNL A   1      42.634  29.712  35.270  1.00  0.00     0.031 C 
ATOM     60  C   UNL A   1      44.824  25.699  31.279  1.00  0.00     0.029 A 
ATOM     61  C   UNL A   1      44.068  26.688  31.887  1.00  0.00     0.049 A 
ATOM     62  H   UNL A   1      42.393  27.729  31.132  1.00  0.00     0.167 HD
ATOM     63  C   UNL A   1      43.426  28.239  33.705  1.00  0.00     0.074 A 
ATOM     64  C   UNL A   1      43.587  28.828  35.016  1.00  0.00     0.031 C 
ATOM     65  C   UNL A   1      44.232  27.268  33.200  1.00  0.00     0.034 A 
BRANCH  52  66
ATOM     66  C   UNL A   1      42.611  25.469  27.491  1.00  0.00     0.023 A 
ATOM     67  C   UNL A   1      42.000  24.204  27.412  1.00  0.00     0.031 A 
ATOM     68  C   UNL A   1      43.493  25.834  26.458  1.00  0.00     0.131 A 
ATOM     69  C   UNL A   1      42.342  23.324  26.373  1.00  0.00     0.055 A 
ATOM     70  C   UNL A   1      43.757  24.991  25.377  1.00  0.00     0.041 A 
ATOM     71  F   UNL A   1      44.127  27.018  26.486  1.00  0.00    -0.206 F 
ATOM     72  C   UNL A   1      43.194  23.720  25.339  1.00  0.00     0.022 A 
BRANCH  69  73
ATOM     73  S   UNL A   1      41.788  21.599  26.477  1.00  0.00     0.124 S 
ATOM     74  O   UNL A   1      40.359  21.732  26.205  1.00  0.00    -0.237 OA
ATOM     75  O   UNL A   1      42.580  20.951  25.438  1.00  0.00    -0.237 OA
ATOM     76  O   UNL A   1      42.119  21.214  27.847  1.00  0.00    -0.744 OA
ENDBRANCH  69  73
ENDBRANCH  52  66
BRANCH  53  77
ATOM     77  C   UNL A   1      40.456  31.642  35.045  1.00  0.00     0.023 A 
ATOM     78  C   UNL A   1      39.466  31.301  35.984  1.00  0.00     0.031 A 
ATOM     79  C   UNL A   1      41.079  32.896  35.179  1.00  0.00     0.131 A 
ATOM     80  C   UNL A   1      39.093  32.222  36.979  1.00  0.00     0.055 A 
ATOM     81  C   UNL A   1      40.751  33.780  36.210  1.00  0.00     0.041 A 
ATOM     82  F   UNL A   1      42.017  33.286  34.301  1.00  0.00    -0.206 F 
ATOM     83  C   UNL A   1      39.743  33.451  37.109  1.00  0.00     0.022 A 
BRANCH  80  84
ATOM     84  S   UNL A   1      37.669  31.838  38.039  1.00  0.00     0.124 S 
ATOM     85  O   UNL A   1      37.403  30.449  37.685  1.00  0.00    -0.237 OA
ATOM     86  O   UNL A   1      38.211  32.068  39.374  1.00  0.00    -0.237 OA
ATOM     87  O   UNL A   1      36.656  32.798  37.607  1.00  0.00    -0.744 OA
ENDBRANCH  80  84
ENDBRANCH  53  77
BRANCH  65  88
ATOM     88  C   UNL A   1      45.414  26.828  34.041  1.00  0.00     0.023 A 
ATOM     89  C   UNL A   1      45.364  25.701  34.879  1.00  0.00     0.031 A 
ATOM     90  C   UNL A   1      46.609  27.573  34.017  1.00  0.00     0.131 A 
ATOM     91  C   UNL A   1      46.453  25.397  35.714  1.00  0.00     0.055 A 
ATOM     92  C   UNL A   1      47.718  27.219  34.789  1.00  0.00     0.041 A 
ATOM     93  F   UNL A   1      46.722  28.663  33.242  1.00  0.00    -0.206 F 
ATOM     94  C   UNL A   1      47.637  26.136  35.658  1.00  0.00     0.022 A 
BRANCH  91  95
ATOM     95  S   UNL A   1      46.254  24.105  36.973  1.00  0.00     0.124 S 
ATOM     96  O   UNL A   1      45.438  23.121  36.270  1.00  0.00    -0.237 OA
ATOM     97  O   UNL A   1      47.634  23.714  37.241  1.00  0.00    -0.237 OA
ATOM     98  O   UNL A   1      45.581  24.797  38.072  1.00  0.00    -0.744 OA
ENDBRANCH  91  95
ENDBRANCH  65  88
ENDBRANCH  39  40
ENDBRANCH  32  34
ENDBRANCH  31  32
ENDBRANCH  30  31
ENDBRANCH  29  30
ENDBRANCH  28  29
ENDBRANCH   1  28
TORSDOF 23
ENDMDL
