MODEL 1
REMARK VINA RESULT:     -10.5      0.000      0.000
REMARK SMILES COc1ccc(Br)c([C@H]2[NH2+][C@H](C(=O)OCCOCCOCCOC(=O)c3ccc(-c4c5nc(c(-c6cc(S(=O)(=O)[O-])ccc6F)c6ccc([nH]6)c(-c6cc(S(=O)(=O)[O-])ccc6F)c6nc(c(-c7cc(S(=O)(=O)[O-])ccc7F)c7ccc4[nH]7)C=C6)C=C5)cc3)CS2)c1O
REMARK SMILES IDX 19 1 18 2 17 3 16 4 15 5 14 6 12 7 13 8 11 9 9 10 10 11
REMARK SMILES IDX 90 12 89 15 8 16 3 17 4 18 91 19 5 20 6 21 7 22 2 23 1 24
REMARK SMILES IDX 92 25 20 27 21 28 22 29 23 30 24 31 25 32 26 33 27 34 88 35
REMARK SMILES IDX 28 36 87 37 29 38 30 39 31 40 81 41 32 42 86 43 80 44 82 45
REMARK SMILES IDX 33 46 85 47 79 48 78 49 34 51 66 52 46 53 65 54 47 55 50 56
REMARK SMILES IDX 64 57 83 58 48 59 49 60 63 62 84 63 51 64 35 65 36 66 44 67
REMARK SMILES IDX 37 68 43 69 45 70 42 71 38 72 39 73 40 74 41 75 67 76 68 77
REMARK SMILES IDX 76 78 69 79 75 80 77 81 74 82 70 83 71 84 72 85 73 86 52 87
REMARK SMILES IDX 53 88 61 89 54 90 60 91 62 92 59 93 55 94 56 95 57 96 58 97
REMARK H PARENT 10 13 10 14 92 26 82 50 50 61
REMARK Flexibility Score: inf
ROOT
ATOM      1  C   UNL A   1      32.281  28.380  23.360  1.00  0.00     0.188 C 
ENDROOT
BRANCH   1   2
ATOM      2  C   UNL A   1      31.348  27.389  22.640  1.00  0.00     0.188 C 
BRANCH   2   3
ATOM      3  O   UNL A   1      31.186  26.063  23.139  1.00  0.00    -0.376 OA
BRANCH   3   4
ATOM      4  C   UNL A   1      30.248  25.808  24.173  1.00  0.00     0.202 C 
BRANCH   4   5
ATOM      5  C   UNL A   1      30.618  26.201  25.613  1.00  0.00     0.261 C 
BRANCH   5   6
ATOM      6  O   UNL A   1      31.556  25.339  26.300  1.00  0.00    -0.459 OA
BRANCH   6   7
ATOM      7  C   UNL A   1      31.044  24.180  26.788  1.00  0.00     0.365 C 
ATOM      8  O   UNL A   1      29.874  24.061  27.151  1.00  0.00    -0.245 OA
BRANCH   7   9
ATOM      9  C   UNL A   1      32.011  22.991  26.920  1.00  0.00     0.304 C 
ATOM     10  C   UNL A   1      32.189  21.581  24.947  1.00  0.00     0.279 C 
ATOM     11  N   UNL A   1      31.664  21.668  26.323  1.00  0.00    -0.319 N 
ATOM     12  S   UNL A   1      33.563  22.758  24.785  1.00  0.00    -0.087 SA
ATOM     13  H   UNL A   1      32.073  20.924  26.888  1.00  0.00     0.348 HD
ATOM     14  H   UNL A   1      30.650  21.566  26.301  1.00  0.00     0.348 HD
ATOM     15  C   UNL A   1      33.397  23.410  26.463  1.00  0.00     0.153 C 
BRANCH  10  16
ATOM     16  C   UNL A   1      32.432  20.123  24.510  1.00  0.00     0.080 A 
ATOM     17  C   UNL A   1      33.010  17.752  24.919  1.00  0.00     0.161 A 
ATOM     18  C   UNL A   1      32.780  17.406  23.598  1.00  0.00     0.051 A 
ATOM     19  C   UNL A   1      32.824  19.078  25.373  1.00  0.00     0.169 A 
ATOM     20  C   UNL A   1      32.382  18.400  22.720  1.00  0.00     0.020 A 
ATOM     21  C   UNL A   1      32.243  19.731  23.161  1.00  0.00     0.032 A 
ATOM     22  Br  UNL A   1      31.898  20.955  21.764  1.00  0.00    -0.050 Br
BRANCH  17  23
ATOM     23  O   UNL A   1      33.558  16.802  25.747  1.00  0.00    -0.493 OA
ATOM     24  C   UNL A   1      33.415  15.488  25.205  1.00  0.00     0.278 C 
ENDBRANCH  17  23
BRANCH  19  25
ATOM     25  O   UNL A   1      33.083  19.313  26.696  1.00  0.00    -0.504 OA
ATOM     26  H   UNL A   1      33.174  20.192  27.006  1.00  0.00     0.293 HD
ENDBRANCH  19  25
ENDBRANCH  10  16
ENDBRANCH   7   9
ENDBRANCH   6   7
ENDBRANCH   5   6
ENDBRANCH   4   5
ENDBRANCH   3   4
ENDBRANCH   2   3
ENDBRANCH   1   2
BRANCH   1  27
ATOM     27  O   UNL A   1      31.596  29.252  24.230  1.00  0.00    -0.376 OA
BRANCH  27  28
ATOM     28  C   UNL A   1      32.183  29.629  25.453  1.00  0.00     0.202 C 
BRANCH  28  29
ATOM     29  C   UNL A   1      33.526  29.032  25.881  1.00  0.00     0.261 C 
BRANCH  29  30
ATOM     30  O   UNL A   1      33.885  29.145  27.264  1.00  0.00    -0.460 OA
BRANCH  30  31
ATOM     31  C   UNL A   1      34.460  30.304  27.659  1.00  0.00     0.338 C 
ATOM     32  O   UNL A   1      33.921  31.399  27.736  1.00  0.00    -0.246 OA
BRANCH  31  33
ATOM     33  C   UNL A   1      35.817  29.992  28.155  1.00  0.00     0.060 A 
ATOM     34  C   UNL A   1      36.928  30.209  27.329  1.00  0.00     0.016 A 
ATOM     35  C   UNL A   1      35.988  29.482  29.444  1.00  0.00     0.016 A 
ATOM     36  C   UNL A   1      38.213  29.890  27.782  1.00  0.00     0.010 A 
ATOM     37  C   UNL A   1      37.271  29.150  29.889  1.00  0.00     0.010 A 
ATOM     38  C   UNL A   1      38.389  29.325  29.052  1.00  0.00    -0.014 A 
BRANCH  38  39
ATOM     39  C   UNL A   1      39.701  28.755  29.459  1.00  0.00     0.031 A 
ATOM     40  C   UNL A   1      40.462  29.432  30.570  1.00  0.00     0.074 A 
ATOM     41  C   UNL A   1      40.225  27.678  28.843  1.00  0.00     0.049 A 
ATOM     42  N   UNL A   1      41.667  29.196  31.019  1.00  0.00    -0.248 NA
ATOM     43  C   UNL A   1      39.768  30.530  31.263  1.00  0.00     0.031 C 
ATOM     44  C   UNL A   1      39.570  26.905  27.788  1.00  0.00     0.029 A 
ATOM     45  N   UNL A   1      41.441  27.057  29.005  1.00  0.00    -0.354 N 
ATOM     46  C   UNL A   1      41.887  30.130  32.027  1.00  0.00     0.074 A 
ATOM     47  C   UNL A   1      40.695  30.945  32.113  1.00  0.00     0.031 C 
ATOM     48  C   UNL A   1      40.398  25.924  27.388  1.00  0.00     0.029 A 
ATOM     49  C   UNL A   1      41.661  26.027  28.117  1.00  0.00     0.049 A 
ATOM     50  H   UNL A   1      42.094  27.324  29.692  1.00  0.00     0.167 HD
ATOM     51  C   UNL A   1      42.984  30.291  32.805  1.00  0.00     0.034 A 
ATOM     52  C   UNL A   1      42.766  25.282  27.897  1.00  0.00     0.034 A 
ATOM     53  C   UNL A   1      44.164  29.468  32.713  1.00  0.00     0.049 A 
ATOM     54  C   UNL A   1      44.008  25.544  28.725  1.00  0.00     0.074 A 
ATOM     55  C   UNL A   1      45.309  29.522  33.489  1.00  0.00     0.029 A 
ATOM     56  N   UNL A   1      44.363  28.459  31.782  1.00  0.00    -0.354 N 
ATOM     57  N   UNL A   1      44.189  26.408  29.699  1.00  0.00    -0.248 NA
ATOM     58  C   UNL A   1      45.192  24.725  28.428  1.00  0.00     0.031 C 
ATOM     59  C   UNL A   1      46.234  28.612  32.970  1.00  0.00     0.029 A 
ATOM     60  C   UNL A   1      45.630  27.917  31.935  1.00  0.00     0.049 A 
ATOM     61  H   UNL A   1      43.702  28.170  31.112  1.00  0.00     0.167 HD
ATOM     62  C   UNL A   1      45.490  26.198  30.157  1.00  0.00     0.074 A 
ATOM     63  C   UNL A   1      46.040  25.120  29.365  1.00  0.00     0.031 C 
ATOM     64  C   UNL A   1      46.169  26.834  31.145  1.00  0.00     0.034 A 
BRANCH  51  65
ATOM     65  C   UNL A   1      42.994  31.438  33.785  1.00  0.00     0.023 A 
ATOM     66  C   UNL A   1      42.523  31.303  35.103  1.00  0.00     0.031 A 
ATOM     67  C   UNL A   1      43.516  32.685  33.396  1.00  0.00     0.131 A 
ATOM     68  C   UNL A   1      42.548  32.407  35.969  1.00  0.00     0.055 A 
ATOM     69  C   UNL A   1      43.605  33.757  34.283  1.00  0.00     0.041 A 
ATOM     70  F   UNL A   1      43.956  32.879  32.143  1.00  0.00    -0.206 F 
ATOM     71  C   UNL A   1      43.112  33.624  35.578  1.00  0.00     0.022 A 
BRANCH  68  72
ATOM     72  S   UNL A   1      41.738  32.263  37.586  1.00  0.00     0.124 S 
ATOM     73  O   UNL A   1      40.386  31.864  37.206  1.00  0.00    -0.237 OA
ATOM     74  O   UNL A   1      42.541  31.245  38.252  1.00  0.00    -0.237 OA
ATOM     75  O   UNL A   1      41.849  33.609  38.146  1.00  0.00    -0.744 OA
ENDBRANCH  68  72
ENDBRANCH  51  65
BRANCH  52  76
ATOM     76  C   UNL A   1      42.800  24.247  26.816  1.00  0.00     0.023 A 
ATOM     77  C   UNL A   1      42.157  23.008  26.982  1.00  0.00     0.031 A 
ATOM     78  C   UNL A   1      43.574  24.432  25.656  1.00  0.00     0.131 A 
ATOM     79  C   UNL A   1      42.366  21.979  26.050  1.00  0.00     0.055 A 
ATOM     80  C   UNL A   1      43.714  23.431  24.693  1.00  0.00     0.041 A 
ATOM     81  F   UNL A   1      44.222  25.589  25.448  1.00  0.00    -0.206 F 
ATOM     82  C   UNL A   1      43.126  22.187  24.898  1.00  0.00     0.022 A 
BRANCH  79  83
ATOM     83  S   UNL A   1      41.755  20.317  26.446  1.00  0.00     0.124 S 
ATOM     84  O   UNL A   1      42.305  19.531  25.346  1.00  0.00    -0.237 OA
ATOM     85  O   UNL A   1      42.346  20.082  27.760  1.00  0.00    -0.237 OA
ATOM     86  O   UNL A   1      40.303  20.475  26.436  1.00  0.00    -0.744 OA
ENDBRANCH  79  83
ENDBRANCH  52  76
BRANCH  64  87
ATOM     87  C   UNL A   1      47.555  26.330  31.478  1.00  0.00     0.023 A 
ATOM     88  C   UNL A   1      47.790  25.415  32.517  1.00  0.00     0.031 A 
ATOM     89  C   UNL A   1      48.663  26.784  30.737  1.00  0.00     0.131 A 
ATOM     90  C   UNL A   1      49.104  25.027  32.826  1.00  0.00     0.055 A 
ATOM     91  C   UNL A   1      49.959  26.341  31.003  1.00  0.00     0.041 A 
ATOM     92  F   UNL A   1      48.502  27.663  29.735  1.00  0.00    -0.206 F 
ATOM     93  C   UNL A   1      50.187  25.470  32.063  1.00  0.00     0.022 A 
BRANCH  90  94
ATOM     94  S   UNL A   1      49.392  24.019  34.306  1.00  0.00     0.124 S 
ATOM     95  O   UNL A   1      50.518  23.187  33.893  1.00  0.00    -0.237 OA
ATOM     96  O   UNL A   1      49.681  25.027  35.320  1.00  0.00    -0.237 OA
ATOM     97  O   UNL A   1      48.128  23.305  34.486  1.00  0.00    -0.744 OA
ENDBRANCH  90  94
ENDBRANCH  64  87
ENDBRANCH  38  39
ENDBRANCH  31  33
ENDBRANCH  30  31
ENDBRANCH  29  30
ENDBRANCH  28  29
ENDBRANCH  27  28
ENDBRANCH   1  27
TORSDOF 23
ENDMDL
MODEL 2
REMARK VINA RESULT:     -10.1      3.480      8.735
REMARK SMILES COc1ccc(Br)c([C@H]2[NH2+][C@H](C(=O)OCCOCCOCCOC(=O)c3ccc(-c4c5nc(c(-c6cc(S(=O)(=O)[O-])ccc6F)c6ccc([nH]6)c(-c6cc(S(=O)(=O)[O-])ccc6F)c6nc(c(-c7cc(S(=O)(=O)[O-])ccc7F)c7ccc4[nH]7)C=C6)C=C5)cc3)CS2)c1O
REMARK SMILES IDX 19 1 18 2 17 3 16 4 15 5 14 6 12 7 13 8 11 9 9 10 10 11
REMARK SMILES IDX 90 12 89 15 8 16 3 17 4 18 91 19 5 20 6 21 7 22 2 23 1 24
REMARK SMILES IDX 92 25 20 27 21 28 22 29 23 30 24 31 25 32 26 33 27 34 88 35
REMARK SMILES IDX 28 36 87 37 29 38 30 39 31 40 81 41 32 42 86 43 80 44 82 45
REMARK SMILES IDX 33 46 85 47 79 48 78 49 34 51 66 52 46 53 65 54 47 55 50 56
REMARK SMILES IDX 64 57 83 58 48 59 49 60 63 62 84 63 51 64 35 65 36 66 44 67
REMARK SMILES IDX 37 68 43 69 45 70 42 71 38 72 39 73 40 74 41 75 67 76 68 77
REMARK SMILES IDX 76 78 69 79 75 80 77 81 74 82 70 83 71 84 72 85 73 86 52 87
REMARK SMILES IDX 53 88 61 89 54 90 60 91 62 92 59 93 55 94 56 95 57 96 58 97
REMARK H PARENT 10 13 10 14 92 26 82 50 50 61
REMARK Flexibility Score: inf
ROOT
ATOM      1  C   UNL A   1      31.813  30.192  26.668  1.00  0.00     0.188 C 
ENDROOT
BRANCH   1   2
ATOM      2  C   UNL A   1      31.709  28.761  26.110  1.00  0.00     0.188 C 
BRANCH   2   3
ATOM      3  O   UNL A   1      31.822  28.527  24.707  1.00  0.00    -0.376 OA
BRANCH   3   4
ATOM      4  C   UNL A   1      30.865  29.083  23.820  1.00  0.00     0.202 C 
BRANCH   4   5
ATOM      5  C   UNL A   1      30.118  28.140  22.861  1.00  0.00     0.261 C 
BRANCH   5   6
ATOM      6  O   UNL A   1      29.778  26.830  23.373  1.00  0.00    -0.459 OA
BRANCH   6   7
ATOM      7  C   UNL A   1      30.690  25.852  23.143  1.00  0.00     0.365 C 
ATOM      8  O   UNL A   1      31.510  25.897  22.226  1.00  0.00    -0.245 OA
BRANCH   7   9
ATOM      9  C   UNL A   1      30.642  24.622  24.066  1.00  0.00     0.304 C 
ATOM     10  C   UNL A   1      32.778  23.515  24.422  1.00  0.00     0.279 C 
ATOM     11  N   UNL A   1      31.464  23.415  23.757  1.00  0.00    -0.319 N 
ATOM     12  S   UNL A   1      32.620  24.652  25.829  1.00  0.00    -0.087 SA
ATOM     13  H   UNL A   1      30.980  22.582  24.089  1.00  0.00     0.348 HD
ATOM     14  H   UNL A   1      31.604  23.355  22.749  1.00  0.00     0.348 HD
ATOM     15  C   UNL A   1      30.889  25.054  25.500  1.00  0.00     0.153 C 
BRANCH  10  16
ATOM     16  C   UNL A   1      33.403  22.129  24.679  1.00  0.00     0.080 A 
ATOM     17  C   UNL A   1      33.313  19.736  25.300  1.00  0.00     0.161 A 
ATOM     18  C   UNL A   1      34.663  19.560  25.053  1.00  0.00     0.051 A 
ATOM     19  C   UNL A   1      32.689  20.988  25.101  1.00  0.00     0.169 A 
ATOM     20  C   UNL A   1      35.400  20.651  24.625  1.00  0.00     0.020 A 
ATOM     21  C   UNL A   1      34.788  21.912  24.474  1.00  0.00     0.032 A 
ATOM     22  Br  UNL A   1      36.010  23.301  24.087  1.00  0.00    -0.050 Br
BRANCH  17  23
ATOM     23  O   UNL A   1      32.623  18.697  25.876  1.00  0.00    -0.493 OA
ATOM     24  C   UNL A   1      32.530  17.576  24.994  1.00  0.00     0.278 C 
ENDBRANCH  17  23
BRANCH  19  25
ATOM     25  O   UNL A   1      31.350  21.055  25.378  1.00  0.00    -0.504 OA
ATOM     26  H   UNL A   1      30.788  20.343  25.144  1.00  0.00     0.293 HD
ENDBRANCH  19  25
ENDBRANCH  10  16
ENDBRANCH   7   9
ENDBRANCH   6   7
ENDBRANCH   5   6
ENDBRANCH   4   5
ENDBRANCH   3   4
ENDBRANCH   2   3
ENDBRANCH   1   2
BRANCH   1  27
ATOM     27  O   UNL A   1      33.097  30.754  26.518  1.00  0.00    -0.376 OA
BRANCH  27  28
ATOM     28  C   UNL A   1      33.495  31.828  27.335  1.00  0.00     0.202 C 
BRANCH  28  29
ATOM     29  C   UNL A   1      32.526  32.979  27.623  1.00  0.00     0.261 C 
BRANCH  29  30
ATOM     30  O   UNL A   1      33.095  34.273  27.861  1.00  0.00    -0.460 OA
BRANCH  30  31
ATOM     31  C   UNL A   1      33.279  34.637  29.151  1.00  0.00     0.338 C 
ATOM     32  O   UNL A   1      32.528  35.320  29.833  1.00  0.00    -0.246 OA
BRANCH  31  33
ATOM     33  C   UNL A   1      34.467  33.919  29.660  1.00  0.00     0.060 A 
ATOM     34  C   UNL A   1      34.315  32.934  30.646  1.00  0.00     0.016 A 
ATOM     35  C   UNL A   1      35.734  34.223  29.159  1.00  0.00     0.016 A 
ATOM     36  C   UNL A   1      35.437  32.269  31.153  1.00  0.00     0.010 A 
ATOM     37  C   UNL A   1      36.855  33.569  29.679  1.00  0.00     0.010 A 
ATOM     38  C   UNL A   1      36.718  32.608  30.698  1.00  0.00    -0.014 A 
BRANCH  38  39
ATOM     39  C   UNL A   1      37.934  32.098  31.388  1.00  0.00     0.031 A 
ATOM     40  C   UNL A   1      38.724  30.999  30.725  1.00  0.00     0.074 A 
ATOM     41  C   UNL A   1      38.317  32.575  32.586  1.00  0.00     0.049 A 
ATOM     42  N   UNL A   1      39.742  30.315  31.179  1.00  0.00    -0.248 NA
ATOM     43  C   UNL A   1      38.301  30.616  29.368  1.00  0.00     0.031 C 
ATOM     44  C   UNL A   1      37.668  33.668  33.310  1.00  0.00     0.029 A 
ATOM     45  N   UNL A   1      39.341  32.187  33.419  1.00  0.00    -0.354 N 
ATOM     46  C   UNL A   1      40.065  29.404  30.178  1.00  0.00     0.074 A 
ATOM     47  C   UNL A   1      39.125  29.614  29.098  1.00  0.00     0.031 C 
ATOM     48  C   UNL A   1      38.299  33.851  34.483  1.00  0.00     0.029 A 
ATOM     49  C   UNL A   1      39.364  32.859  34.622  1.00  0.00     0.049 A 
ATOM     50  H   UNL A   1      39.997  31.493  33.178  1.00  0.00     0.167 HD
ATOM     51  C   UNL A   1      41.053  28.478  30.164  1.00  0.00     0.034 A 
ATOM     52  C   UNL A   1      40.130  32.667  35.717  1.00  0.00     0.034 A 
ATOM     53  C   UNL A   1      41.988  28.282  31.245  1.00  0.00     0.049 A 
ATOM     54  C   UNL A   1      41.171  31.565  35.704  1.00  0.00     0.074 A 
ATOM     55  C   UNL A   1      43.054  27.402  31.307  1.00  0.00     0.029 A 
ATOM     56  N   UNL A   1      41.958  28.957  32.457  1.00  0.00    -0.354 N 
ATOM     57  N   UNL A   1      41.488  30.735  34.736  1.00  0.00    -0.248 NA
ATOM     58  C   UNL A   1      41.960  31.379  36.930  1.00  0.00     0.031 C 
ATOM     59  C   UNL A   1      43.611  27.477  32.586  1.00  0.00     0.029 A 
ATOM     60  C   UNL A   1      42.959  28.477  33.289  1.00  0.00     0.049 A 
ATOM     61  H   UNL A   1      41.322  29.670  32.692  1.00  0.00     0.167 HD
ATOM     62  C   UNL A   1      42.545  29.966  35.225  1.00  0.00     0.074 A 
ATOM     63  C   UNL A   1      42.818  30.440  36.563  1.00  0.00     0.031 C 
ATOM     64  C   UNL A   1      43.231  28.962  34.622  1.00  0.00     0.034 A 
BRANCH  51  65
ATOM     65  C   UNL A   1      41.145  27.558  28.972  1.00  0.00     0.023 A 
ATOM     66  C   UNL A   1      42.123  27.716  27.975  1.00  0.00     0.031 A 
ATOM     67  C   UNL A   1      40.248  26.480  28.852  1.00  0.00     0.131 A 
ATOM     68  C   UNL A   1      42.155  26.835  26.883  1.00  0.00     0.055 A 
ATOM     69  C   UNL A   1      40.331  25.565  27.802  1.00  0.00     0.041 A 
ATOM     70  F   UNL A   1      39.277  26.296  29.760  1.00  0.00    -0.206 F 
ATOM     71  C   UNL A   1      41.284  25.744  26.805  1.00  0.00     0.022 A 
BRANCH  68  72
ATOM     72  S   UNL A   1      43.284  27.192  25.509  1.00  0.00     0.124 S 
ATOM     73  O   UNL A   1      42.434  27.986  24.626  1.00  0.00    -0.237 OA
ATOM     74  O   UNL A   1      44.367  27.911  26.169  1.00  0.00    -0.237 OA
ATOM     75  O   UNL A   1      43.635  25.867  25.000  1.00  0.00    -0.744 OA
ENDBRANCH  68  72
ENDBRANCH  51  65
BRANCH  52  76
ATOM     76  C   UNL A   1      39.931  33.484  36.955  1.00  0.00     0.023 A 
ATOM     77  C   UNL A   1      40.723  34.617  37.209  1.00  0.00     0.031 A 
ATOM     78  C   UNL A   1      39.032  33.078  37.957  1.00  0.00     0.131 A 
ATOM     79  C   UNL A   1      40.662  35.250  38.460  1.00  0.00     0.055 A 
ATOM     80  C   UNL A   1      38.919  33.760  39.170  1.00  0.00     0.041 A 
ATOM     81  F   UNL A   1      38.257  31.997  37.779  1.00  0.00    -0.206 F 
ATOM     82  C   UNL A   1      39.753  34.840  39.437  1.00  0.00     0.022 A 
BRANCH  79  83
ATOM     83  S   UNL A   1      41.898  36.521  38.847  1.00  0.00     0.124 S 
ATOM     84  O   UNL A   1      42.583  36.666  37.567  1.00  0.00    -0.237 OA
ATOM     85  O   UNL A   1      41.060  37.644  39.258  1.00  0.00    -0.237 OA
ATOM     86  O   UNL A   1      42.690  35.913  39.914  1.00  0.00    -0.744 OA
ENDBRANCH  79  83
ENDBRANCH  52  76
BRANCH  64  87
ATOM     87  C   UNL A   1      44.395  28.359  35.376  1.00  0.00     0.023 A 
ATOM     88  C   UNL A   1      44.262  27.197  36.154  1.00  0.00     0.031 A 
ATOM     89  C   UNL A   1      45.663  28.968  35.313  1.00  0.00     0.131 A 
ATOM     90  C   UNL A   1      45.359  26.713  36.884  1.00  0.00     0.055 A 
ATOM     91  C   UNL A   1      46.768  28.442  35.985  1.00  0.00     0.041 A 
ATOM     92  F   UNL A   1      45.852  30.083  34.589  1.00  0.00    -0.206 F 
ATOM     93  C   UNL A   1      46.615  27.317  36.789  1.00  0.00     0.022 A 
BRANCH  90  94
ATOM     94  S   UNL A   1      45.099  25.344  38.046  1.00  0.00     0.124 S 
ATOM     95  O   UNL A   1      43.771  24.872  37.668  1.00  0.00    -0.237 OA
ATOM     96  O   UNL A   1      46.209  24.451  37.728  1.00  0.00    -0.237 OA
ATOM     97  O   UNL A   1      45.178  25.987  39.357  1.00  0.00    -0.744 OA
ENDBRANCH  90  94
ENDBRANCH  64  87
ENDBRANCH  38  39
ENDBRANCH  31  33
ENDBRANCH  30  31
ENDBRANCH  29  30
ENDBRANCH  28  29
ENDBRANCH  27  28
ENDBRANCH   1  27
TORSDOF 23
ENDMDL
MODEL 3
REMARK VINA RESULT:     -10.0      1.726      2.049
REMARK SMILES COc1ccc(Br)c([C@H]2[NH2+][C@H](C(=O)OCCOCCOCCOC(=O)c3ccc(-c4c5nc(c(-c6cc(S(=O)(=O)[O-])ccc6F)c6ccc([nH]6)c(-c6cc(S(=O)(=O)[O-])ccc6F)c6nc(c(-c7cc(S(=O)(=O)[O-])ccc7F)c7ccc4[nH]7)C=C6)C=C5)cc3)CS2)c1O
REMARK SMILES IDX 19 1 18 2 17 3 16 4 15 5 14 6 12 7 13 8 11 9 9 10 10 11
REMARK SMILES IDX 90 12 89 15 8 16 3 17 4 18 91 19 5 20 6 21 7 22 2 23 1 24
REMARK SMILES IDX 92 25 20 27 21 28 22 29 23 30 24 31 25 32 26 33 27 34 88 35
REMARK SMILES IDX 28 36 87 37 29 38 30 39 31 40 81 41 32 42 86 43 80 44 82 45
REMARK SMILES IDX 33 46 85 47 79 48 78 49 34 51 66 52 46 53 65 54 47 55 50 56
REMARK SMILES IDX 64 57 83 58 48 59 49 60 63 62 84 63 51 64 35 65 36 66 44 67
REMARK SMILES IDX 37 68 43 69 45 70 42 71 38 72 39 73 40 74 41 75 67 76 68 77
REMARK SMILES IDX 76 78 69 79 75 80 77 81 74 82 70 83 71 84 72 85 73 86 52 87
REMARK SMILES IDX 53 88 61 89 54 90 60 91 62 92 59 93 55 94 56 95 57 96 58 97
REMARK H PARENT 10 13 10 14 92 26 82 50 50 61
REMARK Flexibility Score: inf
ROOT
ATOM      1  C   UNL A   1      31.677  29.229  24.175  1.00  0.00     0.188 C 
ENDROOT
BRANCH   1   2
ATOM      2  C   UNL A   1      30.694  28.238  23.523  1.00  0.00     0.188 C 
BRANCH   2   3
ATOM      3  O   UNL A   1      30.692  26.867  23.914  1.00  0.00    -0.376 OA
BRANCH   3   4
ATOM      4  C   UNL A   1      30.453  26.519  25.269  1.00  0.00     0.202 C 
BRANCH   4   5
ATOM      5  C   UNL A   1      31.632  26.556  26.255  1.00  0.00     0.261 C 
BRANCH   5   6
ATOM      6  O   UNL A   1      32.267  25.291  26.556  1.00  0.00    -0.459 OA
BRANCH   6   7
ATOM      7  C   UNL A   1      31.427  24.257  26.817  1.00  0.00     0.365 C 
ATOM      8  O   UNL A   1      30.204  24.381  26.875  1.00  0.00    -0.245 OA
BRANCH   7   9
ATOM      9  C   UNL A   1      32.071  22.888  27.093  1.00  0.00     0.304 C 
ATOM     10  C   UNL A   1      32.502  21.534  25.120  1.00  0.00     0.279 C 
ATOM     11  N   UNL A   1      31.649  21.686  26.315  1.00  0.00    -0.319 N 
ATOM     12  S   UNL A   1      34.069  22.399  25.423  1.00  0.00    -0.087 SA
ATOM     13  H   UNL A   1      31.736  20.856  26.900  1.00  0.00     0.348 HD
ATOM     14  H   UNL A   1      30.680  21.801  26.020  1.00  0.00     0.348 HD
ATOM     15  C   UNL A   1      33.583  23.020  27.050  1.00  0.00     0.153 C 
BRANCH  10  16
ATOM     16  C   UNL A   1      32.566  20.071  24.637  1.00  0.00     0.080 A 
ATOM     17  C   UNL A   1      32.877  17.639  24.965  1.00  0.00     0.161 A 
ATOM     18  C   UNL A   1      32.580  17.362  23.641  1.00  0.00     0.051 A 
ATOM     19  C   UNL A   1      32.854  18.962  25.460  1.00  0.00     0.169 A 
ATOM     20  C   UNL A   1      32.279  18.421  22.802  1.00  0.00     0.020 A 
ATOM     21  C   UNL A   1      32.304  19.745  23.283  1.00  0.00     0.032 A 
ATOM     22  Br  UNL A   1      32.072  21.043  21.929  1.00  0.00    -0.050 Br
BRANCH  17  23
ATOM     23  O   UNL A   1      33.330  16.607  25.752  1.00  0.00    -0.493 OA
ATOM     24  C   UNL A   1      34.466  15.964  25.171  1.00  0.00     0.278 C 
ENDBRANCH  17  23
BRANCH  19  25
ATOM     25  O   UNL A   1      33.167  19.126  26.782  1.00  0.00    -0.504 OA
ATOM     26  H   UNL A   1      33.919  18.698  27.141  1.00  0.00     0.293 HD
ENDBRANCH  19  25
ENDBRANCH  10  16
ENDBRANCH   7   9
ENDBRANCH   6   7
ENDBRANCH   5   6
ENDBRANCH   4   5
ENDBRANCH   3   4
ENDBRANCH   2   3
ENDBRANCH   1   2
BRANCH   1  27
ATOM     27  O   UNL A   1      31.076  30.036  25.162  1.00  0.00    -0.376 OA
BRANCH  27  28
ATOM     28  C   UNL A   1      31.853  30.556  26.214  1.00  0.00     0.202 C 
BRANCH  28  29
ATOM     29  C   UNL A   1      33.274  30.039  26.453  1.00  0.00     0.261 C 
BRANCH  29  30
ATOM     30  O   UNL A   1      33.861  30.297  27.735  1.00  0.00    -0.460 OA
BRANCH  30  31
ATOM     31  C   UNL A   1      34.746  31.316  27.814  1.00  0.00     0.338 C 
ATOM     32  O   UNL A   1      34.540  32.488  27.532  1.00  0.00    -0.246 OA
BRANCH  31  33
ATOM     33  C   UNL A   1      35.969  30.807  28.471  1.00  0.00     0.060 A 
ATOM     34  C   UNL A   1      37.208  31.399  28.191  1.00  0.00     0.016 A 
ATOM     35  C   UNL A   1      35.885  29.739  29.367  1.00  0.00     0.016 A 
ATOM     36  C   UNL A   1      38.373  30.904  28.788  1.00  0.00     0.010 A 
ATOM     37  C   UNL A   1      37.053  29.237  29.950  1.00  0.00     0.010 A 
ATOM     38  C   UNL A   1      38.307  29.796  29.644  1.00  0.00    -0.014 A 
BRANCH  38  39
ATOM     39  C   UNL A   1      39.545  29.104  30.094  1.00  0.00     0.031 A 
ATOM     40  C   UNL A   1      40.235  29.608  31.335  1.00  0.00     0.074 A 
ATOM     41  C   UNL A   1      40.064  28.070  29.406  1.00  0.00     0.049 A 
ATOM     42  N   UNL A   1      41.379  29.250  31.855  1.00  0.00    -0.248 NA
ATOM     43  C   UNL A   1      39.539  30.666  32.086  1.00  0.00     0.031 C 
ATOM     44  C   UNL A   1      39.469  27.459  28.219  1.00  0.00     0.029 A 
ATOM     45  N   UNL A   1      41.226  27.360  29.599  1.00  0.00    -0.354 N 
ATOM     46  C   UNL A   1      41.555  30.053  32.978  1.00  0.00     0.074 A 
ATOM     47  C   UNL A   1      40.406  30.928  33.054  1.00  0.00     0.031 C 
ATOM     48  C   UNL A   1      40.277  26.477  27.781  1.00  0.00     0.029 A 
ATOM     49  C   UNL A   1      41.472  26.420  28.623  1.00  0.00     0.049 A 
ATOM     50  H   UNL A   1      41.827  27.510  30.365  1.00  0.00     0.167 HD
ATOM     51  C   UNL A   1      42.584  30.060  33.860  1.00  0.00     0.034 A 
ATOM     52  C   UNL A   1      42.551  25.636  28.414  1.00  0.00     0.034 A 
ATOM     53  C   UNL A   1      43.722  29.179  33.776  1.00  0.00     0.049 A 
ATOM     54  C   UNL A   1      43.724  25.728  29.370  1.00  0.00     0.074 A 
ATOM     55  C   UNL A   1      44.792  29.077  34.647  1.00  0.00     0.029 A 
ATOM     56  N   UNL A   1      43.951  28.266  32.756  1.00  0.00    -0.354 N 
ATOM     57  N   UNL A   1      43.860  26.468  30.447  1.00  0.00    -0.248 NA
ATOM     58  C   UNL A   1      44.886  24.873  29.083  1.00  0.00     0.031 C 
ATOM     59  C   UNL A   1      45.711  28.172  34.109  1.00  0.00     0.029 A 
ATOM     60  C   UNL A   1      45.168  27.632  32.954  1.00  0.00     0.049 A 
ATOM     61  H   UNL A   1      43.340  28.094  32.004  1.00  0.00     0.167 HD
ATOM     62  C   UNL A   1      45.101  26.128  30.987  1.00  0.00     0.074 A 
ATOM     63  C   UNL A   1      45.664  25.111  30.128  1.00  0.00     0.031 C 
ATOM     64  C   UNL A   1      45.719  26.609  32.096  1.00  0.00     0.034 A 
BRANCH  51  65
ATOM     65  C   UNL A   1      42.564  31.091  34.961  1.00  0.00     0.023 A 
ATOM     66  C   UNL A   1      42.993  32.415  34.758  1.00  0.00     0.031 A 
ATOM     67  C   UNL A   1      42.075  30.744  36.234  1.00  0.00     0.131 A 
ATOM     68  C   UNL A   1      42.960  33.329  35.822  1.00  0.00     0.055 A 
ATOM     69  C   UNL A   1      41.977  31.677  37.266  1.00  0.00     0.041 A 
ATOM     70  F   UNL A   1      41.676  29.489  36.492  1.00  0.00    -0.206 F 
ATOM     71  C   UNL A   1      42.429  32.978  37.066  1.00  0.00     0.022 A 
BRANCH  68  72
ATOM     72  S   UNL A   1      43.719  34.961  35.590  1.00  0.00     0.124 S 
ATOM     73  O   UNL A   1      45.095  34.604  35.256  1.00  0.00    -0.237 OA
ATOM     74  O   UNL A   1      42.925  35.528  34.507  1.00  0.00    -0.237 OA
ATOM     75  O   UNL A   1      43.548  35.606  36.891  1.00  0.00    -0.744 OA
ENDBRANCH  68  72
ENDBRANCH  51  65
BRANCH  52  76
ATOM     76  C   UNL A   1      42.629  24.724  27.230  1.00  0.00     0.023 A 
ATOM     77  C   UNL A   1      42.047  23.445  27.263  1.00  0.00     0.031 A 
ATOM     78  C   UNL A   1      43.387  25.068  26.097  1.00  0.00     0.131 A 
ATOM     79  C   UNL A   1      42.300  22.531  26.227  1.00  0.00     0.055 A 
ATOM     80  C   UNL A   1      43.571  24.182  25.033  1.00  0.00     0.041 A 
ATOM     81  F   UNL A   1      43.979  26.269  26.012  1.00  0.00    -0.206 F 
ATOM     82  C   UNL A   1      43.044  22.896  25.104  1.00  0.00     0.022 A 
BRANCH  79  83
ATOM     83  S   UNL A   1      41.770  20.809  26.445  1.00  0.00     0.124 S 
ATOM     84  O   UNL A   1      40.340  20.904  26.172  1.00  0.00    -0.237 OA
ATOM     85  O   UNL A   1      42.572  20.117  25.440  1.00  0.00    -0.237 OA
ATOM     86  O   UNL A   1      42.123  20.517  27.832  1.00  0.00    -0.744 OA
ENDBRANCH  79  83
ENDBRANCH  52  76
BRANCH  64  87
ATOM     87  C   UNL A   1      47.041  25.987  32.486  1.00  0.00     0.023 A 
ATOM     88  C   UNL A   1      48.254  26.370  31.891  1.00  0.00     0.031 A 
ATOM     89  C   UNL A   1      47.080  24.986  33.475  1.00  0.00     0.131 A 
ATOM     90  C   UNL A   1      49.445  25.717  32.245  1.00  0.00     0.055 A 
ATOM     91  C   UNL A   1      48.276  24.389  33.874  1.00  0.00     0.041 A 
ATOM     92  F   UNL A   1      45.952  24.575  34.078  1.00  0.00    -0.206 F 
ATOM     93  C   UNL A   1      49.466  24.743  33.246  1.00  0.00     0.022 A 
BRANCH  90  94
ATOM     94  S   UNL A   1      50.953  26.081  31.305  1.00  0.00     0.124 S 
ATOM     95  O   UNL A   1      50.468  26.059  29.929  1.00  0.00    -0.237 OA
ATOM     96  O   UNL A   1      51.338  27.389  31.826  1.00  0.00    -0.237 OA
ATOM     97  O   UNL A   1      51.853  24.984  31.662  1.00  0.00    -0.744 OA
ENDBRANCH  90  94
ENDBRANCH  64  87
ENDBRANCH  38  39
ENDBRANCH  31  33
ENDBRANCH  30  31
ENDBRANCH  29  30
ENDBRANCH  28  29
ENDBRANCH  27  28
ENDBRANCH   1  27
TORSDOF 23
ENDMDL
