MODEL 1
REMARK VINA RESULT:     -10.4      0.000      0.000
REMARK SMILES Cc1ccc(-c2ncccc2C(=O)OCCOCCOCCOC(=O)c2ccc(-c3c4nc(c(-c5cc(S(=O)(=O)[O-])ccc5F)c5ccc([nH]5)c(-c5cc(S(=O)(=O)[O-])ccc5F)c5nc(c(-c6cc(S(=O)(=O)[O-])ccc6F)c6ccc3[nH]6)C=C5)C=C4)cc2)c(Cl)c1
REMARK SMILES IDX 19 1 18 2 17 3 16 4 15 5 14 6 12 7 13 8 11 9 6 10 7 11 8 12
REMARK SMILES IDX 10 13 9 14 5 15 1 16 2 17 3 18 91 19 4 20 89 21 90 22 20 23
REMARK SMILES IDX 21 24 22 25 23 26 24 27 25 28 26 29 27 30 88 31 28 32 87 33
REMARK SMILES IDX 29 34 30 35 31 36 81 37 32 38 86 39 80 40 82 41 33 42 85 43
REMARK SMILES IDX 79 44 78 45 34 47 66 48 46 49 65 50 47 51 50 52 64 53 83 54
REMARK SMILES IDX 48 55 49 56 63 58 84 59 51 60 35 61 36 62 44 63 37 64 43 65
REMARK SMILES IDX 45 66 42 67 38 68 39 69 40 70 41 71 67 72 68 73 76 74 69 75
REMARK SMILES IDX 75 76 77 77 74 78 70 79 71 80 72 81 73 82 52 83 53 84 61 85
REMARK SMILES IDX 54 86 60 87 62 88 59 89 55 90 56 91 57 92 58 93
REMARK H PARENT 82 46 50 57
REMARK Flexibility Score: inf
ROOT
ATOM      1  C   UNL A   1      31.002  29.251  24.150  1.00  0.00     0.188 C 
ENDROOT
BRANCH   1   2
ATOM      2  C   UNL A   1      31.449  28.570  22.842  1.00  0.00     0.188 C 
BRANCH   2   3
ATOM      3  O   UNL A   1      32.775  28.909  22.468  1.00  0.00    -0.376 OA
BRANCH   3   4
ATOM      4  C   UNL A   1      33.692  27.830  22.444  1.00  0.00     0.202 C 
BRANCH   4   5
ATOM      5  C   UNL A   1      33.112  26.467  22.038  1.00  0.00     0.261 C 
BRANCH   5   6
ATOM      6  O   UNL A   1      34.046  25.375  21.967  1.00  0.00    -0.460 OA
BRANCH   6   7
ATOM      7  C   UNL A   1      33.709  24.194  22.547  1.00  0.00     0.340 C 
ATOM      8  O   UNL A   1      32.767  23.495  22.232  1.00  0.00    -0.246 OA
BRANCH   7   9
ATOM      9  C   UNL A   1      34.718  23.881  23.596  1.00  0.00     0.086 A 
ATOM     10  C   UNL A   1      34.453  24.081  24.957  1.00  0.00     0.086 A 
ATOM     11  N   UNL A   1      35.350  23.748  25.927  1.00  0.00    -0.255 NA
ATOM     12  C   UNL A   1      36.531  23.217  25.547  1.00  0.00     0.112 A 
ATOM     13  C   UNL A   1      35.945  23.301  23.239  1.00  0.00     0.019 A 
ATOM     14  C   UNL A   1      36.864  22.962  24.229  1.00  0.00     0.021 A 
BRANCH  10  15
ATOM     15  C   UNL A   1      33.127  24.444  25.468  1.00  0.00     0.020 A 
ATOM     16  C   UNL A   1      29.018  25.323  26.510  1.00  0.00     0.044 C 
ATOM     17  C   UNL A   1      30.444  25.018  26.152  1.00  0.00    -0.050 A 
ATOM     18  C   UNL A   1      30.828  23.715  25.842  1.00  0.00     0.004 A 
ATOM     19  C   UNL A   1      31.417  26.027  26.166  1.00  0.00     0.024 A 
ATOM     20  C   UNL A   1      32.164  23.428  25.574  1.00  0.00     0.012 A 
ATOM     21  C   UNL A   1      32.745  25.747  25.809  1.00  0.00     0.050 A 
ATOM     22  Cl  UNL A   1      33.875  27.054  25.788  1.00  0.00    -0.084 Cl
ENDBRANCH  10  15
ENDBRANCH   7   9
ENDBRANCH   6   7
ENDBRANCH   5   6
ENDBRANCH   4   5
ENDBRANCH   3   4
ENDBRANCH   2   3
ENDBRANCH   1   2
BRANCH   1  23
ATOM     23  O   UNL A   1      31.962  29.762  25.068  1.00  0.00    -0.376 OA
BRANCH  23  24
ATOM     24  C   UNL A   1      31.556  30.100  26.380  1.00  0.00     0.202 C 
BRANCH  24  25
ATOM     25  C   UNL A   1      31.752  31.542  26.875  1.00  0.00     0.261 C 
BRANCH  25  26
ATOM     26  O   UNL A   1      33.016  32.157  26.578  1.00  0.00    -0.460 OA
BRANCH  26  27
ATOM     27  C   UNL A   1      33.570  32.844  27.609  1.00  0.00     0.338 C 
ATOM     28  O   UNL A   1      33.037  33.739  28.250  1.00  0.00    -0.246 OA
BRANCH  27  29
ATOM     29  C   UNL A   1      34.883  32.261  27.974  1.00  0.00     0.060 A 
ATOM     30  C   UNL A   1      34.940  30.886  28.235  1.00  0.00     0.016 A 
ATOM     31  C   UNL A   1      36.031  33.044  28.125  1.00  0.00     0.016 A 
ATOM     32  C   UNL A   1      36.123  30.298  28.691  1.00  0.00     0.010 A 
ATOM     33  C   UNL A   1      37.216  32.455  28.599  1.00  0.00     0.010 A 
ATOM     34  C   UNL A   1      37.259  31.084  28.921  1.00  0.00    -0.014 A 
BRANCH  34  35
ATOM     35  C   UNL A   1      38.418  30.498  29.656  1.00  0.00     0.031 A 
ATOM     36  C   UNL A   1      38.677  30.934  31.068  1.00  0.00     0.074 A 
ATOM     37  C   UNL A   1      39.206  29.551  29.114  1.00  0.00     0.049 A 
ATOM     38  N   UNL A   1      39.579  30.504  31.911  1.00  0.00    -0.248 NA
ATOM     39  C   UNL A   1      37.791  31.976  31.603  1.00  0.00     0.031 C 
ATOM     40  C   UNL A   1      39.005  28.975  27.797  1.00  0.00     0.029 A 
ATOM     41  N   UNL A   1      40.323  28.906  29.583  1.00  0.00    -0.354 N 
ATOM     42  C   UNL A   1      39.349  31.196  33.092  1.00  0.00     0.074 A 
ATOM     43  C   UNL A   1      38.269  32.126  32.830  1.00  0.00     0.031 C 
ATOM     44  C   UNL A   1      39.999  28.117  27.520  1.00  0.00     0.029 A 
ATOM     45  C   UNL A   1      40.907  28.069  28.658  1.00  0.00     0.049 A 
ATOM     46  H   UNL A   1      40.675  29.033  30.495  1.00  0.00     0.167 HD
ATOM     47  C   UNL A   1      39.966  31.047  34.290  1.00  0.00     0.034 A 
ATOM     48  C   UNL A   1      42.040  27.341  28.710  1.00  0.00     0.034 A 
ATOM     49  C   UNL A   1      41.067  30.141  34.520  1.00  0.00     0.049 A 
ATOM     50  C   UNL A   1      42.794  27.283  30.010  1.00  0.00     0.074 A 
ATOM     51  C   UNL A   1      41.746  29.894  35.701  1.00  0.00     0.029 A 
ATOM     52  N   UNL A   1      41.677  29.357  33.546  1.00  0.00    -0.354 N 
ATOM     53  N   UNL A   1      42.530  27.900  31.140  1.00  0.00    -0.248 NA
ATOM     54  C   UNL A   1      43.962  26.398  30.063  1.00  0.00     0.031 C 
ATOM     55  C   UNL A   1      42.819  29.041  35.422  1.00  0.00     0.029 A 
ATOM     56  C   UNL A   1      42.754  28.670  34.088  1.00  0.00     0.049 A 
ATOM     57  H   UNL A   1      41.385  29.298  32.608  1.00  0.00     0.167 HD
ATOM     58  C   UNL A   1      43.470  27.435  32.054  1.00  0.00     0.074 A 
ATOM     59  C   UNL A   1      44.308  26.492  31.340  1.00  0.00     0.031 C 
ATOM     60  C   UNL A   1      43.607  27.746  33.369  1.00  0.00     0.034 A 
BRANCH  47  61
ATOM     61  C   UNL A   1      39.491  31.936  35.415  1.00  0.00     0.023 A 
ATOM     62  C   UNL A   1      40.052  33.207  35.643  1.00  0.00     0.031 A 
ATOM     63  C   UNL A   1      38.510  31.480  36.312  1.00  0.00     0.131 A 
ATOM     64  C   UNL A   1      39.696  33.933  36.790  1.00  0.00     0.055 A 
ATOM     65  C   UNL A   1      38.093  32.249  37.400  1.00  0.00     0.041 A 
ATOM     66  F   UNL A   1      37.958  30.266  36.161  1.00  0.00    -0.206 F 
ATOM     67  C   UNL A   1      38.701  33.474  37.655  1.00  0.00     0.022 A 
BRANCH  64  68
ATOM     68  S   UNL A   1      40.680  35.393  37.231  1.00  0.00     0.124 S 
ATOM     69  O   UNL A   1      40.746  35.275  38.686  1.00  0.00    -0.237 OA
ATOM     70  O   UNL A   1      41.927  35.163  36.512  1.00  0.00    -0.237 OA
ATOM     71  O   UNL A   1      39.873  36.509  36.743  1.00  0.00    -0.744 OA
ENDBRANCH  64  68
ENDBRANCH  47  61
BRANCH  48  72
ATOM     72  C   UNL A   1      42.532  26.631  27.493  1.00  0.00     0.023 A 
ATOM     73  C   UNL A   1      42.284  25.267  27.274  1.00  0.00     0.031 A 
ATOM     74  C   UNL A   1      43.292  27.325  26.532  1.00  0.00     0.131 A 
ATOM     75  C   UNL A   1      42.825  24.631  26.142  1.00  0.00     0.055 A 
ATOM     76  C   UNL A   1      43.789  26.699  25.388  1.00  0.00     0.041 A 
ATOM     77  F   UNL A   1      43.555  28.632  26.689  1.00  0.00    -0.206 F 
ATOM     78  C   UNL A   1      43.564  25.341  25.193  1.00  0.00     0.022 A 
BRANCH  75  79
ATOM     79  S   UNL A   1      42.608  22.838  25.958  1.00  0.00     0.124 S 
ATOM     80  O   UNL A   1      43.086  22.619  24.597  1.00  0.00    -0.237 OA
ATOM     81  O   UNL A   1      43.453  22.318  27.027  1.00  0.00    -0.237 OA
ATOM     82  O   UNL A   1      41.173  22.647  26.153  1.00  0.00    -0.744 OA
ENDBRANCH  75  79
ENDBRANCH  48  72
BRANCH  60  83
ATOM     83  C   UNL A   1      44.681  27.013  34.139  1.00  0.00     0.023 A 
ATOM     84  C   UNL A   1      44.470  25.730  34.677  1.00  0.00     0.031 A 
ATOM     85  C   UNL A   1      45.931  27.621  34.357  1.00  0.00     0.131 A 
ATOM     86  C   UNL A   1      45.467  25.129  35.460  1.00  0.00     0.055 A 
ATOM     87  C   UNL A   1      46.945  26.985  35.074  1.00  0.00     0.041 A 
ATOM     88  F   UNL A   1      46.188  28.848  33.876  1.00  0.00    -0.206 F 
ATOM     89  C   UNL A   1      46.711  25.738  35.645  1.00  0.00     0.022 A 
BRANCH  86  90
ATOM     90  S   UNL A   1      45.076  23.590  36.337  1.00  0.00     0.124 S 
ATOM     91  O   UNL A   1      43.894  23.125  35.617  1.00  0.00    -0.237 OA
ATOM     92  O   UNL A   1      46.291  22.804  36.144  1.00  0.00    -0.237 OA
ATOM     93  O   UNL A   1      44.833  24.029  37.709  1.00  0.00    -0.744 OA
ENDBRANCH  86  90
ENDBRANCH  60  83
ENDBRANCH  34  35
ENDBRANCH  27  29
ENDBRANCH  26  27
ENDBRANCH  25  26
ENDBRANCH  24  25
ENDBRANCH  23  24
ENDBRANCH   1  23
TORSDOF 21
ENDMDL
MODEL 2
REMARK VINA RESULT:     -10.2      0.995      2.209
REMARK SMILES Cc1ccc(-c2ncccc2C(=O)OCCOCCOCCOC(=O)c2ccc(-c3c4nc(c(-c5cc(S(=O)(=O)[O-])ccc5F)c5ccc([nH]5)c(-c5cc(S(=O)(=O)[O-])ccc5F)c5nc(c(-c6cc(S(=O)(=O)[O-])ccc6F)c6ccc3[nH]6)C=C5)C=C4)cc2)c(Cl)c1
REMARK SMILES IDX 19 1 18 2 17 3 16 4 15 5 14 6 12 7 13 8 11 9 6 10 7 11 8 12
REMARK SMILES IDX 10 13 9 14 5 15 1 16 2 17 3 18 91 19 4 20 89 21 90 22 20 23
REMARK SMILES IDX 21 24 22 25 23 26 24 27 25 28 26 29 27 30 88 31 28 32 87 33
REMARK SMILES IDX 29 34 30 35 31 36 81 37 32 38 86 39 80 40 82 41 33 42 85 43
REMARK SMILES IDX 79 44 78 45 34 47 66 48 46 49 65 50 47 51 50 52 64 53 83 54
REMARK SMILES IDX 48 55 49 56 63 58 84 59 51 60 35 61 36 62 44 63 37 64 43 65
REMARK SMILES IDX 45 66 42 67 38 68 39 69 40 70 41 71 67 72 68 73 76 74 69 75
REMARK SMILES IDX 75 76 77 77 74 78 70 79 71 80 72 81 73 82 52 83 53 84 61 85
REMARK SMILES IDX 54 86 60 87 62 88 59 89 55 90 56 91 57 92 58 93
REMARK H PARENT 82 46 50 57
REMARK Flexibility Score: inf
ROOT
ATOM      1  C   UNL A   1      30.971  29.278  24.079  1.00  0.00     0.188 C 
ENDROOT
BRANCH   1   2
ATOM      2  C   UNL A   1      31.431  28.628  22.758  1.00  0.00     0.188 C 
BRANCH   2   3
ATOM      3  O   UNL A   1      32.769  28.954  22.420  1.00  0.00    -0.376 OA
BRANCH   3   4
ATOM      4  C   UNL A   1      33.700  27.893  22.543  1.00  0.00     0.202 C 
BRANCH   4   5
ATOM      5  C   UNL A   1      33.305  26.574  21.863  1.00  0.00     0.261 C 
BRANCH   5   6
ATOM      6  O   UNL A   1      33.941  25.385  22.365  1.00  0.00    -0.460 OA
BRANCH   6   7
ATOM      7  C   UNL A   1      33.222  24.234  22.409  1.00  0.00     0.340 C 
ATOM      8  O   UNL A   1      33.323  23.308  21.630  1.00  0.00    -0.246 OA
BRANCH   7   9
ATOM      9  C   UNL A   1      32.331  24.282  23.601  1.00  0.00     0.086 A 
ATOM     10  C   UNL A   1      32.696  23.692  24.818  1.00  0.00     0.086 A 
ATOM     11  N   UNL A   1      31.911  23.777  25.929  1.00  0.00    -0.255 NA
ATOM     12  C   UNL A   1      30.744  24.446  25.834  1.00  0.00     0.112 A 
ATOM     13  C   UNL A   1      31.123  24.994  23.546  1.00  0.00     0.019 A 
ATOM     14  C   UNL A   1      30.318  25.079  24.680  1.00  0.00     0.021 A 
BRANCH  10  15
ATOM     15  C   UNL A   1      34.031  23.140  25.069  1.00  0.00     0.020 A 
ATOM     16  C   UNL A   1      38.155  21.887  25.471  1.00  0.00     0.044 C 
ATOM     17  C   UNL A   1      36.724  22.320  25.335  1.00  0.00    -0.050 A 
ATOM     18  C   UNL A   1      36.353  23.628  25.641  1.00  0.00     0.004 A 
ATOM     19  C   UNL A   1      35.734  21.408  24.942  1.00  0.00     0.024 A 
ATOM     20  C   UNL A   1      35.014  24.006  25.574  1.00  0.00     0.012 A 
ATOM     21  C   UNL A   1      34.400  21.819  24.792  1.00  0.00     0.050 A 
ATOM     22  Cl  UNL A   1      33.248  20.655  24.243  1.00  0.00    -0.084 Cl
ENDBRANCH  10  15
ENDBRANCH   7   9
ENDBRANCH   6   7
ENDBRANCH   5   6
ENDBRANCH   4   5
ENDBRANCH   3   4
ENDBRANCH   2   3
ENDBRANCH   1   2
BRANCH   1  23
ATOM     23  O   UNL A   1      31.921  29.738  25.032  1.00  0.00    -0.376 OA
BRANCH  23  24
ATOM     24  C   UNL A   1      31.487  30.087  26.332  1.00  0.00     0.202 C 
BRANCH  24  25
ATOM     25  C   UNL A   1      31.798  31.492  26.871  1.00  0.00     0.261 C 
BRANCH  25  26
ATOM     26  O   UNL A   1      33.109  32.011  26.596  1.00  0.00    -0.460 OA
BRANCH  26  27
ATOM     27  C   UNL A   1      33.654  32.742  27.602  1.00  0.00     0.338 C 
ATOM     28  O   UNL A   1      33.109  33.652  28.210  1.00  0.00    -0.246 OA
BRANCH  27  29
ATOM     29  C   UNL A   1      34.975  32.191  27.987  1.00  0.00     0.060 A 
ATOM     30  C   UNL A   1      35.064  30.814  28.231  1.00  0.00     0.016 A 
ATOM     31  C   UNL A   1      36.097  33.003  28.173  1.00  0.00     0.016 A 
ATOM     32  C   UNL A   1      36.254  30.253  28.704  1.00  0.00     0.010 A 
ATOM     33  C   UNL A   1      37.288  32.441  28.664  1.00  0.00     0.010 A 
ATOM     34  C   UNL A   1      37.363  31.067  28.968  1.00  0.00    -0.014 A 
BRANCH  34  35
ATOM     35  C   UNL A   1      38.522  30.503  29.720  1.00  0.00     0.031 A 
ATOM     36  C   UNL A   1      38.748  30.938  31.138  1.00  0.00     0.074 A 
ATOM     37  C   UNL A   1      39.339  29.576  29.187  1.00  0.00     0.049 A 
ATOM     38  N   UNL A   1      39.645  30.524  31.994  1.00  0.00    -0.248 NA
ATOM     39  C   UNL A   1      37.831  31.959  31.663  1.00  0.00     0.031 C 
ATOM     40  C   UNL A   1      39.173  29.002  27.865  1.00  0.00     0.029 A 
ATOM     41  N   UNL A   1      40.462  28.954  29.673  1.00  0.00    -0.354 N 
ATOM     42  C   UNL A   1      39.381  31.206  33.174  1.00  0.00     0.074 A 
ATOM     43  C   UNL A   1      38.285  32.113  32.898  1.00  0.00     0.031 C 
ATOM     44  C   UNL A   1      40.189  28.167  27.601  1.00  0.00     0.029 A 
ATOM     45  C   UNL A   1      41.079  28.134  28.754  1.00  0.00     0.049 A 
ATOM     46  H   UNL A   1      40.796  29.084  30.590  1.00  0.00     0.167 HD
ATOM     47  C   UNL A   1      39.981  31.065  34.382  1.00  0.00     0.034 A 
ATOM     48  C   UNL A   1      42.227  27.430  28.822  1.00  0.00     0.034 A 
ATOM     49  C   UNL A   1      41.098  30.183  34.626  1.00  0.00     0.049 A 
ATOM     50  C   UNL A   1      42.960  27.383  30.134  1.00  0.00     0.074 A 
ATOM     51  C   UNL A   1      41.762  29.944  35.817  1.00  0.00     0.029 A 
ATOM     52  N   UNL A   1      41.740  29.416  33.659  1.00  0.00    -0.354 N 
ATOM     53  N   UNL A   1      42.665  27.989  31.261  1.00  0.00    -0.248 NA
ATOM     54  C   UNL A   1      44.147  26.523  30.202  1.00  0.00     0.031 C 
ATOM     55  C   UNL A   1      42.859  29.116  35.552  1.00  0.00     0.029 A 
ATOM     56  C   UNL A   1      42.824  28.750  34.216  1.00  0.00     0.049 A 
ATOM     57  H   UNL A   1      41.466  29.355  32.716  1.00  0.00     0.167 HD
ATOM     58  C   UNL A   1      43.599  27.540  32.189  1.00  0.00     0.074 A 
ATOM     59  C   UNL A   1      44.469  26.619  31.485  1.00  0.00     0.031 C 
ATOM     60  C   UNL A   1      43.708  27.849  33.508  1.00  0.00     0.034 A 
BRANCH  47  61
ATOM     61  C   UNL A   1      39.469  31.938  35.502  1.00  0.00     0.023 A 
ATOM     62  C   UNL A   1      39.993  33.223  35.740  1.00  0.00     0.031 A 
ATOM     63  C   UNL A   1      38.488  31.455  36.384  1.00  0.00     0.131 A 
ATOM     64  C   UNL A   1      39.603  33.936  36.884  1.00  0.00     0.055 A 
ATOM     65  C   UNL A   1      38.037  32.210  37.468  1.00  0.00     0.041 A 
ATOM     66  F   UNL A   1      37.969  30.227  36.223  1.00  0.00    -0.206 F 
ATOM     67  C   UNL A   1      38.609  33.449  37.735  1.00  0.00     0.022 A 
BRANCH  64  68
ATOM     68  S   UNL A   1      40.543  35.420  37.342  1.00  0.00     0.124 S 
ATOM     69  O   UNL A   1      40.623  35.281  38.795  1.00  0.00    -0.237 OA
ATOM     70  O   UNL A   1      41.791  35.241  36.611  1.00  0.00    -0.237 OA
ATOM     71  O   UNL A   1      39.697  36.517  36.877  1.00  0.00    -0.744 OA
ENDBRANCH  64  68
ENDBRANCH  47  61
BRANCH  48  72
ATOM     72  C   UNL A   1      42.754  26.736  27.610  1.00  0.00     0.023 A 
ATOM     73  C   UNL A   1      42.495  25.381  27.354  1.00  0.00     0.031 A 
ATOM     74  C   UNL A   1      43.561  27.437  26.692  1.00  0.00     0.131 A 
ATOM     75  C   UNL A   1      43.068  24.758  26.231  1.00  0.00     0.055 A 
ATOM     76  C   UNL A   1      44.092  26.826  25.556  1.00  0.00     0.041 A 
ATOM     77  F   UNL A   1      43.838  28.737  26.886  1.00  0.00    -0.206 F 
ATOM     78  C   UNL A   1      43.854  25.476  25.324  1.00  0.00     0.022 A 
BRANCH  75  79
ATOM     79  S   UNL A   1      42.832  22.974  26.003  1.00  0.00     0.124 S 
ATOM     80  O   UNL A   1      41.464  22.792  26.473  1.00  0.00    -0.237 OA
ATOM     81  O   UNL A   1      43.044  22.820  24.568  1.00  0.00    -0.237 OA
ATOM     82  O   UNL A   1      43.866  22.382  26.849  1.00  0.00    -0.744 OA
ENDBRANCH  75  79
ENDBRANCH  48  72
BRANCH  60  83
ATOM     83  C   UNL A   1      44.785  27.135  34.292  1.00  0.00     0.023 A 
ATOM     84  C   UNL A   1      44.596  25.843  34.814  1.00  0.00     0.031 A 
ATOM     85  C   UNL A   1      46.015  27.772  34.539  1.00  0.00     0.131 A 
ATOM     86  C   UNL A   1      45.593  25.260  35.612  1.00  0.00     0.055 A 
ATOM     87  C   UNL A   1      47.030  27.156  35.271  1.00  0.00     0.041 A 
ATOM     88  F   UNL A   1      46.250  29.010  34.074  1.00  0.00    -0.206 F 
ATOM     89  C   UNL A   1      46.816  25.899  35.827  1.00  0.00     0.022 A 
BRANCH  86  90
ATOM     90  S   UNL A   1      45.223  23.704  36.468  1.00  0.00     0.124 S 
ATOM     91  O   UNL A   1      44.046  23.234  35.744  1.00  0.00    -0.237 OA
ATOM     92  O   UNL A   1      46.447  22.936  36.262  1.00  0.00    -0.237 OA
ATOM     93  O   UNL A   1      44.978  24.121  37.847  1.00  0.00    -0.744 OA
ENDBRANCH  86  90
ENDBRANCH  60  83
ENDBRANCH  34  35
ENDBRANCH  27  29
ENDBRANCH  26  27
ENDBRANCH  25  26
ENDBRANCH  24  25
ENDBRANCH  23  24
ENDBRANCH   1  23
TORSDOF 21
ENDMDL
MODEL 3
REMARK VINA RESULT:     -10.2      4.519     10.057
REMARK SMILES Cc1ccc(-c2ncccc2C(=O)OCCOCCOCCOC(=O)c2ccc(-c3c4nc(c(-c5cc(S(=O)(=O)[O-])ccc5F)c5ccc([nH]5)c(-c5cc(S(=O)(=O)[O-])ccc5F)c5nc(c(-c6cc(S(=O)(=O)[O-])ccc6F)c6ccc3[nH]6)C=C5)C=C4)cc2)c(Cl)c1
REMARK SMILES IDX 19 1 18 2 17 3 16 4 15 5 14 6 12 7 13 8 11 9 6 10 7 11 8 12
REMARK SMILES IDX 10 13 9 14 5 15 1 16 2 17 3 18 91 19 4 20 89 21 90 22 20 23
REMARK SMILES IDX 21 24 22 25 23 26 24 27 25 28 26 29 27 30 88 31 28 32 87 33
REMARK SMILES IDX 29 34 30 35 31 36 81 37 32 38 86 39 80 40 82 41 33 42 85 43
REMARK SMILES IDX 79 44 78 45 34 47 66 48 46 49 65 50 47 51 50 52 64 53 83 54
REMARK SMILES IDX 48 55 49 56 63 58 84 59 51 60 35 61 36 62 44 63 37 64 43 65
REMARK SMILES IDX 45 66 42 67 38 68 39 69 40 70 41 71 67 72 68 73 76 74 69 75
REMARK SMILES IDX 75 76 77 77 74 78 70 79 71 80 72 81 73 82 52 83 53 84 61 85
REMARK SMILES IDX 54 86 60 87 62 88 59 89 55 90 56 91 57 92 58 93
REMARK H PARENT 82 46 50 57
REMARK Flexibility Score: inf
ROOT
ATOM      1  C   UNL A   1      34.240  22.524  24.795  1.00  0.00     0.188 C 
ENDROOT
BRANCH   1   2
ATOM      2  C   UNL A   1      34.002  23.849  24.043  1.00  0.00     0.188 C 
BRANCH   2   3
ATOM      3  O   UNL A   1      33.984  23.687  22.634  1.00  0.00    -0.376 OA
BRANCH   3   4
ATOM      4  C   UNL A   1      33.329  24.718  21.915  1.00  0.00     0.202 C 
BRANCH   4   5
ATOM      5  C   UNL A   1      33.627  26.151  22.377  1.00  0.00     0.261 C 
BRANCH   5   6
ATOM      6  O   UNL A   1      32.727  27.170  21.908  1.00  0.00    -0.460 OA
BRANCH   6   7
ATOM      7  C   UNL A   1      32.467  28.229  22.717  1.00  0.00     0.340 C 
ATOM      8  O   UNL A   1      33.297  28.875  23.324  1.00  0.00    -0.246 OA
BRANCH   7   9
ATOM      9  C   UNL A   1      31.001  28.493  22.691  1.00  0.00     0.086 A 
ATOM     10  C   UNL A   1      30.090  27.654  23.344  1.00  0.00     0.086 A 
ATOM     11  N   UNL A   1      28.753  27.916  23.370  1.00  0.00    -0.255 NA
ATOM     12  C   UNL A   1      28.308  29.020  22.734  1.00  0.00     0.112 A 
ATOM     13  C   UNL A   1      30.507  29.646  22.063  1.00  0.00     0.019 A 
ATOM     14  C   UNL A   1      29.141  29.915  22.087  1.00  0.00     0.021 A 
BRANCH  10  15
ATOM     15  C   UNL A   1      30.503  26.565  24.236  1.00  0.00     0.020 A 
ATOM     16  C   UNL A   1      31.214  23.180  26.840  1.00  0.00     0.044 C 
ATOM     17  C   UNL A   1      30.971  24.354  25.936  1.00  0.00    -0.050 A 
ATOM     18  C   UNL A   1      30.478  24.159  24.647  1.00  0.00     0.004 A 
ATOM     19  C   UNL A   1      31.276  25.656  26.355  1.00  0.00     0.024 A 
ATOM     20  C   UNL A   1      30.316  25.246  23.791  1.00  0.00     0.012 A 
ATOM     21  C   UNL A   1      31.027  26.756  25.519  1.00  0.00     0.050 A 
ATOM     22  Cl  UNL A   1      31.369  28.336  26.130  1.00  0.00    -0.084 Cl
ENDBRANCH  10  15
ENDBRANCH   7   9
ENDBRANCH   6   7
ENDBRANCH   5   6
ENDBRANCH   4   5
ENDBRANCH   3   4
ENDBRANCH   2   3
ENDBRANCH   1   2
BRANCH   1  23
ATOM     23  O   UNL A   1      35.177  21.571  24.308  1.00  0.00    -0.376 OA
BRANCH  23  24
ATOM     24  C   UNL A   1      36.561  21.837  24.422  1.00  0.00     0.202 C 
BRANCH  24  25
ATOM     25  C   UNL A   1      37.464  20.810  25.122  1.00  0.00     0.261 C 
BRANCH  25  26
ATOM     26  O   UNL A   1      38.879  21.052  25.065  1.00  0.00    -0.460 OA
BRANCH  26  27
ATOM     27  C   UNL A   1      39.541  20.835  26.230  1.00  0.00     0.338 C 
ATOM     28  O   UNL A   1      39.897  19.750  26.667  1.00  0.00    -0.246 OA
BRANCH  27  29
ATOM     29  C   UNL A   1      39.923  22.124  26.856  1.00  0.00     0.060 A 
ATOM     30  C   UNL A   1      39.363  23.297  26.334  1.00  0.00     0.016 A 
ATOM     31  C   UNL A   1      40.859  22.202  27.890  1.00  0.00     0.016 A 
ATOM     32  C   UNL A   1      39.768  24.548  26.807  1.00  0.00     0.010 A 
ATOM     33  C   UNL A   1      41.277  23.461  28.355  1.00  0.00     0.010 A 
ATOM     34  C   UNL A   1      40.761  24.644  27.790  1.00  0.00    -0.014 A 
BRANCH  34  35
ATOM     35  C   UNL A   1      41.371  25.973  28.087  1.00  0.00     0.031 A 
ATOM     36  C   UNL A   1      42.780  26.241  27.647  1.00  0.00     0.074 A 
ATOM     37  C   UNL A   1      40.679  26.959  28.689  1.00  0.00     0.049 A 
ATOM     38  N   UNL A   1      43.475  27.344  27.738  1.00  0.00    -0.248 NA
ATOM     39  C   UNL A   1      43.487  25.125  27.005  1.00  0.00     0.031 C 
ATOM     40  C   UNL A   1      39.284  26.862  29.077  1.00  0.00     0.029 A 
ATOM     41  N   UNL A   1      41.039  28.224  29.083  1.00  0.00    -0.354 N 
ATOM     42  C   UNL A   1      44.694  27.069  27.131  1.00  0.00     0.074 A 
ATOM     43  C   UNL A   1      44.664  25.674  26.744  1.00  0.00     0.031 C 
ATOM     44  C   UNL A   1      38.912  27.980  29.719  1.00  0.00     0.029 A 
ATOM     45  C   UNL A   1      40.050  28.889  29.774  1.00  0.00     0.049 A 
ATOM     46  H   UNL A   1      41.921  28.618  28.891  1.00  0.00     0.167 HD
ATOM     47  C   UNL A   1      45.728  27.914  26.897  1.00  0.00     0.034 A 
ATOM     48  C   UNL A   1      40.047  30.091  30.383  1.00  0.00     0.034 A 
ATOM     49  C   UNL A   1      45.753  29.293  27.327  1.00  0.00     0.049 A 
ATOM     50  C   UNL A   1      41.253  30.975  30.227  1.00  0.00     0.074 A 
ATOM     51  C   UNL A   1      46.739  30.242  27.117  1.00  0.00     0.029 A 
ATOM     52  N   UNL A   1      44.764  29.915  28.082  1.00  0.00    -0.354 N 
ATOM     53  N   UNL A   1      42.379  30.723  29.599  1.00  0.00    -0.248 NA
ATOM     54  C   UNL A   1      41.176  32.317  30.814  1.00  0.00     0.031 C 
ATOM     55  C   UNL A   1      46.393  31.399  27.824  1.00  0.00     0.029 A 
ATOM     56  C   UNL A   1      45.142  31.215  28.391  1.00  0.00     0.049 A 
ATOM     57  H   UNL A   1      43.917  29.494  28.357  1.00  0.00     0.167 HD
ATOM     58  C   UNL A   1      43.123  31.896  29.668  1.00  0.00     0.074 A 
ATOM     59  C   UNL A   1      42.318  32.851  30.405  1.00  0.00     0.031 C 
ATOM     60  C   UNL A   1      44.350  32.161  29.148  1.00  0.00     0.034 A 
BRANCH  47  61
ATOM     61  C   UNL A   1      46.934  27.335  26.196  1.00  0.00     0.023 A 
ATOM     62  C   UNL A   1      47.963  26.688  26.905  1.00  0.00     0.031 A 
ATOM     63  C   UNL A   1      47.088  27.490  24.808  1.00  0.00     0.131 A 
ATOM     64  C   UNL A   1      49.138  26.306  26.238  1.00  0.00     0.055 A 
ATOM     65  C   UNL A   1      48.219  27.024  24.137  1.00  0.00     0.041 A 
ATOM     66  F   UNL A   1      46.152  28.123  24.083  1.00  0.00    -0.206 F 
ATOM     67  C   UNL A   1      49.261  26.446  24.855  1.00  0.00     0.022 A 
BRANCH  64  68
ATOM     68  S   UNL A   1      50.570  25.795  27.230  1.00  0.00     0.124 S 
ATOM     69  O   UNL A   1      51.659  25.928  26.265  1.00  0.00    -0.237 OA
ATOM     70  O   UNL A   1      50.559  26.761  28.321  1.00  0.00    -0.237 OA
ATOM     71  O   UNL A   1      50.250  24.420  27.607  1.00  0.00    -0.744 OA
ENDBRANCH  64  68
ENDBRANCH  47  61
BRANCH  48  72
ATOM     72  C   UNL A   1      38.874  30.513  31.206  1.00  0.00     0.023 A 
ATOM     73  C   UNL A   1      37.798  31.229  30.660  1.00  0.00     0.031 A 
ATOM     74  C   UNL A   1      38.837  30.215  32.582  1.00  0.00     0.131 A 
ATOM     75  C   UNL A   1      36.749  31.657  31.491  1.00  0.00     0.055 A 
ATOM     76  C   UNL A   1      37.771  30.604  33.395  1.00  0.00     0.041 A 
ATOM     77  F   UNL A   1      39.838  29.529  33.156  1.00  0.00    -0.206 F 
ATOM     78  C   UNL A   1      36.723  31.338  32.852  1.00  0.00     0.022 A 
BRANCH  75  79
ATOM     79  S   UNL A   1      35.443  32.702  30.786  1.00  0.00     0.124 S 
ATOM     80  O   UNL A   1      34.312  32.391  31.654  1.00  0.00    -0.237 OA
ATOM     81  O   UNL A   1      36.012  34.037  30.927  1.00  0.00    -0.237 OA
ATOM     82  O   UNL A   1      35.325  32.219  29.413  1.00  0.00    -0.744 OA
ENDBRANCH  75  79
ENDBRANCH  48  72
BRANCH  60  83
ATOM     83  C   UNL A   1      44.876  33.568  29.314  1.00  0.00     0.023 A 
ATOM     84  C   UNL A   1      44.652  34.567  28.350  1.00  0.00     0.031 A 
ATOM     85  C   UNL A   1      45.636  33.906  30.449  1.00  0.00     0.131 A 
ATOM     86  C   UNL A   1      45.238  35.833  28.507  1.00  0.00     0.055 A 
ATOM     87  C   UNL A   1      46.153  35.188  30.635  1.00  0.00     0.041 A 
ATOM     88  F   UNL A   1      45.891  32.991  31.399  1.00  0.00    -0.206 F 
ATOM     89  C   UNL A   1      45.969  36.156  29.653  1.00  0.00     0.022 A 
BRANCH  86  90
ATOM     90  S   UNL A   1      45.134  37.017  27.137  1.00  0.00     0.124 S 
ATOM     91  O   UNL A   1      46.086  36.458  26.182  1.00  0.00    -0.237 OA
ATOM     92  O   UNL A   1      43.727  36.932  26.758  1.00  0.00    -0.237 OA
ATOM     93  O   UNL A   1      45.537  38.283  27.746  1.00  0.00    -0.744 OA
ENDBRANCH  86  90
ENDBRANCH  60  83
ENDBRANCH  34  35
ENDBRANCH  27  29
ENDBRANCH  26  27
ENDBRANCH  25  26
ENDBRANCH  24  25
ENDBRANCH  23  24
ENDBRANCH   1  23
TORSDOF 21
ENDMDL
