MODEL 1
REMARK VINA RESULT:      -9.8      0.000      0.000
REMARK SMILES CSc1ccc(C[C@H]([NH3+])C(=O)OCCOCCOCCOC(=O)c2ccc(-c3c4nc(c(-c5cc(S(=O)(=O)[O-])ccc5F)c5ccc([nH]5)c(-c5cc(S(=O)(=O)[O-])ccc5F)c5nc(c(-c6cc(S(=O)(=O)[O-])ccc6F)c6ccc3[nH]6)C=C5)C=C4)cc2)cc1
REMARK SMILES IDX 16 1 15 2 14 3 13 4 12 5 10 6 11 7 8 8 7 9 6 10 3 11 4 12
REMARK SMILES IDX 88 13 5 14 87 15 2 16 1 17 9 18 17 22 18 23 19 24 20 25
REMARK SMILES IDX 21 26 22 27 23 28 24 29 25 30 86 31 26 32 85 33 27 34 28 35
REMARK SMILES IDX 29 36 79 37 30 38 84 39 78 40 80 41 31 42 83 43 77 44 76 45
REMARK SMILES IDX 32 47 64 48 44 49 63 50 45 51 48 52 62 53 81 54 46 55 47 56
REMARK SMILES IDX 61 58 82 59 49 60 33 61 34 62 42 63 35 64 41 65 43 66 40 67
REMARK SMILES IDX 36 68 37 69 38 70 39 71 65 72 66 73 74 74 67 75 73 76 75 77
REMARK SMILES IDX 72 78 68 79 69 80 70 81 71 82 50 83 51 84 59 85 52 86 58 87
REMARK SMILES IDX 60 88 57 89 53 90 54 91 55 92 56 93
REMARK H PARENT 9 19 9 20 9 21 80 46 48 57
REMARK Flexibility Score: inf
ROOT
ATOM      1  C   UNL A   1      33.542  22.587  27.730  1.00  0.00     0.188 C 
ENDROOT
BRANCH   1   2
ATOM      2  O   UNL A   1      32.136  22.697  27.544  1.00  0.00    -0.376 OA
BRANCH   2   3
ATOM      3  C   UNL A   1      31.617  23.863  26.920  1.00  0.00     0.202 C 
BRANCH   3   4
ATOM      4  C   UNL A   1      32.377  24.495  25.742  1.00  0.00     0.261 C 
BRANCH   4   5
ATOM      5  O   UNL A   1      32.583  23.651  24.591  1.00  0.00    -0.459 OA
BRANCH   5   6
ATOM      6  C   UNL A   1      31.887  23.959  23.456  1.00  0.00     0.365 C 
ATOM      7  O   UNL A   1      30.683  23.763  23.314  1.00  0.00    -0.245 OA
BRANCH   6   8
ATOM      8  C   UNL A   1      32.773  24.507  22.301  1.00  0.00     0.296 C 
BRANCH   8   9
ATOM      9  C   UNL A   1      32.266  25.878  21.804  1.00  0.00     0.113 C 
BRANCH   9  10
ATOM     10  C   UNL A   1      32.232  26.915  22.898  1.00  0.00    -0.041 A 
ATOM     11  C   UNL A   1      32.176  28.347  25.301  1.00  0.00     0.007 A 
ATOM     12  C   UNL A   1      30.985  28.062  24.626  1.00  0.00     0.015 A 
ATOM     13  C   UNL A   1      33.395  27.954  24.747  1.00  0.00     0.015 A 
ATOM     14  C   UNL A   1      31.012  27.361  23.419  1.00  0.00     0.005 A 
ATOM     15  C   UNL A   1      33.426  27.251  23.547  1.00  0.00     0.005 A 
BRANCH  11  16
ATOM     16  S   UNL A   1      32.170  29.130  26.901  1.00  0.00    -0.130 SA
ATOM     17  C   UNL A   1      33.720  30.045  26.768  1.00  0.00     0.091 C 
ENDBRANCH  11  16
ENDBRANCH   9  10
ENDBRANCH   8   9
BRANCH   8  18
ATOM     18  N   UNL A   1      32.964  23.569  21.163  1.00  0.00    -0.346 N 
ATOM     19  H   UNL A   1      33.936  23.260  21.136  1.00  0.00     0.345 HD
ATOM     20  H   UNL A   1      32.732  24.041  20.289  1.00  0.00     0.345 HD
ATOM     21  H   UNL A   1      32.354  22.760  21.283  1.00  0.00     0.345 HD
ENDBRANCH   8  18
ENDBRANCH   6   8
ENDBRANCH   5   6
ENDBRANCH   4   5
ENDBRANCH   3   4
ENDBRANCH   2   3
ENDBRANCH   1   2
BRANCH   1  22
ATOM     22  C   UNL A   1      34.284  21.394  27.097  1.00  0.00     0.188 C 
BRANCH  22  23
ATOM     23  O   UNL A   1      35.221  21.755  26.110  1.00  0.00    -0.376 OA
BRANCH  23  24
ATOM     24  C   UNL A   1      35.606  20.777  25.166  1.00  0.00     0.202 C 
BRANCH  24  25
ATOM     25  C   UNL A   1      37.085  20.395  24.959  1.00  0.00     0.261 C 
BRANCH  25  26
ATOM     26  O   UNL A   1      38.082  21.412  25.157  1.00  0.00    -0.460 OA
BRANCH  26  27
ATOM     27  C   UNL A   1      39.135  21.106  25.950  1.00  0.00     0.338 C 
ATOM     28  O   UNL A   1      39.712  20.027  26.001  1.00  0.00    -0.246 OA
BRANCH  27  29
ATOM     29  C   UNL A   1      39.637  22.356  26.572  1.00  0.00     0.060 A 
ATOM     30  C   UNL A   1      39.008  23.567  26.250  1.00  0.00     0.016 A 
ATOM     31  C   UNL A   1      40.706  22.343  27.472  1.00  0.00     0.016 A 
ATOM     32  C   UNL A   1      39.470  24.769  26.793  1.00  0.00     0.010 A 
ATOM     33  C   UNL A   1      41.183  23.554  27.998  1.00  0.00     0.010 A 
ATOM     34  C   UNL A   1      40.590  24.777  27.633  1.00  0.00    -0.014 A 
BRANCH  34  35
ATOM     35  C   UNL A   1      41.245  26.075  27.959  1.00  0.00     0.031 A 
ATOM     36  C   UNL A   1      42.661  26.302  27.493  1.00  0.00     0.074 A 
ATOM     37  C   UNL A   1      40.584  27.059  28.597  1.00  0.00     0.049 A 
ATOM     38  N   UNL A   1      43.429  27.351  27.636  1.00  0.00    -0.248 NA
ATOM     39  C   UNL A   1      43.292  25.190  26.767  1.00  0.00     0.031 C 
ATOM     40  C   UNL A   1      39.202  26.983  29.065  1.00  0.00     0.029 A 
ATOM     41  N   UNL A   1      40.991  28.321  28.959  1.00  0.00    -0.354 N 
ATOM     42  C   UNL A   1      44.635  27.027  27.021  1.00  0.00     0.074 A 
ATOM     43  C   UNL A   1      44.507  25.666  26.545  1.00  0.00     0.031 C 
ATOM     44  C   UNL A   1      38.874  28.148  29.651  1.00  0.00     0.029 A 
ATOM     45  C   UNL A   1      40.031  29.042  29.633  1.00  0.00     0.049 A 
ATOM     46  H   UNL A   1      41.886  28.678  28.755  1.00  0.00     0.167 HD
ATOM     47  C   UNL A   1      45.741  27.794  26.856  1.00  0.00     0.034 A 
ATOM     48  C   UNL A   1      40.086  30.273  30.185  1.00  0.00     0.034 A 
ATOM     49  C   UNL A   1      45.865  29.145  27.349  1.00  0.00     0.049 A 
ATOM     50  C   UNL A   1      41.359  31.078  30.060  1.00  0.00     0.074 A 
ATOM     51  C   UNL A   1      46.936  30.013  27.227  1.00  0.00     0.029 A 
ATOM     52  N   UNL A   1      44.892  29.822  28.076  1.00  0.00    -0.354 N 
ATOM     53  N   UNL A   1      42.485  30.767  29.457  1.00  0.00    -0.248 NA
ATOM     54  C   UNL A   1      41.360  32.411  30.677  1.00  0.00     0.031 C 
ATOM     55  C   UNL A   1      46.647  31.176  27.948  1.00  0.00     0.029 A 
ATOM     56  C   UNL A   1      45.355  31.080  28.439  1.00  0.00     0.049 A 
ATOM     57  H   UNL A   1      44.004  29.462  28.301  1.00  0.00     0.167 HD
ATOM     58  C   UNL A   1      43.313  31.880  29.599  1.00  0.00     0.074 A 
ATOM     59  C   UNL A   1      42.545  32.877  30.314  1.00  0.00     0.031 C 
ATOM     60  C   UNL A   1      44.592  32.063  29.174  1.00  0.00     0.034 A 
BRANCH  47  61
ATOM     61  C   UNL A   1      46.925  27.163  26.158  1.00  0.00     0.023 A 
ATOM     62  C   UNL A   1      47.921  26.466  26.866  1.00  0.00     0.031 A 
ATOM     63  C   UNL A   1      47.074  27.285  24.765  1.00  0.00     0.131 A 
ATOM     64  C   UNL A   1      49.054  25.984  26.190  1.00  0.00     0.055 A 
ATOM     65  C   UNL A   1      48.160  26.728  24.088  1.00  0.00     0.041 A 
ATOM     66  F   UNL A   1      46.171  27.961  24.037  1.00  0.00    -0.206 F 
ATOM     67  C   UNL A   1      49.167  26.086  24.802  1.00  0.00     0.022 A 
BRANCH  64  68
ATOM     68  S   UNL A   1      50.447  25.359  27.169  1.00  0.00     0.124 S 
ATOM     69  O   UNL A   1      49.812  24.291  27.939  1.00  0.00    -0.237 OA
ATOM     70  O   UNL A   1      51.389  24.932  26.142  1.00  0.00    -0.237 OA
ATOM     71  O   UNL A   1      50.863  26.519  27.954  1.00  0.00    -0.744 OA
ENDBRANCH  64  68
ENDBRANCH  47  61
BRANCH  48  72
ATOM     72  C   UNL A   1      38.919  30.821  30.940  1.00  0.00     0.023 A 
ATOM     73  C   UNL A   1      37.925  31.581  30.302  1.00  0.00     0.031 A 
ATOM     74  C   UNL A   1      38.823  30.654  32.334  1.00  0.00     0.131 A 
ATOM     75  C   UNL A   1      36.908  32.185  31.061  1.00  0.00     0.055 A 
ATOM     76  C   UNL A   1      37.776  31.204  33.075  1.00  0.00     0.041 A 
ATOM     77  F   UNL A   1      39.751  29.947  32.998  1.00  0.00    -0.206 F 
ATOM     78  C   UNL A   1      36.819  31.988  32.440  1.00  0.00     0.022 A 
BRANCH  75  79
ATOM     79  S   UNL A   1      35.757  33.317  30.230  1.00  0.00     0.124 S 
ATOM     80  O   UNL A   1      34.658  32.422  29.887  1.00  0.00    -0.237 OA
ATOM     81  O   UNL A   1      35.485  34.295  31.279  1.00  0.00    -0.237 OA
ATOM     82  O   UNL A   1      36.532  33.819  29.098  1.00  0.00    -0.744 OA
ENDBRANCH  75  79
ENDBRANCH  48  72
BRANCH  60  83
ATOM     83  C   UNL A   1      45.219  33.415  29.443  1.00  0.00     0.023 A 
ATOM     84  C   UNL A   1      45.048  34.500  28.564  1.00  0.00     0.031 A 
ATOM     85  C   UNL A   1      46.045  33.607  30.567  1.00  0.00     0.131 A 
ATOM     86  C   UNL A   1      45.766  35.689  28.769  1.00  0.00     0.055 A 
ATOM     87  C   UNL A   1      46.688  34.822  30.812  1.00  0.00     0.041 A 
ATOM     88  F   UNL A   1      46.251  32.611  31.443  1.00  0.00    -0.206 F 
ATOM     89  C   UNL A   1      46.569  35.864  29.897  1.00  0.00     0.022 A 
BRANCH  86  90
ATOM     90  S   UNL A   1      45.760  36.942  27.455  1.00  0.00     0.124 S 
ATOM     91  O   UNL A   1      45.921  36.125  26.258  1.00  0.00    -0.237 OA
ATOM     92  O   UNL A   1      44.454  37.569  27.630  1.00  0.00    -0.237 OA
ATOM     93  O   UNL A   1      46.904  37.790  27.786  1.00  0.00    -0.744 OA
ENDBRANCH  86  90
ENDBRANCH  60  83
ENDBRANCH  34  35
ENDBRANCH  27  29
ENDBRANCH  26  27
ENDBRANCH  25  26
ENDBRANCH  24  25
ENDBRANCH  23  24
ENDBRANCH  22  23
ENDBRANCH   1  22
TORSDOF 24
ENDMDL
MODEL 2
REMARK VINA RESULT:      -9.6      2.223      2.638
REMARK SMILES CSc1ccc(C[C@H]([NH3+])C(=O)OCCOCCOCCOC(=O)c2ccc(-c3c4nc(c(-c5cc(S(=O)(=O)[O-])ccc5F)c5ccc([nH]5)c(-c5cc(S(=O)(=O)[O-])ccc5F)c5nc(c(-c6cc(S(=O)(=O)[O-])ccc6F)c6ccc3[nH]6)C=C5)C=C4)cc2)cc1
REMARK SMILES IDX 16 1 15 2 14 3 13 4 12 5 10 6 11 7 8 8 7 9 6 10 3 11 4 12
REMARK SMILES IDX 88 13 5 14 87 15 2 16 1 17 9 18 17 22 18 23 19 24 20 25
REMARK SMILES IDX 21 26 22 27 23 28 24 29 25 30 86 31 26 32 85 33 27 34 28 35
REMARK SMILES IDX 29 36 79 37 30 38 84 39 78 40 80 41 31 42 83 43 77 44 76 45
REMARK SMILES IDX 32 47 64 48 44 49 63 50 45 51 48 52 62 53 81 54 46 55 47 56
REMARK SMILES IDX 61 58 82 59 49 60 33 61 34 62 42 63 35 64 41 65 43 66 40 67
REMARK SMILES IDX 36 68 37 69 38 70 39 71 65 72 66 73 74 74 67 75 73 76 75 77
REMARK SMILES IDX 72 78 68 79 69 80 70 81 71 82 50 83 51 84 59 85 52 86 58 87
REMARK SMILES IDX 60 88 57 89 53 90 54 91 55 92 56 93
REMARK H PARENT 9 19 9 20 9 21 80 46 48 57
REMARK Flexibility Score: inf
ROOT
ATOM      1  C   UNL A   1      33.729  22.868  27.852  1.00  0.00     0.188 C 
ENDROOT
BRANCH   1   2
ATOM      2  O   UNL A   1      32.331  22.725  27.629  1.00  0.00    -0.376 OA
BRANCH   2   3
ATOM      3  C   UNL A   1      31.653  23.720  26.874  1.00  0.00     0.202 C 
BRANCH   3   4
ATOM      4  C   UNL A   1      32.443  24.587  25.880  1.00  0.00     0.261 C 
BRANCH   4   5
ATOM      5  O   UNL A   1      32.821  23.953  24.642  1.00  0.00    -0.459 OA
BRANCH   5   6
ATOM      6  C   UNL A   1      32.026  24.180  23.553  1.00  0.00     0.365 C 
ATOM      7  O   UNL A   1      30.832  23.896  23.503  1.00  0.00    -0.245 OA
BRANCH   6   8
ATOM      8  C   UNL A   1      32.787  24.757  22.325  1.00  0.00     0.296 C 
BRANCH   8   9
ATOM      9  C   UNL A   1      32.194  26.112  21.882  1.00  0.00     0.113 C 
BRANCH   9  10
ATOM     10  C   UNL A   1      32.296  27.169  22.952  1.00  0.00    -0.041 A 
ATOM     11  C   UNL A   1      32.517  28.644  25.319  1.00  0.00     0.007 A 
ATOM     12  C   UNL A   1      31.258  28.380  24.771  1.00  0.00     0.015 A 
ATOM     13  C   UNL A   1      33.665  28.206  24.655  1.00  0.00     0.015 A 
ATOM     14  C   UNL A   1      31.146  27.658  23.582  1.00  0.00     0.005 A 
ATOM     15  C   UNL A   1      33.557  27.482  23.473  1.00  0.00     0.005 A 
BRANCH  11  16
ATOM     16  S   UNL A   1      32.692  29.454  26.896  1.00  0.00    -0.130 SA
ATOM     17  C   UNL A   1      34.480  29.303  27.089  1.00  0.00     0.091 C 
ENDBRANCH  11  16
ENDBRANCH   9  10
ENDBRANCH   8   9
BRANCH   8  18
ATOM     18  N   UNL A   1      32.903  23.827  21.171  1.00  0.00    -0.346 N 
ATOM     19  H   UNL A   1      33.781  23.310  21.238  1.00  0.00     0.345 HD
ATOM     20  H   UNL A   1      32.887  24.359  20.301  1.00  0.00     0.345 HD
ATOM     21  H   UNL A   1      32.122  23.172  21.183  1.00  0.00     0.345 HD
ENDBRANCH   8  18
ENDBRANCH   6   8
ENDBRANCH   5   6
ENDBRANCH   4   5
ENDBRANCH   3   4
ENDBRANCH   2   3
ENDBRANCH   1   2
BRANCH   1  22
ATOM     22  C   UNL A   1      34.681  21.786  27.308  1.00  0.00     0.188 C 
BRANCH  22  23
ATOM     23  O   UNL A   1      35.287  22.115  26.080  1.00  0.00    -0.376 OA
BRANCH  23  24
ATOM     24  C   UNL A   1      35.820  21.067  25.297  1.00  0.00     0.202 C 
BRANCH  24  25
ATOM     25  C   UNL A   1      37.330  20.971  25.000  1.00  0.00     0.261 C 
BRANCH  25  26
ATOM     26  O   UNL A   1      38.158  22.102  25.322  1.00  0.00    -0.460 OA
BRANCH  26  27
ATOM     27  C   UNL A   1      39.152  21.911  26.220  1.00  0.00     0.338 C 
ATOM     28  O   UNL A   1      39.820  20.895  26.354  1.00  0.00    -0.246 OA
BRANCH  27  29
ATOM     29  C   UNL A   1      39.468  23.213  26.857  1.00  0.00     0.060 A 
ATOM     30  C   UNL A   1      38.687  24.331  26.528  1.00  0.00     0.016 A 
ATOM     31  C   UNL A   1      40.512  23.339  27.777  1.00  0.00     0.016 A 
ATOM     32  C   UNL A   1      38.972  25.580  27.085  1.00  0.00     0.010 A 
ATOM     33  C   UNL A   1      40.811  24.599  28.318  1.00  0.00     0.010 A 
ATOM     34  C   UNL A   1      40.065  25.734  27.947  1.00  0.00    -0.014 A 
BRANCH  34  35
ATOM     35  C   UNL A   1      40.532  27.107  28.291  1.00  0.00     0.031 A 
ATOM     36  C   UNL A   1      41.976  27.459  28.035  1.00  0.00     0.074 A 
ATOM     37  C   UNL A   1      39.687  28.043  28.759  1.00  0.00     0.049 A 
ATOM     38  N   UNL A   1      42.608  28.588  28.231  1.00  0.00    -0.248 NA
ATOM     39  C   UNL A   1      42.819  26.387  27.483  1.00  0.00     0.031 C 
ATOM     40  C   UNL A   1      38.262  27.845  29.012  1.00  0.00     0.029 A 
ATOM     41  N   UNL A   1      39.908  29.356  29.102  1.00  0.00    -0.354 N 
ATOM     42  C   UNL A   1      43.922  28.363  27.829  1.00  0.00     0.074 A 
ATOM     43  C   UNL A   1      44.002  26.976  27.422  1.00  0.00     0.031 C 
ATOM     44  C   UNL A   1      37.735  28.994  29.469  1.00  0.00     0.029 A 
ATOM     45  C   UNL A   1      38.789  30.003  29.575  1.00  0.00     0.049 A 
ATOM     46  H   UNL A   1      40.786  29.794  29.016  1.00  0.00     0.167 HD
ATOM     47  C   UNL A   1      44.961  29.233  27.790  1.00  0.00     0.034 A 
ATOM     48  C   UNL A   1      38.637  31.256  30.054  1.00  0.00     0.034 A 
ATOM     49  C   UNL A   1      44.875  30.611  28.214  1.00  0.00     0.049 A 
ATOM     50  C   UNL A   1      39.831  32.183  30.078  1.00  0.00     0.074 A 
ATOM     51  C   UNL A   1      45.864  31.579  28.206  1.00  0.00     0.029 A 
ATOM     52  N   UNL A   1      43.738  31.214  28.741  1.00  0.00    -0.354 N 
ATOM     53  N   UNL A   1      41.063  31.964  29.675  1.00  0.00    -0.248 NA
ATOM     54  C   UNL A   1      39.605  33.534  30.606  1.00  0.00     0.031 C 
ATOM     55  C   UNL A   1      45.353  32.737  28.802  1.00  0.00     0.029 A 
ATOM     56  C   UNL A   1      44.015  32.528  29.094  1.00  0.00     0.049 A 
ATOM     57  H   UNL A   1      42.864  30.774  28.847  1.00  0.00     0.167 HD
ATOM     58  C   UNL A   1      41.748  33.162  29.875  1.00  0.00     0.074 A 
ATOM     59  C   UNL A   1      40.783  34.104  30.403  1.00  0.00     0.031 C 
ATOM     60  C   UNL A   1      43.054  33.458  29.642  1.00  0.00     0.034 A 
BRANCH  47  61
ATOM     61  C   UNL A   1      46.296  28.698  27.322  1.00  0.00     0.023 A 
ATOM     62  C   UNL A   1      46.592  28.526  25.958  1.00  0.00     0.031 A 
ATOM     63  C   UNL A   1      47.279  28.328  28.259  1.00  0.00     0.131 A 
ATOM     64  C   UNL A   1      47.805  27.932  25.574  1.00  0.00     0.055 A 
ATOM     65  C   UNL A   1      48.517  27.819  27.865  1.00  0.00     0.041 A 
ATOM     66  F   UNL A   1      47.046  28.444  29.576  1.00  0.00    -0.206 F 
ATOM     67  C   UNL A   1      48.781  27.603  26.517  1.00  0.00     0.022 A 
BRANCH  64  68
ATOM     68  S   UNL A   1      48.025  27.456  23.837  1.00  0.00     0.124 S 
ATOM     69  O   UNL A   1      49.415  27.839  23.600  1.00  0.00    -0.237 OA
ATOM     70  O   UNL A   1      47.753  26.023  23.865  1.00  0.00    -0.237 OA
ATOM     71  O   UNL A   1      47.035  28.265  23.131  1.00  0.00    -0.744 OA
ENDBRANCH  64  68
ENDBRANCH  47  61
BRANCH  48  72
ATOM     72  C   UNL A   1      37.318  31.712  30.587  1.00  0.00     0.023 A 
ATOM     73  C   UNL A   1      36.410  32.422  29.783  1.00  0.00     0.031 A 
ATOM     74  C   UNL A   1      36.979  31.509  31.937  1.00  0.00     0.131 A 
ATOM     75  C   UNL A   1      35.233  32.944  30.347  1.00  0.00     0.055 A 
ATOM     76  C   UNL A   1      35.780  31.976  32.478  1.00  0.00     0.041 A 
ATOM     77  F   UNL A   1      37.814  30.847  32.754  1.00  0.00    -0.206 F 
ATOM     78  C   UNL A   1      34.906  32.711  31.685  1.00  0.00     0.022 A 
BRANCH  75  79
ATOM     79  S   UNL A   1      34.182  34.018  29.330  1.00  0.00     0.124 S 
ATOM     80  O   UNL A   1      33.277  34.578  30.327  1.00  0.00    -0.237 OA
ATOM     81  O   UNL A   1      35.157  34.941  28.758  1.00  0.00    -0.237 OA
ATOM     82  O   UNL A   1      33.571  33.093  28.378  1.00  0.00    -0.744 OA
ENDBRANCH  75  79
ENDBRANCH  48  72
BRANCH  60  83
ATOM     83  C   UNL A   1      43.497  34.879  29.922  1.00  0.00     0.023 A 
ATOM     84  C   UNL A   1      43.849  35.305  31.216  1.00  0.00     0.031 A 
ATOM     85  C   UNL A   1      43.516  35.836  28.890  1.00  0.00     0.131 A 
ATOM     86  C   UNL A   1      44.108  36.663  31.462  1.00  0.00     0.055 A 
ATOM     87  C   UNL A   1      43.859  37.169  29.125  1.00  0.00     0.041 A 
ATOM     88  F   UNL A   1      43.188  35.495  27.634  1.00  0.00    -0.206 F 
ATOM     89  C   UNL A   1      44.135  37.594  30.421  1.00  0.00     0.022 A 
BRANCH  86  90
ATOM     90  S   UNL A   1      44.250  37.221  33.183  1.00  0.00     0.124 S 
ATOM     91  O   UNL A   1      45.425  36.487  33.641  1.00  0.00    -0.237 OA
ATOM     92  O   UNL A   1      44.419  38.663  33.029  1.00  0.00    -0.237 OA
ATOM     93  O   UNL A   1      42.985  36.805  33.784  1.00  0.00    -0.744 OA
ENDBRANCH  86  90
ENDBRANCH  60  83
ENDBRANCH  34  35
ENDBRANCH  27  29
ENDBRANCH  26  27
ENDBRANCH  25  26
ENDBRANCH  24  25
ENDBRANCH  23  24
ENDBRANCH  22  23
ENDBRANCH   1  22
TORSDOF 24
ENDMDL
MODEL 3
REMARK VINA RESULT:      -9.2      2.056      2.724
REMARK SMILES CSc1ccc(C[C@H]([NH3+])C(=O)OCCOCCOCCOC(=O)c2ccc(-c3c4nc(c(-c5cc(S(=O)(=O)[O-])ccc5F)c5ccc([nH]5)c(-c5cc(S(=O)(=O)[O-])ccc5F)c5nc(c(-c6cc(S(=O)(=O)[O-])ccc6F)c6ccc3[nH]6)C=C5)C=C4)cc2)cc1
REMARK SMILES IDX 16 1 15 2 14 3 13 4 12 5 10 6 11 7 8 8 7 9 6 10 3 11 4 12
REMARK SMILES IDX 88 13 5 14 87 15 2 16 1 17 9 18 17 22 18 23 19 24 20 25
REMARK SMILES IDX 21 26 22 27 23 28 24 29 25 30 86 31 26 32 85 33 27 34 28 35
REMARK SMILES IDX 29 36 79 37 30 38 84 39 78 40 80 41 31 42 83 43 77 44 76 45
REMARK SMILES IDX 32 47 64 48 44 49 63 50 45 51 48 52 62 53 81 54 46 55 47 56
REMARK SMILES IDX 61 58 82 59 49 60 33 61 34 62 42 63 35 64 41 65 43 66 40 67
REMARK SMILES IDX 36 68 37 69 38 70 39 71 65 72 66 73 74 74 67 75 73 76 75 77
REMARK SMILES IDX 72 78 68 79 69 80 70 81 71 82 50 83 51 84 59 85 52 86 58 87
REMARK SMILES IDX 60 88 57 89 53 90 54 91 55 92 56 93
REMARK H PARENT 9 19 9 20 9 21 80 46 48 57
REMARK Flexibility Score: inf
ROOT
ATOM      1  C   UNL A   1      37.723  23.344  25.307  1.00  0.00     0.188 C 
ENDROOT
BRANCH   1   2
ATOM      2  O   UNL A   1      36.501  24.005  25.612  1.00  0.00    -0.376 OA
BRANCH   2   3
ATOM      3  C   UNL A   1      35.276  23.336  25.346  1.00  0.00     0.202 C 
BRANCH   3   4
ATOM      4  C   UNL A   1      34.498  22.688  26.503  1.00  0.00     0.261 C 
BRANCH   4   5
ATOM      5  O   UNL A   1      33.217  22.119  26.169  1.00  0.00    -0.459 OA
BRANCH   5   6
ATOM      6  C   UNL A   1      32.128  22.580  26.856  1.00  0.00     0.365 C 
ATOM      7  O   UNL A   1      32.147  22.893  28.043  1.00  0.00    -0.245 OA
BRANCH   6   8
ATOM      8  C   UNL A   1      30.815  22.593  26.022  1.00  0.00     0.296 C 
BRANCH   8   9
ATOM      9  C   UNL A   1      31.034  23.241  24.638  1.00  0.00     0.113 C 
BRANCH   9  10
ATOM     10  C   UNL A   1      30.810  24.732  24.653  1.00  0.00    -0.041 A 
ATOM     11  C   UNL A   1      30.910  27.510  24.338  1.00  0.00     0.007 A 
ATOM     12  C   UNL A   1      31.447  26.913  25.483  1.00  0.00     0.015 A 
ATOM     13  C   UNL A   1      30.283  26.717  23.375  1.00  0.00     0.015 A 
ATOM     14  C   UNL A   1      31.385  25.529  25.649  1.00  0.00     0.005 A 
ATOM     15  C   UNL A   1      30.223  25.337  23.535  1.00  0.00     0.005 A 
BRANCH  11  16
ATOM     16  S   UNL A   1      31.081  29.257  24.035  1.00  0.00    -0.130 SA
ATOM     17  C   UNL A   1      29.415  29.599  23.432  1.00  0.00     0.091 C 
ENDBRANCH  11  16
ENDBRANCH   9  10
ENDBRANCH   8   9
BRANCH   8  18
ATOM     18  N   UNL A   1      29.646  23.200  26.712  1.00  0.00    -0.346 N 
ATOM     19  H   UNL A   1      29.368  24.052  26.225  1.00  0.00     0.345 HD
ATOM     20  H   UNL A   1      29.897  23.425  27.675  1.00  0.00     0.345 HD
ATOM     21  H   UNL A   1      28.869  22.539  26.710  1.00  0.00     0.345 HD
ENDBRANCH   8  18
ENDBRANCH   6   8
ENDBRANCH   5   6
ENDBRANCH   4   5
ENDBRANCH   3   4
ENDBRANCH   2   3
ENDBRANCH   1   2
BRANCH   1  22
ATOM     22  C   UNL A   1      37.904  21.879  25.748  1.00  0.00     0.188 C 
BRANCH  22  23
ATOM     23  O   UNL A   1      37.528  20.932  24.776  1.00  0.00    -0.376 OA
BRANCH  23  24
ATOM     24  C   UNL A   1      38.168  19.673  24.789  1.00  0.00     0.202 C 
BRANCH  24  25
ATOM     25  C   UNL A   1      39.304  19.356  25.783  1.00  0.00     0.261 C 
BRANCH  25  26
ATOM     26  O   UNL A   1      40.660  19.556  25.350  1.00  0.00    -0.460 OA
BRANCH  26  27
ATOM     27  C   UNL A   1      41.609  19.671  26.307  1.00  0.00     0.338 C 
ATOM     28  O   UNL A   1      42.418  18.812  26.629  1.00  0.00    -0.246 OA
BRANCH  27  29
ATOM     29  C   UNL A   1      41.674  21.089  26.740  1.00  0.00     0.060 A 
ATOM     30  C   UNL A   1      41.529  22.095  25.773  1.00  0.00     0.016 A 
ATOM     31  C   UNL A   1      41.864  21.433  28.081  1.00  0.00     0.016 A 
ATOM     32  C   UNL A   1      41.613  23.441  26.137  1.00  0.00     0.010 A 
ATOM     33  C   UNL A   1      41.970  22.785  28.440  1.00  0.00     0.010 A 
ATOM     34  C   UNL A   1      41.882  23.797  27.465  1.00  0.00    -0.014 A 
BRANCH  34  35
ATOM     35  C   UNL A   1      42.262  25.203  27.779  1.00  0.00     0.031 A 
ATOM     36  C   UNL A   1      43.632  25.683  27.374  1.00  0.00     0.074 A 
ATOM     37  C   UNL A   1      41.394  26.057  28.351  1.00  0.00     0.049 A 
ATOM     38  N   UNL A   1      44.181  26.863  27.520  1.00  0.00    -0.248 NA
ATOM     39  C   UNL A   1      44.501  24.694  26.718  1.00  0.00     0.031 C 
ATOM     40  C   UNL A   1      40.027  25.731  28.753  1.00  0.00     0.029 A 
ATOM     41  N   UNL A   1      41.535  27.382  28.690  1.00  0.00    -0.354 N 
ATOM     42  C   UNL A   1      45.457  26.759  26.975  1.00  0.00     0.074 A 
ATOM     43  C   UNL A   1      45.614  25.387  26.539  1.00  0.00     0.031 C 
ATOM     44  C   UNL A   1      39.455  26.826  29.284  1.00  0.00     0.029 A 
ATOM     45  C   UNL A   1      40.422  27.923  29.291  1.00  0.00     0.049 A 
ATOM     46  H   UNL A   1      42.356  27.897  28.517  1.00  0.00     0.167 HD
ATOM     47  C   UNL A   1      46.406  27.718  26.839  1.00  0.00     0.034 A 
ATOM     48  C   UNL A   1      40.213  29.155  29.805  1.00  0.00     0.034 A 
ATOM     49  C   UNL A   1      46.246  29.079  27.292  1.00  0.00     0.049 A 
ATOM     50  C   UNL A   1      41.317  30.184  29.715  1.00  0.00     0.074 A 
ATOM     51  C   UNL A   1      47.140  30.131  27.193  1.00  0.00     0.029 A 
ATOM     52  N   UNL A   1      45.125  29.576  27.948  1.00  0.00    -0.354 N 
ATOM     53  N   UNL A   1      42.512  30.078  29.178  1.00  0.00    -0.248 NA
ATOM     54  C   UNL A   1      41.033  31.506  30.287  1.00  0.00     0.031 C 
ATOM     55  C   UNL A   1      46.598  31.235  27.860  1.00  0.00     0.029 A 
ATOM     56  C   UNL A   1      45.323  30.907  28.291  1.00  0.00     0.049 A 
ATOM     57  H   UNL A   1      44.310  29.059  28.141  1.00  0.00     0.167 HD
ATOM     58  C   UNL A   1      43.107  31.331  29.323  1.00  0.00     0.074 A 
ATOM     59  C   UNL A   1      42.127  32.180  29.967  1.00  0.00     0.031 C 
ATOM     60  C   UNL A   1      44.349  31.744  28.955  1.00  0.00     0.034 A 
BRANCH  47  61
ATOM     61  C   UNL A   1      47.724  27.307  26.220  1.00  0.00     0.023 A 
ATOM     62  C   UNL A   1      48.019  27.551  24.867  1.00  0.00     0.031 A 
ATOM     63  C   UNL A   1      48.689  26.634  26.992  1.00  0.00     0.131 A 
ATOM     64  C   UNL A   1      49.212  27.062  24.311  1.00  0.00     0.055 A 
ATOM     65  C   UNL A   1      49.911  26.228  26.453  1.00  0.00     0.041 A 
ATOM     66  F   UNL A   1      48.455  26.349  28.283  1.00  0.00    -0.206 F 
ATOM     67  C   UNL A   1      50.172  26.427  25.101  1.00  0.00     0.022 A 
BRANCH  64  68
ATOM     68  S   UNL A   1      49.423  27.134  22.511  1.00  0.00     0.124 S 
ATOM     69  O   UNL A   1      48.819  28.426  22.194  1.00  0.00    -0.237 OA
ATOM     70  O   UNL A   1      50.871  27.052  22.359  1.00  0.00    -0.237 OA
ATOM     71  O   UNL A   1      48.679  25.972  22.032  1.00  0.00    -0.744 OA
ENDBRANCH  64  68
ENDBRANCH  47  61
BRANCH  48  72
ATOM     72  C   UNL A   1      38.925  29.489  30.484  1.00  0.00     0.023 A 
ATOM     73  C   UNL A   1      37.962  30.304  29.867  1.00  0.00     0.031 A 
ATOM     74  C   UNL A   1      38.673  29.055  31.798  1.00  0.00     0.131 A 
ATOM     75  C   UNL A   1      36.818  30.700  30.580  1.00  0.00     0.055 A 
ATOM     76  C   UNL A   1      37.505  29.400  32.480  1.00  0.00     0.041 A 
ATOM     77  F   UNL A   1      39.564  28.283  32.441  1.00  0.00    -0.206 F 
ATOM     78  C   UNL A   1      36.576  30.240  31.876  1.00  0.00     0.022 A 
BRANCH  75  79
ATOM     79  S   UNL A   1      35.694  31.908  29.822  1.00  0.00     0.124 S 
ATOM     80  O   UNL A   1      34.850  32.278  30.952  1.00  0.00    -0.237 OA
ATOM     81  O   UNL A   1      36.623  32.932  29.354  1.00  0.00    -0.237 OA
ATOM     82  O   UNL A   1      35.032  31.142  28.769  1.00  0.00    -0.744 OA
ENDBRANCH  75  79
ENDBRANCH  48  72
BRANCH  60  83
ATOM     83  C   UNL A   1      44.694  33.197  29.209  1.00  0.00     0.023 A 
ATOM     84  C   UNL A   1      44.498  34.187  28.231  1.00  0.00     0.031 A 
ATOM     85  C   UNL A   1      45.280  33.587  30.428  1.00  0.00     0.131 A 
ATOM     86  C   UNL A   1      44.969  35.492  28.448  1.00  0.00     0.055 A 
ATOM     87  C   UNL A   1      45.668  34.906  30.671  1.00  0.00     0.041 A 
ATOM     88  F   UNL A   1      45.497  32.689  31.402  1.00  0.00    -0.206 F 
ATOM     89  C   UNL A   1      45.535  35.862  29.669  1.00  0.00     0.022 A 
BRANCH  86  90
ATOM     90  S   UNL A   1      44.977  36.655  27.054  1.00  0.00     0.124 S 
ATOM     91  O   UNL A   1      43.565  36.703  26.693  1.00  0.00    -0.237 OA
ATOM     92  O   UNL A   1      45.522  37.865  27.661  1.00  0.00    -0.237 OA
ATOM     93  O   UNL A   1      45.846  36.008  26.073  1.00  0.00    -0.744 OA
ENDBRANCH  86  90
ENDBRANCH  60  83
ENDBRANCH  34  35
ENDBRANCH  27  29
ENDBRANCH  26  27
ENDBRANCH  25  26
ENDBRANCH  24  25
ENDBRANCH  23  24
ENDBRANCH  22  23
ENDBRANCH   1  22
TORSDOF 24
ENDMDL
