MODEL 1
REMARK VINA RESULT:     -10.2      0.000      0.000
REMARK SMILES CCn1nc(C(=O)OCCOCCOCCOC(=O)c2ccc(-c3c4nc(c(-c5cc(S(=O)(=O)[O-])ccc5F)c5ccc([nH]5)c(-c5cc(S(=O)(=O)[O-])ccc5F)c5nc(c(-c6cc(S(=O)(=O)[O-])ccc6F)c6ccc3[nH]6)C=C5)C=C4)cc2)c2c1CC[C@H]([NH2+]Cc1nn(CC)c3ccccc13)C2
REMARK SMILES IDX 12 1 11 2 10 3 9 4 8 5 6 6 7 7 5 8 3 9 4 10 84 11 83 12
REMARK SMILES IDX 85 13 101 14 86 15 87 16 2 17 1 18 88 19 89 22 90 23 91 24
REMARK SMILES IDX 100 25 92 26 95 27 99 28 96 29 98 30 97 31 93 32 94 33 13 34
REMARK SMILES IDX 14 35 15 36 16 37 17 38 18 39 19 40 20 41 21 42 82 43 22 44
REMARK SMILES IDX 81 45 23 46 24 47 25 48 75 49 26 50 80 51 74 52 76 53 27 54
REMARK SMILES IDX 79 55 73 56 72 57 28 59 60 60 40 61 59 62 41 63 44 64 58 65
REMARK SMILES IDX 77 66 42 67 43 68 57 70 78 71 45 72 29 73 30 74 38 75 31 76
REMARK SMILES IDX 37 77 39 78 36 79 32 80 33 81 34 82 35 83 61 84 62 85 70 86
REMARK SMILES IDX 63 87 69 88 71 89 68 90 64 91 65 92 66 93 67 94 46 95 47 96
REMARK SMILES IDX 55 97 48 98 54 99 56 100 53 101 49 102 50 103 51 104 52 105
REMARK H PARENT 88 20 88 21 76 58 44 69
REMARK Flexibility Score: inf
ROOT
ATOM      1  C   UNL A   1      39.889  27.456  27.866  1.00  0.00     0.188 C 
ENDROOT
BRANCH   1   2
ATOM      2  O   UNL A   1      40.011  26.151  27.258  1.00  0.00    -0.376 OA
BRANCH   2   3
ATOM      3  C   UNL A   1      39.788  24.751  27.622  1.00  0.00     0.202 C 
BRANCH   3   4
ATOM      4  C   UNL A   1      39.072  23.321  26.815  1.00  0.00     0.261 C 
BRANCH   4   5
ATOM      5  O   UNL A   1      37.724  23.108  25.720  1.00  0.00    -0.458 OA
BRANCH   5   6
ATOM      6  C   UNL A   1      36.680  23.077  24.690  1.00  0.00     0.359 C 
ATOM      7  O   UNL A   1      37.007  23.621  23.631  1.00  0.00    -0.244 OA
BRANCH   6   8
ATOM      8  C   UNL A   1      35.135  22.409  24.724  1.00  0.00     0.174 A 
ATOM      9  N   UNL A   1      33.770  20.672  24.819  1.00  0.00    -0.269 N 
ATOM     10  N   UNL A   1      35.053  21.057  24.534  1.00  0.00    -0.165 NA
ATOM     11  C   UNL A   1      32.914  21.716  25.012  1.00  0.00     0.043 A 
ATOM     12  C   UNL A   1      33.744  22.809  25.062  1.00  0.00     0.014 A 
ATOM     13  C   UNL A   1      31.445  21.708  25.411  1.00  0.00     0.062 C 
ATOM     14  C   UNL A   1      33.134  23.980  25.693  1.00  0.00     0.105 C 
ATOM     15  C   UNL A   1      30.854  23.150  25.609  1.00  0.00     0.072 C 
ATOM     16  C   UNL A   1      31.808  23.982  26.465  1.00  0.00     0.187 C 
BRANCH   9  17
ATOM     17  C   UNL A   1      33.487  19.271  25.104  1.00  0.00     0.141 C 
ATOM     18  C   UNL A   1      32.564  18.596  24.101  1.00  0.00     0.029 C 
ENDBRANCH   9  17
BRANCH  16  19
ATOM     19  N   UNL A   1      31.437  25.391  26.821  1.00  0.00    -0.338 N 
ATOM     20  H   UNL A   1      32.298  25.930  26.909  1.00  0.00     0.346 HD
ATOM     21  H   UNL A   1      30.901  25.332  27.687  1.00  0.00     0.346 HD
BRANCH  19  22
ATOM     22  C   UNL A   1      30.538  26.101  25.818  1.00  0.00     0.320 C 
BRANCH  22  23
ATOM     23  C   UNL A   1      31.160  27.341  25.222  1.00  0.00     0.124 A 
ATOM     24  N   UNL A   1      30.566  27.927  24.195  1.00  0.00    -0.171 NA
ATOM     25  C   UNL A   1      32.144  28.187  25.731  1.00  0.00     0.029 A 
ATOM     26  N   UNL A   1      30.671  29.267  24.336  1.00  0.00    -0.265 N 
ATOM     27  C   UNL A   1      31.625  29.473  25.438  1.00  0.00     0.069 A 
ATOM     28  C   UNL A   1      33.253  28.017  26.585  1.00  0.00     0.012 A 
ATOM     29  C   UNL A   1      32.099  30.516  26.292  1.00  0.00     0.028 A 
ATOM     30  C   UNL A   1      33.831  29.111  27.215  1.00  0.00     0.001 A 
ATOM     31  C   UNL A   1      33.210  30.337  27.126  1.00  0.00     0.002 A 
BRANCH  26  32
ATOM     32  C   UNL A   1      29.646  30.007  23.458  1.00  0.00     0.141 C 
ATOM     33  C   UNL A   1      28.833  31.414  23.646  1.00  0.00     0.029 C 
ENDBRANCH  26  32
ENDBRANCH  22  23
ENDBRANCH  19  22
ENDBRANCH  16  19
ENDBRANCH   6   8
ENDBRANCH   5   6
ENDBRANCH   4   5
ENDBRANCH   3   4
ENDBRANCH   2   3
ENDBRANCH   1   2
BRANCH   1  34
ATOM     34  C   UNL A   1      38.794  28.271  28.695  1.00  0.00     0.188 C 
BRANCH  34  35
ATOM     35  O   UNL A   1      37.881  29.185  28.120  1.00  0.00    -0.376 OA
BRANCH  35  36
ATOM     36  C   UNL A   1      37.765  30.435  28.748  1.00  0.00     0.202 C 
BRANCH  36  37
ATOM     37  C   UNL A   1      36.554  31.264  28.312  1.00  0.00     0.261 C 
BRANCH  37  38
ATOM     38  O   UNL A   1      35.739  31.742  29.381  1.00  0.00    -0.460 OA
BRANCH  38  39
ATOM     39  C   UNL A   1      36.043  32.952  29.909  1.00  0.00     0.338 C 
ATOM     40  O   UNL A   1      36.590  33.889  29.341  1.00  0.00    -0.246 OA
BRANCH  39  41
ATOM     41  C   UNL A   1      35.618  32.984  31.343  1.00  0.00     0.060 A 
ATOM     42  C   UNL A   1      36.021  34.155  31.978  1.00  0.00     0.016 A 
ATOM     43  C   UNL A   1      35.607  31.753  32.018  1.00  0.00     0.016 A 
ATOM     44  C   UNL A   1      36.963  33.998  32.962  1.00  0.00     0.010 A 
ATOM     45  C   UNL A   1      36.556  31.587  32.991  1.00  0.00     0.010 A 
ATOM     46  C   UNL A   1      37.326  32.697  33.318  1.00  0.00    -0.014 A 
BRANCH  46  47
ATOM     47  C   UNL A   1      38.600  32.523  33.970  1.00  0.00     0.031 A 
ATOM     48  C   UNL A   1      38.704  33.231  35.248  1.00  0.00     0.074 A 
ATOM     49  C   UNL A   1      39.568  31.740  33.456  1.00  0.00     0.049 A 
ATOM     50  N   UNL A   1      39.503  34.195  35.548  1.00  0.00    -0.248 NA
ATOM     51  C   UNL A   1      37.674  32.949  36.256  1.00  0.00     0.031 C 
ATOM     52  C   UNL A   1      39.483  30.810  32.326  1.00  0.00     0.029 A 
ATOM     53  N   UNL A   1      40.816  31.522  33.945  1.00  0.00    -0.354 N 
ATOM     54  C   UNL A   1      39.207  34.521  36.862  1.00  0.00     0.074 A 
ATOM     55  C   UNL A   1      37.964  33.868  37.172  1.00  0.00     0.031 C 
ATOM     56  C   UNL A   1      40.531  29.958  32.387  1.00  0.00     0.029 A 
ATOM     57  C   UNL A   1      41.399  30.349  33.487  1.00  0.00     0.049 A 
ATOM     58  H   UNL A   1      41.266  32.138  34.568  1.00  0.00     0.167 HD
ATOM     59  C   UNL A   1      40.121  35.134  37.657  1.00  0.00     0.034 A 
ATOM     60  C   UNL A   1      42.437  29.692  34.068  1.00  0.00     0.034 A 
ATOM     61  C   UNL A   1      41.170  35.748  36.877  1.00  0.00     0.049 A 
ATOM     62  C   UNL A   1      43.177  30.688  34.891  1.00  0.00     0.074 A 
ATOM     63  C   UNL A   1      41.183  36.723  35.896  1.00  0.00     0.029 A 
ATOM     64  N   UNL A   1      42.382  35.100  36.772  1.00  0.00    -0.354 N 
ATOM     65  N   UNL A   1      43.813  31.709  34.381  1.00  0.00    -0.248 NA
ATOM     66  C   UNL A   1      42.814  30.839  36.295  1.00  0.00     0.031 C 
ATOM     67  C   UNL A   1      42.168  36.296  34.960  1.00  0.00     0.029 A 
ATOM     68  C   UNL A   1      42.744  35.120  35.444  1.00  0.00     0.049 A 
ATOM     69  H   UNL A   1      42.894  34.697  37.511  1.00  0.00     0.167 HD
ATOM     70  C   UNL A   1      43.541  32.772  35.232  1.00  0.00     0.074 A 
ATOM     71  C   UNL A   1      43.022  32.152  36.450  1.00  0.00     0.031 C 
ATOM     72  C   UNL A   1      43.481  34.060  34.775  1.00  0.00     0.034 A 
BRANCH  59  73
ATOM     73  C   UNL A   1      40.213  34.922  39.144  1.00  0.00     0.023 A 
ATOM     74  C   UNL A   1      40.102  36.056  39.965  1.00  0.00     0.031 A 
ATOM     75  C   UNL A   1      40.651  33.737  39.782  1.00  0.00     0.131 A 
ATOM     76  C   UNL A   1      40.482  36.005  41.316  1.00  0.00     0.055 A 
ATOM     77  C   UNL A   1      40.952  33.671  41.142  1.00  0.00     0.041 A 
ATOM     78  F   UNL A   1      40.912  32.605  39.115  1.00  0.00    -0.206 F 
ATOM     79  C   UNL A   1      40.897  34.817  41.913  1.00  0.00     0.022 A 
BRANCH  76  80
ATOM     80  S   UNL A   1      40.604  37.561  42.228  1.00  0.00     0.124 S 
ATOM     81  O   UNL A   1      40.463  38.546  41.161  1.00  0.00    -0.237 OA
ATOM     82  O   UNL A   1      39.484  37.451  43.156  1.00  0.00    -0.237 OA
ATOM     83  O   UNL A   1      41.930  37.491  42.837  1.00  0.00    -0.744 OA
ENDBRANCH  76  80
ENDBRANCH  59  73
BRANCH  60  84
ATOM     84  C   UNL A   1      42.568  28.212  34.197  1.00  0.00     0.023 A 
ATOM     85  C   UNL A   1      43.493  27.462  33.445  1.00  0.00     0.031 A 
ATOM     86  C   UNL A   1      41.902  27.520  35.239  1.00  0.00     0.131 A 
ATOM     87  C   UNL A   1      43.698  26.090  33.729  1.00  0.00     0.055 A 
ATOM     88  C   UNL A   1      42.088  26.162  35.498  1.00  0.00     0.041 A 
ATOM     89  F   UNL A   1      41.105  28.160  36.110  1.00  0.00    -0.206 F 
ATOM     90  C   UNL A   1      42.994  25.439  34.745  1.00  0.00     0.022 A 
BRANCH  87  91
ATOM     91  S   UNL A   1      44.987  25.149  32.851  1.00  0.00     0.124 S 
ATOM     92  O   UNL A   1      45.093  25.872  31.591  1.00  0.00    -0.237 OA
ATOM     93  O   UNL A   1      46.125  25.252  33.758  1.00  0.00    -0.237 OA
ATOM     94  O   UNL A   1      44.414  23.806  32.746  1.00  0.00    -0.744 OA
ENDBRANCH  87  91
ENDBRANCH  60  84
BRANCH  72  95
ATOM     95  C   UNL A   1      43.978  34.358  33.370  1.00  0.00     0.023 A 
ATOM     96  C   UNL A   1      43.225  34.138  32.194  1.00  0.00     0.031 A 
ATOM     97  C   UNL A   1      45.206  35.032  33.233  1.00  0.00     0.131 A 
ATOM     98  C   UNL A   1      43.712  34.573  30.946  1.00  0.00     0.055 A 
ATOM     99  C   UNL A   1      45.673  35.486  31.997  1.00  0.00     0.041 A 
ATOM    100  F   UNL A   1      45.959  35.303  34.311  1.00  0.00    -0.206 F 
ATOM    101  C   UNL A   1      44.929  35.252  30.848  1.00  0.00     0.022 A 
BRANCH  98 102
ATOM    102  S   UNL A   1      42.769  34.248  29.422  1.00  0.00     0.124 S 
ATOM    103  O   UNL A   1      43.781  33.769  28.489  1.00  0.00    -0.237 OA
ATOM    104  O   UNL A   1      41.786  33.264  29.865  1.00  0.00    -0.237 OA
ATOM    105  O   UNL A   1      42.207  35.558  29.086  1.00  0.00    -0.744 OA
ENDBRANCH  98 102
ENDBRANCH  72  95
ENDBRANCH  46  47
ENDBRANCH  39  41
ENDBRANCH  38  39
ENDBRANCH  37  38
ENDBRANCH  36  37
ENDBRANCH  35  36
ENDBRANCH  34  35
ENDBRANCH   1  34
TORSDOF 25
ENDMDL
MODEL 2
REMARK VINA RESULT:      -9.9      2.273      6.811
REMARK SMILES CCn1nc(C(=O)OCCOCCOCCOC(=O)c2ccc(-c3c4nc(c(-c5cc(S(=O)(=O)[O-])ccc5F)c5ccc([nH]5)c(-c5cc(S(=O)(=O)[O-])ccc5F)c5nc(c(-c6cc(S(=O)(=O)[O-])ccc6F)c6ccc3[nH]6)C=C5)C=C4)cc2)c2c1CC[C@H]([NH2+]Cc1nn(CC)c3ccccc13)C2
REMARK SMILES IDX 12 1 11 2 10 3 9 4 8 5 6 6 7 7 5 8 3 9 4 10 84 11 83 12
REMARK SMILES IDX 85 13 101 14 86 15 87 16 2 17 1 18 88 19 89 22 90 23 91 24
REMARK SMILES IDX 100 25 92 26 95 27 99 28 96 29 98 30 97 31 93 32 94 33 13 34
REMARK SMILES IDX 14 35 15 36 16 37 17 38 18 39 19 40 20 41 21 42 82 43 22 44
REMARK SMILES IDX 81 45 23 46 24 47 25 48 75 49 26 50 80 51 74 52 76 53 27 54
REMARK SMILES IDX 79 55 73 56 72 57 28 59 60 60 40 61 59 62 41 63 44 64 58 65
REMARK SMILES IDX 77 66 42 67 43 68 57 70 78 71 45 72 29 73 30 74 38 75 31 76
REMARK SMILES IDX 37 77 39 78 36 79 32 80 33 81 34 82 35 83 61 84 62 85 70 86
REMARK SMILES IDX 63 87 69 88 71 89 68 90 64 91 65 92 66 93 67 94 46 95 47 96
REMARK SMILES IDX 55 97 48 98 54 99 56 100 53 101 49 102 50 103 51 104 52 105
REMARK H PARENT 88 20 88 21 76 58 44 69
REMARK Flexibility Score: inf
ROOT
ATOM      1  C   UNL A   1      39.954  27.917  27.686  1.00  0.00     0.188 C 
ENDROOT
BRANCH   1   2
ATOM      2  O   UNL A   1      39.969  26.547  27.228  1.00  0.00    -0.376 OA
BRANCH   2   3
ATOM      3  C   UNL A   1      39.416  25.254  27.632  1.00  0.00     0.202 C 
BRANCH   3   4
ATOM      4  C   UNL A   1      38.960  23.741  26.790  1.00  0.00     0.261 C 
BRANCH   4   5
ATOM      5  O   UNL A   1      37.692  23.331  25.656  1.00  0.00    -0.458 OA
BRANCH   5   6
ATOM      6  C   UNL A   1      36.686  23.154  24.603  1.00  0.00     0.359 C 
ATOM      7  O   UNL A   1      36.994  23.675  23.527  1.00  0.00    -0.244 OA
BRANCH   6   8
ATOM      8  C   UNL A   1      35.209  22.348  24.631  1.00  0.00     0.174 A 
ATOM      9  N   UNL A   1      34.007  20.493  24.671  1.00  0.00    -0.269 N 
ATOM     10  N   UNL A   1      35.245  21.004  24.383  1.00  0.00    -0.165 NA
ATOM     11  C   UNL A   1      33.065  21.446  24.922  1.00  0.00     0.043 A 
ATOM     12  C   UNL A   1      33.794  22.606  25.007  1.00  0.00     0.014 A 
ATOM     13  C   UNL A   1      31.610  21.288  25.343  1.00  0.00     0.062 C 
ATOM     14  C   UNL A   1      33.094  23.689  25.699  1.00  0.00     0.105 C 
ATOM     15  C   UNL A   1      30.896  22.661  25.613  1.00  0.00     0.072 C 
ATOM     16  C   UNL A   1      31.788  23.538  26.490  1.00  0.00     0.187 C 
BRANCH   9  17
ATOM     17  C   UNL A   1      33.857  19.061  24.899  1.00  0.00     0.141 C 
ATOM     18  C   UNL A   1      33.145  18.315  23.780  1.00  0.00     0.029 C 
ENDBRANCH   9  17
BRANCH  16  19
ATOM     19  N   UNL A   1      31.299  24.892  26.913  1.00  0.00    -0.338 N 
ATOM     20  H   UNL A   1      32.097  25.527  26.918  1.00  0.00     0.346 HD
ATOM     21  H   UNL A   1      30.872  24.764  27.830  1.00  0.00     0.346 HD
BRANCH  19  22
ATOM     22  C   UNL A   1      30.219  25.501  26.028  1.00  0.00     0.320 C 
BRANCH  22  23
ATOM     23  C   UNL A   1      30.727  26.600  25.127  1.00  0.00     0.124 A 
ATOM     24  N   UNL A   1      30.847  27.825  25.615  1.00  0.00    -0.171 NA
ATOM     25  C   UNL A   1      31.378  26.528  23.897  1.00  0.00     0.029 A 
ATOM     26  N   UNL A   1      31.968  28.388  25.112  1.00  0.00    -0.265 N 
ATOM     27  C   UNL A   1      32.417  27.481  24.043  1.00  0.00     0.069 A 
ATOM     28  C   UNL A   1      31.351  25.626  22.813  1.00  0.00     0.012 A 
ATOM     29  C   UNL A   1      33.555  27.254  23.209  1.00  0.00     0.028 A 
ATOM     30  C   UNL A   1      32.384  25.610  21.886  1.00  0.00     0.001 A 
ATOM     31  C   UNL A   1      33.510  26.365  22.127  1.00  0.00     0.002 A 
BRANCH  26  32
ATOM     32  C   UNL A   1      32.416  29.597  25.951  1.00  0.00     0.141 C 
ATOM     33  C   UNL A   1      31.782  31.088  26.179  1.00  0.00     0.029 C 
ENDBRANCH  26  32
ENDBRANCH  22  23
ENDBRANCH  19  22
ENDBRANCH  16  19
ENDBRANCH   6   8
ENDBRANCH   5   6
ENDBRANCH   4   5
ENDBRANCH   3   4
ENDBRANCH   2   3
ENDBRANCH   1   2
BRANCH   1  34
ATOM     34  C   UNL A   1      39.147  28.796  28.747  1.00  0.00     0.188 C 
BRANCH  34  35
ATOM     35  O   UNL A   1      37.867  29.350  28.509  1.00  0.00    -0.376 OA
BRANCH  35  36
ATOM     36  C   UNL A   1      37.785  30.751  28.490  1.00  0.00     0.202 C 
BRANCH  36  37
ATOM     37  C   UNL A   1      36.426  31.310  28.060  1.00  0.00     0.261 C 
BRANCH  37  38
ATOM     38  O   UNL A   1      35.439  31.345  29.089  1.00  0.00    -0.460 OA
BRANCH  38  39
ATOM     39  C   UNL A   1      35.351  32.473  29.834  1.00  0.00     0.338 C 
ATOM     40  O   UNL A   1      35.404  33.629  29.434  1.00  0.00    -0.246 OA
BRANCH  39  41
ATOM     41  C   UNL A   1      35.192  32.100  31.274  1.00  0.00     0.060 A 
ATOM     42  C   UNL A   1      35.104  33.221  32.095  1.00  0.00     0.016 A 
ATOM     43  C   UNL A   1      35.857  30.938  31.695  1.00  0.00     0.016 A 
ATOM     44  C   UNL A   1      36.153  33.406  32.957  1.00  0.00     0.010 A 
ATOM     45  C   UNL A   1      36.916  31.119  32.545  1.00  0.00     0.010 A 
ATOM     46  C   UNL A   1      37.127  32.406  33.024  1.00  0.00    -0.014 A 
BRANCH  46  47
ATOM     47  C   UNL A   1      38.423  32.782  33.534  1.00  0.00     0.031 A 
ATOM     48  C   UNL A   1      39.319  33.324  32.509  1.00  0.00     0.074 A 
ATOM     49  C   UNL A   1      38.738  32.680  34.839  1.00  0.00     0.049 A 
ATOM     50  N   UNL A   1      40.433  32.825  32.098  1.00  0.00    -0.248 NA
ATOM     51  C   UNL A   1      38.829  34.465  31.725  1.00  0.00     0.031 C 
ATOM     52  C   UNL A   1      37.852  32.384  35.969  1.00  0.00     0.029 A 
ATOM     53  N   UNL A   1      39.923  32.962  35.439  1.00  0.00    -0.354 N 
ATOM     54  C   UNL A   1      40.888  33.699  31.125  1.00  0.00     0.074 A 
ATOM     55  C   UNL A   1      39.784  34.563  30.806  1.00  0.00     0.031 C 
ATOM     56  C   UNL A   1      38.470  32.754  37.113  1.00  0.00     0.029 A 
ATOM     57  C   UNL A   1      39.816  33.209  36.800  1.00  0.00     0.049 A 
ATOM     58  H   UNL A   1      40.780  32.988  34.954  1.00  0.00     0.167 HD
ATOM     59  C   UNL A   1      42.207  33.776  30.810  1.00  0.00     0.034 A 
ATOM     60  C   UNL A   1      40.725  33.867  37.567  1.00  0.00     0.034 A 
ATOM     61  C   UNL A   1      42.925  32.607  31.262  1.00  0.00     0.049 A 
ATOM     62  C   UNL A   1      42.038  33.764  36.870  1.00  0.00     0.074 A 
ATOM     63  C   UNL A   1      42.811  31.255  30.995  1.00  0.00     0.029 A 
ATOM     64  N   UNL A   1      43.671  32.695  32.418  1.00  0.00    -0.354 N 
ATOM     65  N   UNL A   1      42.668  32.634  36.690  1.00  0.00    -0.248 NA
ATOM     66  C   UNL A   1      42.421  34.826  35.948  1.00  0.00     0.031 C 
ATOM     67  C   UNL A   1      43.064  30.607  32.239  1.00  0.00     0.029 A 
ATOM     68  C   UNL A   1      43.377  31.589  33.182  1.00  0.00     0.049 A 
ATOM     69  H   UNL A   1      44.299  33.417  32.653  1.00  0.00     0.167 HD
ATOM     70  C   UNL A   1      43.175  32.700  35.399  1.00  0.00     0.074 A 
ATOM     71  C   UNL A   1      43.093  34.114  35.037  1.00  0.00     0.031 C 
ATOM     72  C   UNL A   1      43.339  31.577  34.635  1.00  0.00     0.034 A 
BRANCH  59  73
ATOM     73  C   UNL A   1      42.887  35.039  30.354  1.00  0.00     0.023 A 
ATOM     74  C   UNL A   1      43.460  35.856  31.342  1.00  0.00     0.031 A 
ATOM     75  C   UNL A   1      42.786  35.608  29.062  1.00  0.00     0.131 A 
ATOM     76  C   UNL A   1      43.830  37.180  31.054  1.00  0.00     0.055 A 
ATOM     77  C   UNL A   1      43.229  36.897  28.761  1.00  0.00     0.041 A 
ATOM     78  F   UNL A   1      42.166  34.999  28.044  1.00  0.00    -0.206 F 
ATOM     79  C   UNL A   1      43.728  37.702  29.767  1.00  0.00     0.022 A 
BRANCH  76  80
ATOM     80  S   UNL A   1      44.270  38.263  32.433  1.00  0.00     0.124 S 
ATOM     81  O   UNL A   1      45.607  37.786  32.773  1.00  0.00    -0.237 OA
ATOM     82  O   UNL A   1      44.194  39.581  31.813  1.00  0.00    -0.237 OA
ATOM     83  O   UNL A   1      43.237  37.979  33.426  1.00  0.00    -0.744 OA
ENDBRANCH  76  80
ENDBRANCH  59  73
BRANCH  60  84
ATOM     84  C   UNL A   1      40.409  34.839  38.653  1.00  0.00     0.023 A 
ATOM     85  C   UNL A   1      40.814  34.646  39.988  1.00  0.00     0.031 A 
ATOM     86  C   UNL A   1      39.859  36.107  38.343  1.00  0.00     0.131 A 
ATOM     87  C   UNL A   1      40.640  35.677  40.943  1.00  0.00     0.055 A 
ATOM     88  C   UNL A   1      39.666  37.111  39.293  1.00  0.00     0.041 A 
ATOM     89  F   UNL A   1      39.568  36.458  37.080  1.00  0.00    -0.206 F 
ATOM     90  C   UNL A   1      40.062  36.901  40.601  1.00  0.00     0.022 A 
BRANCH  87  91
ATOM     91  S   UNL A   1      41.282  35.484  42.636  1.00  0.00     0.124 S 
ATOM     92  O   UNL A   1      40.967  36.774  43.235  1.00  0.00    -0.237 OA
ATOM     93  O   UNL A   1      40.528  34.336  43.130  1.00  0.00    -0.237 OA
ATOM     94  O   UNL A   1      42.708  35.231  42.431  1.00  0.00    -0.744 OA
ENDBRANCH  87  91
ENDBRANCH  60  84
BRANCH  72  95
ATOM     95  C   UNL A   1      43.213  30.217  35.302  1.00  0.00     0.023 A 
ATOM     96  C   UNL A   1      44.254  29.577  36.011  1.00  0.00     0.031 A 
ATOM     97  C   UNL A   1      41.940  29.618  35.344  1.00  0.00     0.131 A 
ATOM     98  C   UNL A   1      44.005  28.381  36.714  1.00  0.00     0.055 A 
ATOM     99  C   UNL A   1      41.690  28.448  36.064  1.00  0.00     0.041 A 
ATOM    100  F   UNL A   1      40.897  30.189  34.719  1.00  0.00    -0.206 F 
ATOM    101  C   UNL A   1      42.724  27.822  36.748  1.00  0.00     0.022 A 
BRANCH  98 102
ATOM    102  S   UNL A   1      45.353  27.525  37.590  1.00  0.00     0.124 S 
ATOM    103  O   UNL A   1      46.149  28.614  38.141  1.00  0.00    -0.237 OA
ATOM    104  O   UNL A   1      44.628  26.706  38.557  1.00  0.00    -0.237 OA
ATOM    105  O   UNL A   1      46.017  26.765  36.528  1.00  0.00    -0.744 OA
ENDBRANCH  98 102
ENDBRANCH  72  95
ENDBRANCH  46  47
ENDBRANCH  39  41
ENDBRANCH  38  39
ENDBRANCH  37  38
ENDBRANCH  36  37
ENDBRANCH  35  36
ENDBRANCH  34  35
ENDBRANCH   1  34
TORSDOF 25
ENDMDL
MODEL 3
REMARK VINA RESULT:      -9.7      1.620      2.211
REMARK SMILES CCn1nc(C(=O)OCCOCCOCCOC(=O)c2ccc(-c3c4nc(c(-c5cc(S(=O)(=O)[O-])ccc5F)c5ccc([nH]5)c(-c5cc(S(=O)(=O)[O-])ccc5F)c5nc(c(-c6cc(S(=O)(=O)[O-])ccc6F)c6ccc3[nH]6)C=C5)C=C4)cc2)c2c1CC[C@H]([NH2+]Cc1nn(CC)c3ccccc13)C2
REMARK SMILES IDX 12 1 11 2 10 3 9 4 8 5 6 6 7 7 5 8 3 9 4 10 84 11 83 12
REMARK SMILES IDX 85 13 101 14 86 15 87 16 2 17 1 18 88 19 89 22 90 23 91 24
REMARK SMILES IDX 100 25 92 26 95 27 99 28 96 29 98 30 97 31 93 32 94 33 13 34
REMARK SMILES IDX 14 35 15 36 16 37 17 38 18 39 19 40 20 41 21 42 82 43 22 44
REMARK SMILES IDX 81 45 23 46 24 47 25 48 75 49 26 50 80 51 74 52 76 53 27 54
REMARK SMILES IDX 79 55 73 56 72 57 28 59 60 60 40 61 59 62 41 63 44 64 58 65
REMARK SMILES IDX 77 66 42 67 43 68 57 70 78 71 45 72 29 73 30 74 38 75 31 76
REMARK SMILES IDX 37 77 39 78 36 79 32 80 33 81 34 82 35 83 61 84 62 85 70 86
REMARK SMILES IDX 63 87 69 88 71 89 68 90 64 91 65 92 66 93 67 94 46 95 47 96
REMARK SMILES IDX 55 97 48 98 54 99 56 100 53 101 49 102 50 103 51 104 52 105
REMARK H PARENT 88 20 88 21 76 58 44 69
REMARK Flexibility Score: inf
ROOT
ATOM      1  C   UNL A   1      40.827  27.695  26.735  1.00  0.00     0.188 C 
ENDROOT
BRANCH   1   2
ATOM      2  O   UNL A   1      40.768  26.373  26.154  1.00  0.00    -0.376 OA
BRANCH   2   3
ATOM      3  C   UNL A   1      40.219  25.058  26.486  1.00  0.00     0.202 C 
BRANCH   3   4
ATOM      4  C   UNL A   1      38.577  24.381  26.719  1.00  0.00     0.261 C 
BRANCH   4   5
ATOM      5  O   UNL A   1      37.387  23.709  25.626  1.00  0.00    -0.458 OA
BRANCH   5   6
ATOM      6  C   UNL A   1      36.504  23.223  24.561  1.00  0.00     0.359 C 
ATOM      7  O   UNL A   1      36.971  23.357  23.426  1.00  0.00    -0.244 OA
BRANCH   6   8
ATOM      8  C   UNL A   1      34.983  22.506  24.648  1.00  0.00     0.174 A 
ATOM      9  N   UNL A   1      33.679  20.726  24.780  1.00  0.00    -0.269 N 
ATOM     10  N   UNL A   1      34.937  21.153  24.449  1.00  0.00    -0.165 NA
ATOM     11  C   UNL A   1      32.798  21.740  25.013  1.00  0.00     0.043 A 
ATOM     12  C   UNL A   1      33.594  22.858  25.041  1.00  0.00     0.014 A 
ATOM     13  C   UNL A   1      31.346  21.682  25.468  1.00  0.00     0.062 C 
ATOM     14  C   UNL A   1      32.972  24.004  25.705  1.00  0.00     0.105 C 
ATOM     15  C   UNL A   1      30.718  23.103  25.700  1.00  0.00     0.072 C 
ATOM     16  C   UNL A   1      31.677  23.959  26.526  1.00  0.00     0.187 C 
BRANCH   9  17
ATOM     17  C   UNL A   1      33.452  19.314  25.064  1.00  0.00     0.141 C 
ATOM     18  C   UNL A   1      32.685  18.568  23.982  1.00  0.00     0.029 C 
ENDBRANCH   9  17
BRANCH  16  19
ATOM     19  N   UNL A   1      31.275  25.353  26.908  1.00  0.00    -0.338 N 
ATOM     20  H   UNL A   1      32.108  25.941  26.872  1.00  0.00     0.346 HD
ATOM     21  H   UNL A   1      30.863  25.283  27.838  1.00  0.00     0.346 HD
BRANCH  19  22
ATOM     22  C   UNL A   1      30.211  25.990  26.023  1.00  0.00     0.320 C 
BRANCH  22  23
ATOM     23  C   UNL A   1      30.777  26.906  24.965  1.00  0.00     0.124 A 
ATOM     24  N   UNL A   1      30.986  28.178  25.264  1.00  0.00    -0.171 NA
ATOM     25  C   UNL A   1      31.401  26.606  23.755  1.00  0.00     0.029 A 
ATOM     26  N   UNL A   1      32.134  28.582  24.674  1.00  0.00    -0.265 N 
ATOM     27  C   UNL A   1      32.503  27.497  23.750  1.00  0.00     0.069 A 
ATOM     28  C   UNL A   1      31.296  25.557  22.819  1.00  0.00     0.012 A 
ATOM     29  C   UNL A   1      33.610  27.071  22.953  1.00  0.00     0.028 A 
ATOM     30  C   UNL A   1      32.311  25.332  21.898  1.00  0.00     0.001 A 
ATOM     31  C   UNL A   1      33.488  26.036  22.016  1.00  0.00     0.002 A 
BRANCH  26  32
ATOM     32  C   UNL A   1      32.676  29.869  25.321  1.00  0.00     0.141 C 
ATOM     33  C   UNL A   1      32.549  30.493  26.827  1.00  0.00     0.029 C 
ENDBRANCH  26  32
ENDBRANCH  22  23
ENDBRANCH  19  22
ENDBRANCH  16  19
ENDBRANCH   6   8
ENDBRANCH   5   6
ENDBRANCH   4   5
ENDBRANCH   3   4
ENDBRANCH   2   3
ENDBRANCH   1   2
BRANCH   1  34
ATOM     34  C   UNL A   1      39.807  28.866  27.106  1.00  0.00     0.188 C 
BRANCH  34  35
ATOM     35  O   UNL A   1      39.000  28.877  28.268  1.00  0.00    -0.376 OA
BRANCH  35  36
ATOM     36  C   UNL A   1      37.934  29.790  28.282  1.00  0.00     0.202 C 
BRANCH  36  37
ATOM     37  C   UNL A   1      37.499  30.249  29.676  1.00  0.00     0.261 C 
BRANCH  37  38
ATOM     38  O   UNL A   1      37.145  31.628  29.769  1.00  0.00    -0.460 OA
BRANCH  38  39
ATOM     39  C   UNL A   1      35.840  31.927  29.977  1.00  0.00     0.338 C 
ATOM     40  O   UNL A   1      34.885  31.576  29.297  1.00  0.00    -0.246 OA
BRANCH  39  41
ATOM     41  C   UNL A   1      35.721  32.795  31.189  1.00  0.00     0.060 A 
ATOM     42  C   UNL A   1      36.505  33.941  31.087  1.00  0.00     0.016 A 
ATOM     43  C   UNL A   1      35.551  32.134  32.416  1.00  0.00     0.016 A 
ATOM     44  C   UNL A   1      37.556  34.018  31.964  1.00  0.00     0.010 A 
ATOM     45  C   UNL A   1      36.604  32.196  33.289  1.00  0.00     0.010 A 
ATOM     46  C   UNL A   1      37.663  33.027  32.943  1.00  0.00    -0.014 A 
BRANCH  46  47
ATOM     47  C   UNL A   1      38.962  32.823  33.536  1.00  0.00     0.031 A 
ATOM     48  C   UNL A   1      39.209  33.671  34.706  1.00  0.00     0.074 A 
ATOM     49  C   UNL A   1      39.827  31.903  33.069  1.00  0.00     0.049 A 
ATOM     50  N   UNL A   1      40.100  34.591  34.833  1.00  0.00    -0.248 NA
ATOM     51  C   UNL A   1      38.233  33.603  35.800  1.00  0.00     0.031 C 
ATOM     52  C   UNL A   1      39.591  30.854  32.074  1.00  0.00     0.029 A 
ATOM     53  N   UNL A   1      41.085  31.639  33.508  1.00  0.00    -0.354 N 
ATOM     54  C   UNL A   1      39.923  35.098  36.110  1.00  0.00     0.074 A 
ATOM     55  C   UNL A   1      38.657  34.598  36.573  1.00  0.00     0.031 C 
ATOM     56  C   UNL A   1      40.571  29.928  32.180  1.00  0.00     0.029 A 
ATOM     57  C   UNL A   1      41.541  30.373  33.168  1.00  0.00     0.049 A 
ATOM     58  H   UNL A   1      41.624  32.285  34.020  1.00  0.00     0.167 HD
ATOM     59  C   UNL A   1      40.935  35.722  36.766  1.00  0.00     0.034 A 
ATOM     60  C   UNL A   1      42.561  29.704  33.766  1.00  0.00     0.034 A 
ATOM     61  C   UNL A   1      41.972  36.143  35.854  1.00  0.00     0.049 A 
ATOM     62  C   UNL A   1      43.433  30.725  34.411  1.00  0.00     0.074 A 
ATOM     63  C   UNL A   1      41.994  36.987  34.759  1.00  0.00     0.029 A 
ATOM     64  N   UNL A   1      43.120  35.385  35.761  1.00  0.00    -0.354 N 
ATOM     65  N   UNL A   1      44.111  31.618  33.739  1.00  0.00    -0.248 NA
ATOM     66  C   UNL A   1      43.181  31.076  35.803  1.00  0.00     0.031 C 
ATOM     67  C   UNL A   1      42.875  36.366  33.827  1.00  0.00     0.029 A 
ATOM     68  C   UNL A   1      43.390  35.211  34.423  1.00  0.00     0.049 A 
ATOM     69  H   UNL A   1      43.648  35.032  36.513  1.00  0.00     0.167 HD
ATOM     70  C   UNL A   1      43.983  32.795  34.463  1.00  0.00     0.074 A 
ATOM     71  C   UNL A   1      43.502  32.375  35.778  1.00  0.00     0.031 C 
ATOM     72  C   UNL A   1      43.993  34.019  33.851  1.00  0.00     0.034 A 
BRANCH  59  73
ATOM     73  C   UNL A   1      41.113  35.685  38.260  1.00  0.00     0.023 A 
ATOM     74  C   UNL A   1      40.373  36.605  39.021  1.00  0.00     0.031 A 
ATOM     75  C   UNL A   1      42.135  34.991  38.951  1.00  0.00     0.131 A 
ATOM     76  C   UNL A   1      40.701  36.856  40.363  1.00  0.00     0.055 A 
ATOM     77  C   UNL A   1      42.405  35.185  40.306  1.00  0.00     0.041 A 
ATOM     78  F   UNL A   1      42.995  34.166  38.341  1.00  0.00    -0.206 F 
ATOM     79  C   UNL A   1      41.705  36.144  41.014  1.00  0.00     0.022 A 
BRANCH  76  80
ATOM     80  S   UNL A   1      39.915  38.261  41.186  1.00  0.00     0.124 S 
ATOM     81  O   UNL A   1      38.601  38.284  40.550  1.00  0.00    -0.237 OA
ATOM     82  O   UNL A   1      39.947  37.844  42.583  1.00  0.00    -0.237 OA
ATOM     83  O   UNL A   1      40.789  39.381  40.847  1.00  0.00    -0.744 OA
ENDBRANCH  76  80
ENDBRANCH  59  73
BRANCH  60  84
ATOM     84  C   UNL A   1      42.585  28.245  34.074  1.00  0.00     0.023 A 
ATOM     85  C   UNL A   1      43.498  27.355  33.476  1.00  0.00     0.031 A 
ATOM     86  C   UNL A   1      41.814  27.724  35.143  1.00  0.00     0.131 A 
ATOM     87  C   UNL A   1      43.594  26.017  33.930  1.00  0.00     0.055 A 
ATOM     88  C   UNL A   1      41.893  26.398  35.569  1.00  0.00     0.041 A 
ATOM     89  F   UNL A   1      41.014  28.511  35.881  1.00  0.00    -0.206 F 
ATOM     90  C   UNL A   1      42.790  25.537  34.966  1.00  0.00     0.022 A 
BRANCH  87  91
ATOM     91  S   UNL A   1      44.864  24.902  33.252  1.00  0.00     0.124 S 
ATOM     92  O   UNL A   1      46.086  25.673  33.443  1.00  0.00    -0.237 OA
ATOM     93  O   UNL A   1      44.711  23.710  34.080  1.00  0.00    -0.237 OA
ATOM     94  O   UNL A   1      44.455  24.730  31.857  1.00  0.00    -0.744 OA
ENDBRANCH  87  91
ENDBRANCH  60  84
BRANCH  72  95
ATOM     95  C   UNL A   1      44.413  34.100  32.392  1.00  0.00     0.023 A 
ATOM     96  C   UNL A   1      45.754  34.173  31.952  1.00  0.00     0.031 A 
ATOM     97  C   UNL A   1      43.417  33.945  31.409  1.00  0.00     0.131 A 
ATOM     98  C   UNL A   1      46.054  34.105  30.577  1.00  0.00     0.055 A 
ATOM     99  C   UNL A   1      43.721  33.851  30.049  1.00  0.00     0.041 A 
ATOM    100  F   UNL A   1      42.125  33.838  31.758  1.00  0.00    -0.206 F 
ATOM    101  C   UNL A   1      45.042  33.937  29.627  1.00  0.00     0.022 A 
BRANCH  98 102
ATOM    102  S   UNL A   1      47.776  34.248  29.999  1.00  0.00     0.124 S 
ATOM    103  O   UNL A   1      47.656  34.974  28.741  1.00  0.00    -0.237 OA
ATOM    104  O   UNL A   1      48.416  34.967  31.097  1.00  0.00    -0.237 OA
ATOM    105  O   UNL A   1      48.202  32.854  29.856  1.00  0.00    -0.744 OA
ENDBRANCH  98 102
ENDBRANCH  72  95
ENDBRANCH  46  47
ENDBRANCH  39  41
ENDBRANCH  38  39
ENDBRANCH  37  38
ENDBRANCH  36  37
ENDBRANCH  35  36
ENDBRANCH  34  35
ENDBRANCH   1  34
TORSDOF 25
ENDMDL
