MODEL 1
REMARK VINA RESULT:     -11.0      0.000      0.000
REMARK SMILES O=C(OCCOCCOCCOC(=O)c1nn(Cc2ccc(F)cc2)c2c1CN(C(=O)[C@H]1CC1(F)F)CC2)c1ccc(-c2c3nc(c(-c4cc(S(=O)(=O)[O-])ccc4F)c4ccc([nH]4)c(-c4cc(S(=O)(=O)[O-])ccc4F)c4nc(c(-c5cc(S(=O)(=O)[O-])ccc5F)c5ccc2[nH]5)C=C4)C=C3)cc1
REMARK SMILES IDX 7 1 6 2 5 3 4 4 3 5 2 6 1 7 39 8 40 9 101 10 41 11 100 12
REMARK SMILES IDX 42 13 43 14 44 15 94 16 45 17 99 18 93 19 95 20 46 21 98 22
REMARK SMILES IDX 92 23 91 24 47 26 79 27 59 28 78 29 60 30 63 31 77 32 96 33
REMARK SMILES IDX 61 34 62 35 76 37 97 38 64 39 48 40 49 41 57 42 50 43 56 44
REMARK SMILES IDX 58 45 55 46 51 47 52 48 53 49 54 50 80 51 81 52 89 53 82 54
REMARK SMILES IDX 88 55 90 56 87 57 83 58 84 59 85 60 86 61 65 62 66 63 74 64
REMARK SMILES IDX 67 65 73 66 75 67 72 68 68 69 69 70 70 71 71 72 8 73 9 74
REMARK SMILES IDX 10 75 11 76 12 77 13 78 14 79 15 80 16 81 27 82 17 83 26 84
REMARK SMILES IDX 28 85 38 86 29 87 37 88 18 89 19 90 20 91 25 92 21 93 24 94
REMARK SMILES IDX 22 95 23 96 30 97 31 98 32 99 33 100 34 101 35 102 36 103
REMARK H PARENT 95 25 63 36
REMARK Flexibility Score: inf
ROOT
ATOM      1  C   UNL A   1      41.671  19.071  26.147  1.00  0.00     0.188 C 
ENDROOT
BRANCH   1   2
ATOM      2  O   UNL A   1      42.626  19.287  25.114  1.00  0.00    -0.376 OA
BRANCH   2   3
ATOM      3  C   UNL A   1      43.947  18.844  25.379  1.00  0.00     0.202 C 
BRANCH   3   4
ATOM      4  C   UNL A   1      44.947  19.209  24.282  1.00  0.00     0.261 C 
BRANCH   4   5
ATOM      5  O   UNL A   1      45.328  20.594  24.243  1.00  0.00    -0.460 OA
BRANCH   5   6
ATOM      6  C   UNL A   1      44.617  21.677  23.870  1.00  0.00     0.338 C 
ATOM      7  O   UNL A   1      44.564  21.986  22.683  1.00  0.00    -0.246 OA
BRANCH   6   8
ATOM      8  C   UNL A   1      44.127  22.650  24.878  1.00  0.00     0.060 A 
ATOM      9  C   UNL A   1      43.378  23.787  24.576  1.00  0.00     0.016 A 
ATOM     10  C   UNL A   1      44.545  22.432  26.205  1.00  0.00     0.016 A 
ATOM     11  C   UNL A   1      43.107  24.731  25.559  1.00  0.00     0.010 A 
ATOM     12  C   UNL A   1      44.298  23.385  27.187  1.00  0.00     0.010 A 
ATOM     13  C   UNL A   1      43.643  24.567  26.834  1.00  0.00    -0.014 A 
BRANCH  13  14
ATOM     14  C   UNL A   1      43.727  25.767  27.665  1.00  0.00     0.031 A 
ATOM     15  C   UNL A   1      44.904  26.668  27.545  1.00  0.00     0.074 A 
ATOM     16  C   UNL A   1      42.698  26.068  28.484  1.00  0.00     0.049 A 
ATOM     17  N   UNL A   1      45.654  27.143  28.489  1.00  0.00    -0.248 NA
ATOM     18  C   UNL A   1      45.302  27.097  26.196  1.00  0.00     0.031 C 
ATOM     19  C   UNL A   1      41.384  25.413  28.531  1.00  0.00     0.029 A 
ATOM     20  N   UNL A   1      42.556  27.115  29.344  1.00  0.00    -0.354 N 
ATOM     21  C   UNL A   1      46.504  28.067  27.888  1.00  0.00     0.074 A 
ATOM     22  C   UNL A   1      46.303  27.937  26.465  1.00  0.00     0.031 C 
ATOM     23  C   UNL A   1      40.512  26.226  29.159  1.00  0.00     0.029 A 
ATOM     24  C   UNL A   1      41.231  27.382  29.660  1.00  0.00     0.049 A 
ATOM     25  H   UNL A   1      43.315  27.628  29.704  1.00  0.00     0.167 HD
ATOM     26  C   UNL A   1      47.214  28.995  28.589  1.00  0.00     0.034 A 
ATOM     27  C   UNL A   1      40.736  28.529  30.179  1.00  0.00     0.034 A 
ATOM     28  C   UNL A   1      47.371  28.649  29.973  1.00  0.00     0.049 A 
ATOM     29  C   UNL A   1      41.845  29.216  30.881  1.00  0.00     0.074 A 
ATOM     30  C   UNL A   1      47.945  27.587  30.647  1.00  0.00     0.029 A 
ATOM     31  N   UNL A   1      46.634  29.320  30.917  1.00  0.00    -0.354 N 
ATOM     32  N   UNL A   1      42.451  28.735  31.932  1.00  0.00    -0.248 NA
ATOM     33  C   UNL A   1      42.563  30.270  30.183  1.00  0.00     0.031 C 
ATOM     34  C   UNL A   1      47.136  27.396  31.804  1.00  0.00     0.029 A 
ATOM     35  C   UNL A   1      46.132  28.367  31.770  1.00  0.00     0.049 A 
ATOM     36  H   UNL A   1      46.492  30.292  30.971  1.00  0.00     0.167 HD
ATOM     37  C   UNL A   1      43.773  29.123  31.796  1.00  0.00     0.074 A 
ATOM     38  C   UNL A   1      43.757  30.162  30.771  1.00  0.00     0.031 C 
ATOM     39  C   UNL A   1      44.793  28.381  32.320  1.00  0.00     0.034 A 
BRANCH  26  40
ATOM     40  C   UNL A   1      47.587  30.350  28.046  1.00  0.00     0.023 A 
ATOM     41  C   UNL A   1      46.584  31.218  27.576  1.00  0.00     0.031 A 
ATOM     42  C   UNL A   1      48.920  30.717  27.754  1.00  0.00     0.131 A 
ATOM     43  C   UNL A   1      46.923  32.382  26.859  1.00  0.00     0.055 A 
ATOM     44  C   UNL A   1      49.254  31.900  27.092  1.00  0.00     0.041 A 
ATOM     45  F   UNL A   1      49.951  29.902  28.024  1.00  0.00    -0.206 F 
ATOM     46  C   UNL A   1      48.252  32.736  26.630  1.00  0.00     0.022 A 
BRANCH  43  47
ATOM     47  S   UNL A   1      45.600  33.367  26.102  1.00  0.00     0.124 S 
ATOM     48  O   UNL A   1      46.346  34.468  25.502  1.00  0.00    -0.237 OA
ATOM     49  O   UNL A   1      45.005  32.411  25.176  1.00  0.00    -0.237 OA
ATOM     50  O   UNL A   1      44.759  33.736  27.239  1.00  0.00    -0.744 OA
ENDBRANCH  43  47
ENDBRANCH  26  40
BRANCH  27  51
ATOM     51  C   UNL A   1      39.465  29.180  29.767  1.00  0.00     0.023 A 
ATOM     52  C   UNL A   1      38.608  29.783  30.703  1.00  0.00     0.031 A 
ATOM     53  C   UNL A   1      39.172  29.407  28.400  1.00  0.00     0.131 A 
ATOM     54  C   UNL A   1      37.507  30.550  30.264  1.00  0.00     0.055 A 
ATOM     55  C   UNL A   1      38.064  30.136  27.971  1.00  0.00     0.041 A 
ATOM     56  F   UNL A   1      40.004  29.001  27.428  1.00  0.00    -0.206 F 
ATOM     57  C   UNL A   1      37.227  30.719  28.906  1.00  0.00     0.022 A 
BRANCH  54  58
ATOM     58  S   UNL A   1      36.501  31.471  31.466  1.00  0.00     0.124 S 
ATOM     59  O   UNL A   1      35.890  30.395  32.238  1.00  0.00    -0.237 OA
ATOM     60  O   UNL A   1      37.495  32.282  32.160  1.00  0.00    -0.237 OA
ATOM     61  O   UNL A   1      35.580  32.228  30.618  1.00  0.00    -0.744 OA
ENDBRANCH  54  58
ENDBRANCH  27  51
BRANCH  39  62
ATOM     62  C   UNL A   1      44.463  27.300  33.323  1.00  0.00     0.023 A 
ATOM     63  C   UNL A   1      44.258  27.541  34.700  1.00  0.00     0.031 A 
ATOM     64  C   UNL A   1      44.179  26.013  32.834  1.00  0.00     0.131 A 
ATOM     65  C   UNL A   1      43.791  26.507  35.533  1.00  0.00     0.055 A 
ATOM     66  C   UNL A   1      43.708  24.994  33.661  1.00  0.00     0.041 A 
ATOM     67  F   UNL A   1      44.312  25.740  31.524  1.00  0.00    -0.206 F 
ATOM     68  C   UNL A   1      43.513  25.237  35.016  1.00  0.00     0.022 A 
BRANCH  65  69
ATOM     69  S   UNL A   1      43.496  26.821  37.303  1.00  0.00     0.124 S 
ATOM     70  O   UNL A   1      42.045  26.732  37.421  1.00  0.00    -0.237 OA
ATOM     71  O   UNL A   1      44.262  25.759  37.948  1.00  0.00    -0.237 OA
ATOM     72  O   UNL A   1      44.040  28.166  37.507  1.00  0.00    -0.744 OA
ENDBRANCH  65  69
ENDBRANCH  39  62
ENDBRANCH  13  14
ENDBRANCH   6   8
ENDBRANCH   5   6
ENDBRANCH   4   5
ENDBRANCH   3   4
ENDBRANCH   2   3
ENDBRANCH   1   2
BRANCH   1  73
ATOM     73  C   UNL A   1      41.297  20.361  26.905  1.00  0.00     0.188 C 
BRANCH  73  74
ATOM     74  O   UNL A   1      41.310  21.636  26.269  1.00  0.00    -0.376 OA
BRANCH  74  75
ATOM     75  C   UNL A   1      40.201  22.504  26.384  1.00  0.00     0.202 C 
BRANCH  75  76
ATOM     76  C   UNL A   1      38.850  21.835  26.133  1.00  0.00     0.261 C 
BRANCH  76  77
ATOM     77  O   UNL A   1      38.008  22.493  25.178  1.00  0.00    -0.458 OA
BRANCH  77  78
ATOM     78  C   UNL A   1      37.107  23.390  25.688  1.00  0.00     0.359 C 
ATOM     79  O   UNL A   1      37.340  24.200  26.573  1.00  0.00    -0.244 OA
BRANCH  78  80
ATOM     80  C   UNL A   1      35.798  23.289  25.032  1.00  0.00     0.175 A 
ATOM     81  N   UNL A   1      35.257  24.347  24.392  1.00  0.00    -0.165 NA
ATOM     82  C   UNL A   1      34.965  22.143  24.904  1.00  0.00     0.028 A 
ATOM     83  N   UNL A   1      34.116  23.878  23.842  1.00  0.00    -0.264 N 
ATOM     84  C   UNL A   1      33.883  22.575  24.162  1.00  0.00     0.046 A 
ATOM     85  C   UNL A   1      35.111  20.750  25.423  1.00  0.00     0.159 C 
ATOM     86  C   UNL A   1      32.737  21.719  23.757  1.00  0.00     0.078 C 
ATOM     87  N   UNL A   1      34.079  19.891  24.806  1.00  0.00    -0.337 N 
ATOM     88  C   UNL A   1      32.725  20.469  24.662  1.00  0.00     0.126 C 
BRANCH  83  89
ATOM     89  C   UNL A   1      33.401  24.699  22.873  1.00  0.00     0.180 C 
BRANCH  89  90
ATOM     90  C   UNL A   1      32.780  25.927  23.489  1.00  0.00    -0.026 A 
ATOM     91  C   UNL A   1      33.419  27.175  23.383  1.00  0.00     0.008 A 
ATOM     92  C   UNL A   1      31.541  25.851  24.143  1.00  0.00     0.008 A 
ATOM     93  C   UNL A   1      32.824  28.323  23.907  1.00  0.00     0.039 A 
ATOM     94  C   UNL A   1      30.946  27.001  24.665  1.00  0.00     0.039 A 
ATOM     95  C   UNL A   1      31.590  28.226  24.538  1.00  0.00     0.123 A 
ATOM     96  F   UNL A   1      31.011  29.332  25.022  1.00  0.00    -0.207 F 
ENDBRANCH  89  90
ENDBRANCH  83  89
BRANCH  87  97
ATOM     97  C   UNL A   1      34.419  18.581  24.494  1.00  0.00     0.232 C 
ATOM     98  O   UNL A   1      35.573  18.183  24.433  1.00  0.00    -0.274 OA
BRANCH  97  99
ATOM     99  C   UNL A   1      33.312  17.634  24.246  1.00  0.00     0.154 C 
ATOM    100  C   UNL A   1      33.600  16.253  23.676  1.00  0.00     0.097 C 
ATOM    101  C   UNL A   1      33.176  16.420  25.087  1.00  0.00     0.260 C 
ATOM    102  F   UNL A   1      34.060  16.075  26.080  1.00  0.00    -0.206 F 
ATOM    103  F   UNL A   1      31.938  15.946  25.461  1.00  0.00    -0.206 F 
ENDBRANCH  97  99
ENDBRANCH  87  97
ENDBRANCH  78  80
ENDBRANCH  77  78
ENDBRANCH  76  77
ENDBRANCH  75  76
ENDBRANCH  74  75
ENDBRANCH  73  74
ENDBRANCH   1  73
TORSDOF 24
ENDMDL
MODEL 2
REMARK VINA RESULT:     -10.8      4.241     10.070
REMARK SMILES O=C(OCCOCCOCCOC(=O)c1nn(Cc2ccc(F)cc2)c2c1CN(C(=O)[C@H]1CC1(F)F)CC2)c1ccc(-c2c3nc(c(-c4cc(S(=O)(=O)[O-])ccc4F)c4ccc([nH]4)c(-c4cc(S(=O)(=O)[O-])ccc4F)c4nc(c(-c5cc(S(=O)(=O)[O-])ccc5F)c5ccc2[nH]5)C=C4)C=C3)cc1
REMARK SMILES IDX 7 1 6 2 5 3 4 4 3 5 2 6 1 7 39 8 40 9 101 10 41 11 100 12
REMARK SMILES IDX 42 13 43 14 44 15 94 16 45 17 99 18 93 19 95 20 46 21 98 22
REMARK SMILES IDX 92 23 91 24 47 26 79 27 59 28 78 29 60 30 63 31 77 32 96 33
REMARK SMILES IDX 61 34 62 35 76 37 97 38 64 39 48 40 49 41 57 42 50 43 56 44
REMARK SMILES IDX 58 45 55 46 51 47 52 48 53 49 54 50 80 51 81 52 89 53 82 54
REMARK SMILES IDX 88 55 90 56 87 57 83 58 84 59 85 60 86 61 65 62 66 63 74 64
REMARK SMILES IDX 67 65 73 66 75 67 72 68 68 69 69 70 70 71 71 72 8 73 9 74
REMARK SMILES IDX 10 75 11 76 12 77 13 78 14 79 15 80 16 81 27 82 17 83 26 84
REMARK SMILES IDX 28 85 38 86 29 87 37 88 18 89 19 90 20 91 25 92 21 93 24 94
REMARK SMILES IDX 22 95 23 96 30 97 31 98 32 99 33 100 34 101 35 102 36 103
REMARK H PARENT 95 25 63 36
REMARK Flexibility Score: inf
ROOT
ATOM      1  C   UNL A   1      35.202  33.846  28.068  1.00  0.00     0.188 C 
ENDROOT
BRANCH   1   2
ATOM      2  O   UNL A   1      34.626  35.148  28.083  1.00  0.00    -0.376 OA
BRANCH   2   3
ATOM      3  C   UNL A   1      33.417  35.289  28.811  1.00  0.00     0.202 C 
BRANCH   3   4
ATOM      4  C   UNL A   1      33.320  36.603  29.587  1.00  0.00     0.261 C 
BRANCH   4   5
ATOM      5  O   UNL A   1      33.339  36.467  31.018  1.00  0.00    -0.460 OA
BRANCH   5   6
ATOM      6  C   UNL A   1      33.303  35.357  31.782  1.00  0.00     0.338 C 
ATOM      7  O   UNL A   1      32.248  35.024  32.315  1.00  0.00    -0.246 OA
BRANCH   6   8
ATOM      8  C   UNL A   1      34.555  34.686  32.212  1.00  0.00     0.060 A 
ATOM      9  C   UNL A   1      35.672  35.351  32.717  1.00  0.00     0.016 A 
ATOM     10  C   UNL A   1      34.621  33.297  31.991  1.00  0.00     0.016 A 
ATOM     11  C   UNL A   1      36.859  34.665  32.934  1.00  0.00     0.010 A 
ATOM     12  C   UNL A   1      35.814  32.609  32.184  1.00  0.00     0.010 A 
ATOM     13  C   UNL A   1      36.949  33.320  32.583  1.00  0.00    -0.014 A 
BRANCH  13  14
ATOM     14  C   UNL A   1      38.295  32.784  32.392  1.00  0.00     0.031 A 
ATOM     15  C   UNL A   1      39.275  32.831  33.510  1.00  0.00     0.074 A 
ATOM     16  C   UNL A   1      38.604  32.197  31.217  1.00  0.00     0.049 A 
ATOM     17  N   UNL A   1      40.497  33.263  33.492  1.00  0.00    -0.248 NA
ATOM     18  C   UNL A   1      38.840  32.335  34.824  1.00  0.00     0.031 C 
ATOM     19  C   UNL A   1      37.680  31.865  30.125  1.00  0.00     0.029 A 
ATOM     20  N   UNL A   1      39.780  31.640  30.813  1.00  0.00    -0.354 N 
ATOM     21  C   UNL A   1      41.048  32.936  34.728  1.00  0.00     0.074 A 
ATOM     22  C   UNL A   1      39.961  32.442  35.538  1.00  0.00     0.031 C 
ATOM     23  C   UNL A   1      38.260  30.947  29.326  1.00  0.00     0.029 A 
ATOM     24  C   UNL A   1      39.621  30.730  29.777  1.00  0.00     0.049 A 
ATOM     25  H   UNL A   1      40.652  31.861  31.214  1.00  0.00     0.167 HD
ATOM     26  C   UNL A   1      42.388  32.941  34.973  1.00  0.00     0.034 A 
ATOM     27  C   UNL A   1      40.498  29.772  29.397  1.00  0.00     0.034 A 
ATOM     28  C   UNL A   1      43.125  33.735  34.031  1.00  0.00     0.049 A 
ATOM     29  C   UNL A   1      41.844  30.197  29.844  1.00  0.00     0.074 A 
ATOM     30  C   UNL A   1      43.109  35.068  33.665  1.00  0.00     0.029 A 
ATOM     31  N   UNL A   1      43.872  33.104  33.066  1.00  0.00    -0.354 N 
ATOM     32  N   UNL A   1      42.460  31.257  29.397  1.00  0.00    -0.248 NA
ATOM     33  C   UNL A   1      42.363  29.662  31.094  1.00  0.00     0.031 C 
ATOM     34  C   UNL A   1      43.408  35.077  32.272  1.00  0.00     0.029 A 
ATOM     35  C   UNL A   1      43.607  33.750  31.883  1.00  0.00     0.049 A 
ATOM     36  H   UNL A   1      44.477  32.339  33.197  1.00  0.00     0.167 HD
ATOM     37  C   UNL A   1      43.157  31.756  30.484  1.00  0.00     0.074 A 
ATOM     38  C   UNL A   1      43.157  30.671  31.461  1.00  0.00     0.031 C 
ATOM     39  C   UNL A   1      43.430  33.088  30.608  1.00  0.00     0.034 A 
BRANCH  26  40
ATOM     40  C   UNL A   1      43.062  32.028  35.964  1.00  0.00     0.023 A 
ATOM     41  C   UNL A   1      43.235  30.665  35.659  1.00  0.00     0.031 A 
ATOM     42  C   UNL A   1      43.322  32.409  37.301  1.00  0.00     0.131 A 
ATOM     43  C   UNL A   1      43.648  29.756  36.652  1.00  0.00     0.055 A 
ATOM     44  C   UNL A   1      43.785  31.514  38.268  1.00  0.00     0.041 A 
ATOM     45  F   UNL A   1      43.057  33.646  37.746  1.00  0.00    -0.206 F 
ATOM     46  C   UNL A   1      43.940  30.176  37.949  1.00  0.00     0.022 A 
BRANCH  43  47
ATOM     47  S   UNL A   1      43.668  27.982  36.269  1.00  0.00     0.124 S 
ATOM     48  O   UNL A   1      42.459  27.513  36.938  1.00  0.00    -0.237 OA
ATOM     49  O   UNL A   1      43.636  27.989  34.811  1.00  0.00    -0.237 OA
ATOM     50  O   UNL A   1      44.923  27.521  36.861  1.00  0.00    -0.744 OA
ENDBRANCH  43  47
ENDBRANCH  26  40
BRANCH  27  51
ATOM     51  C   UNL A   1      40.137  28.385  29.002  1.00  0.00     0.023 A 
ATOM     52  C   UNL A   1      40.792  27.723  27.950  1.00  0.00     0.031 A 
ATOM     53  C   UNL A   1      39.272  27.601  29.804  1.00  0.00     0.131 A 
ATOM     54  C   UNL A   1      40.556  26.350  27.721  1.00  0.00     0.055 A 
ATOM     55  C   UNL A   1      39.016  26.254  29.554  1.00  0.00     0.041 A 
ATOM     56  F   UNL A   1      38.710  28.095  30.919  1.00  0.00    -0.206 F 
ATOM     57  C   UNL A   1      39.665  25.618  28.510  1.00  0.00     0.022 A 
BRANCH  54  58
ATOM     58  S   UNL A   1      41.529  25.454  26.474  1.00  0.00     0.124 S 
ATOM     59  O   UNL A   1      41.117  24.074  26.702  1.00  0.00    -0.237 OA
ATOM     60  O   UNL A   1      41.086  26.063  25.225  1.00  0.00    -0.237 OA
ATOM     61  O   UNL A   1      42.910  25.761  26.846  1.00  0.00    -0.744 OA
ENDBRANCH  54  58
ENDBRANCH  27  51
BRANCH  39  62
ATOM     62  C   UNL A   1      43.249  33.981  29.402  1.00  0.00     0.023 A 
ATOM     63  C   UNL A   1      44.123  33.990  28.293  1.00  0.00     0.031 A 
ATOM     64  C   UNL A   1      42.057  34.720  29.304  1.00  0.00     0.131 A 
ATOM     65  C   UNL A   1      43.790  34.728  27.141  1.00  0.00     0.055 A 
ATOM     66  C   UNL A   1      41.726  35.442  28.158  1.00  0.00     0.041 A 
ATOM     67  F   UNL A   1      41.167  34.709  30.311  1.00  0.00    -0.206 F 
ATOM     68  C   UNL A   1      42.594  35.450  27.071  1.00  0.00     0.022 A 
BRANCH  65  69
ATOM     69  S   UNL A   1      44.899  34.719  25.696  1.00  0.00     0.124 S 
ATOM     70  O   UNL A   1      43.976  34.723  24.567  1.00  0.00    -0.237 OA
ATOM     71  O   UNL A   1      45.686  35.934  25.889  1.00  0.00    -0.237 OA
ATOM     72  O   UNL A   1      45.658  33.477  25.856  1.00  0.00    -0.744 OA
ENDBRANCH  65  69
ENDBRANCH  39  62
ENDBRANCH  13  14
ENDBRANCH   6   8
ENDBRANCH   5   6
ENDBRANCH   4   5
ENDBRANCH   3   4
ENDBRANCH   2   3
ENDBRANCH   1   2
BRANCH   1  73
ATOM     73  C   UNL A   1      34.153  32.722  27.956  1.00  0.00     0.188 C 
BRANCH  73  74
ATOM     74  O   UNL A   1      34.404  31.409  28.451  1.00  0.00    -0.376 OA
BRANCH  74  75
ATOM     75  C   UNL A   1      34.424  30.304  27.569  1.00  0.00     0.202 C 
BRANCH  75  76
ATOM     76  C   UNL A   1      33.061  29.945  26.978  1.00  0.00     0.261 C 
BRANCH  76  77
ATOM     77  O   UNL A   1      32.991  28.667  26.333  1.00  0.00    -0.458 OA
BRANCH  77  78
ATOM     78  C   UNL A   1      32.171  27.741  26.923  1.00  0.00     0.359 C 
ATOM     79  O   UNL A   1      32.034  27.584  28.127  1.00  0.00    -0.244 OA
BRANCH  78  80
ATOM     80  C   UNL A   1      31.440  26.942  25.933  1.00  0.00     0.175 A 
ATOM     81  N   UNL A   1      30.230  27.334  25.481  1.00  0.00    -0.165 NA
ATOM     82  C   UNL A   1      31.863  25.753  25.276  1.00  0.00     0.028 A 
ATOM     83  N   UNL A   1      29.901  26.429  24.534  1.00  0.00    -0.264 N 
ATOM     84  C   UNL A   1      30.830  25.442  24.413  1.00  0.00     0.046 A 
ATOM     85  C   UNL A   1      33.102  24.931  25.418  1.00  0.00     0.159 C 
ATOM     86  C   UNL A   1      30.818  24.274  23.493  1.00  0.00     0.078 C 
ATOM     87  N   UNL A   1      33.146  23.929  24.333  1.00  0.00    -0.337 N 
ATOM     88  C   UNL A   1      31.872  23.260  23.987  1.00  0.00     0.126 C 
BRANCH  83  89
ATOM     89  C   UNL A   1      28.758  26.688  23.666  1.00  0.00     0.180 C 
BRANCH  89  90
ATOM     90  C   UNL A   1      28.785  28.065  23.054  1.00  0.00    -0.026 A 
ATOM     91  C   UNL A   1      27.645  28.886  23.103  1.00  0.00     0.008 A 
ATOM     92  C   UNL A   1      29.956  28.561  22.461  1.00  0.00     0.008 A 
ATOM     93  C   UNL A   1      27.680  30.180  22.583  1.00  0.00     0.039 A 
ATOM     94  C   UNL A   1      29.990  29.858  21.943  1.00  0.00     0.039 A 
ATOM     95  C   UNL A   1      28.854  30.656  22.013  1.00  0.00     0.123 A 
ATOM     96  F   UNL A   1      28.893  31.905  21.532  1.00  0.00    -0.207 F 
ENDBRANCH  89  90
ENDBRANCH  83  89
BRANCH  87  97
ATOM     97  C   UNL A   1      34.382  23.613  23.784  1.00  0.00     0.232 C 
ATOM     98  O   UNL A   1      34.951  24.316  22.961  1.00  0.00    -0.274 OA
BRANCH  97  99
ATOM     99  C   UNL A   1      35.032  22.369  24.247  1.00  0.00     0.154 C 
ATOM    100  C   UNL A   1      36.539  22.324  24.451  1.00  0.00     0.097 C 
ATOM    101  C   UNL A   1      35.615  22.303  25.609  1.00  0.00     0.260 C 
ATOM    102  F   UNL A   1      35.637  23.363  26.483  1.00  0.00    -0.206 F 
ATOM    103  F   UNL A   1      35.533  21.154  26.364  1.00  0.00    -0.206 F 
ENDBRANCH  97  99
ENDBRANCH  87  97
ENDBRANCH  78  80
ENDBRANCH  77  78
ENDBRANCH  76  77
ENDBRANCH  75  76
ENDBRANCH  74  75
ENDBRANCH  73  74
ENDBRANCH   1  73
TORSDOF 24
ENDMDL
MODEL 3
REMARK VINA RESULT:     -10.6      3.879     10.000
REMARK SMILES O=C(OCCOCCOCCOC(=O)c1nn(Cc2ccc(F)cc2)c2c1CN(C(=O)[C@H]1CC1(F)F)CC2)c1ccc(-c2c3nc(c(-c4cc(S(=O)(=O)[O-])ccc4F)c4ccc([nH]4)c(-c4cc(S(=O)(=O)[O-])ccc4F)c4nc(c(-c5cc(S(=O)(=O)[O-])ccc5F)c5ccc2[nH]5)C=C4)C=C3)cc1
REMARK SMILES IDX 7 1 6 2 5 3 4 4 3 5 2 6 1 7 39 8 40 9 101 10 41 11 100 12
REMARK SMILES IDX 42 13 43 14 44 15 94 16 45 17 99 18 93 19 95 20 46 21 98 22
REMARK SMILES IDX 92 23 91 24 47 26 79 27 59 28 78 29 60 30 63 31 77 32 96 33
REMARK SMILES IDX 61 34 62 35 76 37 97 38 64 39 48 40 49 41 57 42 50 43 56 44
REMARK SMILES IDX 58 45 55 46 51 47 52 48 53 49 54 50 80 51 81 52 89 53 82 54
REMARK SMILES IDX 88 55 90 56 87 57 83 58 84 59 85 60 86 61 65 62 66 63 74 64
REMARK SMILES IDX 67 65 73 66 75 67 72 68 68 69 69 70 70 71 71 72 8 73 9 74
REMARK SMILES IDX 10 75 11 76 12 77 13 78 14 79 15 80 16 81 27 82 17 83 26 84
REMARK SMILES IDX 28 85 38 86 29 87 37 88 18 89 19 90 20 91 25 92 21 93 24 94
REMARK SMILES IDX 22 95 23 96 30 97 31 98 32 99 33 100 34 101 35 102 36 103
REMARK H PARENT 95 25 63 36
REMARK Flexibility Score: inf
ROOT
ATOM      1  C   UNL A   1      34.451  34.454  27.752  1.00  0.00     0.188 C 
ENDROOT
BRANCH   1   2
ATOM      2  O   UNL A   1      33.933  35.622  28.380  1.00  0.00    -0.376 OA
BRANCH   2   3
ATOM      3  C   UNL A   1      32.868  35.422  29.294  1.00  0.00     0.202 C 
BRANCH   3   4
ATOM      4  C   UNL A   1      33.089  36.096  30.649  1.00  0.00     0.261 C 
BRANCH   4   5
ATOM      5  O   UNL A   1      34.132  35.520  31.452  1.00  0.00    -0.460 OA
BRANCH   5   6
ATOM      6  C   UNL A   1      34.679  34.288  31.407  1.00  0.00     0.338 C 
ATOM      7  O   UNL A   1      34.035  33.326  31.816  1.00  0.00    -0.246 OA
BRANCH   6   8
ATOM      8  C   UNL A   1      36.126  34.107  31.132  1.00  0.00     0.060 A 
ATOM      9  C   UNL A   1      36.697  34.144  29.860  1.00  0.00     0.016 A 
ATOM     10  C   UNL A   1      36.932  33.782  32.241  1.00  0.00     0.016 A 
ATOM     11  C   UNL A   1      38.028  33.795  29.678  1.00  0.00     0.010 A 
ATOM     12  C   UNL A   1      38.259  33.409  32.061  1.00  0.00     0.010 A 
ATOM     13  C   UNL A   1      38.776  33.346  30.765  1.00  0.00    -0.014 A 
BRANCH  13  14
ATOM     14  C   UNL A   1      39.976  32.572  30.455  1.00  0.00     0.031 A 
ATOM     15  C   UNL A   1      39.867  31.113  30.187  1.00  0.00     0.074 A 
ATOM     16  C   UNL A   1      41.160  33.214  30.355  1.00  0.00     0.049 A 
ATOM     17  N   UNL A   1      40.557  30.146  30.704  1.00  0.00    -0.248 NA
ATOM     18  C   UNL A   1      38.854  30.669  29.218  1.00  0.00     0.031 C 
ATOM     19  C   UNL A   1      41.381  34.666  30.354  1.00  0.00     0.029 A 
ATOM     20  N   UNL A   1      42.396  32.708  30.086  1.00  0.00    -0.354 N 
ATOM     21  C   UNL A   1      40.202  28.994  30.008  1.00  0.00     0.074 A 
ATOM     22  C   UNL A   1      39.091  29.358  29.164  1.00  0.00     0.031 C 
ATOM     23  C   UNL A   1      42.599  34.922  29.837  1.00  0.00     0.029 A 
ATOM     24  C   UNL A   1      43.276  33.663  29.595  1.00  0.00     0.049 A 
ATOM     25  H   UNL A   1      42.639  31.765  30.226  1.00  0.00     0.167 HD
ATOM     26  C   UNL A   1      40.933  27.845  30.045  1.00  0.00     0.034 A 
ATOM     27  C   UNL A   1      44.425  33.433  28.918  1.00  0.00     0.034 A 
ATOM     28  C   UNL A   1      41.802  27.771  31.185  1.00  0.00     0.049 A 
ATOM     29  C   UNL A   1      44.889  32.073  29.273  1.00  0.00     0.074 A 
ATOM     30  C   UNL A   1      41.608  27.783  32.553  1.00  0.00     0.029 A 
ATOM     31  N   UNL A   1      43.151  27.961  31.009  1.00  0.00    -0.354 N 
ATOM     32  N   UNL A   1      45.261  31.720  30.474  1.00  0.00    -0.248 NA
ATOM     33  C   UNL A   1      44.570  30.972  28.377  1.00  0.00     0.031 C 
ATOM     34  C   UNL A   1      42.740  28.467  33.086  1.00  0.00     0.029 A 
ATOM     35  C   UNL A   1      43.559  28.810  32.008  1.00  0.00     0.049 A 
ATOM     36  H   UNL A   1      43.714  27.566  30.304  1.00  0.00     0.167 HD
ATOM     37  C   UNL A   1      44.837  30.409  30.612  1.00  0.00     0.074 A 
ATOM     38  C   UNL A   1      44.530  29.967  29.255  1.00  0.00     0.031 C 
ATOM     39  C   UNL A   1      44.509  29.888  31.831  1.00  0.00     0.034 A 
BRANCH  26  40
ATOM     40  C   UNL A   1      41.011  26.866  28.903  1.00  0.00     0.023 A 
ATOM     41  C   UNL A   1      42.010  27.010  27.922  1.00  0.00     0.031 A 
ATOM     42  C   UNL A   1      39.984  25.937  28.618  1.00  0.00     0.131 A 
ATOM     43  C   UNL A   1      41.962  26.254  26.734  1.00  0.00     0.055 A 
ATOM     44  C   UNL A   1      39.971  25.149  27.466  1.00  0.00     0.041 A 
ATOM     45  F   UNL A   1      38.906  25.814  29.407  1.00  0.00    -0.206 F 
ATOM     46  C   UNL A   1      40.958  25.313  26.509  1.00  0.00     0.022 A 
BRANCH  43  47
ATOM     47  S   UNL A   1      43.154  26.611  25.413  1.00  0.00     0.124 S 
ATOM     48  O   UNL A   1      42.447  27.618  24.630  1.00  0.00    -0.237 OA
ATOM     49  O   UNL A   1      44.310  27.078  26.170  1.00  0.00    -0.237 OA
ATOM     50  O   UNL A   1      43.326  25.319  24.752  1.00  0.00    -0.744 OA
ENDBRANCH  43  47
ENDBRANCH  26  40
BRANCH  27  51
ATOM     51  C   UNL A   1      44.894  34.205  27.736  1.00  0.00     0.023 A 
ATOM     52  C   UNL A   1      46.011  35.055  27.806  1.00  0.00     0.031 A 
ATOM     53  C   UNL A   1      44.369  33.951  26.446  1.00  0.00     0.131 A 
ATOM     54  C   UNL A   1      46.540  35.627  26.629  1.00  0.00     0.055 A 
ATOM     55  C   UNL A   1      44.874  34.545  25.290  1.00  0.00     0.041 A 
ATOM     56  F   UNL A   1      43.399  33.044  26.249  1.00  0.00    -0.206 F 
ATOM     57  C   UNL A   1      45.970  35.384  25.376  1.00  0.00     0.022 A 
BRANCH  54  58
ATOM     58  S   UNL A   1      48.083  36.585  26.695  1.00  0.00     0.124 S 
ATOM     59  O   UNL A   1      47.846  37.612  25.688  1.00  0.00    -0.237 OA
ATOM     60  O   UNL A   1      48.120  37.035  28.082  1.00  0.00    -0.237 OA
ATOM     61  O   UNL A   1      49.104  35.596  26.347  1.00  0.00    -0.744 OA
ENDBRANCH  54  58
ENDBRANCH  27  51
BRANCH  39  62
ATOM     62  C   UNL A   1      44.910  30.647  33.075  1.00  0.00     0.023 A 
ATOM     63  C   UNL A   1      44.045  31.513  33.780  1.00  0.00     0.031 A 
ATOM     64  C   UNL A   1      46.154  30.347  33.657  1.00  0.00     0.131 A 
ATOM     65  C   UNL A   1      44.443  32.049  35.020  1.00  0.00     0.055 A 
ATOM     66  C   UNL A   1      46.541  30.873  34.889  1.00  0.00     0.041 A 
ATOM     67  F   UNL A   1      46.998  29.493  33.052  1.00  0.00    -0.206 F 
ATOM     68  C   UNL A   1      45.686  31.728  35.576  1.00  0.00     0.022 A 
BRANCH  65  69
ATOM     69  S   UNL A   1      43.319  33.141  35.948  1.00  0.00     0.124 S 
ATOM     70  O   UNL A   1      42.641  33.892  34.898  1.00  0.00    -0.237 OA
ATOM     71  O   UNL A   1      42.497  32.193  36.695  1.00  0.00    -0.237 OA
ATOM     72  O   UNL A   1      44.225  33.938  36.777  1.00  0.00    -0.744 OA
ENDBRANCH  65  69
ENDBRANCH  39  62
ENDBRANCH  13  14
ENDBRANCH   6   8
ENDBRANCH   5   6
ENDBRANCH   4   5
ENDBRANCH   3   4
ENDBRANCH   2   3
ENDBRANCH   1   2
BRANCH   1  73
ATOM     73  C   UNL A   1      33.587  33.201  28.000  1.00  0.00     0.188 C 
BRANCH  73  74
ATOM     74  O   UNL A   1      34.149  31.987  28.492  1.00  0.00    -0.376 OA
BRANCH  74  75
ATOM     75  C   UNL A   1      34.350  30.890  27.625  1.00  0.00     0.202 C 
BRANCH  75  76
ATOM     76  C   UNL A   1      33.071  30.144  27.245  1.00  0.00     0.261 C 
BRANCH  76  77
ATOM     77  O   UNL A   1      33.194  28.719  27.162  1.00  0.00    -0.458 OA
BRANCH  77  78
ATOM     78  C   UNL A   1      32.042  28.003  27.358  1.00  0.00     0.359 C 
ATOM     79  O   UNL A   1      31.322  28.080  28.342  1.00  0.00    -0.244 OA
BRANCH  78  80
ATOM     80  C   UNL A   1      31.742  27.122  26.224  1.00  0.00     0.175 A 
ATOM     81  N   UNL A   1      31.722  25.780  26.373  1.00  0.00    -0.165 NA
ATOM     82  C   UNL A   1      31.382  27.487  24.897  1.00  0.00     0.028 A 
ATOM     83  N   UNL A   1      31.329  25.301  25.173  1.00  0.00    -0.264 N 
ATOM     84  C   UNL A   1      31.159  26.287  24.249  1.00  0.00     0.046 A 
ATOM     85  C   UNL A   1      31.260  28.821  24.235  1.00  0.00     0.159 C 
ATOM     86  C   UNL A   1      30.744  26.155  22.828  1.00  0.00     0.078 C 
ATOM     87  N   UNL A   1      30.629  28.650  22.911  1.00  0.00    -0.337 N 
ATOM     88  C   UNL A   1      31.060  27.484  22.109  1.00  0.00     0.126 C 
BRANCH  83  89
ATOM     89  C   UNL A   1      30.967  23.894  25.050  1.00  0.00     0.180 C 
BRANCH  89  90
ATOM     90  C   UNL A   1      32.164  22.991  24.897  1.00  0.00    -0.026 A 
ATOM     91  C   UNL A   1      33.344  23.471  24.303  1.00  0.00     0.008 A 
ATOM     92  C   UNL A   1      32.132  21.672  25.377  1.00  0.00     0.008 A 
ATOM     93  C   UNL A   1      34.472  22.656  24.204  1.00  0.00     0.039 A 
ATOM     94  C   UNL A   1      33.262  20.858  25.280  1.00  0.00     0.039 A 
ATOM     95  C   UNL A   1      34.422  21.358  24.699  1.00  0.00     0.123 A 
ATOM     96  F   UNL A   1      35.511  20.583  24.622  1.00  0.00    -0.207 F 
ENDBRANCH  89  90
ENDBRANCH  83  89
BRANCH  87  97
ATOM     97  C   UNL A   1      29.756  29.636  22.470  1.00  0.00     0.232 C 
ATOM     98  O   UNL A   1      29.531  29.855  21.289  1.00  0.00    -0.274 OA
BRANCH  97  99
ATOM     99  C   UNL A   1      29.061  30.436  23.501  1.00  0.00     0.154 C 
ATOM    100  C   UNL A   1      29.301  31.935  23.597  1.00  0.00     0.097 C 
ATOM    101  C   UNL A   1      28.009  31.402  23.102  1.00  0.00     0.260 C 
ATOM    102  F   UNL A   1      27.656  31.652  21.797  1.00  0.00    -0.206 F 
ATOM    103  F   UNL A   1      26.883  31.590  23.872  1.00  0.00    -0.206 F 
ENDBRANCH  97  99
ENDBRANCH  87  97
ENDBRANCH  78  80
ENDBRANCH  77  78
ENDBRANCH  76  77
ENDBRANCH  75  76
ENDBRANCH  74  75
ENDBRANCH  73  74
ENDBRANCH   1  73
TORSDOF 24
ENDMDL
