MODEL 1
REMARK VINA RESULT:     -10.5      0.000      0.000
REMARK SMILES CCCc1cc2c(cc1Cl)C=C(C(=O)OCCOCCOCCOC(=O)c1ccc(-c3c4nc(c(-c5cc(S(=O)(=O)[O-])ccc5F)c5ccc([nH]5)c(-c5cc(S(=O)(=O)[O-])ccc5F)c5nc(c(-c6cc(S(=O)(=O)[O-])ccc6F)c6ccc3[nH]6)C=C5)C=C4)cc1)[C@@H](C(F)(F)F)O2
REMARK SMILES IDX 20 1 19 2 18 3 17 4 16 5 15 6 13 7 14 8 12 9 4 10 5 11 9 12
REMARK SMILES IDX 6 13 8 14 10 15 7 16 95 17 11 18 90 19 3 20 2 21 1 22 91 23
REMARK SMILES IDX 92 24 93 25 94 26 21 27 22 28 23 29 24 30 25 31 26 32 27 33
REMARK SMILES IDX 28 34 89 35 29 36 88 37 30 38 31 39 32 40 82 41 33 42 87 43
REMARK SMILES IDX 81 44 83 45 34 46 86 47 80 48 79 49 35 51 67 52 47 53 66 54
REMARK SMILES IDX 48 55 51 56 65 57 84 58 49 59 50 60 64 62 85 63 52 64 36 65
REMARK SMILES IDX 37 66 45 67 38 68 44 69 46 70 43 71 39 72 40 73 41 74 42 75
REMARK SMILES IDX 68 76 69 77 77 78 70 79 76 80 78 81 75 82 71 83 72 84 73 85
REMARK SMILES IDX 74 86 53 87 54 88 62 89 55 90 61 91 63 92 60 93 56 94 57 95
REMARK SMILES IDX 58 96 59 97
REMARK H PARENT 83 50 51 61
REMARK Flexibility Score: inf
ROOT
ATOM      1  C   UNL A   1      30.462  29.612  24.234  1.00  0.00     0.188 C 
ENDROOT
BRANCH   1   2
ATOM      2  C   UNL A   1      30.590  29.307  22.724  1.00  0.00     0.188 C 
BRANCH   2   3
ATOM      3  O   UNL A   1      31.672  28.454  22.429  1.00  0.00    -0.376 OA
BRANCH   3   4
ATOM      4  C   UNL A   1      32.990  28.907  22.673  1.00  0.00     0.202 C 
BRANCH   4   5
ATOM      5  C   UNL A   1      33.726  28.629  24.000  1.00  0.00     0.261 C 
BRANCH   5   6
ATOM      6  O   UNL A   1      34.061  27.266  24.292  1.00  0.00    -0.460 OA
BRANCH   6   7
ATOM      7  C   UNL A   1      33.852  26.841  25.558  1.00  0.00     0.338 C 
ATOM      8  O   UNL A   1      33.656  27.540  26.538  1.00  0.00    -0.246 OA
BRANCH   7   9
ATOM      9  C   UNL A   1      33.758  25.367  25.554  1.00  0.00     0.087 C 
ATOM     10  C   UNL A   1      34.617  20.441  24.922  1.00  0.00    -0.026 A 
ATOM     11  C   UNL A   1      33.476  21.224  25.190  1.00  0.00     0.052 A 
ATOM     12  C   UNL A   1      35.866  21.079  24.936  1.00  0.00     0.045 A 
ATOM     13  C   UNL A   1      33.576  22.607  25.379  1.00  0.00     0.128 A 
ATOM     14  C   UNL A   1      35.955  22.472  25.048  1.00  0.00     0.032 A 
ATOM     15  Cl  UNL A   1      37.353  20.205  24.872  1.00  0.00    -0.084 Cl
ATOM     16  C   UNL A   1      34.805  23.242  25.232  1.00  0.00     0.019 A 
ATOM     17  O   UNL A   1      32.415  23.270  25.659  1.00  0.00    -0.475 OA
ATOM     18  C   UNL A   1      34.866  24.695  25.213  1.00  0.00     0.027 C 
ATOM     19  C   UNL A   1      32.487  24.689  25.995  1.00  0.00     0.316 C 
BRANCH  10  20
ATOM     20  C   UNL A   1      34.434  18.968  24.618  1.00  0.00     0.037 C 
BRANCH  20  21
ATOM     21  C   UNL A   1      32.970  18.495  24.588  1.00  0.00     0.001 C 
ATOM     22  C   UNL A   1      32.358  18.405  23.196  1.00  0.00     0.004 C 
ENDBRANCH  20  21
ENDBRANCH  10  20
BRANCH  19  23
ATOM     23  C   UNL A   1      31.218  25.342  25.426  1.00  0.00     0.430 C 
ATOM     24  F   UNL A   1      31.422  25.779  24.158  1.00  0.00    -0.167 F 
ATOM     25  F   UNL A   1      30.177  24.480  25.367  1.00  0.00    -0.167 F 
ATOM     26  F   UNL A   1      30.822  26.405  26.160  1.00  0.00    -0.167 F 
ENDBRANCH  19  23
ENDBRANCH   7   9
ENDBRANCH   6   7
ENDBRANCH   5   6
ENDBRANCH   4   5
ENDBRANCH   3   4
ENDBRANCH   2   3
ENDBRANCH   1   2
BRANCH   1  27
ATOM     27  O   UNL A   1      30.597  30.951  24.698  1.00  0.00    -0.376 OA
BRANCH  27  28
ATOM     28  C   UNL A   1      30.834  31.182  26.083  1.00  0.00     0.202 C 
BRANCH  28  29
ATOM     29  C   UNL A   1      31.741  32.341  26.532  1.00  0.00     0.261 C 
BRANCH  29  30
ATOM     30  O   UNL A   1      32.961  31.958  27.184  1.00  0.00    -0.460 OA
BRANCH  30  31
ATOM     31  C   UNL A   1      33.683  32.966  27.740  1.00  0.00     0.338 C 
ATOM     32  O   UNL A   1      33.320  34.115  27.927  1.00  0.00    -0.246 OA
BRANCH  31  33
ATOM     33  C   UNL A   1      34.931  32.395  28.288  1.00  0.00     0.060 A 
ATOM     34  C   UNL A   1      36.120  33.123  28.243  1.00  0.00     0.016 A 
ATOM     35  C   UNL A   1      34.913  31.098  28.823  1.00  0.00     0.016 A 
ATOM     36  C   UNL A   1      37.294  32.548  28.734  1.00  0.00     0.010 A 
ATOM     37  C   UNL A   1      36.093  30.518  29.296  1.00  0.00     0.010 A 
ATOM     38  C   UNL A   1      37.291  31.244  29.263  1.00  0.00    -0.014 A 
BRANCH  38  39
ATOM     39  C   UNL A   1      38.511  30.725  29.932  1.00  0.00     0.031 A 
ATOM     40  C   UNL A   1      38.898  31.140  31.318  1.00  0.00     0.074 A 
ATOM     41  C   UNL A   1      39.266  29.840  29.256  1.00  0.00     0.049 A 
ATOM     42  N   UNL A   1      39.851  30.663  32.076  1.00  0.00    -0.248 NA
ATOM     43  C   UNL A   1      38.128  32.231  31.932  1.00  0.00     0.031 C 
ATOM     44  C   UNL A   1      39.000  29.403  27.886  1.00  0.00     0.029 A 
ATOM     45  N   UNL A   1      40.390  29.142  29.620  1.00  0.00    -0.354 N 
ATOM     46  C   UNL A   1      39.785  31.370  33.269  1.00  0.00     0.074 A 
ATOM     47  C   UNL A   1      38.730  32.351  33.112  1.00  0.00     0.031 C 
ATOM     48  C   UNL A   1      39.913  28.488  27.535  1.00  0.00     0.029 A 
ATOM     49  C   UNL A   1      40.849  28.292  28.641  1.00  0.00     0.049 A 
ATOM     50  H   UNL A   1      40.825  29.241  30.498  1.00  0.00     0.167 HD
ATOM     51  C   UNL A   1      40.524  31.196  34.392  1.00  0.00     0.034 A 
ATOM     52  C   UNL A   1      41.895  27.441  28.633  1.00  0.00     0.034 A 
ATOM     53  C   UNL A   1      41.580  30.218  34.517  1.00  0.00     0.049 A 
ATOM     54  C   UNL A   1      42.713  27.280  29.887  1.00  0.00     0.074 A 
ATOM     55  C   UNL A   1      42.344  29.925  35.634  1.00  0.00     0.029 A 
ATOM     56  N   UNL A   1      42.035  29.386  33.501  1.00  0.00    -0.354 N 
ATOM     57  N   UNL A   1      42.557  27.862  31.053  1.00  0.00    -0.248 NA
ATOM     58  C   UNL A   1      43.836  26.334  29.839  1.00  0.00     0.031 C 
ATOM     59  C   UNL A   1      43.309  28.984  35.275  1.00  0.00     0.029 A 
ATOM     60  C   UNL A   1      43.093  28.614  33.957  1.00  0.00     0.049 A 
ATOM     61  H   UNL A   1      41.660  29.349  32.592  1.00  0.00     0.167 HD
ATOM     62  C   UNL A   1      43.544  27.337  31.882  1.00  0.00     0.074 A 
ATOM     63  C   UNL A   1      44.273  26.366  31.093  1.00  0.00     0.031 C 
ATOM     64  C   UNL A   1      43.818  27.636  33.177  1.00  0.00     0.034 A 
BRANCH  51  65
ATOM     65  C   UNL A   1      40.223  32.040  35.608  1.00  0.00     0.023 A 
ATOM     66  C   UNL A   1      39.200  31.660  36.500  1.00  0.00     0.031 A 
ATOM     67  C   UNL A   1      40.816  33.303  35.783  1.00  0.00     0.131 A 
ATOM     68  C   UNL A   1      38.770  32.551  37.491  1.00  0.00     0.055 A 
ATOM     69  C   UNL A   1      40.416  34.170  36.802  1.00  0.00     0.041 A 
ATOM     70  F   UNL A   1      41.788  33.720  34.955  1.00  0.00    -0.206 F 
ATOM     71  C   UNL A   1      39.378  33.801  37.652  1.00  0.00     0.022 A 
BRANCH  68  72
ATOM     72  S   UNL A   1      37.350  32.165  38.553  1.00  0.00     0.124 S 
ATOM     73  O   UNL A   1      37.862  32.513  39.876  1.00  0.00    -0.237 OA
ATOM     74  O   UNL A   1      36.323  33.060  38.026  1.00  0.00    -0.237 OA
ATOM     75  O   UNL A   1      37.122  30.741  38.330  1.00  0.00    -0.744 OA
ENDBRANCH  68  72
ENDBRANCH  51  65
BRANCH  52  76
ATOM     76  C   UNL A   1      42.152  26.631  27.406  1.00  0.00     0.023 A 
ATOM     77  C   UNL A   1      41.776  25.276  27.349  1.00  0.00     0.031 A 
ATOM     78  C   UNL A   1      42.886  27.159  26.332  1.00  0.00     0.131 A 
ATOM     79  C   UNL A   1      42.202  24.479  26.281  1.00  0.00     0.055 A 
ATOM     80  C   UNL A   1      43.242  26.380  25.230  1.00  0.00     0.041 A 
ATOM     81  F   UNL A   1      43.284  28.440  26.349  1.00  0.00    -0.206 F 
ATOM     82  C   UNL A   1      42.917  25.026  25.211  1.00  0.00     0.022 A 
BRANCH  79  83
ATOM     83  S   UNL A   1      41.977  22.679  26.319  1.00  0.00     0.124 S 
ATOM     84  O   UNL A   1      40.524  22.556  26.384  1.00  0.00    -0.237 OA
ATOM     85  O   UNL A   1      42.589  22.276  25.055  1.00  0.00    -0.237 OA
ATOM     86  O   UNL A   1      42.700  22.267  27.517  1.00  0.00    -0.744 OA
ENDBRANCH  79  83
ENDBRANCH  52  76
BRANCH  64  87
ATOM     87  C   UNL A   1      44.960  26.921  33.865  1.00  0.00     0.023 A 
ATOM     88  C   UNL A   1      44.697  25.822  34.709  1.00  0.00     0.031 A 
ATOM     89  C   UNL A   1      46.273  27.420  33.821  1.00  0.00     0.131 A 
ATOM     90  C   UNL A   1      45.719  25.295  35.509  1.00  0.00     0.055 A 
ATOM     91  C   UNL A   1      47.301  26.854  34.578  1.00  0.00     0.041 A 
ATOM     92  F   UNL A   1      46.577  28.472  33.044  1.00  0.00    -0.206 F 
ATOM     93  C   UNL A   1      47.022  25.798  35.440  1.00  0.00     0.022 A 
BRANCH  90  94
ATOM     94  S   UNL A   1      45.376  24.007  36.742  1.00  0.00     0.124 S 
ATOM     95  O   UNL A   1      45.003  22.873  35.900  1.00  0.00    -0.237 OA
ATOM     96  O   UNL A   1      46.662  23.883  37.422  1.00  0.00    -0.237 OA
ATOM     97  O   UNL A   1      44.293  24.567  37.544  1.00  0.00    -0.744 OA
ENDBRANCH  90  94
ENDBRANCH  64  87
ENDBRANCH  38  39
ENDBRANCH  31  33
ENDBRANCH  30  31
ENDBRANCH  29  30
ENDBRANCH  28  29
ENDBRANCH  27  28
ENDBRANCH   1  27
TORSDOF 23
ENDMDL
MODEL 2
REMARK VINA RESULT:      -9.5      2.643      7.689
REMARK SMILES CCCc1cc2c(cc1Cl)C=C(C(=O)OCCOCCOCCOC(=O)c1ccc(-c3c4nc(c(-c5cc(S(=O)(=O)[O-])ccc5F)c5ccc([nH]5)c(-c5cc(S(=O)(=O)[O-])ccc5F)c5nc(c(-c6cc(S(=O)(=O)[O-])ccc6F)c6ccc3[nH]6)C=C5)C=C4)cc1)[C@@H](C(F)(F)F)O2
REMARK SMILES IDX 20 1 19 2 18 3 17 4 16 5 15 6 13 7 14 8 12 9 4 10 5 11 9 12
REMARK SMILES IDX 6 13 8 14 10 15 7 16 95 17 11 18 90 19 3 20 2 21 1 22 91 23
REMARK SMILES IDX 92 24 93 25 94 26 21 27 22 28 23 29 24 30 25 31 26 32 27 33
REMARK SMILES IDX 28 34 89 35 29 36 88 37 30 38 31 39 32 40 82 41 33 42 87 43
REMARK SMILES IDX 81 44 83 45 34 46 86 47 80 48 79 49 35 51 67 52 47 53 66 54
REMARK SMILES IDX 48 55 51 56 65 57 84 58 49 59 50 60 64 62 85 63 52 64 36 65
REMARK SMILES IDX 37 66 45 67 38 68 44 69 46 70 43 71 39 72 40 73 41 74 42 75
REMARK SMILES IDX 68 76 69 77 77 78 70 79 76 80 78 81 75 82 71 83 72 84 73 85
REMARK SMILES IDX 74 86 53 87 54 88 62 89 55 90 61 91 63 92 60 93 56 94 57 95
REMARK SMILES IDX 58 96 59 97
REMARK H PARENT 83 50 51 61
REMARK Flexibility Score: inf
ROOT
ATOM      1  C   UNL A   1      31.390  29.070  24.929  1.00  0.00     0.188 C 
ENDROOT
BRANCH   1   2
ATOM      2  C   UNL A   1      30.562  29.063  23.623  1.00  0.00     0.188 C 
BRANCH   2   3
ATOM      3  O   UNL A   1      31.367  29.036  22.467  1.00  0.00    -0.376 OA
BRANCH   3   4
ATOM      4  C   UNL A   1      32.333  28.012  22.325  1.00  0.00     0.202 C 
BRANCH   4   5
ATOM      5  C   UNL A   1      31.944  26.539  22.081  1.00  0.00     0.261 C 
BRANCH   5   6
ATOM      6  O   UNL A   1      32.673  25.540  22.807  1.00  0.00    -0.460 OA
BRANCH   6   7
ATOM      7  C   UNL A   1      32.087  25.038  23.916  1.00  0.00     0.338 C 
ATOM      8  O   UNL A   1      31.220  25.572  24.587  1.00  0.00    -0.246 OA
BRANCH   7   9
ATOM      9  C   UNL A   1      32.567  23.656  24.123  1.00  0.00     0.087 C 
ATOM     10  C   UNL A   1      33.155  18.651  24.059  1.00  0.00    -0.026 A 
ATOM     11  C   UNL A   1      33.622  19.696  24.882  1.00  0.00     0.052 A 
ATOM     12  C   UNL A   1      32.455  19.000  22.894  1.00  0.00     0.045 A 
ATOM     13  C   UNL A   1      33.325  21.032  24.593  1.00  0.00     0.128 A 
ATOM     14  C   UNL A   1      32.095  20.330  22.649  1.00  0.00     0.032 A 
ATOM     15  Cl  UNL A   1      32.047  17.844  21.679  1.00  0.00    -0.084 Cl
ATOM     16  C   UNL A   1      32.497  21.344  23.519  1.00  0.00     0.019 A 
ATOM     17  O   UNL A   1      33.848  21.970  25.438  1.00  0.00    -0.475 OA
ATOM     18  C   UNL A   1      32.017  22.707  23.353  1.00  0.00     0.027 C 
ATOM     19  C   UNL A   1      33.679  23.380  25.103  1.00  0.00     0.316 C 
BRANCH  10  20
ATOM     20  C   UNL A   1      33.414  17.220  24.482  1.00  0.00     0.037 C 
BRANCH  20  21
ATOM     21  C   UNL A   1      34.834  16.953  25.012  1.00  0.00     0.001 C 
ATOM     22  C   UNL A   1      35.208  15.481  25.123  1.00  0.00     0.004 C 
ENDBRANCH  20  21
ENDBRANCH  10  20
BRANCH  19  23
ATOM     23  C   UNL A   1      33.520  24.134  26.432  1.00  0.00     0.430 C 
ATOM     24  F   UNL A   1      32.243  24.059  26.885  1.00  0.00    -0.167 F 
ATOM     25  F   UNL A   1      34.300  23.620  27.412  1.00  0.00    -0.167 F 
ATOM     26  F   UNL A   1      33.829  25.443  26.314  1.00  0.00    -0.167 F 
ENDBRANCH  19  23
ENDBRANCH   7   9
ENDBRANCH   6   7
ENDBRANCH   5   6
ENDBRANCH   4   5
ENDBRANCH   3   4
ENDBRANCH   2   3
ENDBRANCH   1   2
BRANCH   1  27
ATOM     27  O   UNL A   1      31.355  30.210  25.781  1.00  0.00    -0.376 OA
BRANCH  27  28
ATOM     28  C   UNL A   1      32.216  30.252  26.915  1.00  0.00     0.202 C 
BRANCH  28  29
ATOM     29  C   UNL A   1      32.869  31.577  27.343  1.00  0.00     0.261 C 
BRANCH  29  30
ATOM     30  O   UNL A   1      34.300  31.558  27.453  1.00  0.00    -0.460 OA
BRANCH  30  31
ATOM     31  C   UNL A   1      34.820  32.115  28.579  1.00  0.00     0.338 C 
ATOM     32  O   UNL A   1      34.308  32.969  29.281  1.00  0.00    -0.246 OA
BRANCH  31  33
ATOM     33  C   UNL A   1      36.038  31.362  28.947  1.00  0.00     0.060 A 
ATOM     34  C   UNL A   1      37.299  31.934  28.776  1.00  0.00     0.016 A 
ATOM     35  C   UNL A   1      35.912  30.055  29.439  1.00  0.00     0.016 A 
ATOM     36  C   UNL A   1      38.437  31.190  29.098  1.00  0.00     0.010 A 
ATOM     37  C   UNL A   1      37.053  29.306  29.742  1.00  0.00     0.010 A 
ATOM     38  C   UNL A   1      38.324  29.873  29.581  1.00  0.00    -0.014 A 
BRANCH  38  39
ATOM     39  C   UNL A   1      39.535  29.172  30.075  1.00  0.00     0.031 A 
ATOM     40  C   UNL A   1      40.134  28.005  29.351  1.00  0.00     0.074 A 
ATOM     41  C   UNL A   1      40.107  29.631  31.204  1.00  0.00     0.049 A 
ATOM     42  N   UNL A   1      41.263  27.390  29.587  1.00  0.00    -0.248 NA
ATOM     43  C   UNL A   1      39.370  27.451  28.224  1.00  0.00     0.031 C 
ATOM     44  C   UNL A   1      39.580  30.733  32.008  1.00  0.00     0.029 A 
ATOM     45  N   UNL A   1      41.248  29.249  31.863  1.00  0.00    -0.354 N 
ATOM     46  C   UNL A   1      41.367  26.393  28.626  1.00  0.00     0.074 A 
ATOM     47  C   UNL A   1      40.154  26.450  27.836  1.00  0.00     0.031 C 
ATOM     48  C   UNL A   1      40.411  30.961  33.034  1.00  0.00     0.029 A 
ATOM     49  C   UNL A   1      41.516  30.005  32.980  1.00  0.00     0.049 A 
ATOM     50  H   UNL A   1      41.821  28.506  31.564  1.00  0.00     0.167 HD
ATOM     51  C   UNL A   1      42.392  25.530  28.418  1.00  0.00     0.034 A 
ATOM     52  C   UNL A   1      42.538  29.949  33.858  1.00  0.00     0.034 A 
ATOM     53  C   UNL A   1      43.585  25.486  29.231  1.00  0.00     0.049 A 
ATOM     54  C   UNL A   1      43.654  28.967  33.615  1.00  0.00     0.074 A 
ATOM     55  C   UNL A   1      44.704  24.688  29.060  1.00  0.00     0.029 A 
ATOM     56  N   UNL A   1      43.818  26.250  30.367  1.00  0.00    -0.354 N 
ATOM     57  N   UNL A   1      43.803  28.117  32.627  1.00  0.00    -0.248 NA
ATOM     58  C   UNL A   1      44.754  28.946  34.589  1.00  0.00     0.031 C 
ATOM     59  C   UNL A   1      45.569  24.907  30.132  1.00  0.00     0.029 A 
ATOM     60  C   UNL A   1      45.040  25.911  30.927  1.00  0.00     0.049 A 
ATOM     61  H   UNL A   1      43.204  26.933  30.722  1.00  0.00     0.167 HD
ATOM     62  C   UNL A   1      45.020  27.479  32.845  1.00  0.00     0.074 A 
ATOM     63  C   UNL A   1      45.583  28.063  34.045  1.00  0.00     0.031 C 
ATOM     64  C   UNL A   1      45.611  26.498  32.118  1.00  0.00     0.034 A 
BRANCH  51  65
ATOM     65  C   UNL A   1      42.318  24.570  27.253  1.00  0.00     0.023 A 
ATOM     66  C   UNL A   1      41.586  23.372  27.367  1.00  0.00     0.031 A 
ATOM     67  C   UNL A   1      43.115  24.752  26.109  1.00  0.00     0.131 A 
ATOM     68  C   UNL A   1      41.704  22.384  26.381  1.00  0.00     0.055 A 
ATOM     69  C   UNL A   1      43.192  23.784  25.105  1.00  0.00     0.041 A 
ATOM     70  F   UNL A   1      43.841  25.870  25.954  1.00  0.00    -0.206 F 
ATOM     71  C   UNL A   1      42.497  22.587  25.246  1.00  0.00     0.022 A 
BRANCH  68  72
ATOM     72  S   UNL A   1      40.907  20.765  26.569  1.00  0.00     0.124 S 
ATOM     73  O   UNL A   1      39.568  21.027  26.045  1.00  0.00    -0.237 OA
ATOM     74  O   UNL A   1      41.748  19.912  25.733  1.00  0.00    -0.237 OA
ATOM     75  O   UNL A   1      40.972  20.506  28.003  1.00  0.00    -0.744 OA
ENDBRANCH  68  72
ENDBRANCH  51  65
BRANCH  52  76
ATOM     76  C   UNL A   1      42.563  30.916  34.993  1.00  0.00     0.023 A 
ATOM     77  C   UNL A   1      43.070  32.217  34.816  1.00  0.00     0.031 A 
ATOM     78  C   UNL A   1      42.205  30.519  36.291  1.00  0.00     0.131 A 
ATOM     79  C   UNL A   1      43.277  33.042  35.927  1.00  0.00     0.055 A 
ATOM     80  C   UNL A   1      42.338  31.373  37.387  1.00  0.00     0.041 A 
ATOM     81  F   UNL A   1      41.734  29.282  36.514  1.00  0.00    -0.206 F 
ATOM     82  C   UNL A   1      42.897  32.636  37.210  1.00  0.00     0.022 A 
BRANCH  79  83
ATOM     83  S   UNL A   1      44.186  34.605  35.766  1.00  0.00     0.124 S 
ATOM     84  O   UNL A   1      44.670  34.534  34.391  1.00  0.00    -0.237 OA
ATOM     85  O   UNL A   1      43.133  35.587  36.015  1.00  0.00    -0.237 OA
ATOM     86  O   UNL A   1      45.209  34.517  36.802  1.00  0.00    -0.744 OA
ENDBRANCH  79  83
ENDBRANCH  52  76
BRANCH  64  87
ATOM     87  C   UNL A   1      46.951  25.960  32.571  1.00  0.00     0.023 A 
ATOM     88  C   UNL A   1      47.009  24.921  33.523  1.00  0.00     0.031 A 
ATOM     89  C   UNL A   1      48.156  26.578  32.195  1.00  0.00     0.131 A 
ATOM     90  C   UNL A   1      48.235  24.568  34.099  1.00  0.00     0.055 A 
ATOM     91  C   UNL A   1      49.384  26.183  32.731  1.00  0.00     0.041 A 
ATOM     92  F   UNL A   1      48.159  27.581  31.302  1.00  0.00    -0.206 F 
ATOM     93  C   UNL A   1      49.424  25.187  33.701  1.00  0.00     0.022 A 
BRANCH  90  94
ATOM     94  S   UNL A   1      48.322  23.368  35.459  1.00  0.00     0.124 S 
ATOM     95  O   UNL A   1      49.731  23.442  35.838  1.00  0.00    -0.237 OA
ATOM     96  O   UNL A   1      47.386  23.933  36.428  1.00  0.00    -0.237 OA
ATOM     97  O   UNL A   1      47.909  22.111  34.846  1.00  0.00    -0.744 OA
ENDBRANCH  90  94
ENDBRANCH  64  87
ENDBRANCH  38  39
ENDBRANCH  31  33
ENDBRANCH  30  31
ENDBRANCH  29  30
ENDBRANCH  28  29
ENDBRANCH  27  28
ENDBRANCH   1  27
TORSDOF 23
ENDMDL
MODEL 3
REMARK VINA RESULT:      -9.4      2.929      4.094
REMARK SMILES CCCc1cc2c(cc1Cl)C=C(C(=O)OCCOCCOCCOC(=O)c1ccc(-c3c4nc(c(-c5cc(S(=O)(=O)[O-])ccc5F)c5ccc([nH]5)c(-c5cc(S(=O)(=O)[O-])ccc5F)c5nc(c(-c6cc(S(=O)(=O)[O-])ccc6F)c6ccc3[nH]6)C=C5)C=C4)cc1)[C@@H](C(F)(F)F)O2
REMARK SMILES IDX 20 1 19 2 18 3 17 4 16 5 15 6 13 7 14 8 12 9 4 10 5 11 9 12
REMARK SMILES IDX 6 13 8 14 10 15 7 16 95 17 11 18 90 19 3 20 2 21 1 22 91 23
REMARK SMILES IDX 92 24 93 25 94 26 21 27 22 28 23 29 24 30 25 31 26 32 27 33
REMARK SMILES IDX 28 34 89 35 29 36 88 37 30 38 31 39 32 40 82 41 33 42 87 43
REMARK SMILES IDX 81 44 83 45 34 46 86 47 80 48 79 49 35 51 67 52 47 53 66 54
REMARK SMILES IDX 48 55 51 56 65 57 84 58 49 59 50 60 64 62 85 63 52 64 36 65
REMARK SMILES IDX 37 66 45 67 38 68 44 69 46 70 43 71 39 72 40 73 41 74 42 75
REMARK SMILES IDX 68 76 69 77 77 78 70 79 76 80 78 81 75 82 71 83 72 84 73 85
REMARK SMILES IDX 74 86 53 87 54 88 62 89 55 90 61 91 63 92 60 93 56 94 57 95
REMARK SMILES IDX 58 96 59 97
REMARK H PARENT 83 50 51 61
REMARK Flexibility Score: inf
ROOT
ATOM      1  C   UNL A   1      31.787  26.439  25.702  1.00  0.00     0.188 C 
ENDROOT
BRANCH   1   2
ATOM      2  C   UNL A   1      30.675  25.420  25.367  1.00  0.00     0.188 C 
BRANCH   2   3
ATOM      3  O   UNL A   1      30.642  25.076  24.001  1.00  0.00    -0.376 OA
BRANCH   3   4
ATOM      4  C   UNL A   1      31.858  24.992  23.284  1.00  0.00     0.202 C 
BRANCH   4   5
ATOM      5  C   UNL A   1      32.792  23.768  23.385  1.00  0.00     0.261 C 
BRANCH   5   6
ATOM      6  O   UNL A   1      33.992  23.920  24.156  1.00  0.00    -0.460 OA
BRANCH   6   7
ATOM      7  C   UNL A   1      34.006  23.357  25.384  1.00  0.00     0.338 C 
ATOM      8  O   UNL A   1      33.036  23.065  26.064  1.00  0.00    -0.246 OA
BRANCH   7   9
ATOM      9  C   UNL A   1      35.401  23.016  25.734  1.00  0.00     0.087 C 
ATOM     10  C   UNL A   1      40.355  23.143  26.650  1.00  0.00    -0.026 A 
ATOM     11  C   UNL A   1      39.420  22.122  26.383  1.00  0.00     0.052 A 
ATOM     12  C   UNL A   1      39.866  24.444  26.842  1.00  0.00     0.045 A 
ATOM     13  C   UNL A   1      38.059  22.410  26.230  1.00  0.00     0.128 A 
ATOM     14  C   UNL A   1      38.517  24.741  26.613  1.00  0.00     0.032 A 
ATOM     15  Cl  UNL A   1      40.862  25.731  27.416  1.00  0.00    -0.084 Cl
ATOM     16  C   UNL A   1      37.618  23.730  26.269  1.00  0.00     0.019 A 
ATOM     17  O   UNL A   1      37.232  21.347  26.000  1.00  0.00    -0.475 OA
ATOM     18  C   UNL A   1      36.248  24.041  25.895  1.00  0.00     0.027 C 
ATOM     19  C   UNL A   1      35.792  21.579  25.967  1.00  0.00     0.316 C 
BRANCH  10  20
ATOM     20  C   UNL A   1      41.827  22.787  26.696  1.00  0.00     0.037 C 
BRANCH  20  21
ATOM     21  C   UNL A   1      42.271  21.750  25.650  1.00  0.00     0.001 C 
ATOM     22  C   UNL A   1      42.609  20.377  26.217  1.00  0.00     0.004 C 
ENDBRANCH  20  21
ENDBRANCH  10  20
BRANCH  19  23
ATOM     23  C   UNL A   1      35.213  20.612  24.924  1.00  0.00     0.430 C 
ATOM     24  F   UNL A   1      33.992  20.159  25.305  1.00  0.00    -0.167 F 
ATOM     25  F   UNL A   1      35.040  21.199  23.717  1.00  0.00    -0.167 F 
ATOM     26  F   UNL A   1      36.003  19.532  24.739  1.00  0.00    -0.167 F 
ENDBRANCH  19  23
ENDBRANCH   7   9
ENDBRANCH   6   7
ENDBRANCH   5   6
ENDBRANCH   4   5
ENDBRANCH   3   4
ENDBRANCH   2   3
ENDBRANCH   1   2
BRANCH   1  27
ATOM     27  O   UNL A   1      31.438  27.738  26.168  1.00  0.00    -0.376 OA
BRANCH  27  28
ATOM     28  C   UNL A   1      32.347  28.438  27.012  1.00  0.00     0.202 C 
BRANCH  28  29
ATOM     29  C   UNL A   1      32.981  29.759  26.541  1.00  0.00     0.261 C 
BRANCH  29  30
ATOM     30  O   UNL A   1      34.329  29.989  26.975  1.00  0.00    -0.460 OA
BRANCH  30  31
ATOM     31  C   UNL A   1      34.550  31.149  27.649  1.00  0.00     0.338 C 
ATOM     32  O   UNL A   1      33.769  32.072  27.799  1.00  0.00    -0.246 OA
BRANCH  31  33
ATOM     33  C   UNL A   1      35.838  31.031  28.365  1.00  0.00     0.060 A 
ATOM     34  C   UNL A   1      36.711  32.117  28.429  1.00  0.00     0.016 A 
ATOM     35  C   UNL A   1      36.186  29.803  28.949  1.00  0.00     0.016 A 
ATOM     36  C   UNL A   1      37.939  31.970  29.080  1.00  0.00     0.010 A 
ATOM     37  C   UNL A   1      37.423  29.655  29.582  1.00  0.00     0.010 A 
ATOM     38  C   UNL A   1      38.305  30.741  29.660  1.00  0.00    -0.014 A 
BRANCH  38  39
ATOM     39  C   UNL A   1      39.533  30.664  30.490  1.00  0.00     0.031 A 
ATOM     40  C   UNL A   1      39.598  31.234  31.874  1.00  0.00     0.074 A 
ATOM     41  C   UNL A   1      40.603  30.038  29.966  1.00  0.00     0.049 A 
ATOM     42  N   UNL A   1      40.551  31.114  32.761  1.00  0.00    -0.248 NA
ATOM     43  C   UNL A   1      38.458  32.047  32.319  1.00  0.00     0.031 C 
ATOM     44  C   UNL A   1      40.656  29.485  28.613  1.00  0.00     0.029 A 
ATOM     45  N   UNL A   1      41.834  29.748  30.498  1.00  0.00    -0.354 N 
ATOM     46  C   UNL A   1      40.122  31.810  33.884  1.00  0.00     0.074 A 
ATOM     47  C   UNL A   1      38.842  32.398  33.543  1.00  0.00     0.031 C 
ATOM     48  C   UNL A   1      41.845  28.895  28.430  1.00  0.00     0.029 A 
ATOM     49  C   UNL A   1      42.652  29.050  29.640  1.00  0.00     0.049 A 
ATOM     50  H   UNL A   1      42.106  30.014  31.406  1.00  0.00     0.167 HD
ATOM     51  C   UNL A   1      40.735  31.924  35.088  1.00  0.00     0.034 A 
ATOM     52  C   UNL A   1      43.903  28.576  29.806  1.00  0.00     0.034 A 
ATOM     53  C   UNL A   1      42.019  31.338  35.396  1.00  0.00     0.049 A 
ATOM     54  C   UNL A   1      44.570  28.733  31.148  1.00  0.00     0.074 A 
ATOM     55  C   UNL A   1      42.691  31.346  36.606  1.00  0.00     0.029 A 
ATOM     56  N   UNL A   1      42.831  30.654  34.500  1.00  0.00    -0.354 N 
ATOM     57  N   UNL A   1      44.098  29.280  32.242  1.00  0.00    -0.248 NA
ATOM     58  C   UNL A   1      45.928  28.191  31.289  1.00  0.00     0.031 C 
ATOM     59  C   UNL A   1      43.937  30.748  36.422  1.00  0.00     0.029 A 
ATOM     60  C   UNL A   1      44.012  30.277  35.121  1.00  0.00     0.049 A 
ATOM     61  H   UNL A   1      42.601  30.465  33.562  1.00  0.00     0.167 HD
ATOM     62  C   UNL A   1      45.089  29.128  33.208  1.00  0.00     0.074 A 
ATOM     63  C   UNL A   1      46.175  28.409  32.575  1.00  0.00     0.031 C 
ATOM     64  C   UNL A   1      45.095  29.550  34.497  1.00  0.00     0.034 A 
BRANCH  51  65
ATOM     65  C   UNL A   1      40.039  32.676  36.198  1.00  0.00     0.023 A 
ATOM     66  C   UNL A   1      39.140  32.007  37.053  1.00  0.00     0.031 A 
ATOM     67  C   UNL A   1      40.122  34.076  36.293  1.00  0.00     0.131 A 
ATOM     68  C   UNL A   1      38.328  32.741  37.927  1.00  0.00     0.055 A 
ATOM     69  C   UNL A   1      39.345  34.801  37.199  1.00  0.00     0.041 A 
ATOM     70  F   UNL A   1      40.954  34.765  35.495  1.00  0.00    -0.206 F 
ATOM     71  C   UNL A   1      38.431  34.134  38.010  1.00  0.00     0.022 A 
BRANCH  68  72
ATOM     72  S   UNL A   1      37.047  31.933  38.925  1.00  0.00     0.124 S 
ATOM     73  O   UNL A   1      37.044  30.581  38.372  1.00  0.00    -0.237 OA
ATOM     74  O   UNL A   1      37.591  32.054  40.275  1.00  0.00    -0.237 OA
ATOM     75  O   UNL A   1      35.846  32.716  38.655  1.00  0.00    -0.744 OA
ENDBRANCH  68  72
ENDBRANCH  51  65
BRANCH  52  76
ATOM     76  C   UNL A   1      44.548  27.842  28.678  1.00  0.00     0.023 A 
ATOM     77  C   UNL A   1      45.388  28.515  27.772  1.00  0.00     0.031 A 
ATOM     78  C   UNL A   1      44.235  26.499  28.416  1.00  0.00     0.131 A 
ATOM     79  C   UNL A   1      45.820  27.867  26.609  1.00  0.00     0.055 A 
ATOM     80  C   UNL A   1      44.733  25.832  27.296  1.00  0.00     0.041 A 
ATOM     81  F   UNL A   1      43.423  25.820  29.240  1.00  0.00    -0.206 F 
ATOM     82  C   UNL A   1      45.514  26.523  26.374  1.00  0.00     0.022 A 
BRANCH  79  83
ATOM     83  S   UNL A   1      46.664  28.788  25.292  1.00  0.00     0.124 S 
ATOM     84  O   UNL A   1      46.209  28.090  24.094  1.00  0.00    -0.237 OA
ATOM     85  O   UNL A   1      46.127  30.134  25.481  1.00  0.00    -0.237 OA
ATOM     86  O   UNL A   1      48.078  28.634  25.616  1.00  0.00    -0.744 OA
ENDBRANCH  79  83
ENDBRANCH  52  76
BRANCH  64  87
ATOM     87  C   UNL A   1      46.309  29.262  35.354  1.00  0.00     0.023 A 
ATOM     88  C   UNL A   1      46.329  28.125  36.188  1.00  0.00     0.031 A 
ATOM     89  C   UNL A   1      47.362  30.186  35.470  1.00  0.00     0.131 A 
ATOM     90  C   UNL A   1      47.351  27.970  37.134  1.00  0.00     0.055 A 
ATOM     91  C   UNL A   1      48.409  29.997  36.375  1.00  0.00     0.041 A 
ATOM     92  F   UNL A   1      47.387  31.291  34.709  1.00  0.00    -0.206 F 
ATOM     93  C   UNL A   1      48.397  28.895  37.224  1.00  0.00     0.022 A 
BRANCH  90  94
ATOM     94  S   UNL A   1      47.309  26.622  38.348  1.00  0.00     0.124 S 
ATOM     95  O   UNL A   1      46.226  27.044  39.232  1.00  0.00    -0.237 OA
ATOM     96  O   UNL A   1      47.014  25.463  37.510  1.00  0.00    -0.237 OA
ATOM     97  O   UNL A   1      48.641  26.643  38.944  1.00  0.00    -0.744 OA
ENDBRANCH  90  94
ENDBRANCH  64  87
ENDBRANCH  38  39
ENDBRANCH  31  33
ENDBRANCH  30  31
ENDBRANCH  29  30
ENDBRANCH  28  29
ENDBRANCH  27  28
ENDBRANCH   1  27
TORSDOF 23
ENDMDL
