MODEL 1
REMARK VINA RESULT:     -11.6      0.000      0.000
REMARK SMILES O=C(OCCOCCOCCOC(=O)[C@H](c1c[nH]c2cc(F)ccc12)[NH+]1CC[NH+](Cc2cccc(Cl)c2)CC1)c1ccc(-c2c3nc(c(-c4cc(S(=O)(=O)[O-])ccc4F)c4ccc([nH]4)c(-c4cc(S(=O)(=O)[O-])ccc4F)c4nc(c(-c5cc(S(=O)(=O)[O-])ccc5F)c5ccc2[nH]5)C=C4)C=C3)cc1
REMARK SMILES IDX 7 1 6 2 5 3 4 4 3 5 2 6 1 7 40 8 41 9 102 10 42 11 101 12
REMARK SMILES IDX 43 13 44 14 45 15 95 16 46 17 100 18 94 19 96 20 47 21 99 22
REMARK SMILES IDX 93 23 92 24 48 26 80 27 60 28 79 29 61 30 64 31 78 32 97 33
REMARK SMILES IDX 62 34 63 35 77 37 98 38 65 39 49 40 50 41 58 42 51 43 57 44
REMARK SMILES IDX 59 45 56 46 52 47 53 48 54 49 55 50 81 51 82 52 90 53 83 54
REMARK SMILES IDX 89 55 91 56 88 57 84 58 85 59 86 60 87 61 66 62 67 63 75 64
REMARK SMILES IDX 68 65 74 66 76 67 73 68 69 69 70 70 71 71 72 72 8 73 9 74
REMARK SMILES IDX 10 75 11 76 12 77 13 78 14 79 15 80 26 81 27 82 39 83 28 85
REMARK SMILES IDX 38 86 29 87 30 89 31 90 32 91 37 92 33 93 35 94 34 95 36 96
REMARK SMILES IDX 16 97 17 98 25 99 18 100 19 101 24 102 20 104 23 105 21 106
REMARK SMILES IDX 22 107
REMARK H PARENT 96 25 64 36 26 84 29 88 18 103
REMARK Flexibility Score: inf
ROOT
ATOM      1  C   UNL A   1      37.507  22.206  25.393  1.00  0.00     0.188 C 
ENDROOT
BRANCH   1   2
ATOM      2  O   UNL A   1      38.121  21.175  24.617  1.00  0.00    -0.376 OA
BRANCH   2   3
ATOM      3  C   UNL A   1      38.198  19.911  25.303  1.00  0.00     0.202 C 
BRANCH   3   4
ATOM      4  C   UNL A   1      39.613  19.428  25.675  1.00  0.00     0.261 C 
BRANCH   4   5
ATOM      5  O   UNL A   1      40.075  19.921  26.951  1.00  0.00    -0.460 OA
BRANCH   5   6
ATOM      6  C   UNL A   1      41.247  20.503  27.277  1.00  0.00     0.338 C 
ATOM      7  O   UNL A   1      42.212  19.794  27.558  1.00  0.00    -0.246 OA
BRANCH   6   8
ATOM      8  C   UNL A   1      41.379  21.979  27.387  1.00  0.00     0.060 A 
ATOM      9  C   UNL A   1      40.694  22.882  26.571  1.00  0.00     0.016 A 
ATOM     10  C   UNL A   1      42.086  22.479  28.483  1.00  0.00     0.016 A 
ATOM     11  C   UNL A   1      40.815  24.262  26.745  1.00  0.00     0.010 A 
ATOM     12  C   UNL A   1      42.127  23.853  28.722  1.00  0.00     0.010 A 
ATOM     13  C   UNL A   1      41.539  24.763  27.823  1.00  0.00    -0.014 A 
BRANCH  13  14
ATOM     14  C   UNL A   1      41.844  26.211  27.960  1.00  0.00     0.031 A 
ATOM     15  C   UNL A   1      43.222  26.655  27.559  1.00  0.00     0.074 A 
ATOM     16  C   UNL A   1      40.958  27.101  28.445  1.00  0.00     0.049 A 
ATOM     17  N   UNL A   1      43.867  27.756  27.835  1.00  0.00    -0.248 NA
ATOM     18  C   UNL A   1      43.992  25.685  26.763  1.00  0.00     0.031 C 
ATOM     19  C   UNL A   1      39.558  26.827  28.761  1.00  0.00     0.029 A 
ATOM     20  N   UNL A   1      41.119  28.421  28.790  1.00  0.00    -0.354 N 
ATOM     21  C   UNL A   1      45.138  27.582  27.297  1.00  0.00     0.074 A 
ATOM     22  C   UNL A   1      45.186  26.247  26.744  1.00  0.00     0.031 C 
ATOM     23  C   UNL A   1      39.002  27.923  29.303  1.00  0.00     0.029 A 
ATOM     24  C   UNL A   1      40.017  28.964  29.412  1.00  0.00     0.049 A 
ATOM     25  H   UNL A   1      41.942  28.930  28.609  1.00  0.00     0.167 HD
ATOM     26  C   UNL A   1      46.164  28.467  27.252  1.00  0.00     0.034 A 
ATOM     27  C   UNL A   1      39.863  30.148  30.040  1.00  0.00     0.034 A 
ATOM     28  C   UNL A   1      46.067  29.797  27.795  1.00  0.00     0.049 A 
ATOM     29  C   UNL A   1      41.032  31.101  30.060  1.00  0.00     0.074 A 
ATOM     30  C   UNL A   1      47.023  30.795  27.830  1.00  0.00     0.029 A 
ATOM     31  N   UNL A   1      44.928  30.312  28.407  1.00  0.00    -0.354 N 
ATOM     32  N   UNL A   1      42.246  30.925  29.586  1.00  0.00    -0.248 NA
ATOM     33  C   UNL A   1      40.812  32.413  30.680  1.00  0.00     0.031 C 
ATOM     34  C   UNL A   1      46.481  31.889  28.513  1.00  0.00     0.029 A 
ATOM     35  C   UNL A   1      45.163  31.605  28.840  1.00  0.00     0.049 A 
ATOM     36  H   UNL A   1      44.079  29.826  28.517  1.00  0.00     0.167 HD
ATOM     37  C   UNL A   1      42.922  32.119  29.812  1.00  0.00     0.074 A 
ATOM     38  C   UNL A   1      41.984  33.003  30.477  1.00  0.00     0.031 C 
ATOM     39  C   UNL A   1      44.195  32.461  29.487  1.00  0.00     0.034 A 
BRANCH  26  40
ATOM     40  C   UNL A   1      47.463  27.968  26.658  1.00  0.00     0.023 A 
ATOM     41  C   UNL A   1      47.735  28.076  25.281  1.00  0.00     0.031 A 
ATOM     42  C   UNL A   1      48.367  27.237  27.448  1.00  0.00     0.131 A 
ATOM     43  C   UNL A   1      48.788  27.340  24.716  1.00  0.00     0.055 A 
ATOM     44  C   UNL A   1      49.482  26.602  26.894  1.00  0.00     0.041 A 
ATOM     45  F   UNL A   1      48.157  27.080  28.765  1.00  0.00    -0.206 F 
ATOM     46  C   UNL A   1      49.680  26.625  25.516  1.00  0.00     0.022 A 
BRANCH  43  47
ATOM     47  S   UNL A   1      48.816  27.136  22.911  1.00  0.00     0.124 S 
ATOM     48  O   UNL A   1      50.244  27.277  22.621  1.00  0.00    -0.237 OA
ATOM     49  O   UNL A   1      48.255  25.811  22.730  1.00  0.00    -0.237 OA
ATOM     50  O   UNL A   1      47.985  28.244  22.430  1.00  0.00    -0.744 OA
ENDBRANCH  43  47
ENDBRANCH  26  40
BRANCH  27  51
ATOM     51  C   UNL A   1      38.581  30.466  30.734  1.00  0.00     0.023 A 
ATOM     52  C   UNL A   1      37.572  31.217  30.111  1.00  0.00     0.031 A 
ATOM     53  C   UNL A   1      38.344  30.009  32.045  1.00  0.00     0.131 A 
ATOM     54  C   UNL A   1      36.384  31.507  30.804  1.00  0.00     0.055 A 
ATOM     55  C   UNL A   1      37.147  30.266  32.716  1.00  0.00     0.041 A 
ATOM     56  F   UNL A   1      39.272  29.279  32.686  1.00  0.00    -0.206 F 
ATOM     57  C   UNL A   1      36.159  31.026  32.097  1.00  0.00     0.022 A 
BRANCH  54  58
ATOM     58  S   UNL A   1      35.141  32.563  30.007  1.00  0.00     0.124 S 
ATOM     59  O   UNL A   1      34.231  32.839  31.114  1.00  0.00    -0.237 OA
ATOM     60  O   UNL A   1      35.947  33.688  29.545  1.00  0.00    -0.237 OA
ATOM     61  O   UNL A   1      34.598  31.715  28.950  1.00  0.00    -0.744 OA
ENDBRANCH  54  58
ENDBRANCH  27  51
BRANCH  39  62
ATOM     62  C   UNL A   1      44.623  33.876  29.773  1.00  0.00     0.023 A 
ATOM     63  C   UNL A   1      44.382  34.925  28.871  1.00  0.00     0.031 A 
ATOM     64  C   UNL A   1      45.229  34.180  31.006  1.00  0.00     0.131 A 
ATOM     65  C   UNL A   1      44.766  36.231  29.209  1.00  0.00     0.055 A 
ATOM     66  C   UNL A   1      45.566  35.487  31.355  1.00  0.00     0.041 A 
ATOM     67  F   UNL A   1      45.479  33.210  31.900  1.00  0.00    -0.206 F 
ATOM     68  C   UNL A   1      45.338  36.521  30.451  1.00  0.00     0.022 A 
BRANCH  65  69
ATOM     69  S   UNL A   1      44.544  37.550  27.985  1.00  0.00     0.124 S 
ATOM     70  O   UNL A   1      45.920  37.822  27.581  1.00  0.00    -0.237 OA
ATOM     71  O   UNL A   1      43.699  36.910  26.982  1.00  0.00    -0.237 OA
ATOM     72  O   UNL A   1      43.898  38.619  28.746  1.00  0.00    -0.744 OA
ENDBRANCH  65  69
ENDBRANCH  39  62
ENDBRANCH  13  14
ENDBRANCH   6   8
ENDBRANCH   5   6
ENDBRANCH   4   5
ENDBRANCH   3   4
ENDBRANCH   2   3
ENDBRANCH   1   2
BRANCH   1  73
ATOM     73  C   UNL A   1      36.118  22.683  24.936  1.00  0.00     0.188 C 
BRANCH  73  74
ATOM     74  O   UNL A   1      35.528  23.833  25.522  1.00  0.00    -0.376 OA
BRANCH  74  75
ATOM     75  C   UNL A   1      34.842  24.730  24.665  1.00  0.00     0.202 C 
BRANCH  75  76
ATOM     76  C   UNL A   1      34.162  25.945  25.306  1.00  0.00     0.261 C 
BRANCH  76  77
ATOM     77  O   UNL A   1      33.118  26.562  24.526  1.00  0.00    -0.459 OA
BRANCH  77  78
ATOM     78  C   UNL A   1      31.883  26.359  25.089  1.00  0.00     0.370 C 
ATOM     79  O   UNL A   1      31.634  26.697  26.247  1.00  0.00    -0.245 OA
BRANCH  78  80
ATOM     80  C   UNL A   1      30.779  25.859  24.133  1.00  0.00     0.328 C 
BRANCH  80  81
ATOM     81  N   UNL A   1      30.415  24.455  24.428  1.00  0.00    -0.310 N 
ATOM     82  C   UNL A   1      30.663  23.439  23.414  1.00  0.00     0.325 C 
ATOM     83  C   UNL A   1      30.734  23.981  25.779  1.00  0.00     0.325 C 
ATOM     84  H   UNL A   1      29.403  24.570  24.390  1.00  0.00     0.349 HD
ATOM     85  C   UNL A   1      31.982  22.645  23.539  1.00  0.00     0.324 C 
ATOM     86  C   UNL A   1      32.042  23.158  25.922  1.00  0.00     0.324 C 
ATOM     87  N   UNL A   1      32.337  22.166  24.877  1.00  0.00    -0.322 N 
ATOM     88  H   UNL A   1      33.354  22.079  24.876  1.00  0.00     0.348 HD
BRANCH  87  89
ATOM     89  C   UNL A   1      31.936  20.789  25.176  1.00  0.00     0.299 C 
BRANCH  89  90
ATOM     90  C   UNL A   1      32.585  19.713  24.341  1.00  0.00     0.008 A 
ATOM     91  C   UNL A   1      32.099  19.415  23.057  1.00  0.00     0.009 A 
ATOM     92  C   UNL A   1      33.615  18.929  24.874  1.00  0.00     0.030 A 
ATOM     93  C   UNL A   1      32.554  18.291  22.369  1.00  0.00     0.002 A 
ATOM     94  C   UNL A   1      34.077  17.814  24.178  1.00  0.00     0.041 A 
ATOM     95  C   UNL A   1      33.533  17.478  22.939  1.00  0.00     0.020 A 
ATOM     96  Cl  UNL A   1      35.300  16.826  24.873  1.00  0.00    -0.084 Cl
ENDBRANCH  89  90
ENDBRANCH  87  89
ENDBRANCH  80  81
BRANCH  80  97
ATOM     97  C   UNL A   1      29.579  26.730  23.842  1.00  0.00     0.046 A 
ATOM     98  C   UNL A   1      28.236  26.506  24.077  1.00  0.00     0.094 A 
ATOM     99  C   UNL A   1      29.637  27.978  23.109  1.00  0.00     0.009 A 
ATOM    100  N   UNL A   1      27.499  27.487  23.467  1.00  0.00    -0.361 N 
ATOM    101  C   UNL A   1      28.329  28.395  22.864  1.00  0.00     0.049 A 
ATOM    102  C   UNL A   1      30.688  28.772  22.596  1.00  0.00     0.014 A 
ATOM    103  H   UNL A   1      26.516  27.532  23.463  1.00  0.00     0.166 HD
ATOM    104  C   UNL A   1      28.018  29.554  22.144  1.00  0.00     0.065 A 
ATOM    105  C   UNL A   1      30.400  29.957  21.911  1.00  0.00     0.040 A 
ATOM    106  C   UNL A   1      29.083  30.328  21.689  1.00  0.00     0.125 A 
ATOM    107  F   UNL A   1      28.822  31.462  21.024  1.00  0.00    -0.207 F 
ENDBRANCH  80  97
ENDBRANCH  78  80
ENDBRANCH  77  78
ENDBRANCH  76  77
ENDBRANCH  75  76
ENDBRANCH  74  75
ENDBRANCH  73  74
ENDBRANCH   1  73
TORSDOF 24
ENDMDL
MODEL 2
REMARK VINA RESULT:     -11.5      5.543     10.718
REMARK SMILES O=C(OCCOCCOCCOC(=O)[C@H](c1c[nH]c2cc(F)ccc12)[NH+]1CC[NH+](Cc2cccc(Cl)c2)CC1)c1ccc(-c2c3nc(c(-c4cc(S(=O)(=O)[O-])ccc4F)c4ccc([nH]4)c(-c4cc(S(=O)(=O)[O-])ccc4F)c4nc(c(-c5cc(S(=O)(=O)[O-])ccc5F)c5ccc2[nH]5)C=C4)C=C3)cc1
REMARK SMILES IDX 7 1 6 2 5 3 4 4 3 5 2 6 1 7 40 8 41 9 102 10 42 11 101 12
REMARK SMILES IDX 43 13 44 14 45 15 95 16 46 17 100 18 94 19 96 20 47 21 99 22
REMARK SMILES IDX 93 23 92 24 48 26 80 27 60 28 79 29 61 30 64 31 78 32 97 33
REMARK SMILES IDX 62 34 63 35 77 37 98 38 65 39 49 40 50 41 58 42 51 43 57 44
REMARK SMILES IDX 59 45 56 46 52 47 53 48 54 49 55 50 81 51 82 52 90 53 83 54
REMARK SMILES IDX 89 55 91 56 88 57 84 58 85 59 86 60 87 61 66 62 67 63 75 64
REMARK SMILES IDX 68 65 74 66 76 67 73 68 69 69 70 70 71 71 72 72 8 73 9 74
REMARK SMILES IDX 10 75 11 76 12 77 13 78 14 79 15 80 26 81 27 82 39 83 28 85
REMARK SMILES IDX 38 86 29 87 30 89 31 90 32 91 37 92 33 93 35 94 34 95 36 96
REMARK SMILES IDX 16 97 17 98 25 99 18 100 19 101 24 102 20 104 23 105 21 106
REMARK SMILES IDX 22 107
REMARK H PARENT 96 25 64 36 26 84 29 88 18 103
REMARK Flexibility Score: inf
ROOT
ATOM      1  C   UNL A   1      34.112  32.775  28.809  1.00  0.00     0.188 C 
ENDROOT
BRANCH   1   2
ATOM      2  O   UNL A   1      33.210  33.865  28.611  1.00  0.00    -0.376 OA
BRANCH   2   3
ATOM      3  C   UNL A   1      33.872  35.134  28.447  1.00  0.00     0.202 C 
BRANCH   3   4
ATOM      4  C   UNL A   1      33.201  36.341  29.132  1.00  0.00     0.261 C 
BRANCH   4   5
ATOM      5  O   UNL A   1      32.532  36.006  30.367  1.00  0.00    -0.460 OA
BRANCH   5   6
ATOM      6  C   UNL A   1      33.015  35.965  31.625  1.00  0.00     0.338 C 
ATOM      7  O   UNL A   1      32.645  36.809  32.439  1.00  0.00    -0.246 OA
BRANCH   6   8
ATOM      8  C   UNL A   1      34.050  34.978  32.028  1.00  0.00     0.060 A 
ATOM      9  C   UNL A   1      33.756  33.721  32.562  1.00  0.00     0.016 A 
ATOM     10  C   UNL A   1      35.374  35.260  31.685  1.00  0.00     0.016 A 
ATOM     11  C   UNL A   1      34.764  32.809  32.882  1.00  0.00     0.010 A 
ATOM     12  C   UNL A   1      36.373  34.312  31.909  1.00  0.00     0.010 A 
ATOM     13  C   UNL A   1      36.087  33.099  32.563  1.00  0.00    -0.014 A 
BRANCH  13  14
ATOM     14  C   UNL A   1      37.213  32.249  33.031  1.00  0.00     0.031 A 
ATOM     15  C   UNL A   1      37.823  32.602  34.358  1.00  0.00     0.074 A 
ATOM     16  C   UNL A   1      37.705  31.225  32.309  1.00  0.00     0.049 A 
ATOM     17  N   UNL A   1      38.968  32.255  34.879  1.00  0.00    -0.248 NA
ATOM     18  C   UNL A   1      37.029  33.517  35.195  1.00  0.00     0.031 C 
ATOM     19  C   UNL A   1      37.137  30.706  31.067  1.00  0.00     0.029 A 
ATOM     20  N   UNL A   1      38.824  30.453  32.505  1.00  0.00    -0.354 N 
ATOM     21  C   UNL A   1      39.055  32.958  36.076  1.00  0.00     0.074 A 
ATOM     22  C   UNL A   1      37.881  33.797  36.163  1.00  0.00     0.031 C 
ATOM     23  C   UNL A   1      37.936  29.743  30.581  1.00  0.00     0.029 A 
ATOM     24  C   UNL A   1      39.095  29.603  31.456  1.00  0.00     0.049 A 
ATOM     25  H   UNL A   1      39.378  30.502  33.317  1.00  0.00     0.167 HD
ATOM     26  C   UNL A   1      40.021  32.892  37.026  1.00  0.00     0.034 A 
ATOM     27  C   UNL A   1      40.178  28.838  31.209  1.00  0.00     0.034 A 
ATOM     28  C   UNL A   1      41.164  32.025  36.912  1.00  0.00     0.049 A 
ATOM     29  C   UNL A   1      41.290  28.826  32.227  1.00  0.00     0.074 A 
ATOM     30  C   UNL A   1      42.222  31.858  37.786  1.00  0.00     0.029 A 
ATOM     31  N   UNL A   1      41.396  31.170  35.837  1.00  0.00    -0.354 N 
ATOM     32  N   UNL A   1      41.393  29.518  33.341  1.00  0.00    -0.248 NA
ATOM     33  C   UNL A   1      42.420  27.925  31.972  1.00  0.00     0.031 C 
ATOM     34  C   UNL A   1      43.118  30.949  37.212  1.00  0.00     0.029 A 
ATOM     35  C   UNL A   1      42.586  30.490  36.016  1.00  0.00     0.049 A 
ATOM     36  H   UNL A   1      40.798  31.066  35.061  1.00  0.00     0.167 HD
ATOM     37  C   UNL A   1      42.578  29.104  33.940  1.00  0.00     0.074 A 
ATOM     38  C   UNL A   1      43.160  28.112  33.058  1.00  0.00     0.031 C 
ATOM     39  C   UNL A   1      43.128  29.495  35.119  1.00  0.00     0.034 A 
BRANCH  26  40
ATOM     40  C   UNL A   1      39.881  33.834  38.201  1.00  0.00     0.023 A 
ATOM     41  C   UNL A   1      39.288  33.423  39.410  1.00  0.00     0.031 A 
ATOM     42  C   UNL A   1      40.198  35.196  38.057  1.00  0.00     0.131 A 
ATOM     43  C   UNL A   1      38.893  34.382  40.356  1.00  0.00     0.055 A 
ATOM     44  C   UNL A   1      39.907  36.128  39.057  1.00  0.00     0.041 A 
ATOM     45  F   UNL A   1      40.748  35.656  36.923  1.00  0.00    -0.206 F 
ATOM     46  C   UNL A   1      39.222  35.729  40.200  1.00  0.00     0.022 A 
BRANCH  43  47
ATOM     47  S   UNL A   1      37.734  33.870  41.658  1.00  0.00     0.124 S 
ATOM     48  O   UNL A   1      36.763  33.083  40.896  1.00  0.00    -0.237 OA
ATOM     49  O   UNL A   1      38.584  33.127  42.569  1.00  0.00    -0.237 OA
ATOM     50  O   UNL A   1      37.216  35.141  42.173  1.00  0.00    -0.744 OA
ENDBRANCH  43  47
ENDBRANCH  26  40
BRANCH  27  51
ATOM     51  C   UNL A   1      40.277  28.072  29.931  1.00  0.00     0.023 A 
ATOM     52  C   UNL A   1      41.198  28.422  28.931  1.00  0.00     0.031 A 
ATOM     53  C   UNL A   1      39.445  26.960  29.697  1.00  0.00     0.131 A 
ATOM     54  C   UNL A   1      41.250  27.684  27.736  1.00  0.00     0.055 A 
ATOM     55  C   UNL A   1      39.527  26.205  28.526  1.00  0.00     0.041 A 
ATOM     56  F   UNL A   1      38.551  26.576  30.624  1.00  0.00    -0.206 F 
ATOM     57  C   UNL A   1      40.431  26.570  27.533  1.00  0.00     0.022 A 
BRANCH  54  58
ATOM     58  S   UNL A   1      42.382  28.222  26.423  1.00  0.00     0.124 S 
ATOM     59  O   UNL A   1      41.792  27.595  25.246  1.00  0.00    -0.237 OA
ATOM     60  O   UNL A   1      42.269  29.675  26.500  1.00  0.00    -0.237 OA
ATOM     61  O   UNL A   1      43.672  27.678  26.839  1.00  0.00    -0.744 OA
ENDBRANCH  54  58
ENDBRANCH  27  51
BRANCH  39  62
ATOM     62  C   UNL A   1      44.383  28.790  35.561  1.00  0.00     0.023 A 
ATOM     63  C   UNL A   1      44.348  27.617  36.331  1.00  0.00     0.031 A 
ATOM     64  C   UNL A   1      45.634  29.279  35.144  1.00  0.00     0.131 A 
ATOM     65  C   UNL A   1      45.548  26.981  36.680  1.00  0.00     0.055 A 
ATOM     66  C   UNL A   1      46.821  28.616  35.453  1.00  0.00     0.041 A 
ATOM     67  F   UNL A   1      45.717  30.398  34.405  1.00  0.00    -0.206 F 
ATOM     68  C   UNL A   1      46.781  27.462  36.230  1.00  0.00     0.022 A 
BRANCH  65  69
ATOM     69  S   UNL A   1      45.484  25.530  37.765  1.00  0.00     0.124 S 
ATOM     70  O   UNL A   1      45.585  26.139  39.088  1.00  0.00    -0.237 OA
ATOM     71  O   UNL A   1      44.190  24.944  37.431  1.00  0.00    -0.237 OA
ATOM     72  O   UNL A   1      46.645  24.743  37.354  1.00  0.00    -0.744 OA
ENDBRANCH  65  69
ENDBRANCH  39  62
ENDBRANCH  13  14
ENDBRANCH   6   8
ENDBRANCH   5   6
ENDBRANCH   4   5
ENDBRANCH   3   4
ENDBRANCH   2   3
ENDBRANCH   1   2
BRANCH   1  73
ATOM     73  C   UNL A   1      33.988  31.589  27.838  1.00  0.00     0.188 C 
BRANCH  73  74
ATOM     74  O   UNL A   1      32.800  31.405  27.083  1.00  0.00    -0.376 OA
BRANCH  74  75
ATOM     75  C   UNL A   1      32.343  30.078  26.888  1.00  0.00     0.202 C 
BRANCH  75  76
ATOM     76  C   UNL A   1      32.615  29.423  25.529  1.00  0.00     0.261 C 
BRANCH  76  77
ATOM     77  O   UNL A   1      32.605  27.982  25.515  1.00  0.00    -0.459 OA
BRANCH  77  78
ATOM     78  C   UNL A   1      32.902  27.490  24.269  1.00  0.00     0.370 C 
ATOM     79  O   UNL A   1      34.015  27.637  23.761  1.00  0.00    -0.245 OA
BRANCH  78  80
ATOM     80  C   UNL A   1      31.830  26.584  23.627  1.00  0.00     0.328 C 
BRANCH  80  81
ATOM     81  N   UNL A   1      32.035  25.168  24.004  1.00  0.00    -0.310 N 
ATOM     82  C   UNL A   1      32.767  24.299  23.092  1.00  0.00     0.325 C 
ATOM     83  C   UNL A   1      32.385  24.922  25.406  1.00  0.00     0.325 C 
ATOM     84  H   UNL A   1      31.070  24.858  23.885  1.00  0.00     0.349 HD
ATOM     85  C   UNL A   1      34.274  24.117  23.371  1.00  0.00     0.324 C 
ATOM     86  C   UNL A   1      33.893  24.710  25.706  1.00  0.00     0.324 C 
ATOM     87  N   UNL A   1      34.662  23.881  24.765  1.00  0.00    -0.322 N 
ATOM     88  H   UNL A   1      35.623  24.216  24.843  1.00  0.00     0.348 HD
BRANCH  87  89
ATOM     89  C   UNL A   1      34.821  22.474  25.140  1.00  0.00     0.299 C 
BRANCH  89  90
ATOM     90  C   UNL A   1      36.236  21.953  25.177  1.00  0.00     0.008 A 
ATOM     91  C   UNL A   1      36.527  20.644  24.755  1.00  0.00     0.009 A 
ATOM     92  C   UNL A   1      37.263  22.732  25.725  1.00  0.00     0.030 A 
ATOM     93  C   UNL A   1      37.785  20.089  24.981  1.00  0.00     0.002 A 
ATOM     94  C   UNL A   1      38.524  22.177  25.936  1.00  0.00     0.041 A 
ATOM     95  C   UNL A   1      38.781  20.852  25.589  1.00  0.00     0.020 A 
ATOM     96  Cl  UNL A   1      39.757  23.127  26.666  1.00  0.00    -0.084 Cl
ENDBRANCH  89  90
ENDBRANCH  87  89
ENDBRANCH  80  81
BRANCH  80  97
ATOM     97  C   UNL A   1      30.376  26.997  23.654  1.00  0.00     0.046 A 
ATOM     98  C   UNL A   1      29.272  26.340  24.161  1.00  0.00     0.094 A 
ATOM     99  C   UNL A   1      29.853  28.178  22.999  1.00  0.00     0.009 A 
ATOM    100  N   UNL A   1      28.135  27.006  23.784  1.00  0.00    -0.361 N 
ATOM    101  C   UNL A   1      28.461  28.129  23.068  1.00  0.00     0.049 A 
ATOM    102  C   UNL A   1      30.439  29.269  22.317  1.00  0.00     0.014 A 
ATOM    103  H   UNL A   1      27.218  26.719  23.996  1.00  0.00     0.166 HD
ATOM    104  C   UNL A   1      27.632  29.103  22.501  1.00  0.00     0.065 A 
ATOM    105  C   UNL A   1      29.630  30.276  21.781  1.00  0.00     0.040 A 
ATOM    106  C   UNL A   1      28.251  30.180  21.872  1.00  0.00     0.125 A 
ATOM    107  F   UNL A   1      27.488  31.148  21.345  1.00  0.00    -0.207 F 
ENDBRANCH  80  97
ENDBRANCH  78  80
ENDBRANCH  77  78
ENDBRANCH  76  77
ENDBRANCH  75  76
ENDBRANCH  74  75
ENDBRANCH  73  74
ENDBRANCH   1  73
TORSDOF 24
ENDMDL
MODEL 3
REMARK VINA RESULT:     -11.5      5.190     10.349
REMARK SMILES O=C(OCCOCCOCCOC(=O)[C@H](c1c[nH]c2cc(F)ccc12)[NH+]1CC[NH+](Cc2cccc(Cl)c2)CC1)c1ccc(-c2c3nc(c(-c4cc(S(=O)(=O)[O-])ccc4F)c4ccc([nH]4)c(-c4cc(S(=O)(=O)[O-])ccc4F)c4nc(c(-c5cc(S(=O)(=O)[O-])ccc5F)c5ccc2[nH]5)C=C4)C=C3)cc1
REMARK SMILES IDX 7 1 6 2 5 3 4 4 3 5 2 6 1 7 40 8 41 9 102 10 42 11 101 12
REMARK SMILES IDX 43 13 44 14 45 15 95 16 46 17 100 18 94 19 96 20 47 21 99 22
REMARK SMILES IDX 93 23 92 24 48 26 80 27 60 28 79 29 61 30 64 31 78 32 97 33
REMARK SMILES IDX 62 34 63 35 77 37 98 38 65 39 49 40 50 41 58 42 51 43 57 44
REMARK SMILES IDX 59 45 56 46 52 47 53 48 54 49 55 50 81 51 82 52 90 53 83 54
REMARK SMILES IDX 89 55 91 56 88 57 84 58 85 59 86 60 87 61 66 62 67 63 75 64
REMARK SMILES IDX 68 65 74 66 76 67 73 68 69 69 70 70 71 71 72 72 8 73 9 74
REMARK SMILES IDX 10 75 11 76 12 77 13 78 14 79 15 80 26 81 27 82 39 83 28 85
REMARK SMILES IDX 38 86 29 87 30 89 31 90 32 91 37 92 33 93 35 94 34 95 36 96
REMARK SMILES IDX 16 97 17 98 25 99 18 100 19 101 24 102 20 104 23 105 21 106
REMARK SMILES IDX 22 107
REMARK H PARENT 96 25 64 36 26 84 29 88 18 103
REMARK Flexibility Score: inf
ROOT
ATOM      1  C   UNL A   1      34.377  32.695  28.544  1.00  0.00     0.188 C 
ENDROOT
BRANCH   1   2
ATOM      2  O   UNL A   1      33.375  33.661  28.221  1.00  0.00    -0.376 OA
BRANCH   2   3
ATOM      3  C   UNL A   1      33.901  34.986  28.019  1.00  0.00     0.202 C 
BRANCH   3   4
ATOM      4  C   UNL A   1      33.255  36.106  28.860  1.00  0.00     0.261 C 
BRANCH   4   5
ATOM      5  O   UNL A   1      32.664  35.637  30.090  1.00  0.00    -0.460 OA
BRANCH   5   6
ATOM      6  C   UNL A   1      33.189  35.580  31.331  1.00  0.00     0.338 C 
ATOM      7  O   UNL A   1      32.851  36.417  32.166  1.00  0.00    -0.246 OA
BRANCH   6   8
ATOM      8  C   UNL A   1      34.231  34.584  31.690  1.00  0.00     0.060 A 
ATOM      9  C   UNL A   1      33.947  33.297  32.155  1.00  0.00     0.016 A 
ATOM     10  C   UNL A   1      35.554  34.896  31.370  1.00  0.00     0.016 A 
ATOM     11  C   UNL A   1      34.962  32.380  32.434  1.00  0.00     0.010 A 
ATOM     12  C   UNL A   1      36.562  33.947  31.551  1.00  0.00     0.010 A 
ATOM     13  C   UNL A   1      36.284  32.698  32.139  1.00  0.00    -0.014 A 
BRANCH  13  14
ATOM     14  C   UNL A   1      37.416  31.837  32.570  1.00  0.00     0.031 A 
ATOM     15  C   UNL A   1      38.040  32.152  33.900  1.00  0.00     0.074 A 
ATOM     16  C   UNL A   1      37.899  30.834  31.813  1.00  0.00     0.049 A 
ATOM     17  N   UNL A   1      39.191  31.791  34.397  1.00  0.00    -0.248 NA
ATOM     18  C   UNL A   1      37.256  33.042  34.771  1.00  0.00     0.031 C 
ATOM     19  C   UNL A   1      37.317  30.350  30.563  1.00  0.00     0.029 A 
ATOM     20  N   UNL A   1      39.020  30.058  31.974  1.00  0.00    -0.354 N 
ATOM     21  C   UNL A   1      39.292  32.459  35.612  1.00  0.00     0.074 A 
ATOM     22  C   UNL A   1      38.119  33.295  35.736  1.00  0.00     0.031 C 
ATOM     23  C   UNL A   1      38.111  29.401  30.041  1.00  0.00     0.029 A 
ATOM     24  C   UNL A   1      39.279  29.238  30.898  1.00  0.00     0.049 A 
ATOM     25  H   UNL A   1      39.584  30.084  32.780  1.00  0.00     0.167 HD
ATOM     26  C   UNL A   1      40.269  32.367  36.549  1.00  0.00     0.034 A 
ATOM     27  C   UNL A   1      40.360  28.481  30.617  1.00  0.00     0.034 A 
ATOM     28  C   UNL A   1      41.411  31.504  36.397  1.00  0.00     0.049 A 
ATOM     29  C   UNL A   1      41.483  28.440  31.622  1.00  0.00     0.074 A 
ATOM     30  C   UNL A   1      42.479  31.314  37.253  1.00  0.00     0.029 A 
ATOM     31  N   UNL A   1      41.630  30.681  35.295  1.00  0.00    -0.354 N 
ATOM     32  N   UNL A   1      41.599  29.100  32.753  1.00  0.00    -0.248 NA
ATOM     33  C   UNL A   1      42.610  27.548  31.328  1.00  0.00     0.031 C 
ATOM     34  C   UNL A   1      43.369  30.422  36.644  1.00  0.00     0.029 A 
ATOM     35  C   UNL A   1      42.823  29.996  35.442  1.00  0.00     0.049 A 
ATOM     36  H   UNL A   1      41.023  30.599  34.524  1.00  0.00     0.167 HD
ATOM     37  C   UNL A   1      42.791  28.670  33.327  1.00  0.00     0.074 A 
ATOM     38  C   UNL A   1      43.364  27.704  32.410  1.00  0.00     0.031 C 
ATOM     39  C   UNL A   1      43.355  29.028  34.510  1.00  0.00     0.034 A 
BRANCH  26  40
ATOM     40  C   UNL A   1      40.142  33.276  37.751  1.00  0.00     0.023 A 
ATOM     41  C   UNL A   1      39.379  32.909  38.876  1.00  0.00     0.031 A 
ATOM     42  C   UNL A   1      40.658  34.582  37.708  1.00  0.00     0.131 A 
ATOM     43  C   UNL A   1      39.026  33.878  39.828  1.00  0.00     0.055 A 
ATOM     44  C   UNL A   1      40.398  35.509  38.722  1.00  0.00     0.041 A 
ATOM     45  F   UNL A   1      41.378  35.002  36.656  1.00  0.00    -0.206 F 
ATOM     46  C   UNL A   1      39.552  35.169  39.773  1.00  0.00     0.022 A 
BRANCH  43  47
ATOM     47  S   UNL A   1      37.681  33.489  40.986  1.00  0.00     0.124 S 
ATOM     48  O   UNL A   1      36.650  32.980  40.080  1.00  0.00    -0.237 OA
ATOM     49  O   UNL A   1      38.293  32.514  41.870  1.00  0.00    -0.237 OA
ATOM     50  O   UNL A   1      37.370  34.785  41.596  1.00  0.00    -0.744 OA
ENDBRANCH  43  47
ENDBRANCH  26  40
BRANCH  27  51
ATOM     51  C   UNL A   1      40.445  27.751  29.317  1.00  0.00     0.023 A 
ATOM     52  C   UNL A   1      41.333  28.149  28.305  1.00  0.00     0.031 A 
ATOM     53  C   UNL A   1      39.631  26.627  29.073  1.00  0.00     0.131 A 
ATOM     54  C   UNL A   1      41.371  27.444  27.090  1.00  0.00     0.055 A 
ATOM     55  C   UNL A   1      39.702  25.906  27.880  1.00  0.00     0.041 A 
ATOM     56  F   UNL A   1      38.770  26.199  30.010  1.00  0.00    -0.206 F 
ATOM     57  C   UNL A   1      40.572  26.318  26.875  1.00  0.00     0.022 A 
BRANCH  54  58
ATOM     58  S   UNL A   1      42.459  28.043  25.765  1.00  0.00     0.124 S 
ATOM     59  O   UNL A   1      42.610  26.848  24.941  1.00  0.00    -0.237 OA
ATOM     60  O   UNL A   1      41.668  29.124  25.187  1.00  0.00    -0.237 OA
ATOM     61  O   UNL A   1      43.663  28.466  26.476  1.00  0.00    -0.744 OA
ENDBRANCH  54  58
ENDBRANCH  27  51
BRANCH  39  62
ATOM     62  C   UNL A   1      44.615  28.312  34.917  1.00  0.00     0.023 A 
ATOM     63  C   UNL A   1      44.588  27.096  35.619  1.00  0.00     0.031 A 
ATOM     64  C   UNL A   1      45.863  28.836  34.535  1.00  0.00     0.131 A 
ATOM     65  C   UNL A   1      45.793  26.453  35.936  1.00  0.00     0.055 A 
ATOM     66  C   UNL A   1      47.055  28.168  34.812  1.00  0.00     0.041 A 
ATOM     67  F   UNL A   1      45.938  29.996  33.862  1.00  0.00    -0.206 F 
ATOM     68  C   UNL A   1      47.024  26.971  35.521  1.00  0.00     0.022 A 
BRANCH  65  69
ATOM     69  S   UNL A   1      45.740  24.942  36.937  1.00  0.00     0.124 S 
ATOM     70  O   UNL A   1      45.929  25.466  38.286  1.00  0.00    -0.237 OA
ATOM     71  O   UNL A   1      44.412  24.414  36.638  1.00  0.00    -0.237 OA
ATOM     72  O   UNL A   1      46.852  24.147  36.418  1.00  0.00    -0.744 OA
ENDBRANCH  65  69
ENDBRANCH  39  62
ENDBRANCH  13  14
ENDBRANCH   6   8
ENDBRANCH   5   6
ENDBRANCH   4   5
ENDBRANCH   3   4
ENDBRANCH   2   3
ENDBRANCH   1   2
BRANCH   1  73
ATOM     73  C   UNL A   1      34.289  31.339  27.823  1.00  0.00     0.188 C 
BRANCH  73  74
ATOM     74  O   UNL A   1      33.091  30.958  27.162  1.00  0.00    -0.376 OA
BRANCH  74  75
ATOM     75  C   UNL A   1      32.685  29.604  27.265  1.00  0.00     0.202 C 
BRANCH  75  76
ATOM     76  C   UNL A   1      33.411  28.575  26.390  1.00  0.00     0.261 C 
BRANCH  76  77
ATOM     77  O   UNL A   1      32.784  27.280  26.296  1.00  0.00    -0.459 OA
BRANCH  77  78
ATOM     78  C   UNL A   1      33.456  26.459  25.426  1.00  0.00     0.370 C 
ATOM     79  O   UNL A   1      34.500  25.889  25.746  1.00  0.00    -0.245 OA
BRANCH  78  80
ATOM     80  C   UNL A   1      32.732  26.144  24.099  1.00  0.00     0.328 C 
BRANCH  80  81
ATOM     81  N   UNL A   1      31.944  24.896  24.207  1.00  0.00    -0.310 N 
ATOM     82  C   UNL A   1      32.123  23.865  23.193  1.00  0.00     0.325 C 
ATOM     83  C   UNL A   1      31.814  24.334  25.554  1.00  0.00     0.325 C 
ATOM     84  H   UNL A   1      31.035  25.292  23.967  1.00  0.00     0.349 HD
ATOM     85  C   UNL A   1      33.114  22.730  23.530  1.00  0.00     0.324 C 
ATOM     86  C   UNL A   1      32.783  23.173  25.906  1.00  0.00     0.324 C 
ATOM     87  N   UNL A   1      33.021  22.152  24.874  1.00  0.00    -0.322 N 
ATOM     88  H   UNL A   1      33.950  21.781  25.079  1.00  0.00     0.348 HD
BRANCH  87  89
ATOM     89  C   UNL A   1      32.204  20.940  24.978  1.00  0.00     0.299 C 
BRANCH  89  90
ATOM     90  C   UNL A   1      32.696  19.740  24.209  1.00  0.00     0.008 A 
ATOM     91  C   UNL A   1      32.162  19.433  22.946  1.00  0.00     0.009 A 
ATOM     92  C   UNL A   1      33.620  18.859  24.786  1.00  0.00     0.030 A 
ATOM     93  C   UNL A   1      32.457  18.219  22.327  1.00  0.00     0.002 A 
ATOM     94  C   UNL A   1      33.923  17.654  24.157  1.00  0.00     0.041 A 
ATOM     95  C   UNL A   1      33.326  17.320  22.942  1.00  0.00     0.020 A 
ATOM     96  Cl  UNL A   1      35.013  16.556  24.907  1.00  0.00    -0.084 Cl
ENDBRANCH  89  90
ENDBRANCH  87  89
ENDBRANCH  80  81
BRANCH  80  97
ATOM     97  C   UNL A   1      32.003  27.240  23.357  1.00  0.00     0.046 A 
ATOM     98  C   UNL A   1      32.496  28.315  22.644  1.00  0.00     0.094 A 
ATOM     99  C   UNL A   1      30.565  27.417  23.374  1.00  0.00     0.009 A 
ATOM    100  N   UNL A   1      31.462  29.151  22.311  1.00  0.00    -0.361 N 
ATOM    101  C   UNL A   1      30.273  28.630  22.750  1.00  0.00     0.049 A 
ATOM    102  C   UNL A   1      29.486  26.671  23.900  1.00  0.00     0.014 A 
ATOM    103  H   UNL A   1      31.560  30.003  21.828  1.00  0.00     0.166 HD
ATOM    104  C   UNL A   1      28.973  29.131  22.623  1.00  0.00     0.065 A 
ATOM    105  C   UNL A   1      28.175  27.133  23.746  1.00  0.00     0.040 A 
ATOM    106  C   UNL A   1      27.936  28.347  23.122  1.00  0.00     0.125 A 
ATOM    107  F   UNL A   1      26.674  28.781  22.988  1.00  0.00    -0.207 F 
ENDBRANCH  80  97
ENDBRANCH  78  80
ENDBRANCH  77  78
ENDBRANCH  76  77
ENDBRANCH  75  76
ENDBRANCH  74  75
ENDBRANCH  73  74
ENDBRANCH   1  73
TORSDOF 24
ENDMDL
