MODEL 1
REMARK VINA RESULT:      -9.9      0.000      0.000
REMARK SMILES O=C(OCCOCCOCCOC(=O)[C@H]1C[C@](O)(c2ccc(Cl)cc2)[C@@H](c2ccc(Cl)cc2)O1)c1ccc(-c2c3nc(c(-c4cc(S(=O)(=O)[O-])ccc4F)c4ccc([nH]4)c(-c4cc(S(=O)(=O)[O-])ccc4F)c4nc(c(-c5cc(S(=O)(=O)[O-])ccc5F)c5ccc2[nH]5)C=C4)C=C3)cc1
REMARK SMILES IDX 7 1 6 2 5 3 4 4 3 5 2 6 1 7 35 8 36 9 97 10 37 11 96 12
REMARK SMILES IDX 38 13 39 14 40 15 90 16 41 17 95 18 89 19 91 20 42 21 94 22
REMARK SMILES IDX 88 23 87 24 43 26 75 27 55 28 74 29 56 30 59 31 73 32 92 33
REMARK SMILES IDX 57 34 58 35 72 37 93 38 60 39 44 40 45 41 53 42 46 43 52 44
REMARK SMILES IDX 54 45 51 46 47 47 48 48 49 49 50 50 76 51 77 52 85 53 78 54
REMARK SMILES IDX 84 55 86 56 83 57 79 58 80 59 81 60 82 61 61 62 62 63 70 64
REMARK SMILES IDX 63 65 69 66 71 67 68 68 64 69 65 70 66 71 67 72 8 73 9 74
REMARK SMILES IDX 10 75 11 76 12 77 13 78 14 79 15 80 16 81 34 82 17 83 26 84
REMARK SMILES IDX 19 85 20 86 25 87 21 88 24 89 22 90 23 91 18 92 27 94 28 95
REMARK SMILES IDX 33 96 29 97 32 98 30 99 31 100
REMARK H PARENT 91 25 59 36 18 93
REMARK Flexibility Score: inf
ROOT
ATOM      1  C   UNL A   1      36.015  22.149  24.408  1.00  0.00     0.188 C 
ENDROOT
BRANCH   1   2
ATOM      2  O   UNL A   1      37.340  21.621  24.340  1.00  0.00    -0.376 OA
BRANCH   2   3
ATOM      3  C   UNL A   1      38.076  21.550  25.554  1.00  0.00     0.202 C 
BRANCH   3   4
ATOM      4  C   UNL A   1      38.991  20.324  25.684  1.00  0.00     0.261 C 
BRANCH   4   5
ATOM      5  O   UNL A   1      39.834  20.427  26.845  1.00  0.00    -0.460 OA
BRANCH   5   6
ATOM      6  C   UNL A   1      41.184  20.282  26.838  1.00  0.00     0.338 C 
ATOM      7  O   UNL A   1      41.662  19.163  27.021  1.00  0.00    -0.246 OA
BRANCH   6   8
ATOM      8  C   UNL A   1      42.107  21.471  26.854  1.00  0.00     0.060 A 
ATOM      9  C   UNL A   1      42.739  21.993  27.984  1.00  0.00     0.016 A 
ATOM     10  C   UNL A   1      42.356  22.105  25.620  1.00  0.00     0.016 A 
ATOM     11  C   UNL A   1      43.544  23.125  27.913  1.00  0.00     0.010 A 
ATOM     12  C   UNL A   1      43.161  23.251  25.536  1.00  0.00     0.010 A 
ATOM     13  C   UNL A   1      43.717  23.789  26.700  1.00  0.00    -0.014 A 
BRANCH  13  14
ATOM     14  C   UNL A   1      44.231  25.172  26.778  1.00  0.00     0.031 A 
ATOM     15  C   UNL A   1      43.320  26.206  27.381  1.00  0.00     0.074 A 
ATOM     16  C   UNL A   1      45.524  25.438  26.524  1.00  0.00     0.049 A 
ATOM     17  N   UNL A   1      43.577  27.432  27.749  1.00  0.00    -0.248 NA
ATOM     18  C   UNL A   1      41.934  25.778  27.636  1.00  0.00     0.031 C 
ATOM     19  C   UNL A   1      46.505  24.464  26.047  1.00  0.00     0.029 A 
ATOM     20  N   UNL A   1      46.244  26.593  26.682  1.00  0.00    -0.354 N 
ATOM     21  C   UNL A   1      42.395  27.913  28.300  1.00  0.00     0.074 A 
ATOM     22  C   UNL A   1      41.410  26.862  28.182  1.00  0.00     0.031 C 
ATOM     23  C   UNL A   1      47.709  25.059  25.972  1.00  0.00     0.029 A 
ATOM     24  C   UNL A   1      47.578  26.460  26.371  1.00  0.00     0.049 A 
ATOM     25  H   UNL A   1      45.845  27.440  26.989  1.00  0.00     0.167 HD
ATOM     26  C   UNL A   1      42.152  29.123  28.860  1.00  0.00     0.034 A 
ATOM     27  C   UNL A   1      48.571  27.371  26.409  1.00  0.00     0.034 A 
ATOM     28  C   UNL A   1      43.135  30.174  28.911  1.00  0.00     0.049 A 
ATOM     29  C   UNL A   1      48.243  28.758  26.912  1.00  0.00     0.074 A 
ATOM     30  C   UNL A   1      42.993  31.476  29.351  1.00  0.00     0.029 A 
ATOM     31  N   UNL A   1      44.451  30.039  28.481  1.00  0.00    -0.354 N 
ATOM     32  N   UNL A   1      47.109  29.217  27.396  1.00  0.00    -0.248 NA
ATOM     33  C   UNL A   1      49.327  29.746  26.883  1.00  0.00     0.031 C 
ATOM     34  C   UNL A   1      44.202  32.145  29.126  1.00  0.00     0.029 A 
ATOM     35  C   UNL A   1      45.123  31.242  28.617  1.00  0.00     0.049 A 
ATOM     36  H   UNL A   1      44.847  29.208  28.131  1.00  0.00     0.167 HD
ATOM     37  C   UNL A   1      47.355  30.539  27.757  1.00  0.00     0.074 A 
ATOM     38  C   UNL A   1      48.749  30.796  27.450  1.00  0.00     0.031 C 
ATOM     39  C   UNL A   1      46.514  31.462  28.295  1.00  0.00     0.034 A 
BRANCH  26  40
ATOM     40  C   UNL A   1      40.745  29.370  29.347  1.00  0.00     0.023 A 
ATOM     41  C   UNL A   1      40.426  29.374  30.717  1.00  0.00     0.031 A 
ATOM     42  C   UNL A   1      39.691  29.478  28.425  1.00  0.00     0.131 A 
ATOM     43  C   UNL A   1      39.082  29.392  31.123  1.00  0.00     0.055 A 
ATOM     44  C   UNL A   1      38.361  29.578  28.836  1.00  0.00     0.041 A 
ATOM     45  F   UNL A   1      39.932  29.444  27.105  1.00  0.00    -0.206 F 
ATOM     46  C   UNL A   1      38.048  29.515  30.191  1.00  0.00     0.022 A 
BRANCH  43  47
ATOM     47  S   UNL A   1      38.694  29.071  32.867  1.00  0.00     0.124 S 
ATOM     48  O   UNL A   1      39.984  28.606  33.375  1.00  0.00    -0.237 OA
ATOM     49  O   UNL A   1      38.255  30.376  33.340  1.00  0.00    -0.237 OA
ATOM     50  O   UNL A   1      37.654  28.044  32.803  1.00  0.00    -0.744 OA
ENDBRANCH  43  47
ENDBRANCH  26  40
BRANCH  27  51
ATOM     51  C   UNL A   1      49.946  27.029  25.934  1.00  0.00     0.023 A 
ATOM     52  C   UNL A   1      50.365  27.309  24.623  1.00  0.00     0.031 A 
ATOM     53  C   UNL A   1      50.846  26.352  26.779  1.00  0.00     0.131 A 
ATOM     54  C   UNL A   1      51.629  26.877  24.184  1.00  0.00     0.055 A 
ATOM     55  C   UNL A   1      52.119  25.969  26.354  1.00  0.00     0.041 A 
ATOM     56  F   UNL A   1      50.498  26.053  28.041  1.00  0.00    -0.206 F 
ATOM     57  C   UNL A   1      52.512  26.220  25.044  1.00  0.00     0.022 A 
BRANCH  54  58
ATOM     58  S   UNL A   1      52.076  27.110  22.439  1.00  0.00     0.124 S 
ATOM     59  O   UNL A   1      52.383  28.535  22.399  1.00  0.00    -0.237 OA
ATOM     60  O   UNL A   1      53.209  26.203  22.297  1.00  0.00    -0.237 OA
ATOM     61  O   UNL A   1      50.867  26.711  21.722  1.00  0.00    -0.744 OA
ENDBRANCH  54  58
ENDBRANCH  27  51
BRANCH  39  62
ATOM     62  C   UNL A   1      47.103  32.810  28.620  1.00  0.00     0.023 A 
ATOM     63  C   UNL A   1      47.110  33.858  27.684  1.00  0.00     0.031 A 
ATOM     64  C   UNL A   1      47.671  33.045  29.885  1.00  0.00     0.131 A 
ATOM     65  C   UNL A   1      47.727  35.075  28.006  1.00  0.00     0.055 A 
ATOM     66  C   UNL A   1      48.230  34.278  30.221  1.00  0.00     0.041 A 
ATOM     67  F   UNL A   1      47.687  32.078  30.816  1.00  0.00    -0.206 F 
ATOM     68  C   UNL A   1      48.274  35.297  29.273  1.00  0.00     0.022 A 
BRANCH  65  69
ATOM     69  S   UNL A   1      47.893  36.333  26.712  1.00  0.00     0.124 S 
ATOM     70  O   UNL A   1      46.504  36.550  26.319  1.00  0.00    -0.237 OA
ATOM     71  O   UNL A   1      48.532  37.434  27.426  1.00  0.00    -0.237 OA
ATOM     72  O   UNL A   1      48.728  35.681  25.704  1.00  0.00    -0.744 OA
ENDBRANCH  65  69
ENDBRANCH  39  62
ENDBRANCH  13  14
ENDBRANCH   6   8
ENDBRANCH   5   6
ENDBRANCH   4   5
ENDBRANCH   3   4
ENDBRANCH   2   3
ENDBRANCH   1   2
BRANCH   1  73
ATOM     73  C   UNL A   1      34.947  21.223  24.996  1.00  0.00     0.188 C 
BRANCH  73  74
ATOM     74  O   UNL A   1      33.671  21.779  25.296  1.00  0.00    -0.376 OA
BRANCH  74  75
ATOM     75  C   UNL A   1      33.585  22.671  26.403  1.00  0.00     0.202 C 
BRANCH  75  76
ATOM     76  C   UNL A   1      32.239  22.707  27.134  1.00  0.00     0.261 C 
BRANCH  76  77
ATOM     77  O   UNL A   1      31.772  24.051  27.342  1.00  0.00    -0.461 OA
BRANCH  77  78
ATOM     78  C   UNL A   1      31.061  24.641  26.340  1.00  0.00     0.335 C 
ATOM     79  O   UNL A   1      30.540  24.043  25.402  1.00  0.00    -0.249 OA
BRANCH  78  80
ATOM     80  C   UNL A   1      31.011  26.160  26.562  1.00  0.00     0.232 C 
ATOM     81  C   UNL A   1      32.327  26.740  27.054  1.00  0.00     0.087 C 
ATOM     82  O   UNL A   1      30.606  26.862  25.393  1.00  0.00    -0.355 OA
ATOM     83  C   UNL A   1      32.852  27.651  25.942  1.00  0.00     0.123 C 
ATOM     84  C   UNL A   1      31.690  27.667  24.894  1.00  0.00     0.186 C 
BRANCH  83  85
ATOM     85  C   UNL A   1      33.325  28.975  26.563  1.00  0.00    -0.013 A 
ATOM     86  C   UNL A   1      34.657  29.047  27.039  1.00  0.00     0.008 A 
ATOM     87  C   UNL A   1      32.523  30.114  26.727  1.00  0.00     0.008 A 
ATOM     88  C   UNL A   1      35.166  30.203  27.636  1.00  0.00     0.021 A 
ATOM     89  C   UNL A   1      33.034  31.276  27.325  1.00  0.00     0.021 A 
ATOM     90  C   UNL A   1      34.351  31.317  27.772  1.00  0.00     0.041 A 
ATOM     91  Cl  UNL A   1      34.973  32.750  28.492  1.00  0.00    -0.084 Cl
ENDBRANCH  83  85
BRANCH  83  92
ATOM     92  O   UNL A   1      34.046  27.052  25.411  1.00  0.00    -0.382 OA
ATOM     93  H   UNL A   1      34.824  27.485  25.797  1.00  0.00     0.212 HD
ENDBRANCH  83  92
BRANCH  84  94
ATOM     94  C   UNL A   1      31.945  27.185  23.472  1.00  0.00    -0.016 A 
ATOM     95  C   UNL A   1      33.079  27.568  22.738  1.00  0.00     0.008 A 
ATOM     96  C   UNL A   1      31.085  26.227  22.901  1.00  0.00     0.008 A 
ATOM     97  C   UNL A   1      33.341  27.025  21.475  1.00  0.00     0.021 A 
ATOM     98  C   UNL A   1      31.354  25.674  21.645  1.00  0.00     0.021 A 
ATOM     99  C   UNL A   1      32.482  26.074  20.937  1.00  0.00     0.041 A 
ATOM    100  Cl  UNL A   1      32.832  25.376  19.404  1.00  0.00    -0.084 Cl
ENDBRANCH  84  94
ENDBRANCH  78  80
ENDBRANCH  77  78
ENDBRANCH  76  77
ENDBRANCH  75  76
ENDBRANCH  74  75
ENDBRANCH  73  74
ENDBRANCH   1  73
TORSDOF 23
ENDMDL
MODEL 2
REMARK VINA RESULT:      -9.3      2.136      2.705
REMARK SMILES O=C(OCCOCCOCCOC(=O)[C@H]1C[C@](O)(c2ccc(Cl)cc2)[C@@H](c2ccc(Cl)cc2)O1)c1ccc(-c2c3nc(c(-c4cc(S(=O)(=O)[O-])ccc4F)c4ccc([nH]4)c(-c4cc(S(=O)(=O)[O-])ccc4F)c4nc(c(-c5cc(S(=O)(=O)[O-])ccc5F)c5ccc2[nH]5)C=C4)C=C3)cc1
REMARK SMILES IDX 7 1 6 2 5 3 4 4 3 5 2 6 1 7 35 8 36 9 97 10 37 11 96 12
REMARK SMILES IDX 38 13 39 14 40 15 90 16 41 17 95 18 89 19 91 20 42 21 94 22
REMARK SMILES IDX 88 23 87 24 43 26 75 27 55 28 74 29 56 30 59 31 73 32 92 33
REMARK SMILES IDX 57 34 58 35 72 37 93 38 60 39 44 40 45 41 53 42 46 43 52 44
REMARK SMILES IDX 54 45 51 46 47 47 48 48 49 49 50 50 76 51 77 52 85 53 78 54
REMARK SMILES IDX 84 55 86 56 83 57 79 58 80 59 81 60 82 61 61 62 62 63 70 64
REMARK SMILES IDX 63 65 69 66 71 67 68 68 64 69 65 70 66 71 67 72 8 73 9 74
REMARK SMILES IDX 10 75 11 76 12 77 13 78 14 79 15 80 16 81 34 82 17 83 26 84
REMARK SMILES IDX 19 85 20 86 25 87 21 88 24 89 22 90 23 91 18 92 27 94 28 95
REMARK SMILES IDX 33 96 29 97 32 98 30 99 31 100
REMARK H PARENT 91 25 59 36 18 93
REMARK Flexibility Score: inf
ROOT
ATOM      1  C   UNL A   1      36.465  22.437  25.718  1.00  0.00     0.188 C 
ENDROOT
BRANCH   1   2
ATOM      2  O   UNL A   1      37.776  22.232  25.190  1.00  0.00    -0.376 OA
BRANCH   2   3
ATOM      3  C   UNL A   1      38.786  21.817  26.100  1.00  0.00     0.202 C 
BRANCH   3   4
ATOM      4  C   UNL A   1      39.458  20.480  25.752  1.00  0.00     0.261 C 
BRANCH   4   5
ATOM      5  O   UNL A   1      40.687  20.313  26.481  1.00  0.00    -0.460 OA
BRANCH   5   6
ATOM      6  C   UNL A   1      41.877  20.867  26.131  1.00  0.00     0.338 C 
ATOM      7  O   UNL A   1      42.752  20.143  25.658  1.00  0.00    -0.246 OA
BRANCH   6   8
ATOM      8  C   UNL A   1      42.239  22.274  26.524  1.00  0.00     0.060 A 
ATOM      9  C   UNL A   1      42.042  23.412  25.741  1.00  0.00     0.016 A 
ATOM     10  C   UNL A   1      42.822  22.454  27.795  1.00  0.00     0.016 A 
ATOM     11  C   UNL A   1      42.448  24.672  26.168  1.00  0.00     0.010 A 
ATOM     12  C   UNL A   1      43.241  23.718  28.235  1.00  0.00     0.010 A 
ATOM     13  C   UNL A   1      43.095  24.824  27.392  1.00  0.00    -0.014 A 
BRANCH  13  14
ATOM     14  C   UNL A   1      43.841  26.084  27.588  1.00  0.00     0.031 A 
ATOM     15  C   UNL A   1      43.242  27.094  28.527  1.00  0.00     0.074 A 
ATOM     16  C   UNL A   1      45.094  26.219  27.119  1.00  0.00     0.049 A 
ATOM     17  N   UNL A   1      43.764  28.179  29.030  1.00  0.00    -0.248 NA
ATOM     18  C   UNL A   1      41.871  26.815  28.990  1.00  0.00     0.031 C 
ATOM     19  C   UNL A   1      45.795  25.234  26.296  1.00  0.00     0.029 A 
ATOM     20  N   UNL A   1      46.016  27.214  27.312  1.00  0.00    -0.354 N 
ATOM     21  C   UNL A   1      42.798  28.698  29.885  1.00  0.00     0.074 A 
ATOM     22  C   UNL A   1      41.645  27.832  29.803  1.00  0.00     0.031 C 
ATOM     23  C   UNL A   1      47.049  25.665  26.073  1.00  0.00     0.029 A 
ATOM     24  C   UNL A   1      47.230  26.966  26.714  1.00  0.00     0.049 A 
ATOM     25  H   UNL A   1      45.827  28.031  27.829  1.00  0.00     0.167 HD
ATOM     26  C   UNL A   1      42.868  29.798  30.674  1.00  0.00     0.034 A 
ATOM     27  C   UNL A   1      48.354  27.712  26.695  1.00  0.00     0.034 A 
ATOM     28  C   UNL A   1      44.008  30.678  30.692  1.00  0.00     0.049 A 
ATOM     29  C   UNL A   1      48.361  29.006  27.476  1.00  0.00     0.074 A 
ATOM     30  C   UNL A   1      44.169  31.878  31.360  1.00  0.00     0.029 A 
ATOM     31  N   UNL A   1      45.183  30.454  29.983  1.00  0.00    -0.354 N 
ATOM     32  N   UNL A   1      47.426  29.510  28.252  1.00  0.00    -0.248 NA
ATOM     33  C   UNL A   1      49.573  29.827  27.385  1.00  0.00     0.031 C 
ATOM     34  C   UNL A   1      45.414  32.409  31.002  1.00  0.00     0.029 A 
ATOM     35  C   UNL A   1      46.062  31.507  30.172  1.00  0.00     0.049 A 
ATOM     36  H   UNL A   1      45.364  29.661  29.427  1.00  0.00     0.167 HD
ATOM     37  C   UNL A   1      47.953  30.692  28.766  1.00  0.00     0.074 A 
ATOM     38  C   UNL A   1      49.292  30.814  28.223  1.00  0.00     0.031 C 
ATOM     39  C   UNL A   1      47.391  31.597  29.610  1.00  0.00     0.034 A 
BRANCH  26  40
ATOM     40  C   UNL A   1      41.634  30.132  31.475  1.00  0.00     0.023 A 
ATOM     41  C   UNL A   1      40.753  31.158  31.085  1.00  0.00     0.031 A 
ATOM     42  C   UNL A   1      41.403  29.499  32.708  1.00  0.00     0.131 A 
ATOM     43  C   UNL A   1      39.741  31.582  31.962  1.00  0.00     0.055 A 
ATOM     44  C   UNL A   1      40.345  29.870  33.539  1.00  0.00     0.041 A 
ATOM     45  F   UNL A   1      42.230  28.538  33.147  1.00  0.00    -0.206 F 
ATOM     46  C   UNL A   1      39.519  30.930  33.177  1.00  0.00     0.022 A 
BRANCH  43  47
ATOM     47  S   UNL A   1      38.837  33.108  31.574  1.00  0.00     0.124 S 
ATOM     48  O   UNL A   1      39.757  34.130  32.071  1.00  0.00    -0.237 OA
ATOM     49  O   UNL A   1      38.689  33.031  30.129  1.00  0.00    -0.237 OA
ATOM     50  O   UNL A   1      37.597  32.975  32.340  1.00  0.00    -0.744 OA
ENDBRANCH  43  47
ENDBRANCH  26  40
BRANCH  27  51
ATOM     51  C   UNL A   1      49.543  27.288  25.897  1.00  0.00     0.023 A 
ATOM     52  C   UNL A   1      49.696  27.652  24.549  1.00  0.00     0.031 A 
ATOM     53  C   UNL A   1      50.521  26.448  26.463  1.00  0.00     0.131 A 
ATOM     54  C   UNL A   1      50.775  27.146  23.803  1.00  0.00     0.055 A 
ATOM     55  C   UNL A   1      51.618  25.988  25.732  1.00  0.00     0.041 A 
ATOM     56  F   UNL A   1      50.425  26.062  27.745  1.00  0.00    -0.206 F 
ATOM     57  C   UNL A   1      51.743  26.327  24.389  1.00  0.00     0.022 A 
BRANCH  54  58
ATOM     58  S   UNL A   1      50.855  27.504  22.025  1.00  0.00     0.124 S 
ATOM     59  O   UNL A   1      49.752  26.702  21.510  1.00  0.00    -0.237 OA
ATOM     60  O   UNL A   1      50.665  28.950  22.001  1.00  0.00    -0.237 OA
ATOM     61  O   UNL A   1      52.191  27.047  21.646  1.00  0.00    -0.744 OA
ENDBRANCH  54  58
ENDBRANCH  27  51
BRANCH  39  62
ATOM     62  C   UNL A   1      48.247  32.766  30.023  1.00  0.00     0.023 A 
ATOM     63  C   UNL A   1      48.263  33.965  29.291  1.00  0.00     0.031 A 
ATOM     64  C   UNL A   1      49.064  32.672  31.163  1.00  0.00     0.131 A 
ATOM     65  C   UNL A   1      49.125  35.003  29.674  1.00  0.00     0.055 A 
ATOM     66  C   UNL A   1      49.875  33.730  31.574  1.00  0.00     0.041 A 
ATOM     67  F   UNL A   1      49.084  31.549  31.900  1.00  0.00    -0.206 F 
ATOM     68  C   UNL A   1      49.920  34.899  30.819  1.00  0.00     0.022 A 
BRANCH  65  69
ATOM     69  S   UNL A   1      49.266  36.455  28.597  1.00  0.00     0.124 S 
ATOM     70  O   UNL A   1      48.760  37.521  29.457  1.00  0.00    -0.237 OA
ATOM     71  O   UNL A   1      50.697  36.493  28.310  1.00  0.00    -0.237 OA
ATOM     72  O   UNL A   1      48.413  36.120  27.458  1.00  0.00    -0.744 OA
ENDBRANCH  65  69
ENDBRANCH  39  62
ENDBRANCH  13  14
ENDBRANCH   6   8
ENDBRANCH   5   6
ENDBRANCH   4   5
ENDBRANCH   3   4
ENDBRANCH   2   3
ENDBRANCH   1   2
BRANCH   1  73
ATOM     73  C   UNL A   1      35.381  21.474  25.228  1.00  0.00     0.188 C 
BRANCH  73  74
ATOM     74  O   UNL A   1      34.646  21.831  24.061  1.00  0.00    -0.376 OA
BRANCH  74  75
ATOM     75  C   UNL A   1      34.593  23.212  23.714  1.00  0.00     0.202 C 
BRANCH  75  76
ATOM     76  C   UNL A   1      33.260  23.920  23.977  1.00  0.00     0.261 C 
BRANCH  76  77
ATOM     77  O   UNL A   1      33.224  25.237  23.400  1.00  0.00    -0.461 OA
BRANCH  77  78
ATOM     78  C   UNL A   1      32.086  25.971  23.557  1.00  0.00     0.335 C 
ATOM     79  O   UNL A   1      31.173  26.034  22.738  1.00  0.00    -0.249 OA
BRANCH  78  80
ATOM     80  C   UNL A   1      32.121  26.703  24.907  1.00  0.00     0.232 C 
ATOM     81  C   UNL A   1      33.387  27.517  25.117  1.00  0.00     0.087 C 
ATOM     82  O   UNL A   1      30.992  27.549  25.089  1.00  0.00    -0.355 OA
ATOM     83  C   UNL A   1      32.965  28.988  25.154  1.00  0.00     0.123 C 
ATOM     84  C   UNL A   1      31.402  28.928  25.115  1.00  0.00     0.186 C 
BRANCH  83  85
ATOM     85  C   UNL A   1      33.664  29.678  26.336  1.00  0.00    -0.013 A 
ATOM     86  C   UNL A   1      33.110  30.888  26.820  1.00  0.00     0.008 A 
ATOM     87  C   UNL A   1      34.835  29.216  26.954  1.00  0.00     0.008 A 
ATOM     88  C   UNL A   1      33.689  31.594  27.877  1.00  0.00     0.021 A 
ATOM     89  C   UNL A   1      35.417  29.924  28.017  1.00  0.00     0.021 A 
ATOM     90  C   UNL A   1      34.841  31.104  28.476  1.00  0.00     0.041 A 
ATOM     91  Cl  UNL A   1      35.554  31.958  29.788  1.00  0.00    -0.084 Cl
ENDBRANCH  83  85
BRANCH  83  92
ATOM     92  O   UNL A   1      33.508  29.628  23.987  1.00  0.00    -0.382 OA
ATOM     93  H   UNL A   1      34.162  30.292  24.257  1.00  0.00     0.212 HD
ENDBRANCH  83  92
BRANCH  84  94
ATOM     94  C   UNL A   1      30.645  29.608  23.981  1.00  0.00    -0.016 A 
ATOM     95  C   UNL A   1      30.582  29.067  22.686  1.00  0.00     0.008 A 
ATOM     96  C   UNL A   1      29.876  30.755  24.252  1.00  0.00     0.008 A 
ATOM     97  C   UNL A   1      29.791  29.656  21.694  1.00  0.00     0.021 A 
ATOM     98  C   UNL A   1      29.074  31.337  23.264  1.00  0.00     0.021 A 
ATOM     99  C   UNL A   1      29.034  30.785  21.989  1.00  0.00     0.041 A 
ATOM    100  Cl  UNL A   1      28.028  31.479  20.778  1.00  0.00    -0.084 Cl
ENDBRANCH  84  94
ENDBRANCH  78  80
ENDBRANCH  77  78
ENDBRANCH  76  77
ENDBRANCH  75  76
ENDBRANCH  74  75
ENDBRANCH  73  74
ENDBRANCH   1  73
TORSDOF 23
ENDMDL
MODEL 3
REMARK VINA RESULT:      -9.1      4.149      8.947
REMARK SMILES O=C(OCCOCCOCCOC(=O)[C@H]1C[C@](O)(c2ccc(Cl)cc2)[C@@H](c2ccc(Cl)cc2)O1)c1ccc(-c2c3nc(c(-c4cc(S(=O)(=O)[O-])ccc4F)c4ccc([nH]4)c(-c4cc(S(=O)(=O)[O-])ccc4F)c4nc(c(-c5cc(S(=O)(=O)[O-])ccc5F)c5ccc2[nH]5)C=C4)C=C3)cc1
REMARK SMILES IDX 7 1 6 2 5 3 4 4 3 5 2 6 1 7 35 8 36 9 97 10 37 11 96 12
REMARK SMILES IDX 38 13 39 14 40 15 90 16 41 17 95 18 89 19 91 20 42 21 94 22
REMARK SMILES IDX 88 23 87 24 43 26 75 27 55 28 74 29 56 30 59 31 73 32 92 33
REMARK SMILES IDX 57 34 58 35 72 37 93 38 60 39 44 40 45 41 53 42 46 43 52 44
REMARK SMILES IDX 54 45 51 46 47 47 48 48 49 49 50 50 76 51 77 52 85 53 78 54
REMARK SMILES IDX 84 55 86 56 83 57 79 58 80 59 81 60 82 61 61 62 62 63 70 64
REMARK SMILES IDX 63 65 69 66 71 67 68 68 64 69 65 70 66 71 67 72 8 73 9 74
REMARK SMILES IDX 10 75 11 76 12 77 13 78 14 79 15 80 16 81 34 82 17 83 26 84
REMARK SMILES IDX 19 85 20 86 25 87 21 88 24 89 22 90 23 91 18 92 27 94 28 95
REMARK SMILES IDX 33 96 29 97 32 98 30 99 31 100
REMARK H PARENT 91 25 59 36 18 93
REMARK Flexibility Score: inf
ROOT
ATOM      1  C   UNL A   1      37.770  32.626  35.439  1.00  0.00     0.188 C 
ENDROOT
BRANCH   1   2
ATOM      2  O   UNL A   1      39.190  32.487  35.452  1.00  0.00    -0.376 OA
BRANCH   2   3
ATOM      3  C   UNL A   1      39.728  31.359  36.129  1.00  0.00     0.202 C 
BRANCH   3   4
ATOM      4  C   UNL A   1      39.961  30.125  35.245  1.00  0.00     0.261 C 
BRANCH   4   5
ATOM      5  O   UNL A   1      40.660  29.095  35.966  1.00  0.00    -0.460 OA
BRANCH   5   6
ATOM      6  C   UNL A   1      42.011  29.007  36.075  1.00  0.00     0.338 C 
ATOM      7  O   UNL A   1      42.561  29.506  37.056  1.00  0.00    -0.246 OA
BRANCH   6   8
ATOM      8  C   UNL A   1      42.867  28.536  34.930  1.00  0.00     0.060 A 
ATOM      9  C   UNL A   1      43.711  27.424  34.951  1.00  0.00     0.016 A 
ATOM     10  C   UNL A   1      42.804  29.280  33.735  1.00  0.00     0.016 A 
ATOM     11  C   UNL A   1      44.501  27.086  33.857  1.00  0.00     0.010 A 
ATOM     12  C   UNL A   1      43.600  28.953  32.627  1.00  0.00     0.010 A 
ATOM     13  C   UNL A   1      44.488  27.877  32.710  1.00  0.00    -0.014 A 
BRANCH  13  14
ATOM     14  C   UNL A   1      45.621  27.699  31.778  1.00  0.00     0.031 A 
ATOM     15  C   UNL A   1      45.364  26.886  30.539  1.00  0.00     0.074 A 
ATOM     16  C   UNL A   1      46.751  28.412  31.928  1.00  0.00     0.049 A 
ATOM     17  N   UNL A   1      46.102  26.735  29.473  1.00  0.00    -0.248 NA
ATOM     18  C   UNL A   1      44.075  26.175  30.486  1.00  0.00     0.031 C 
ATOM     19  C   UNL A   1      47.033  29.316  33.043  1.00  0.00     0.029 A 
ATOM     20  N   UNL A   1      47.847  28.527  31.115  1.00  0.00    -0.354 N 
ATOM     21  C   UNL A   1      45.358  25.933  28.614  1.00  0.00     0.074 A 
ATOM     22  C   UNL A   1      44.130  25.598  29.299  1.00  0.00     0.031 C 
ATOM     23  C   UNL A   1      48.220  29.912  32.831  1.00  0.00     0.029 A 
ATOM     24  C   UNL A   1      48.791  29.413  31.581  1.00  0.00     0.049 A 
ATOM     25  H   UNL A   1      47.951  28.022  30.276  1.00  0.00     0.167 HD
ATOM     26  C   UNL A   1      45.668  25.517  27.362  1.00  0.00     0.034 A 
ATOM     27  C   UNL A   1      49.977  29.774  31.049  1.00  0.00     0.034 A 
ATOM     28  C   UNL A   1      46.924  25.817  26.726  1.00  0.00     0.049 A 
ATOM     29  C   UNL A   1      50.362  29.189  29.710  1.00  0.00     0.074 A 
ATOM     30  C   UNL A   1      47.411  25.373  25.511  1.00  0.00     0.029 A 
ATOM     31  N   UNL A   1      47.910  26.629  27.278  1.00  0.00    -0.354 N 
ATOM     32  N   UNL A   1      49.667  28.398  28.921  1.00  0.00    -0.248 NA
ATOM     33  C   UNL A   1      51.684  29.549  29.186  1.00  0.00     0.031 C 
ATOM     34  C   UNL A   1      48.714  25.864  25.359  1.00  0.00     0.029 A 
ATOM     35  C   UNL A   1      49.013  26.676  26.443  1.00  0.00     0.049 A 
ATOM     36  H   UNL A   1      47.832  27.103  28.138  1.00  0.00     0.167 HD
ATOM     37  C   UNL A   1      50.458  28.193  27.793  1.00  0.00     0.074 A 
ATOM     38  C   UNL A   1      51.673  28.957  28.000  1.00  0.00     0.031 C 
ATOM     39  C   UNL A   1      50.211  27.447  26.685  1.00  0.00     0.034 A 
BRANCH  26  40
ATOM     40  C   UNL A   1      44.665  24.617  26.683  1.00  0.00     0.023 A 
ATOM     41  C   UNL A   1      44.921  23.251  26.470  1.00  0.00     0.031 A 
ATOM     42  C   UNL A   1      43.492  25.162  26.133  1.00  0.00     0.131 A 
ATOM     43  C   UNL A   1      44.065  22.498  25.650  1.00  0.00     0.055 A 
ATOM     44  C   UNL A   1      42.602  24.388  25.386  1.00  0.00     0.041 A 
ATOM     45  F   UNL A   1      43.213  26.467  26.274  1.00  0.00    -0.206 F 
ATOM     46  C   UNL A   1      42.896  23.053  25.124  1.00  0.00     0.022 A 
BRANCH  43  47
ATOM     47  S   UNL A   1      44.591  20.839  25.133  1.00  0.00     0.124 S 
ATOM     48  O   UNL A   1      45.944  20.774  25.683  1.00  0.00    -0.237 OA
ATOM     49  O   UNL A   1      43.603  19.980  25.769  1.00  0.00    -0.237 OA
ATOM     50  O   UNL A   1      44.525  20.898  23.673  1.00  0.00    -0.744 OA
ENDBRANCH  43  47
ENDBRANCH  26  40
BRANCH  27  51
ATOM     51  C   UNL A   1      50.896  30.697  31.780  1.00  0.00     0.023 A 
ATOM     52  C   UNL A   1      50.903  32.081  31.535  1.00  0.00     0.031 A 
ATOM     53  C   UNL A   1      51.836  30.191  32.698  1.00  0.00     0.131 A 
ATOM     54  C   UNL A   1      51.854  32.900  32.167  1.00  0.00     0.055 A 
ATOM     55  C   UNL A   1      52.746  31.016  33.361  1.00  0.00     0.041 A 
ATOM     56  F   UNL A   1      51.880  28.876  32.969  1.00  0.00    -0.206 F 
ATOM     57  C   UNL A   1      52.767  32.379  33.086  1.00  0.00     0.022 A 
BRANCH  54  58
ATOM     58  S   UNL A   1      51.942  34.655  31.707  1.00  0.00     0.124 S 
ATOM     59  O   UNL A   1      51.772  34.592  30.260  1.00  0.00    -0.237 OA
ATOM     60  O   UNL A   1      50.828  35.218  32.462  1.00  0.00    -0.237 OA
ATOM     61  O   UNL A   1      53.270  35.060  32.163  1.00  0.00    -0.744 OA
ENDBRANCH  54  58
ENDBRANCH  27  51
BRANCH  39  62
ATOM     62  C   UNL A   1      51.260  27.466  25.604  1.00  0.00     0.023 A 
ATOM     63  C   UNL A   1      51.276  28.456  24.606  1.00  0.00     0.031 A 
ATOM     64  C   UNL A   1      52.254  26.473  25.570  1.00  0.00     0.131 A 
ATOM     65  C   UNL A   1      52.231  28.396  23.581  1.00  0.00     0.055 A 
ATOM     66  C   UNL A   1      53.239  26.453  24.582  1.00  0.00     0.041 A 
ATOM     67  F   UNL A   1      52.286  25.506  26.502  1.00  0.00    -0.206 F 
ATOM     68  C   UNL A   1      53.222  27.411  23.572  1.00  0.00     0.022 A 
BRANCH  65  69
ATOM     69  S   UNL A   1      52.102  29.569  22.205  1.00  0.00     0.124 S 
ATOM     70  O   UNL A   1      51.134  28.910  21.333  1.00  0.00    -0.237 OA
ATOM     71  O   UNL A   1      51.637  30.782  22.872  1.00  0.00    -0.237 OA
ATOM     72  O   UNL A   1      53.465  29.635  21.681  1.00  0.00    -0.744 OA
ENDBRANCH  65  69
ENDBRANCH  39  62
ENDBRANCH  13  14
ENDBRANCH   6   8
ENDBRANCH   5   6
ENDBRANCH   4   5
ENDBRANCH   3   4
ENDBRANCH   2   3
ENDBRANCH   1   2
BRANCH   1  73
ATOM     73  C   UNL A   1      37.133  32.933  34.080  1.00  0.00     0.188 C 
BRANCH  73  74
ATOM     74  O   UNL A   1      35.812  32.461  33.839  1.00  0.00    -0.376 OA
BRANCH  74  75
ATOM     75  C   UNL A   1      34.764  33.426  33.807  1.00  0.00     0.202 C 
BRANCH  75  76
ATOM     76  C   UNL A   1      34.385  33.962  32.423  1.00  0.00     0.261 C 
BRANCH  76  77
ATOM     77  O   UNL A   1      34.406  32.934  31.419  1.00  0.00    -0.461 OA
BRANCH  77  78
ATOM     78  C   UNL A   1      34.394  33.319  30.111  1.00  0.00     0.335 C 
ATOM     79  O   UNL A   1      33.449  33.867  29.549  1.00  0.00    -0.249 OA
BRANCH  78  80
ATOM     80  C   UNL A   1      35.735  32.963  29.452  1.00  0.00     0.232 C 
ATOM     81  C   UNL A   1      36.539  31.940  30.236  1.00  0.00     0.087 C 
ATOM     82  O   UNL A   1      35.572  32.498  28.117  1.00  0.00    -0.355 OA
ATOM     83  C   UNL A   1      36.609  30.677  29.373  1.00  0.00     0.123 C 
ATOM     84  C   UNL A   1      35.948  31.112  28.023  1.00  0.00     0.186 C 
BRANCH  83  85
ATOM     85  C   UNL A   1      38.054  30.154  29.371  1.00  0.00    -0.013 A 
ATOM     86  C   UNL A   1      39.094  31.075  29.643  1.00  0.00     0.008 A 
ATOM     87  C   UNL A   1      38.426  28.832  29.084  1.00  0.00     0.008 A 
ATOM     88  C   UNL A   1      40.438  30.692  29.643  1.00  0.00     0.021 A 
ATOM     89  C   UNL A   1      39.775  28.447  29.085  1.00  0.00     0.021 A 
ATOM     90  C   UNL A   1      40.773  29.375  29.368  1.00  0.00     0.041 A 
ATOM     91  Cl  UNL A   1      42.423  28.890  29.379  1.00  0.00    -0.084 Cl
ENDBRANCH  83  85
BRANCH  83  92
ATOM     92  O   UNL A   1      35.852  29.651  30.036  1.00  0.00    -0.382 OA
ATOM     93  H   UNL A   1      36.400  28.855  30.130  1.00  0.00     0.212 HD
ENDBRANCH  83  92
BRANCH  84  94
ATOM     94  C   UNL A   1      34.712  30.380  27.513  1.00  0.00    -0.016 A 
ATOM     95  C   UNL A   1      33.458  31.003  27.406  1.00  0.00     0.008 A 
ATOM     96  C   UNL A   1      34.841  29.071  27.014  1.00  0.00     0.008 A 
ATOM     97  C   UNL A   1      32.368  30.339  26.833  1.00  0.00     0.021 A 
ATOM     98  C   UNL A   1      33.755  28.411  26.429  1.00  0.00     0.021 A 
ATOM     99  C   UNL A   1      32.523  29.048  26.340  1.00  0.00     0.041 A 
ATOM    100  Cl  UNL A   1      31.191  28.253  25.596  1.00  0.00    -0.084 Cl
ENDBRANCH  84  94
ENDBRANCH  78  80
ENDBRANCH  77  78
ENDBRANCH  76  77
ENDBRANCH  75  76
ENDBRANCH  74  75
ENDBRANCH  73  74
ENDBRANCH   1  73
TORSDOF 23
ENDMDL
