MODEL 1
REMARK VINA RESULT:     -10.9      0.000      0.000
REMARK SMILES Cc1ccc([C@@H](C)Nc2ccc(N)cc2C(=O)OCCOCCOCCOC(=O)c2ccc(-c3c4nc(c(-c5cc(S(=O)(=O)[O-])ccc5F)c5ccc([nH]5)c(-c5cc(S(=O)(=O)[O-])ccc5F)c5nc(c(-c6cc(S(=O)(=O)[O-])ccc6F)c6ccc3[nH]6)C=C5)C=C4)cc2)cc1F
REMARK SMILES IDX 22 1 21 2 20 3 19 4 18 5 16 6 17 7 15 8 9 9 10 10 11 11
REMARK SMILES IDX 14 12 12 13 8 14 6 16 7 17 5 18 1 19 2 20 3 21 94 22 4 23
REMARK SMILES IDX 93 24 95 25 13 26 23 29 24 30 25 31 26 32 27 33 28 34 29 35
REMARK SMILES IDX 30 36 31 37 92 38 32 39 91 40 33 41 34 42 35 43 85 44 36 45
REMARK SMILES IDX 90 46 84 47 86 48 37 49 89 50 83 51 82 52 38 54 70 55 50 56
REMARK SMILES IDX 69 57 51 58 54 59 68 60 87 61 52 62 53 63 67 65 88 66 55 67
REMARK SMILES IDX 39 68 40 69 48 70 41 71 47 72 49 73 46 74 42 75 43 76 44 77
REMARK SMILES IDX 45 78 71 79 72 80 80 81 73 82 79 83 81 84 78 85 74 86 75 87
REMARK SMILES IDX 76 88 77 89 56 90 57 91 65 92 58 93 64 94 66 95 63 96 59 97
REMARK SMILES IDX 60 98 61 99 62 100
REMARK H PARENT 8 15 13 27 13 28 86 53 54 64
REMARK Flexibility Score: inf
ROOT
ATOM      1  C   UNL A   1      33.119  29.796  26.499  1.00  0.00     0.188 C 
ENDROOT
BRANCH   1   2
ATOM      2  O   UNL A   1      32.107  29.540  27.472  1.00  0.00    -0.376 OA
BRANCH   2   3
ATOM      3  C   UNL A   1      31.663  28.190  27.583  1.00  0.00     0.202 C 
BRANCH   3   4
ATOM      4  C   UNL A   1      31.277  27.479  26.278  1.00  0.00     0.261 C 
BRANCH   4   5
ATOM      5  O   UNL A   1      31.700  26.100  26.255  1.00  0.00    -0.460 OA
BRANCH   5   6
ATOM      6  C   UNL A   1      30.728  25.173  26.082  1.00  0.00     0.340 C 
ATOM      7  O   UNL A   1      29.563  25.293  26.443  1.00  0.00    -0.246 OA
BRANCH   6   8
ATOM      8  C   UNL A   1      31.176  24.085  25.178  1.00  0.00     0.085 A 
ATOM      9  C   UNL A   1      31.285  24.126  23.780  1.00  0.00     0.049 A 
ATOM     10  C   UNL A   1      31.879  22.971  23.198  1.00  0.00     0.029 A 
ATOM     11  C   UNL A   1      32.251  21.830  23.917  1.00  0.00     0.027 A 
ATOM     12  C   UNL A   1      31.544  22.908  25.901  1.00  0.00     0.043 A 
ATOM     13  C   UNL A   1      32.014  21.757  25.273  1.00  0.00     0.032 A 
BRANCH   9  14
ATOM     14  N   UNL A   1      30.986  25.105  22.859  1.00  0.00    -0.378 N 
ATOM     15  H   UNL A   1      30.236  24.812  22.292  1.00  0.00     0.161 HD
BRANCH  14  16
ATOM     16  C   UNL A   1      31.421  26.437  22.454  1.00  0.00     0.106 C 
ATOM     17  C   UNL A   1      32.884  26.776  22.687  1.00  0.00     0.036 C 
BRANCH  16  18
ATOM     18  C   UNL A   1      30.411  27.548  22.754  1.00  0.00    -0.023 A 
ATOM     19  C   UNL A   1      27.561  30.784  23.317  1.00  0.00     0.047 C 
ATOM     20  C   UNL A   1      28.537  29.673  23.073  1.00  0.00    -0.015 A 
ATOM     21  C   UNL A   1      29.848  29.939  22.675  1.00  0.00     0.007 A 
ATOM     22  C   UNL A   1      28.178  28.346  23.320  1.00  0.00     0.126 A 
ATOM     23  C   UNL A   1      30.762  28.892  22.506  1.00  0.00     0.006 A 
ATOM     24  C   UNL A   1      29.090  27.297  23.165  1.00  0.00     0.045 A 
ATOM     25  F   UNL A   1      26.935  28.071  23.738  1.00  0.00    -0.207 F 
ENDBRANCH  16  18
ENDBRANCH  14  16
ENDBRANCH   9  14
BRANCH  13  26
ATOM     26  N   UNL A   1      32.405  20.634  25.995  1.00  0.00    -0.399 N 
ATOM     27  H   UNL A   1      32.111  20.520  26.927  1.00  0.00     0.156 HD
ATOM     28  H   UNL A   1      32.977  19.952  25.572  1.00  0.00     0.156 HD
ENDBRANCH  13  26
ENDBRANCH   6   8
ENDBRANCH   5   6
ENDBRANCH   4   5
ENDBRANCH   3   4
ENDBRANCH   2   3
ENDBRANCH   1   2
BRANCH   1  29
ATOM     29  C   UNL A   1      34.605  29.548  26.845  1.00  0.00     0.188 C 
BRANCH  29  30
ATOM     30  O   UNL A   1      34.948  29.918  28.168  1.00  0.00    -0.376 OA
BRANCH  30  31
ATOM     31  C   UNL A   1      35.483  31.207  28.435  1.00  0.00     0.202 C 
BRANCH  31  32
ATOM     32  C   UNL A   1      34.679  32.319  29.098  1.00  0.00     0.261 C 
BRANCH  32  33
ATOM     33  O   UNL A   1      35.462  33.156  29.939  1.00  0.00    -0.460 OA
BRANCH  33  34
ATOM     34  C   UNL A   1      35.185  32.944  31.247  1.00  0.00     0.338 C 
ATOM     35  O   UNL A   1      34.383  32.130  31.687  1.00  0.00    -0.246 OA
BRANCH  34  36
ATOM     36  C   UNL A   1      35.916  33.920  32.114  1.00  0.00     0.060 A 
ATOM     37  C   UNL A   1      36.979  34.504  31.392  1.00  0.00     0.016 A 
ATOM     38  C   UNL A   1      36.179  33.245  33.302  1.00  0.00     0.016 A 
ATOM     39  C   UNL A   1      38.184  33.853  31.400  1.00  0.00     0.010 A 
ATOM     40  C   UNL A   1      37.381  32.588  33.339  1.00  0.00     0.010 A 
ATOM     41  C   UNL A   1      38.305  32.815  32.303  1.00  0.00    -0.014 A 
BRANCH  41  42
ATOM     42  C   UNL A   1      39.453  31.965  32.291  1.00  0.00     0.031 A 
ATOM     43  C   UNL A   1      39.280  30.671  31.640  1.00  0.00     0.074 A 
ATOM     44  C   UNL A   1      40.618  32.469  32.734  1.00  0.00     0.049 A 
ATOM     45  N   UNL A   1      40.030  29.651  31.845  1.00  0.00    -0.248 NA
ATOM     46  C   UNL A   1      38.130  30.401  30.776  1.00  0.00     0.031 C 
ATOM     47  C   UNL A   1      41.945  32.049  32.332  1.00  0.00     0.029 A 
ATOM     48  N   UNL A   1      40.829  33.395  33.762  1.00  0.00    -0.354 N 
ATOM     49  C   UNL A   1      39.708  28.762  30.845  1.00  0.00     0.074 A 
ATOM     50  C   UNL A   1      38.405  29.161  30.374  1.00  0.00     0.031 C 
ATOM     51  C   UNL A   1      42.830  32.532  33.218  1.00  0.00     0.029 A 
ATOM     52  C   UNL A   1      42.074  33.081  34.334  1.00  0.00     0.049 A 
ATOM     53  H   UNL A   1      40.224  34.124  34.032  1.00  0.00     0.167 HD
ATOM     54  C   UNL A   1      40.697  27.977  30.336  1.00  0.00     0.034 A 
ATOM     55  C   UNL A   1      42.242  32.725  35.642  1.00  0.00     0.034 A 
ATOM     56  C   UNL A   1      41.949  28.183  31.078  1.00  0.00     0.049 A 
ATOM     57  C   UNL A   1      42.763  31.302  35.800  1.00  0.00     0.074 A 
ATOM     58  C   UNL A   1      43.090  28.933  30.832  1.00  0.00     0.029 A 
ATOM     59  N   UNL A   1      41.988  27.887  32.433  1.00  0.00    -0.354 N 
ATOM     60  N   UNL A   1      43.026  30.490  34.812  1.00  0.00    -0.248 NA
ATOM     61  C   UNL A   1      42.896  30.645  37.099  1.00  0.00     0.031 C 
ATOM     62  C   UNL A   1      43.819  29.063  32.049  1.00  0.00     0.029 A 
ATOM     63  C   UNL A   1      43.134  28.383  33.038  1.00  0.00     0.049 A 
ATOM     64  H   UNL A   1      41.285  27.386  32.908  1.00  0.00     0.167 HD
ATOM     65  C   UNL A   1      43.214  29.219  35.291  1.00  0.00     0.074 A 
ATOM     66  C   UNL A   1      43.140  29.374  36.733  1.00  0.00     0.031 C 
ATOM     67  C   UNL A   1      43.340  28.133  34.465  1.00  0.00     0.034 A 
BRANCH  54  68
ATOM     68  C   UNL A   1      40.587  27.343  28.961  1.00  0.00     0.023 A 
ATOM     69  C   UNL A   1      41.426  27.661  27.868  1.00  0.00     0.031 A 
ATOM     70  C   UNL A   1      39.661  26.311  28.721  1.00  0.00     0.131 A 
ATOM     71  C   UNL A   1      41.434  26.894  26.688  1.00  0.00     0.055 A 
ATOM     72  C   UNL A   1      39.623  25.588  27.521  1.00  0.00     0.041 A 
ATOM     73  F   UNL A   1      38.770  25.932  29.648  1.00  0.00    -0.206 F 
ATOM     74  C   UNL A   1      40.533  25.854  26.509  1.00  0.00     0.022 A 
BRANCH  71  75
ATOM     75  S   UNL A   1      42.690  27.165  25.399  1.00  0.00     0.124 S 
ATOM     76  O   UNL A   1      42.655  25.905  24.659  1.00  0.00    -0.237 OA
ATOM     77  O   UNL A   1      42.160  28.322  24.684  1.00  0.00    -0.237 OA
ATOM     78  O   UNL A   1      43.920  27.396  26.151  1.00  0.00    -0.744 OA
ENDBRANCH  71  75
ENDBRANCH  54  68
BRANCH  55  79
ATOM     79  C   UNL A   1      41.276  33.364  36.578  1.00  0.00     0.023 A 
ATOM     80  C   UNL A   1      40.096  32.702  36.950  1.00  0.00     0.031 A 
ATOM     81  C   UNL A   1      41.363  34.754  36.803  1.00  0.00     0.131 A 
ATOM     82  C   UNL A   1      38.999  33.450  37.402  1.00  0.00     0.055 A 
ATOM     83  C   UNL A   1      40.274  35.491  37.270  1.00  0.00     0.041 A 
ATOM     84  F   UNL A   1      42.484  35.424  36.486  1.00  0.00    -0.206 F 
ATOM     85  C   UNL A   1      39.075  34.840  37.545  1.00  0.00     0.022 A 
BRANCH  82  86
ATOM     86  S   UNL A   1      37.420  32.634  37.758  1.00  0.00     0.124 S 
ATOM     87  O   UNL A   1      37.233  32.909  39.181  1.00  0.00    -0.237 OA
ATOM     88  O   UNL A   1      36.498  33.327  36.861  1.00  0.00    -0.237 OA
ATOM     89  O   UNL A   1      37.690  31.236  37.436  1.00  0.00    -0.744 OA
ENDBRANCH  82  86
ENDBRANCH  55  79
BRANCH  67  90
ATOM     90  C   UNL A   1      43.590  26.705  34.914  1.00  0.00     0.023 A 
ATOM     91  C   UNL A   1      44.915  26.288  35.198  1.00  0.00     0.031 A 
ATOM     92  C   UNL A   1      42.593  25.760  35.195  1.00  0.00     0.131 A 
ATOM     93  C   UNL A   1      45.214  24.992  35.631  1.00  0.00     0.055 A 
ATOM     94  C   UNL A   1      42.891  24.445  35.585  1.00  0.00     0.041 A 
ATOM     95  F   UNL A   1      41.292  26.087  35.186  1.00  0.00    -0.206 F 
ATOM     96  C   UNL A   1      44.206  24.051  35.790  1.00  0.00     0.022 A 
BRANCH  93  97
ATOM     97  S   UNL A   1      46.914  24.526  36.060  1.00  0.00     0.124 S 
ATOM     98  O   UNL A   1      46.787  23.082  36.242  1.00  0.00    -0.237 OA
ATOM     99  O   UNL A   1      47.651  24.945  34.871  1.00  0.00    -0.237 OA
ATOM    100  O   UNL A   1      47.194  25.288  37.271  1.00  0.00    -0.744 OA
ENDBRANCH  93  97
ENDBRANCH  67  90
ENDBRANCH  41  42
ENDBRANCH  34  36
ENDBRANCH  33  34
ENDBRANCH  32  33
ENDBRANCH  31  32
ENDBRANCH  30  31
ENDBRANCH  29  30
ENDBRANCH   1  29
TORSDOF 24
ENDMDL
MODEL 2
REMARK VINA RESULT:     -10.7      4.300      9.964
REMARK SMILES Cc1ccc([C@@H](C)Nc2ccc(N)cc2C(=O)OCCOCCOCCOC(=O)c2ccc(-c3c4nc(c(-c5cc(S(=O)(=O)[O-])ccc5F)c5ccc([nH]5)c(-c5cc(S(=O)(=O)[O-])ccc5F)c5nc(c(-c6cc(S(=O)(=O)[O-])ccc6F)c6ccc3[nH]6)C=C5)C=C4)cc2)cc1F
REMARK SMILES IDX 22 1 21 2 20 3 19 4 18 5 16 6 17 7 15 8 9 9 10 10 11 11
REMARK SMILES IDX 14 12 12 13 8 14 6 16 7 17 5 18 1 19 2 20 3 21 94 22 4 23
REMARK SMILES IDX 93 24 95 25 13 26 23 29 24 30 25 31 26 32 27 33 28 34 29 35
REMARK SMILES IDX 30 36 31 37 92 38 32 39 91 40 33 41 34 42 35 43 85 44 36 45
REMARK SMILES IDX 90 46 84 47 86 48 37 49 89 50 83 51 82 52 38 54 70 55 50 56
REMARK SMILES IDX 69 57 51 58 54 59 68 60 87 61 52 62 53 63 67 65 88 66 55 67
REMARK SMILES IDX 39 68 40 69 48 70 41 71 47 72 49 73 46 74 42 75 43 76 44 77
REMARK SMILES IDX 45 78 71 79 72 80 80 81 73 82 79 83 81 84 78 85 74 86 75 87
REMARK SMILES IDX 76 88 77 89 56 90 57 91 65 92 58 93 64 94 66 95 63 96 59 97
REMARK SMILES IDX 60 98 61 99 62 100
REMARK H PARENT 8 15 13 27 13 28 86 53 54 64
REMARK Flexibility Score: inf
ROOT
ATOM      1  C   UNL A   1      38.872  20.389  25.162  1.00  0.00     0.188 C 
ENDROOT
BRANCH   1   2
ATOM      2  O   UNL A   1      38.358  21.542  25.827  1.00  0.00    -0.376 OA
BRANCH   2   3
ATOM      3  C   UNL A   1      37.289  22.223  25.175  1.00  0.00     0.202 C 
BRANCH   3   4
ATOM      4  C   UNL A   1      36.540  23.283  25.997  1.00  0.00     0.261 C 
BRANCH   4   5
ATOM      5  O   UNL A   1      35.175  23.456  25.561  1.00  0.00    -0.460 OA
BRANCH   5   6
ATOM      6  C   UNL A   1      34.211  23.143  26.460  1.00  0.00     0.340 C 
ATOM      7  O   UNL A   1      34.409  22.701  27.585  1.00  0.00    -0.246 OA
BRANCH   6   8
ATOM      8  C   UNL A   1      32.882  23.630  26.016  1.00  0.00     0.085 A 
ATOM      9  C   UNL A   1      31.905  22.917  25.302  1.00  0.00     0.049 A 
ATOM     10  C   UNL A   1      30.670  23.604  25.142  1.00  0.00     0.029 A 
ATOM     11  C   UNL A   1      30.438  24.918  25.563  1.00  0.00     0.027 A 
ATOM     12  C   UNL A   1      32.641  24.977  26.429  1.00  0.00     0.043 A 
ATOM     13  C   UNL A   1      31.454  25.648  26.145  1.00  0.00     0.032 A 
BRANCH   9  14
ATOM     14  N   UNL A   1      31.891  21.644  24.780  1.00  0.00    -0.378 N 
ATOM     15  H   UNL A   1      31.229  21.093  25.260  1.00  0.00     0.161 HD
BRANCH  14  16
ATOM     16  C   UNL A   1      32.537  20.847  23.744  1.00  0.00     0.106 C 
ATOM     17  C   UNL A   1      32.043  21.049  22.321  1.00  0.00     0.036 C 
BRANCH  16  18
ATOM     18  C   UNL A   1      32.845  19.404  24.157  1.00  0.00    -0.023 A 
ATOM     19  C   UNL A   1      33.427  15.273  25.383  1.00  0.00     0.047 C 
ATOM     20  C   UNL A   1      33.177  16.689  24.957  1.00  0.00    -0.015 A 
ATOM     21  C   UNL A   1      32.684  17.636  25.855  1.00  0.00     0.007 A 
ATOM     22  C   UNL A   1      33.510  17.111  23.668  1.00  0.00     0.126 A 
ATOM     23  C   UNL A   1      32.510  18.966  25.455  1.00  0.00     0.006 A 
ATOM     24  C   UNL A   1      33.350  18.441  23.266  1.00  0.00     0.045 A 
ATOM     25  F   UNL A   1      34.019  16.225  22.800  1.00  0.00    -0.207 F 
ENDBRANCH  16  18
ENDBRANCH  14  16
ENDBRANCH   9  14
BRANCH  13  26
ATOM     26  N   UNL A   1      31.219  26.946  26.588  1.00  0.00    -0.399 N 
ATOM     27  H   UNL A   1      30.497  27.480  26.188  1.00  0.00     0.156 HD
ATOM     28  H   UNL A   1      31.778  27.330  27.303  1.00  0.00     0.156 HD
ENDBRANCH  13  26
ENDBRANCH   6   8
ENDBRANCH   5   6
ENDBRANCH   4   5
ENDBRANCH   3   4
ENDBRANCH   2   3
ENDBRANCH   1   2
BRANCH   1  29
ATOM     29  C   UNL A   1      40.048  19.600  25.780  1.00  0.00     0.188 C 
BRANCH  29  30
ATOM     30  O   UNL A   1      40.224  19.837  27.165  1.00  0.00    -0.376 OA
BRANCH  30  31
ATOM     31  C   UNL A   1      41.470  20.310  27.657  1.00  0.00     0.202 C 
BRANCH  31  32
ATOM     32  C   UNL A   1      41.956  21.739  27.451  1.00  0.00     0.261 C 
BRANCH  32  33
ATOM     33  O   UNL A   1      41.084  22.716  28.005  1.00  0.00    -0.460 OA
BRANCH  33  34
ATOM     34  C   UNL A   1      41.343  23.950  27.511  1.00  0.00     0.338 C 
ATOM     35  O   UNL A   1      42.423  24.523  27.546  1.00  0.00    -0.246 OA
BRANCH  34  36
ATOM     36  C   UNL A   1      40.094  24.591  26.993  1.00  0.00     0.060 A 
ATOM     37  C   UNL A   1      40.420  25.726  26.219  1.00  0.00     0.016 A 
ATOM     38  C   UNL A   1      39.257  24.727  28.096  1.00  0.00     0.016 A 
ATOM     39  C   UNL A   1      40.560  26.920  26.873  1.00  0.00     0.010 A 
ATOM     40  C   UNL A   1      39.373  25.917  28.766  1.00  0.00     0.010 A 
ATOM     41  C   UNL A   1      40.141  26.943  28.188  1.00  0.00    -0.014 A 
BRANCH  41  42
ATOM     42  C   UNL A   1      40.385  28.084  29.014  1.00  0.00     0.031 A 
ATOM     43  C   UNL A   1      39.514  29.232  28.784  1.00  0.00     0.074 A 
ATOM     44  C   UNL A   1      41.274  27.963  30.013  1.00  0.00     0.049 A 
ATOM     45  N   UNL A   1      39.796  30.434  29.131  1.00  0.00    -0.248 NA
ATOM     46  C   UNL A   1      38.277  29.108  28.012  1.00  0.00     0.031 C 
ATOM     47  C   UNL A   1      41.288  28.719  31.249  1.00  0.00     0.029 A 
ATOM     48  N   UNL A   1      42.449  27.200  30.046  1.00  0.00    -0.354 N 
ATOM     49  C   UNL A   1      38.617  31.131  28.998  1.00  0.00     0.074 A 
ATOM     50  C   UNL A   1      37.799  30.348  28.104  1.00  0.00     0.031 C 
ATOM     51  C   UNL A   1      42.489  28.566  31.828  1.00  0.00     0.029 A 
ATOM     52  C   UNL A   1      43.352  27.892  30.870  1.00  0.00     0.049 A 
ATOM     53  H   UNL A   1      42.609  26.346  29.581  1.00  0.00     0.167 HD
ATOM     54  C   UNL A   1      38.356  32.134  29.881  1.00  0.00     0.034 A 
ATOM     55  C   UNL A   1      44.563  28.361  30.446  1.00  0.00     0.034 A 
ATOM     56  C   UNL A   1      39.504  32.341  30.776  1.00  0.00     0.049 A 
ATOM     57  C   UNL A   1      44.658  29.881  30.506  1.00  0.00     0.074 A 
ATOM     58  C   UNL A   1      39.787  31.936  32.072  1.00  0.00     0.029 A 
ATOM     59  N   UNL A   1      40.724  32.718  30.233  1.00  0.00    -0.354 N 
ATOM     60  N   UNL A   1      43.702  30.671  30.910  1.00  0.00    -0.248 NA
ATOM     61  C   UNL A   1      45.800  30.626  29.979  1.00  0.00     0.031 C 
ATOM     62  C   UNL A   1      41.184  32.094  32.302  1.00  0.00     0.029 A 
ATOM     63  C   UNL A   1      41.756  32.608  31.155  1.00  0.00     0.049 A 
ATOM     64  H   UNL A   1      40.843  33.024  29.305  1.00  0.00     0.167 HD
ATOM     65  C   UNL A   1      44.005  31.970  30.590  1.00  0.00     0.074 A 
ATOM     66  C   UNL A   1      45.339  31.888  30.024  1.00  0.00     0.031 C 
ATOM     67  C   UNL A   1      43.107  32.994  30.745  1.00  0.00     0.034 A 
BRANCH  54  68
ATOM     68  C   UNL A   1      36.943  32.625  30.141  1.00  0.00     0.023 A 
ATOM     69  C   UNL A   1      36.338  32.669  31.418  1.00  0.00     0.031 A 
ATOM     70  C   UNL A   1      36.166  33.153  29.093  1.00  0.00     0.131 A 
ATOM     71  C   UNL A   1      35.118  33.335  31.641  1.00  0.00     0.055 A 
ATOM     72  C   UNL A   1      34.920  33.760  29.303  1.00  0.00     0.041 A 
ATOM     73  F   UNL A   1      36.589  33.138  27.822  1.00  0.00    -0.206 F 
ATOM     74  C   UNL A   1      34.403  33.884  30.585  1.00  0.00     0.022 A 
BRANCH  71  75
ATOM     75  S   UNL A   1      34.483  33.597  33.326  1.00  0.00     0.124 S 
ATOM     76  O   UNL A   1      35.511  32.963  34.150  1.00  0.00    -0.237 OA
ATOM     77  O   UNL A   1      34.423  35.052  33.416  1.00  0.00    -0.237 OA
ATOM     78  O   UNL A   1      33.194  32.910  33.325  1.00  0.00    -0.744 OA
ENDBRANCH  71  75
ENDBRANCH  54  68
BRANCH  55  79
ATOM     79  C   UNL A   1      45.203  27.531  29.388  1.00  0.00     0.023 A 
ATOM     80  C   UNL A   1      44.924  27.760  28.032  1.00  0.00     0.031 A 
ATOM     81  C   UNL A   1      45.796  26.302  29.751  1.00  0.00     0.131 A 
ATOM     82  C   UNL A   1      45.112  26.724  27.105  1.00  0.00     0.055 A 
ATOM     83  C   UNL A   1      45.997  25.282  28.821  1.00  0.00     0.041 A 
ATOM     84  F   UNL A   1      46.103  26.050  31.035  1.00  0.00    -0.206 F 
ATOM     85  C   UNL A   1      45.627  25.483  27.494  1.00  0.00     0.022 A 
BRANCH  82  86
ATOM     86  S   UNL A   1      44.630  26.950  25.372  1.00  0.00     0.124 S 
ATOM     87  O   UNL A   1      43.733  28.102  25.439  1.00  0.00    -0.237 OA
ATOM     88  O   UNL A   1      45.912  27.194  24.718  1.00  0.00    -0.237 OA
ATOM     89  O   UNL A   1      43.977  25.687  25.043  1.00  0.00    -0.744 OA
ENDBRANCH  82  86
ENDBRANCH  55  79
BRANCH  67  90
ATOM     90  C   UNL A   1      43.378  34.458  30.453  1.00  0.00     0.023 A 
ATOM     91  C   UNL A   1      43.477  34.892  29.108  1.00  0.00     0.031 A 
ATOM     92  C   UNL A   1      43.427  35.478  31.415  1.00  0.00     0.131 A 
ATOM     93  C   UNL A   1      43.709  36.229  28.768  1.00  0.00     0.055 A 
ATOM     94  C   UNL A   1      43.707  36.813  31.083  1.00  0.00     0.041 A 
ATOM     95  F   UNL A   1      43.129  35.246  32.702  1.00  0.00    -0.206 F 
ATOM     96  C   UNL A   1      43.863  37.191  29.757  1.00  0.00     0.022 A 
BRANCH  93  97
ATOM     97  S   UNL A   1      43.747  36.752  27.032  1.00  0.00     0.124 S 
ATOM     98  O   UNL A   1      45.184  36.849  26.785  1.00  0.00    -0.237 OA
ATOM     99  O   UNL A   1      43.071  35.642  26.367  1.00  0.00    -0.237 OA
ATOM    100  O   UNL A   1      43.024  38.018  27.028  1.00  0.00    -0.744 OA
ENDBRANCH  93  97
ENDBRANCH  67  90
ENDBRANCH  41  42
ENDBRANCH  34  36
ENDBRANCH  33  34
ENDBRANCH  32  33
ENDBRANCH  31  32
ENDBRANCH  30  31
ENDBRANCH  29  30
ENDBRANCH   1  29
TORSDOF 24
ENDMDL
MODEL 3
REMARK VINA RESULT:     -10.5      3.493      5.510
REMARK SMILES Cc1ccc([C@@H](C)Nc2ccc(N)cc2C(=O)OCCOCCOCCOC(=O)c2ccc(-c3c4nc(c(-c5cc(S(=O)(=O)[O-])ccc5F)c5ccc([nH]5)c(-c5cc(S(=O)(=O)[O-])ccc5F)c5nc(c(-c6cc(S(=O)(=O)[O-])ccc6F)c6ccc3[nH]6)C=C5)C=C4)cc2)cc1F
REMARK SMILES IDX 22 1 21 2 20 3 19 4 18 5 16 6 17 7 15 8 9 9 10 10 11 11
REMARK SMILES IDX 14 12 12 13 8 14 6 16 7 17 5 18 1 19 2 20 3 21 94 22 4 23
REMARK SMILES IDX 93 24 95 25 13 26 23 29 24 30 25 31 26 32 27 33 28 34 29 35
REMARK SMILES IDX 30 36 31 37 92 38 32 39 91 40 33 41 34 42 35 43 85 44 36 45
REMARK SMILES IDX 90 46 84 47 86 48 37 49 89 50 83 51 82 52 38 54 70 55 50 56
REMARK SMILES IDX 69 57 51 58 54 59 68 60 87 61 52 62 53 63 67 65 88 66 55 67
REMARK SMILES IDX 39 68 40 69 48 70 41 71 47 72 49 73 46 74 42 75 43 76 44 77
REMARK SMILES IDX 45 78 71 79 72 80 80 81 73 82 79 83 81 84 78 85 74 86 75 87
REMARK SMILES IDX 76 88 77 89 56 90 57 91 65 92 58 93 64 94 66 95 63 96 59 97
REMARK SMILES IDX 60 98 61 99 62 100
REMARK H PARENT 8 15 13 27 13 28 86 53 54 64
REMARK Flexibility Score: inf
ROOT
ATOM      1  C   UNL A   1      33.773  30.847  27.077  1.00  0.00     0.188 C 
ENDROOT
BRANCH   1   2
ATOM      2  O   UNL A   1      33.250  29.533  26.889  1.00  0.00    -0.376 OA
BRANCH   2   3
ATOM      3  C   UNL A   1      31.952  29.286  27.425  1.00  0.00     0.202 C 
BRANCH   3   4
ATOM      4  C   UNL A   1      31.523  27.818  27.550  1.00  0.00     0.261 C 
BRANCH   4   5
ATOM      5  O   UNL A   1      31.272  27.204  26.268  1.00  0.00    -0.460 OA
BRANCH   5   6
ATOM      6  C   UNL A   1      32.025  26.121  25.961  1.00  0.00     0.340 C 
ATOM      7  O   UNL A   1      32.069  25.082  26.610  1.00  0.00    -0.246 OA
BRANCH   6   8
ATOM      8  C   UNL A   1      32.612  26.239  24.604  1.00  0.00     0.085 A 
ATOM      9  C   UNL A   1      33.272  25.243  23.868  1.00  0.00     0.049 A 
ATOM     10  C   UNL A   1      33.602  25.612  22.534  1.00  0.00     0.029 A 
ATOM     11  C   UNL A   1      33.386  26.883  21.992  1.00  0.00     0.027 A 
ATOM     12  C   UNL A   1      32.410  27.540  24.046  1.00  0.00     0.043 A 
ATOM     13  C   UNL A   1      32.856  27.888  22.773  1.00  0.00     0.032 A 
BRANCH   9  14
ATOM     14  N   UNL A   1      33.607  23.942  24.171  1.00  0.00    -0.378 N 
ATOM     15  H   UNL A   1      33.341  23.348  23.431  1.00  0.00     0.161 HD
BRANCH  14  16
ATOM     16  C   UNL A   1      34.230  23.160  25.233  1.00  0.00     0.106 C 
ATOM     17  C   UNL A   1      35.564  23.665  25.758  1.00  0.00     0.036 C 
BRANCH  16  18
ATOM     18  C   UNL A   1      34.099  21.645  25.061  1.00  0.00    -0.023 A 
ATOM     19  C   UNL A   1      33.606  17.391  24.305  1.00  0.00     0.047 C 
ATOM     20  C   UNL A   1      33.768  18.866  24.517  1.00  0.00    -0.015 A 
ATOM     21  C   UNL A   1      32.660  19.711  24.583  1.00  0.00     0.007 A 
ATOM     22  C   UNL A   1      35.033  19.417  24.734  1.00  0.00     0.126 A 
ATOM     23  C   UNL A   1      32.827  21.077  24.837  1.00  0.00     0.006 A 
ATOM     24  C   UNL A   1      35.205  20.779  25.001  1.00  0.00     0.045 A 
ATOM     25  F   UNL A   1      36.108  18.617  24.710  1.00  0.00    -0.207 F 
ENDBRANCH  16  18
ENDBRANCH  14  16
ENDBRANCH   9  14
BRANCH  13  26
ATOM     26  N   UNL A   1      32.617  29.147  22.230  1.00  0.00    -0.399 N 
ATOM     27  H   UNL A   1      33.361  29.777  22.102  1.00  0.00     0.156 HD
ATOM     28  H   UNL A   1      31.702  29.406  21.975  1.00  0.00     0.156 HD
ENDBRANCH  13  26
ENDBRANCH   6   8
ENDBRANCH   5   6
ENDBRANCH   4   5
ENDBRANCH   3   4
ENDBRANCH   2   3
ENDBRANCH   1   2
BRANCH   1  29
ATOM     29  C   UNL A   1      32.829  32.006  27.471  1.00  0.00     0.188 C 
BRANCH  29  30
ATOM     30  O   UNL A   1      33.509  33.161  27.927  1.00  0.00    -0.376 OA
BRANCH  30  31
ATOM     31  C   UNL A   1      34.930  33.192  27.952  1.00  0.00     0.202 C 
BRANCH  31  32
ATOM     32  C   UNL A   1      35.733  33.407  29.229  1.00  0.00     0.261 C 
BRANCH  32  33
ATOM     33  O   UNL A   1      36.091  32.194  29.880  1.00  0.00    -0.460 OA
BRANCH  33  34
ATOM     34  C   UNL A   1      37.153  31.605  29.279  1.00  0.00     0.338 C 
ATOM     35  O   UNL A   1      38.250  32.117  29.099  1.00  0.00    -0.246 OA
BRANCH  34  36
ATOM     36  C   UNL A   1      36.786  30.253  28.751  1.00  0.00     0.060 A 
ATOM     37  C   UNL A   1      36.918  29.286  29.770  1.00  0.00     0.016 A 
ATOM     38  C   UNL A   1      37.498  30.107  27.566  1.00  0.00     0.016 A 
ATOM     39  C   UNL A   1      38.145  28.702  29.935  1.00  0.00     0.010 A 
ATOM     40  C   UNL A   1      38.729  29.520  27.701  1.00  0.00     0.010 A 
ATOM     41  C   UNL A   1      39.070  28.946  28.938  1.00  0.00    -0.014 A 
BRANCH  41  42
ATOM     42  C   UNL A   1      40.427  28.522  29.080  1.00  0.00     0.031 A 
ATOM     43  C   UNL A   1      40.668  27.093  28.906  1.00  0.00     0.074 A 
ATOM     44  C   UNL A   1      41.374  29.466  29.211  1.00  0.00     0.049 A 
ATOM     45  N   UNL A   1      41.700  26.474  29.349  1.00  0.00    -0.248 NA
ATOM     46  C   UNL A   1      39.662  26.219  28.302  1.00  0.00     0.031 C 
ATOM     47  C   UNL A   1      42.767  29.346  28.829  1.00  0.00     0.029 A 
ATOM     48  N   UNL A   1      41.283  30.706  29.856  1.00  0.00    -0.354 N 
ATOM     49  C   UNL A   1      41.674  25.245  28.731  1.00  0.00     0.074 A 
ATOM     50  C   UNL A   1      40.312  25.056  28.296  1.00  0.00     0.031 C 
ATOM     51  C   UNL A   1      43.455  30.339  29.412  1.00  0.00     0.029 A 
ATOM     52  C   UNL A   1      42.563  30.986  30.363  1.00  0.00     0.049 A 
ATOM     53  H   UNL A   1      40.480  31.269  29.937  1.00  0.00     0.167 HD
ATOM     54  C   UNL A   1      42.860  24.662  28.402  1.00  0.00     0.034 A 
ATOM     55  C   UNL A   1      42.833  31.164  31.691  1.00  0.00     0.034 A 
ATOM     56  C   UNL A   1      43.984  25.468  28.900  1.00  0.00     0.049 A 
ATOM     57  C   UNL A   1      43.774  30.101  32.245  1.00  0.00     0.074 A 
ATOM     58  C   UNL A   1      44.832  26.391  28.306  1.00  0.00     0.029 A 
ATOM     59  N   UNL A   1      44.111  25.677  30.266  1.00  0.00    -0.354 N 
ATOM     60  N   UNL A   1      44.278  29.117  31.552  1.00  0.00    -0.248 NA
ATOM     61  C   UNL A   1      44.103  29.995  33.665  1.00  0.00     0.031 C 
ATOM     62  C   UNL A   1      45.482  27.137  29.331  1.00  0.00     0.029 A 
ATOM     63  C   UNL A   1      45.044  26.664  30.554  1.00  0.00     0.049 A 
ATOM     64  H   UNL A   1      43.601  25.184  30.949  1.00  0.00     0.167 HD
ATOM     65  C   UNL A   1      44.855  28.201  32.393  1.00  0.00     0.074 A 
ATOM     66  C   UNL A   1      44.734  28.809  33.707  1.00  0.00     0.031 C 
ATOM     67  C   UNL A   1      45.316  26.987  31.954  1.00  0.00     0.034 A 
BRANCH  54  68
ATOM     68  C   UNL A   1      42.956  23.596  27.326  1.00  0.00     0.023 A 
ATOM     69  C   UNL A   1      42.620  22.236  27.519  1.00  0.00     0.031 A 
ATOM     70  C   UNL A   1      43.324  23.939  26.011  1.00  0.00     0.131 A 
ATOM     71  C   UNL A   1      42.512  21.336  26.443  1.00  0.00     0.055 A 
ATOM     72  C   UNL A   1      43.280  23.027  24.948  1.00  0.00     0.041 A 
ATOM     73  F   UNL A   1      43.712  25.179  25.687  1.00  0.00    -0.206 F 
ATOM     74  C   UNL A   1      42.842  21.726  25.152  1.00  0.00     0.022 A 
BRANCH  71  75
ATOM     75  S   UNL A   1      41.838  19.662  26.680  1.00  0.00     0.124 S 
ATOM     76  O   UNL A   1      40.955  19.840  27.832  1.00  0.00    -0.237 OA
ATOM     77  O   UNL A   1      41.162  19.414  25.410  1.00  0.00    -0.237 OA
ATOM     78  O   UNL A   1      43.019  18.842  26.939  1.00  0.00    -0.744 OA
ENDBRANCH  71  75
ENDBRANCH  54  68
BRANCH  55  79
ATOM     79  C   UNL A   1      41.715  31.768  32.467  1.00  0.00     0.023 A 
ATOM     80  C   UNL A   1      40.735  30.956  33.058  1.00  0.00     0.031 A 
ATOM     81  C   UNL A   1      41.437  33.142  32.306  1.00  0.00     0.131 A 
ATOM     82  C   UNL A   1      39.473  31.498  33.345  1.00  0.00     0.055 A 
ATOM     83  C   UNL A   1      40.186  33.679  32.609  1.00  0.00     0.041 A 
ATOM     84  F   UNL A   1      42.357  33.961  31.766  1.00  0.00    -0.206 F 
ATOM     85  C   UNL A   1      39.188  32.847  33.106  1.00  0.00     0.022 A 
BRANCH  82  86
ATOM     86  S   UNL A   1      38.146  30.438  33.982  1.00  0.00     0.124 S 
ATOM     87  O   UNL A   1      36.941  31.156  33.572  1.00  0.00    -0.237 OA
ATOM     88  O   UNL A   1      38.390  29.177  33.285  1.00  0.00    -0.237 OA
ATOM     89  O   UNL A   1      38.393  30.428  35.420  1.00  0.00    -0.744 OA
ENDBRANCH  82  86
ENDBRANCH  55  79
BRANCH  67  90
ATOM     90  C   UNL A   1      46.000  25.939  32.812  1.00  0.00     0.023 A 
ATOM     91  C   UNL A   1      45.213  25.060  33.597  1.00  0.00     0.031 A 
ATOM     92  C   UNL A   1      47.378  25.673  32.817  1.00  0.00     0.131 A 
ATOM     93  C   UNL A   1      45.779  24.062  34.397  1.00  0.00     0.055 A 
ATOM     94  C   UNL A   1      47.954  24.704  33.653  1.00  0.00     0.041 A 
ATOM     95  F   UNL A   1      48.213  26.276  31.958  1.00  0.00    -0.206 F 
ATOM     96  C   UNL A   1      47.156  23.903  34.459  1.00  0.00     0.022 A 
BRANCH  93  97
ATOM     97  S   UNL A   1      44.728  22.907  35.320  1.00  0.00     0.124 S 
ATOM     98  O   UNL A   1      44.917  23.370  36.693  1.00  0.00    -0.237 OA
ATOM     99  O   UNL A   1      43.412  23.170  34.746  1.00  0.00    -0.237 OA
ATOM    100  O   UNL A   1      45.293  21.597  35.018  1.00  0.00    -0.744 OA
ENDBRANCH  93  97
ENDBRANCH  67  90
ENDBRANCH  41  42
ENDBRANCH  34  36
ENDBRANCH  33  34
ENDBRANCH  32  33
ENDBRANCH  31  32
ENDBRANCH  30  31
ENDBRANCH  29  30
ENDBRANCH   1  29
TORSDOF 24
ENDMDL
