MODEL 1
REMARK VINA RESULT:      -8.7      0.000      0.000
REMARK SMILES O=C(Nc1ccc(Br)cc1)Nc1ccc(CC(=O)OCCOCCOCCOC(=O)c2ccc(-c3c4nc(c(-c5cc(S(=O)(=O)[O-])ccc5F)c5ccc([nH]5)c(-c5cc(S(=O)(=O)[O-])ccc5F)c5nc(c(-c6cc(S(=O)(=O)[O-])ccc6F)c6ccc3[nH]6)C=C5)C=C4)cc2)cc1
REMARK SMILES IDX 23 1 22 2 21 3 20 4 19 5 17 6 18 7 16 8 15 9 12 10 13 11
REMARK SMILES IDX 95 12 14 13 94 14 11 15 1 16 2 17 3 18 4 21 5 22 10 23 6 24
REMARK SMILES IDX 9 25 7 26 8 27 24 28 25 29 26 30 27 31 28 32 29 33 30 34
REMARK SMILES IDX 31 35 32 36 93 37 33 38 92 39 34 40 35 41 36 42 86 43 37 44
REMARK SMILES IDX 91 45 85 46 87 47 38 48 90 49 84 50 83 51 39 53 71 54 51 55
REMARK SMILES IDX 70 56 52 57 55 58 69 59 88 60 53 61 54 62 68 64 89 65 56 66
REMARK SMILES IDX 40 67 41 68 49 69 42 70 48 71 50 72 47 73 43 74 44 75 45 76
REMARK SMILES IDX 46 77 72 78 73 79 81 80 74 81 80 82 82 83 79 84 75 85 76 86
REMARK SMILES IDX 77 87 78 88 57 89 58 90 66 91 59 92 65 93 67 94 64 95 60 96
REMARK SMILES IDX 61 97 62 98 63 99
REMARK H PARENT 3 19 11 20 87 52 55 63
REMARK Flexibility Score: inf
ROOT
ATOM      1  C   UNL A   1      39.014  34.540  33.375  1.00  0.00     0.188 C 
ENDROOT
BRANCH   1   2
ATOM      2  O   UNL A   1      37.623  34.483  33.075  1.00  0.00    -0.376 OA
BRANCH   2   3
ATOM      3  C   UNL A   1      37.167  33.514  32.147  1.00  0.00     0.202 C 
BRANCH   3   4
ATOM      4  C   UNL A   1      35.945  32.685  32.564  1.00  0.00     0.261 C 
BRANCH   4   5
ATOM      5  O   UNL A   1      35.198  32.090  31.474  1.00  0.00    -0.463 OA
BRANCH   5   6
ATOM      6  C   UNL A   1      34.684  32.951  30.561  1.00  0.00     0.310 C 
ATOM      7  O   UNL A   1      33.857  33.816  30.847  1.00  0.00    -0.252 OA
BRANCH   6   8
ATOM      8  C   UNL A   1      35.153  32.806  29.124  1.00  0.00     0.158 C 
BRANCH   8   9
ATOM      9  C   UNL A   1      34.901  31.581  28.262  1.00  0.00    -0.037 A 
ATOM     10  C   UNL A   1      34.259  29.141  26.938  1.00  0.00     0.042 A 
ATOM     11  C   UNL A   1      33.359  30.205  26.946  1.00  0.00     0.026 A 
ATOM     12  C   UNL A   1      35.491  29.304  27.576  1.00  0.00     0.026 A 
ATOM     13  C   UNL A   1      33.656  31.388  27.646  1.00  0.00     0.006 A 
ATOM     14  C   UNL A   1      35.819  30.523  28.205  1.00  0.00     0.006 A 
BRANCH  10  15
ATOM     15  N   UNL A   1      33.864  27.945  26.299  1.00  0.00    -0.308 N 
ATOM     16  O   UNL A   1      34.175  28.541  24.083  1.00  0.00    -0.248 OA
ATOM     17  C   UNL A   1      33.809  27.740  24.940  1.00  0.00     0.323 C 
ATOM     18  N   UNL A   1      33.484  26.455  24.563  1.00  0.00    -0.308 N 
ATOM     19  H   UNL A   1      33.959  26.119  23.769  1.00  0.00     0.171 HD
ATOM     20  H   UNL A   1      33.606  27.191  26.878  1.00  0.00     0.171 HD
BRANCH  18  21
ATOM     21  C   UNL A   1      32.577  25.554  25.144  1.00  0.00     0.042 A 
ATOM     22  C   UNL A   1      33.000  24.451  25.891  1.00  0.00     0.027 A 
ATOM     23  C   UNL A   1      31.208  25.836  25.052  1.00  0.00     0.027 A 
ATOM     24  C   UNL A   1      32.065  23.632  26.531  1.00  0.00     0.018 A 
ATOM     25  C   UNL A   1      30.269  24.999  25.665  1.00  0.00     0.018 A 
ATOM     26  C   UNL A   1      30.704  23.902  26.406  1.00  0.00     0.018 A 
ATOM     27  Br  UNL A   1      29.442  22.787  27.265  1.00  0.00    -0.051 Br
ENDBRANCH  18  21
ENDBRANCH  10  15
ENDBRANCH   8   9
ENDBRANCH   6   8
ENDBRANCH   5   6
ENDBRANCH   4   5
ENDBRANCH   3   4
ENDBRANCH   2   3
ENDBRANCH   1   2
BRANCH   1  28
ATOM     28  C   UNL A   1      39.488  34.242  34.806  1.00  0.00     0.188 C 
BRANCH  28  29
ATOM     29  O   UNL A   1      38.418  33.934  35.685  1.00  0.00    -0.376 OA
BRANCH  29  30
ATOM     30  C   UNL A   1      38.518  32.665  36.301  1.00  0.00     0.202 C 
BRANCH  30  31
ATOM     31  C   UNL A   1      37.937  31.581  35.392  1.00  0.00     0.261 C 
BRANCH  31  32
ATOM     32  O   UNL A   1      38.897  30.692  34.790  1.00  0.00    -0.460 OA
BRANCH  32  33
ATOM     33  C   UNL A   1      38.647  30.242  33.540  1.00  0.00     0.338 C 
ATOM     34  O   UNL A   1      37.618  29.711  33.145  1.00  0.00    -0.246 OA
BRANCH  33  35
ATOM     35  C   UNL A   1      39.777  30.651  32.679  1.00  0.00     0.060 A 
ATOM     36  C   UNL A   1      40.967  31.119  33.251  1.00  0.00     0.016 A 
ATOM     37  C   UNL A   1      39.651  30.574  31.292  1.00  0.00     0.016 A 
ATOM     38  C   UNL A   1      42.032  31.525  32.438  1.00  0.00     0.010 A 
ATOM     39  C   UNL A   1      40.705  30.998  30.481  1.00  0.00     0.010 A 
ATOM     40  C   UNL A   1      41.894  31.497  31.045  1.00  0.00    -0.014 A 
BRANCH  40  41
ATOM     41  C   UNL A   1      42.879  32.148  30.142  1.00  0.00     0.031 A 
ATOM     42  C   UNL A   1      44.066  31.339  29.696  1.00  0.00     0.074 A 
ATOM     43  C   UNL A   1      42.773  33.439  29.780  1.00  0.00     0.049 A 
ATOM     44  N   UNL A   1      45.182  31.727  29.138  1.00  0.00    -0.248 NA
ATOM     45  C   UNL A   1      43.977  29.891  29.936  1.00  0.00     0.031 C 
ATOM     46  C   UNL A   1      41.637  34.309  30.069  1.00  0.00     0.029 A 
ATOM     47  N   UNL A   1      43.658  34.249  29.110  1.00  0.00    -0.354 N 
ATOM     48  C   UNL A   1      45.943  30.573  28.981  1.00  0.00     0.074 A 
ATOM     49  C   UNL A   1      45.170  29.481  29.538  1.00  0.00     0.031 C 
ATOM     50  C   UNL A   1      41.903  35.541  29.595  1.00  0.00     0.029 A 
ATOM     51  C   UNL A   1      43.254  35.562  29.035  1.00  0.00     0.049 A 
ATOM     52  H   UNL A   1      44.501  33.921  28.721  1.00  0.00     0.167 HD
ATOM     53  C   UNL A   1      47.174  30.439  28.427  1.00  0.00     0.034 A 
ATOM     54  C   UNL A   1      43.917  36.658  28.610  1.00  0.00     0.034 A 
ATOM     55  C   UNL A   1      47.936  31.544  27.899  1.00  0.00     0.049 A 
ATOM     56  C   UNL A   1      45.345  36.516  28.127  1.00  0.00     0.074 A 
ATOM     57  C   UNL A   1      49.196  31.530  27.330  1.00  0.00     0.029 A 
ATOM     58  N   UNL A   1      47.511  32.867  27.889  1.00  0.00    -0.354 N 
ATOM     59  N   UNL A   1      46.081  35.434  28.025  1.00  0.00    -0.248 NA
ATOM     60  C   UNL A   1      46.033  37.747  27.710  1.00  0.00     0.031 C 
ATOM     61  C   UNL A   1      49.567  32.850  27.052  1.00  0.00     0.029 A 
ATOM     62  C   UNL A   1      48.499  33.680  27.354  1.00  0.00     0.049 A 
ATOM     63  H   UNL A   1      46.637  33.182  28.213  1.00  0.00     0.167 HD
ATOM     64  C   UNL A   1      47.298  35.848  27.483  1.00  0.00     0.074 A 
ATOM     65  C   UNL A   1      47.201  37.278  27.291  1.00  0.00     0.031 C 
ATOM     66  C   UNL A   1      48.389  35.108  27.157  1.00  0.00     0.034 A 
BRANCH  53  67
ATOM     67  C   UNL A   1      47.784  29.057  28.432  1.00  0.00     0.023 A 
ATOM     68  C   UNL A   1      47.506  28.122  27.419  1.00  0.00     0.031 A 
ATOM     69  C   UNL A   1      48.602  28.643  29.498  1.00  0.00     0.131 A 
ATOM     70  C   UNL A   1      47.952  26.799  27.545  1.00  0.00     0.055 A 
ATOM     71  C   UNL A   1      49.130  27.351  29.566  1.00  0.00     0.041 A 
ATOM     72  F   UNL A   1      48.884  29.479  30.511  1.00  0.00    -0.206 F 
ATOM     73  C   UNL A   1      48.787  26.413  28.597  1.00  0.00     0.022 A 
BRANCH  70  74
ATOM     74  S   UNL A   1      47.265  25.548  26.425  1.00  0.00     0.124 S 
ATOM     75  O   UNL A   1      47.859  24.321  26.952  1.00  0.00    -0.237 OA
ATOM     76  O   UNL A   1      45.829  25.700  26.625  1.00  0.00    -0.237 OA
ATOM     77  O   UNL A   1      47.760  25.955  25.111  1.00  0.00    -0.744 OA
ENDBRANCH  70  74
ENDBRANCH  53  67
BRANCH  54  78
ATOM     78  C   UNL A   1      43.270  38.002  28.657  1.00  0.00     0.023 A 
ATOM     79  C   UNL A   1      43.550  38.897  29.703  1.00  0.00     0.031 A 
ATOM     80  C   UNL A   1      42.324  38.394  27.693  1.00  0.00     0.131 A 
ATOM     81  C   UNL A   1      42.862  40.118  29.785  1.00  0.00     0.055 A 
ATOM     82  C   UNL A   1      41.687  39.635  27.745  1.00  0.00     0.041 A 
ATOM     83  F   UNL A   1      42.008  37.574  26.679  1.00  0.00    -0.206 F 
ATOM     84  C   UNL A   1      41.946  40.501  28.803  1.00  0.00     0.022 A 
BRANCH  81  85
ATOM     85  S   UNL A   1      43.115  41.159  31.248  1.00  0.00     0.124 S 
ATOM     86  O   UNL A   1      44.561  41.081  31.419  1.00  0.00    -0.237 OA
ATOM     87  O   UNL A   1      42.589  42.445  30.801  1.00  0.00    -0.237 OA
ATOM     88  O   UNL A   1      42.327  40.491  32.281  1.00  0.00    -0.744 OA
ENDBRANCH  81  85
ENDBRANCH  54  78
BRANCH  66  89
ATOM     89  C   UNL A   1      49.539  35.810  26.475  1.00  0.00     0.023 A 
ATOM     90  C   UNL A   1      50.557  36.463  27.191  1.00  0.00     0.031 A 
ATOM     91  C   UNL A   1      49.631  35.785  25.070  1.00  0.00     0.131 A 
ATOM     92  C   UNL A   1      51.605  37.091  26.497  1.00  0.00     0.055 A 
ATOM     93  C   UNL A   1      50.705  36.359  24.391  1.00  0.00     0.041 A 
ATOM     94  F   UNL A   1      48.685  35.179  24.335  1.00  0.00    -0.206 F 
ATOM     95  C   UNL A   1      51.697  37.024  25.104  1.00  0.00     0.022 A 
BRANCH  92  96
ATOM     96  S   UNL A   1      52.823  38.057  27.434  1.00  0.00     0.124 S 
ATOM     97  O   UNL A   1      53.207  39.080  26.467  1.00  0.00    -0.237 OA
ATOM     98  O   UNL A   1      52.043  38.521  28.577  1.00  0.00    -0.237 OA
ATOM     99  O   UNL A   1      53.865  37.082  27.751  1.00  0.00    -0.744 OA
ENDBRANCH  92  96
ENDBRANCH  66  89
ENDBRANCH  40  41
ENDBRANCH  33  35
ENDBRANCH  32  33
ENDBRANCH  31  32
ENDBRANCH  30  31
ENDBRANCH  29  30
ENDBRANCH  28  29
ENDBRANCH   1  28
TORSDOF 23
ENDMDL
MODEL 2
REMARK VINA RESULT:      -8.5      5.612     11.155
REMARK SMILES O=C(Nc1ccc(Br)cc1)Nc1ccc(CC(=O)OCCOCCOCCOC(=O)c2ccc(-c3c4nc(c(-c5cc(S(=O)(=O)[O-])ccc5F)c5ccc([nH]5)c(-c5cc(S(=O)(=O)[O-])ccc5F)c5nc(c(-c6cc(S(=O)(=O)[O-])ccc6F)c6ccc3[nH]6)C=C5)C=C4)cc2)cc1
REMARK SMILES IDX 23 1 22 2 21 3 20 4 19 5 17 6 18 7 16 8 15 9 12 10 13 11
REMARK SMILES IDX 95 12 14 13 94 14 11 15 1 16 2 17 3 18 4 21 5 22 10 23 6 24
REMARK SMILES IDX 9 25 7 26 8 27 24 28 25 29 26 30 27 31 28 32 29 33 30 34
REMARK SMILES IDX 31 35 32 36 93 37 33 38 92 39 34 40 35 41 36 42 86 43 37 44
REMARK SMILES IDX 91 45 85 46 87 47 38 48 90 49 84 50 83 51 39 53 71 54 51 55
REMARK SMILES IDX 70 56 52 57 55 58 69 59 88 60 53 61 54 62 68 64 89 65 56 66
REMARK SMILES IDX 40 67 41 68 49 69 42 70 48 71 50 72 47 73 43 74 44 75 45 76
REMARK SMILES IDX 46 77 72 78 73 79 81 80 74 81 80 82 82 83 79 84 75 85 76 86
REMARK SMILES IDX 77 87 78 88 57 89 58 90 66 91 59 92 65 93 67 94 64 95 60 96
REMARK SMILES IDX 61 97 62 98 63 99
REMARK H PARENT 3 19 11 20 87 52 55 63
REMARK Flexibility Score: inf
ROOT
ATOM      1  C   UNL A   1      45.848  22.936  24.321  1.00  0.00     0.188 C 
ENDROOT
BRANCH   1   2
ATOM      2  O   UNL A   1      46.112  23.920  25.316  1.00  0.00    -0.376 OA
BRANCH   2   3
ATOM      3  C   UNL A   1      47.146  24.860  25.085  1.00  0.00     0.202 C 
BRANCH   3   4
ATOM      4  C   UNL A   1      46.710  26.274  24.677  1.00  0.00     0.261 C 
BRANCH   4   5
ATOM      5  O   UNL A   1      46.227  27.110  25.758  1.00  0.00    -0.463 OA
BRANCH   5   6
ATOM      6  C   UNL A   1      46.406  28.445  25.608  1.00  0.00     0.310 C 
ATOM      7  O   UNL A   1      46.734  28.961  24.540  1.00  0.00    -0.252 OA
BRANCH   6   8
ATOM      8  C   UNL A   1      46.205  29.319  26.833  1.00  0.00     0.158 C 
BRANCH   8   9
ATOM      9  C   UNL A   1      45.456  30.640  26.827  1.00  0.00    -0.037 A 
ATOM     10  C   UNL A   1      44.286  33.227  27.076  1.00  0.00     0.042 A 
ATOM     11  C   UNL A   1      45.356  33.009  26.209  1.00  0.00     0.026 A 
ATOM     12  C   UNL A   1      43.788  32.145  27.805  1.00  0.00     0.026 A 
ATOM     13  C   UNL A   1      45.965  31.745  26.129  1.00  0.00     0.006 A 
ATOM     14  C   UNL A   1      44.348  30.859  27.658  1.00  0.00     0.006 A 
BRANCH  10  15
ATOM     15  N   UNL A   1      43.779  34.541  27.183  1.00  0.00    -0.308 N 
ATOM     16  O   UNL A   1      42.812  34.779  25.092  1.00  0.00    -0.248 OA
ATOM     17  C   UNL A   1      43.124  35.233  26.190  1.00  0.00     0.323 C 
ATOM     18  N   UNL A   1      42.639  36.465  26.570  1.00  0.00    -0.308 N 
ATOM     19  H   UNL A   1      41.767  36.708  26.185  1.00  0.00     0.171 HD
ATOM     20  H   UNL A   1      43.903  35.001  28.044  1.00  0.00     0.171 HD
BRANCH  18  21
ATOM     21  C   UNL A   1      43.205  37.425  27.426  1.00  0.00     0.042 A 
ATOM     22  C   UNL A   1      42.998  37.401  28.808  1.00  0.00     0.027 A 
ATOM     23  C   UNL A   1      44.083  38.368  26.880  1.00  0.00     0.027 A 
ATOM     24  C   UNL A   1      43.655  38.318  29.635  1.00  0.00     0.018 A 
ATOM     25  C   UNL A   1      44.715  39.308  27.702  1.00  0.00     0.018 A 
ATOM     26  C   UNL A   1      44.501  39.274  29.078  1.00  0.00     0.018 A 
ATOM     27  Br  UNL A   1      45.380  40.518  30.198  1.00  0.00    -0.051 Br
ENDBRANCH  18  21
ENDBRANCH  10  15
ENDBRANCH   8   9
ENDBRANCH   6   8
ENDBRANCH   5   6
ENDBRANCH   4   5
ENDBRANCH   3   4
ENDBRANCH   2   3
ENDBRANCH   1   2
BRANCH   1  28
ATOM     28  C   UNL A   1      46.064  21.451  24.654  1.00  0.00     0.188 C 
BRANCH  28  29
ATOM     29  O   UNL A   1      45.092  20.945  25.554  1.00  0.00    -0.376 OA
BRANCH  29  30
ATOM     30  C   UNL A   1      44.794  19.574  25.377  1.00  0.00     0.202 C 
BRANCH  30  31
ATOM     31  C   UNL A   1      43.282  19.360  25.303  1.00  0.00     0.261 C 
BRANCH  31  32
ATOM     32  O   UNL A   1      42.557  19.604  26.523  1.00  0.00    -0.460 OA
BRANCH  32  33
ATOM     33  C   UNL A   1      41.521  20.471  26.483  1.00  0.00     0.338 C 
ATOM     34  O   UNL A   1      40.358  20.209  26.208  1.00  0.00    -0.246 OA
BRANCH  33  35
ATOM     35  C   UNL A   1      42.002  21.773  26.991  1.00  0.00     0.060 A 
ATOM     36  C   UNL A   1      42.129  21.989  28.370  1.00  0.00     0.016 A 
ATOM     37  C   UNL A   1      42.323  22.790  26.091  1.00  0.00     0.016 A 
ATOM     38  C   UNL A   1      42.566  23.227  28.856  1.00  0.00     0.010 A 
ATOM     39  C   UNL A   1      42.739  24.030  26.577  1.00  0.00     0.010 A 
ATOM     40  C   UNL A   1      42.843  24.267  27.960  1.00  0.00    -0.014 A 
BRANCH  40  41
ATOM     41  C   UNL A   1      43.060  25.665  28.419  1.00  0.00     0.031 A 
ATOM     42  C   UNL A   1      44.459  26.074  28.790  1.00  0.00     0.074 A 
ATOM     43  C   UNL A   1      42.044  26.533  28.572  1.00  0.00     0.049 A 
ATOM     44  N   UNL A   1      44.878  27.120  29.451  1.00  0.00    -0.248 NA
ATOM     45  C   UNL A   1      45.526  25.155  28.367  1.00  0.00     0.031 C 
ATOM     46  C   UNL A   1      40.660  26.297  28.171  1.00  0.00     0.029 A 
ATOM     47  N   UNL A   1      42.024  27.784  29.140  1.00  0.00    -0.354 N 
ATOM     48  C   UNL A   1      46.258  26.975  29.547  1.00  0.00     0.074 A 
ATOM     49  C   UNL A   1      46.594  25.719  28.906  1.00  0.00     0.031 C 
ATOM     50  C   UNL A   1      39.919  27.364  28.523  1.00  0.00     0.029 A 
ATOM     51  C   UNL A   1      40.763  28.324  29.237  1.00  0.00     0.049 A 
ATOM     52  H   UNL A   1      42.835  28.251  29.447  1.00  0.00     0.167 HD
ATOM     53  C   UNL A   1      47.160  27.810  30.121  1.00  0.00     0.034 A 
ATOM     54  C   UNL A   1      40.333  29.435  29.871  1.00  0.00     0.034 A 
ATOM     55  C   UNL A   1      46.801  29.044  30.775  1.00  0.00     0.049 A 
ATOM     56  C   UNL A   1      41.330  30.284  30.630  1.00  0.00     0.074 A 
ATOM     57  C   UNL A   1      47.626  29.961  31.403  1.00  0.00     0.029 A 
ATOM     58  N   UNL A   1      45.504  29.530  30.896  1.00  0.00    -0.354 N 
ATOM     59  N   UNL A   1      42.627  30.121  30.762  1.00  0.00    -0.248 NA
ATOM     60  C   UNL A   1      40.804  31.464  31.333  1.00  0.00     0.031 C 
ATOM     61  C   UNL A   1      46.823  30.953  31.974  1.00  0.00     0.029 A 
ATOM     62  C   UNL A   1      45.505  30.713  31.617  1.00  0.00     0.049 A 
ATOM     63  H   UNL A   1      44.703  29.097  30.525  1.00  0.00     0.167 HD
ATOM     64  C   UNL A   1      43.075  31.204  31.517  1.00  0.00     0.074 A 
ATOM     65  C   UNL A   1      41.911  32.008  31.821  1.00  0.00     0.031 C 
ATOM     66  C   UNL A   1      44.337  31.514  31.908  1.00  0.00     0.034 A 
BRANCH  53  67
ATOM     67  C   UNL A   1      48.606  27.370  30.116  1.00  0.00     0.023 A 
ATOM     68  C   UNL A   1      49.107  26.469  31.071  1.00  0.00     0.031 A 
ATOM     69  C   UNL A   1      49.511  27.909  29.185  1.00  0.00     0.131 A 
ATOM     70  C   UNL A   1      50.485  26.214  31.139  1.00  0.00     0.055 A 
ATOM     71  C   UNL A   1      50.867  27.572  29.193  1.00  0.00     0.041 A 
ATOM     72  F   UNL A   1      49.101  28.796  28.263  1.00  0.00    -0.206 F 
ATOM     73  C   UNL A   1      51.365  26.737  30.189  1.00  0.00     0.022 A 
BRANCH  70  74
ATOM     74  S   UNL A   1      51.130  25.355  32.601  1.00  0.00     0.124 S 
ATOM     75  O   UNL A   1      51.281  26.457  33.548  1.00  0.00    -0.237 OA
ATOM     76  O   UNL A   1      50.070  24.398  32.898  1.00  0.00    -0.237 OA
ATOM     77  O   UNL A   1      52.385  24.772  32.130  1.00  0.00    -0.744 OA
ENDBRANCH  70  74
ENDBRANCH  53  67
BRANCH  54  78
ATOM     78  C   UNL A   1      38.886  29.802  29.864  1.00  0.00     0.023 A 
ATOM     79  C   UNL A   1      38.455  31.011  29.295  1.00  0.00     0.031 A 
ATOM     80  C   UNL A   1      37.919  28.980  30.472  1.00  0.00     0.131 A 
ATOM     81  C   UNL A   1      37.104  31.385  29.382  1.00  0.00     0.055 A 
ATOM     82  C   UNL A   1      36.567  29.328  30.502  1.00  0.00     0.041 A 
ATOM     83  F   UNL A   1      38.276  27.819  31.043  1.00  0.00    -0.206 F 
ATOM     84  C   UNL A   1      36.155  30.543  29.965  1.00  0.00     0.022 A 
BRANCH  81  85
ATOM     85  S   UNL A   1      36.623  33.035  28.802  1.00  0.00     0.124 S 
ATOM     86  O   UNL A   1      35.823  32.713  27.626  1.00  0.00    -0.237 OA
ATOM     87  O   UNL A   1      35.894  33.560  29.952  1.00  0.00    -0.237 OA
ATOM     88  O   UNL A   1      37.902  33.686  28.528  1.00  0.00    -0.744 OA
ENDBRANCH  81  85
ENDBRANCH  54  78
BRANCH  66  89
ATOM     89  C   UNL A   1      44.550  32.823  32.632  1.00  0.00     0.023 A 
ATOM     90  C   UNL A   1      44.551  32.919  34.034  1.00  0.00     0.031 A 
ATOM     91  C   UNL A   1      44.797  33.994  31.889  1.00  0.00     0.131 A 
ATOM     92  C   UNL A   1      44.763  34.166  34.648  1.00  0.00     0.055 A 
ATOM     93  C   UNL A   1      45.065  35.216  32.506  1.00  0.00     0.041 A 
ATOM     94  F   UNL A   1      44.803  33.962  30.547  1.00  0.00    -0.206 F 
ATOM     95  C   UNL A   1      45.041  35.309  33.893  1.00  0.00     0.022 A 
BRANCH  92  96
ATOM     96  S   UNL A   1      44.607  34.293  36.451  1.00  0.00     0.124 S 
ATOM     97  O   UNL A   1      43.871  35.544  36.605  1.00  0.00    -0.237 OA
ATOM     98  O   UNL A   1      43.876  33.077  36.790  1.00  0.00    -0.237 OA
ATOM     99  O   UNL A   1      45.994  34.330  36.914  1.00  0.00    -0.744 OA
ENDBRANCH  92  96
ENDBRANCH  66  89
ENDBRANCH  40  41
ENDBRANCH  33  35
ENDBRANCH  32  33
ENDBRANCH  31  32
ENDBRANCH  30  31
ENDBRANCH  29  30
ENDBRANCH  28  29
ENDBRANCH   1  28
TORSDOF 23
ENDMDL
MODEL 3
REMARK VINA RESULT:      -8.5      6.977     11.934
REMARK SMILES O=C(Nc1ccc(Br)cc1)Nc1ccc(CC(=O)OCCOCCOCCOC(=O)c2ccc(-c3c4nc(c(-c5cc(S(=O)(=O)[O-])ccc5F)c5ccc([nH]5)c(-c5cc(S(=O)(=O)[O-])ccc5F)c5nc(c(-c6cc(S(=O)(=O)[O-])ccc6F)c6ccc3[nH]6)C=C5)C=C4)cc2)cc1
REMARK SMILES IDX 23 1 22 2 21 3 20 4 19 5 17 6 18 7 16 8 15 9 12 10 13 11
REMARK SMILES IDX 95 12 14 13 94 14 11 15 1 16 2 17 3 18 4 21 5 22 10 23 6 24
REMARK SMILES IDX 9 25 7 26 8 27 24 28 25 29 26 30 27 31 28 32 29 33 30 34
REMARK SMILES IDX 31 35 32 36 93 37 33 38 92 39 34 40 35 41 36 42 86 43 37 44
REMARK SMILES IDX 91 45 85 46 87 47 38 48 90 49 84 50 83 51 39 53 71 54 51 55
REMARK SMILES IDX 70 56 52 57 55 58 69 59 88 60 53 61 54 62 68 64 89 65 56 66
REMARK SMILES IDX 40 67 41 68 49 69 42 70 48 71 50 72 47 73 43 74 44 75 45 76
REMARK SMILES IDX 46 77 72 78 73 79 81 80 74 81 80 82 82 83 79 84 75 85 76 86
REMARK SMILES IDX 77 87 78 88 57 89 58 90 66 91 59 92 65 93 67 94 64 95 60 96
REMARK SMILES IDX 61 97 62 98 63 99
REMARK H PARENT 3 19 11 20 87 52 55 63
REMARK Flexibility Score: inf
ROOT
ATOM      1  C   UNL A   1      46.212  22.282  24.413  1.00  0.00     0.188 C 
ENDROOT
BRANCH   1   2
ATOM      2  O   UNL A   1      46.303  23.676  24.136  1.00  0.00    -0.376 OA
BRANCH   2   3
ATOM      3  C   UNL A   1      46.680  24.554  25.182  1.00  0.00     0.202 C 
BRANCH   3   4
ATOM      4  C   UNL A   1      46.748  26.047  24.834  1.00  0.00     0.261 C 
BRANCH   4   5
ATOM      5  O   UNL A   1      45.706  26.868  25.417  1.00  0.00    -0.463 OA
BRANCH   5   6
ATOM      6  C   UNL A   1      45.969  28.195  25.506  1.00  0.00     0.310 C 
ATOM      7  O   UNL A   1      46.542  28.826  24.618  1.00  0.00    -0.252 OA
BRANCH   6   8
ATOM      8  C   UNL A   1      45.544  28.907  26.778  1.00  0.00     0.158 C 
BRANCH   8   9
ATOM      9  C   UNL A   1      44.128  28.905  27.326  1.00  0.00    -0.037 A 
ATOM     10  C   UNL A   1      41.450  29.249  28.240  1.00  0.00     0.042 A 
ATOM     11  C   UNL A   1      41.710  28.843  26.932  1.00  0.00     0.026 A 
ATOM     12  C   UNL A   1      42.530  29.464  29.099  1.00  0.00     0.026 A 
ATOM     13  C   UNL A   1      43.032  28.727  26.469  1.00  0.00     0.006 A 
ATOM     14  C   UNL A   1      43.854  29.263  28.654  1.00  0.00     0.006 A 
BRANCH  10  15
ATOM     15  N   UNL A   1      40.103  29.440  28.618  1.00  0.00    -0.308 N 
ATOM     16  O   UNL A   1      39.393  27.239  28.736  1.00  0.00    -0.248 OA
ATOM     17  C   UNL A   1      39.169  28.445  28.798  1.00  0.00     0.323 C 
ATOM     18  N   UNL A   1      37.947  28.879  29.262  1.00  0.00    -0.308 N 
ATOM     19  H   UNL A   1      37.508  28.280  29.908  1.00  0.00     0.171 HD
ATOM     20  H   UNL A   1      39.806  30.367  28.767  1.00  0.00     0.171 HD
BRANCH  18  21
ATOM     21  C   UNL A   1      37.235  30.049  28.950  1.00  0.00     0.042 A 
ATOM     22  C   UNL A   1      36.291  30.093  27.920  1.00  0.00     0.027 A 
ATOM     23  C   UNL A   1      37.411  31.172  29.768  1.00  0.00     0.027 A 
ATOM     24  C   UNL A   1      35.537  31.250  27.703  1.00  0.00     0.018 A 
ATOM     25  C   UNL A   1      36.680  32.342  29.531  1.00  0.00     0.018 A 
ATOM     26  C   UNL A   1      35.742  32.373  28.502  1.00  0.00     0.018 A 
ATOM     27  Br  UNL A   1      34.728  33.940  28.200  1.00  0.00    -0.051 Br
ENDBRANCH  18  21
ENDBRANCH  10  15
ENDBRANCH   8   9
ENDBRANCH   6   8
ENDBRANCH   5   6
ENDBRANCH   4   5
ENDBRANCH   3   4
ENDBRANCH   2   3
ENDBRANCH   1   2
BRANCH   1  28
ATOM     28  C   UNL A   1      45.242  21.793  25.501  1.00  0.00     0.188 C 
BRANCH  28  29
ATOM     29  O   UNL A   1      43.962  21.463  24.985  1.00  0.00    -0.376 OA
BRANCH  29  30
ATOM     30  C   UNL A   1      42.961  21.307  25.972  1.00  0.00     0.202 C 
BRANCH  30  31
ATOM     31  C   UNL A   1      41.790  22.252  25.699  1.00  0.00     0.261 C 
BRANCH  31  32
ATOM     32  O   UNL A   1      41.842  23.521  26.378  1.00  0.00    -0.460 OA
BRANCH  32  33
ATOM     33  C   UNL A   1      41.239  23.620  27.584  1.00  0.00     0.338 C 
ATOM     34  O   UNL A   1      40.103  23.265  27.867  1.00  0.00    -0.246 OA
BRANCH  33  35
ATOM     35  C   UNL A   1      42.251  24.083  28.557  1.00  0.00     0.060 A 
ATOM     36  C   UNL A   1      42.485  25.453  28.733  1.00  0.00     0.016 A 
ATOM     37  C   UNL A   1      42.978  23.149  29.296  1.00  0.00     0.016 A 
ATOM     38  C   UNL A   1      43.457  25.896  29.640  1.00  0.00     0.010 A 
ATOM     39  C   UNL A   1      43.959  23.589  30.185  1.00  0.00     0.010 A 
ATOM     40  C   UNL A   1      44.223  24.962  30.348  1.00  0.00    -0.014 A 
BRANCH  40  41
ATOM     41  C   UNL A   1      45.429  25.358  31.123  1.00  0.00     0.031 A 
ATOM     42  C   UNL A   1      46.677  25.695  30.356  1.00  0.00     0.074 A 
ATOM     43  C   UNL A   1      45.448  25.353  32.468  1.00  0.00     0.049 A 
ATOM     44  N   UNL A   1      47.910  25.813  30.774  1.00  0.00    -0.248 NA
ATOM     45  C   UNL A   1      46.501  25.908  28.912  1.00  0.00     0.031 C 
ATOM     46  C   UNL A   1      44.291  25.131  33.331  1.00  0.00     0.029 A 
ATOM     47  N   UNL A   1      46.496  25.514  33.341  1.00  0.00    -0.354 N 
ATOM     48  C   UNL A   1      48.665  26.091  29.638  1.00  0.00     0.074 A 
ATOM     49  C   UNL A   1      47.751  26.085  28.515  1.00  0.00     0.031 C 
ATOM     50  C   UNL A   1      44.697  25.150  34.614  1.00  0.00     0.029 A 
ATOM     51  C   UNL A   1      46.151  25.314  34.658  1.00  0.00     0.049 A 
ATOM     52  H   UNL A   1      47.408  25.750  33.053  1.00  0.00     0.167 HD
ATOM     53  C   UNL A   1      49.998  26.324  29.544  1.00  0.00     0.034 A 
ATOM     54  C   UNL A   1      46.924  25.224  35.761  1.00  0.00     0.034 A 
ATOM     55  C   UNL A   1      50.894  26.301  30.673  1.00  0.00     0.049 A 
ATOM     56  C   UNL A   1      48.426  25.344  35.621  1.00  0.00     0.074 A 
ATOM     57  C   UNL A   1      52.262  26.507  30.695  1.00  0.00     0.029 A 
ATOM     58  N   UNL A   1      50.511  26.044  31.985  1.00  0.00    -0.354 N 
ATOM     59  N   UNL A   1      49.144  25.557  34.542  1.00  0.00    -0.248 NA
ATOM     60  C   UNL A   1      49.223  25.202  36.849  1.00  0.00     0.031 C 
ATOM     61  C   UNL A   1      52.717  26.293  32.000  1.00  0.00     0.029 A 
ATOM     62  C   UNL A   1      51.622  26.053  32.815  1.00  0.00     0.049 A 
ATOM     63  H   UNL A   1      49.588  25.880  32.281  1.00  0.00     0.167 HD
ATOM     64  C   UNL A   1      50.469  25.627  34.971  1.00  0.00     0.074 A 
ATOM     65  C   UNL A   1      50.453  25.422  36.403  1.00  0.00     0.031 C 
ATOM     66  C   UNL A   1      51.594  25.857  34.247  1.00  0.00     0.034 A 
BRANCH  53  67
ATOM     67  C   UNL A   1      50.559  26.555  28.160  1.00  0.00     0.023 A 
ATOM     68  C   UNL A   1      50.915  27.839  27.712  1.00  0.00     0.031 A 
ATOM     69  C   UNL A   1      50.678  25.488  27.252  1.00  0.00     0.131 A 
ATOM     70  C   UNL A   1      51.272  28.039  26.370  1.00  0.00     0.055 A 
ATOM     71  C   UNL A   1      51.132  25.678  25.945  1.00  0.00     0.041 A 
ATOM     72  F   UNL A   1      50.329  24.242  27.609  1.00  0.00    -0.206 F 
ATOM     73  C   UNL A   1      51.410  26.963  25.490  1.00  0.00     0.022 A 
BRANCH  70  74
ATOM     74  S   UNL A   1      51.356  29.741  25.747  1.00  0.00     0.124 S 
ATOM     75  O   UNL A   1      50.142  30.324  26.315  1.00  0.00    -0.237 OA
ATOM     76  O   UNL A   1      52.616  30.219  26.304  1.00  0.00    -0.237 OA
ATOM     77  O   UNL A   1      51.337  29.576  24.295  1.00  0.00    -0.744 OA
ENDBRANCH  70  74
ENDBRANCH  53  67
BRANCH  54  78
ATOM     78  C   UNL A   1      46.312  24.965  37.098  1.00  0.00     0.023 A 
ATOM     79  C   UNL A   1      45.980  26.028  37.954  1.00  0.00     0.031 A 
ATOM     80  C   UNL A   1      46.099  23.655  37.564  1.00  0.00     0.131 A 
ATOM     81  C   UNL A   1      45.495  25.764  39.244  1.00  0.00     0.055 A 
ATOM     82  C   UNL A   1      45.559  23.399  38.826  1.00  0.00     0.041 A 
ATOM     83  F   UNL A   1      46.408  22.600  36.793  1.00  0.00    -0.206 F 
ATOM     84  C   UNL A   1      45.264  24.457  39.679  1.00  0.00     0.022 A 
BRANCH  81  85
ATOM     85  S   UNL A   1      45.257  27.156  40.382  1.00  0.00     0.124 S 
ATOM     86  O   UNL A   1      44.986  28.250  39.457  1.00  0.00    -0.237 OA
ATOM     87  O   UNL A   1      44.130  26.700  41.188  1.00  0.00    -0.237 OA
ATOM     88  O   UNL A   1      46.534  27.238  41.090  1.00  0.00    -0.744 OA
ENDBRANCH  81  85
ENDBRANCH  54  78
BRANCH  66  89
ATOM     89  C   UNL A   1      52.899  25.991  34.996  1.00  0.00     0.023 A 
ATOM     90  C   UNL A   1      53.704  24.885  35.317  1.00  0.00     0.031 A 
ATOM     91  C   UNL A   1      53.361  27.272  35.359  1.00  0.00     0.131 A 
ATOM     92  C   UNL A   1      54.912  25.078  36.008  1.00  0.00     0.055 A 
ATOM     93  C   UNL A   1      54.589  27.461  35.992  1.00  0.00     0.041 A 
ATOM     94  F   UNL A   1      52.631  28.365  35.082  1.00  0.00    -0.206 F 
ATOM     95  C   UNL A   1      55.369  26.360  36.328  1.00  0.00     0.022 A 
BRANCH  92  96
ATOM     96  S   UNL A   1      55.857  23.625  36.546  1.00  0.00     0.124 S 
ATOM     97  O   UNL A   1      54.983  22.528  36.141  1.00  0.00    -0.237 OA
ATOM     98  O   UNL A   1      57.099  23.762  35.792  1.00  0.00    -0.237 OA
ATOM     99  O   UNL A   1      55.986  23.814  37.990  1.00  0.00    -0.744 OA
ENDBRANCH  92  96
ENDBRANCH  66  89
ENDBRANCH  40  41
ENDBRANCH  33  35
ENDBRANCH  32  33
ENDBRANCH  31  32
ENDBRANCH  30  31
ENDBRANCH  29  30
ENDBRANCH  28  29
ENDBRANCH   1  28
TORSDOF 23
ENDMDL
