MODEL 1
REMARK VINA RESULT:     -10.8      0.000      0.000
REMARK SMILES O=C(Cc1ccccc1C(=O)OCCOCCOCCOC(=O)c1ccc(-c2c3nc(c(-c4cc(S(=O)(=O)[O-])ccc4F)c4ccc([nH]4)c(-c4cc(S(=O)(=O)[O-])ccc4F)c4nc(c(-c5cc(S(=O)(=O)[O-])ccc5F)c5ccc2[nH]5)C=C4)C=C3)cc1)Nc1cccc(OC[C@@H]2CCCO2)c1
REMARK SMILES IDX 15 1 14 2 13 3 12 4 10 5 11 6 9 7 4 8 5 9 6 10 8 11 7 12
REMARK SMILES IDX 3 13 2 14 1 15 87 16 88 18 89 19 100 20 90 21 92 22 91 23
REMARK SMILES IDX 93 24 94 25 95 26 96 27 99 28 97 29 98 30 16 31 17 32 18 33
REMARK SMILES IDX 19 34 20 35 21 36 22 37 23 38 24 39 25 40 86 41 26 42 85 43
REMARK SMILES IDX 27 44 28 45 29 46 79 47 30 48 84 49 78 50 80 51 31 52 83 53
REMARK SMILES IDX 77 54 76 55 32 57 64 58 44 59 63 60 45 61 48 62 62 63 81 64
REMARK SMILES IDX 46 65 47 66 61 68 82 69 49 70 33 71 34 72 42 73 35 74 41 75
REMARK SMILES IDX 43 76 40 77 36 78 37 79 38 80 39 81 65 82 66 83 74 84 67 85
REMARK SMILES IDX 73 86 75 87 72 88 68 89 69 90 70 91 71 92 50 93 51 94 59 95
REMARK SMILES IDX 52 96 58 97 60 98 57 99 53 100 54 101 55 102 56 103
REMARK H PARENT 87 17 80 56 48 67
REMARK Flexibility Score: inf
ROOT
ATOM      1  O   UNL A   1      31.516  25.267  26.799  1.00  0.00    -0.376 OA
ENDROOT
BRANCH   1   2
ATOM      2  C   UNL A   1      30.733  24.187  26.301  1.00  0.00     0.202 C 
BRANCH   2   3
ATOM      3  C   UNL A   1      31.056  23.754  24.875  1.00  0.00     0.261 C 
BRANCH   3   4
ATOM      4  O   UNL A   1      30.292  24.514  23.919  1.00  0.00    -0.460 OA
BRANCH   4   5
ATOM      5  C   UNL A   1      31.021  25.167  22.988  1.00  0.00     0.338 C 
ATOM      6  O   UNL A   1      31.681  24.645  22.103  1.00  0.00    -0.246 OA
BRANCH   5   7
ATOM      7  C   UNL A   1      30.841  26.644  23.064  1.00  0.00     0.063 A 
ATOM      8  C   UNL A   1      31.845  27.622  22.899  1.00  0.00    -0.024 A 
ATOM      9  C   UNL A   1      31.436  28.965  22.742  1.00  0.00     0.005 A 
ATOM     10  C   UNL A   1      30.099  29.343  22.854  1.00  0.00     0.000 A 
ATOM     11  C   UNL A   1      29.497  27.045  23.199  1.00  0.00     0.016 A 
ATOM     12  C   UNL A   1      29.130  28.385  23.112  1.00  0.00     0.001 A 
BRANCH   8  13
ATOM     13  C   UNL A   1      33.329  27.343  22.817  1.00  0.00     0.136 C 
BRANCH  13  14
ATOM     14  C   UNL A   1      33.940  26.402  23.862  1.00  0.00     0.228 C 
ATOM     15  O   UNL A   1      33.967  26.782  25.034  1.00  0.00    -0.274 OA
ATOM     16  N   UNL A   1      34.311  25.138  23.432  1.00  0.00    -0.326 N 
ATOM     17  H   UNL A   1      34.264  24.976  22.461  1.00  0.00     0.169 HD
BRANCH  16  18
ATOM     18  C   UNL A   1      34.754  24.048  24.227  1.00  0.00     0.044 A 
ATOM     19  C   UNL A   1      35.399  24.342  25.436  1.00  0.00     0.026 A 
ATOM     20  C   UNL A   1      34.562  22.705  23.881  1.00  0.00     0.072 A 
ATOM     21  C   UNL A   1      35.776  23.317  26.307  1.00  0.00     0.006 A 
ATOM     22  C   UNL A   1      34.874  21.678  24.773  1.00  0.00     0.121 A 
ATOM     23  C   UNL A   1      35.494  21.992  25.982  1.00  0.00     0.046 A 
BRANCH  22  24
ATOM     24  O   UNL A   1      34.602  20.350  24.602  1.00  0.00    -0.491 OA
BRANCH  24  25
ATOM     25  C   UNL A   1      33.502  19.750  25.289  1.00  0.00     0.261 C 
BRANCH  25  26
ATOM     26  C   UNL A   1      33.179  18.282  24.925  1.00  0.00     0.156 C 
ATOM     27  C   UNL A   1      34.398  17.439  24.570  1.00  0.00     0.038 C 
ATOM     28  O   UNL A   1      32.231  18.160  23.858  1.00  0.00    -0.375 OA
ATOM     29  C   UNL A   1      34.033  16.757  23.278  1.00  0.00     0.031 C 
ATOM     30  C   UNL A   1      32.902  17.593  22.730  1.00  0.00     0.161 C 
ENDBRANCH  25  26
ENDBRANCH  24  25
ENDBRANCH  22  24
ENDBRANCH  16  18
ENDBRANCH  13  14
ENDBRANCH   8  13
ENDBRANCH   5   7
ENDBRANCH   4   5
ENDBRANCH   3   4
ENDBRANCH   2   3
ENDBRANCH   1   2
BRANCH   1  31
ATOM     31  C   UNL A   1      31.111  26.603  26.506  1.00  0.00     0.188 C 
BRANCH  31  32
ATOM     32  C   UNL A   1      31.070  27.625  27.653  1.00  0.00     0.188 C 
BRANCH  32  33
ATOM     33  O   UNL A   1      31.778  28.847  27.493  1.00  0.00    -0.376 OA
BRANCH  33  34
ATOM     34  C   UNL A   1      31.716  29.531  26.250  1.00  0.00     0.202 C 
BRANCH  34  35
ATOM     35  C   UNL A   1      32.582  30.782  26.207  1.00  0.00     0.261 C 
BRANCH  35  36
ATOM     36  O   UNL A   1      32.959  31.141  27.537  1.00  0.00    -0.460 OA
BRANCH  36  37
ATOM     37  C   UNL A   1      33.770  32.216  27.649  1.00  0.00     0.338 C 
ATOM     38  O   UNL A   1      33.472  33.395  27.550  1.00  0.00    -0.246 OA
BRANCH  37  39
ATOM     39  C   UNL A   1      35.073  31.724  28.125  1.00  0.00     0.060 A 
ATOM     40  C   UNL A   1      35.204  30.367  28.442  1.00  0.00     0.016 A 
ATOM     41  C   UNL A   1      36.156  32.600  28.239  1.00  0.00     0.016 A 
ATOM     42  C   UNL A   1      36.417  29.888  28.924  1.00  0.00     0.010 A 
ATOM     43  C   UNL A   1      37.368  32.122  28.715  1.00  0.00     0.010 A 
ATOM     44  C   UNL A   1      37.485  30.777  29.099  1.00  0.00    -0.014 A 
BRANCH  44  45
ATOM     45  C   UNL A   1      38.669  30.372  29.878  1.00  0.00     0.031 A 
ATOM     46  C   UNL A   1      39.578  29.339  29.278  1.00  0.00     0.074 A 
ATOM     47  C   UNL A   1      38.895  30.890  31.095  1.00  0.00     0.049 A 
ATOM     48  N   UNL A   1      40.600  28.725  29.808  1.00  0.00    -0.248 NA
ATOM     49  C   UNL A   1      39.274  28.930  27.897  1.00  0.00     0.031 C 
ATOM     50  C   UNL A   1      38.080  31.920  31.739  1.00  0.00     0.029 A 
ATOM     51  N   UNL A   1      39.868  30.604  32.014  1.00  0.00    -0.354 N 
ATOM     52  C   UNL A   1      41.054  27.845  28.830  1.00  0.00     0.074 A 
ATOM     53  C   UNL A   1      40.167  27.975  27.696  1.00  0.00     0.031 C 
ATOM     54  C   UNL A   1      38.583  32.170  32.960  1.00  0.00     0.029 A 
ATOM     55  C   UNL A   1      39.721  31.285  33.198  1.00  0.00     0.049 A 
ATOM     56  H   UNL A   1      40.603  29.971  31.842  1.00  0.00     0.167 HD
ATOM     57  C   UNL A   1      42.122  27.014  28.880  1.00  0.00     0.034 A 
ATOM     58  C   UNL A   1      40.410  31.171  34.349  1.00  0.00     0.034 A 
ATOM     59  C   UNL A   1      42.974  26.899  30.037  1.00  0.00     0.049 A 
ATOM     60  C   UNL A   1      41.548  30.181  34.410  1.00  0.00     0.074 A 
ATOM     61  C   UNL A   1      44.093  26.106  30.208  1.00  0.00     0.029 A 
ATOM     62  N   UNL A   1      42.788  27.590  31.230  1.00  0.00    -0.354 N 
ATOM     63  N   UNL A   1      41.984  29.361  33.478  1.00  0.00    -0.248 NA
ATOM     64  C   UNL A   1      42.292  30.107  35.672  1.00  0.00     0.031 C 
ATOM     65  C   UNL A   1      44.534  26.256  31.528  1.00  0.00     0.029 A 
ATOM     66  C   UNL A   1      43.752  27.216  32.152  1.00  0.00     0.049 A 
ATOM     67  H   UNL A   1      42.075  28.249  31.395  1.00  0.00     0.167 HD
ATOM     68  C   UNL A   1      43.081  28.704  34.032  1.00  0.00     0.074 A 
ATOM     69  C   UNL A   1      43.242  29.232  35.372  1.00  0.00     0.031 C 
ATOM     70  C   UNL A   1      43.887  27.757  33.486  1.00  0.00     0.034 A 
BRANCH  57  71
ATOM     71  C   UNL A   1      42.378  26.139  27.677  1.00  0.00     0.023 A 
ATOM     72  C   UNL A   1      41.852  24.838  27.580  1.00  0.00     0.031 A 
ATOM     73  C   UNL A   1      43.199  26.593  26.631  1.00  0.00     0.131 A 
ATOM     74  C   UNL A   1      42.216  24.012  26.506  1.00  0.00     0.055 A 
ATOM     75  C   UNL A   1      43.484  25.798  25.519  1.00  0.00     0.041 A 
ATOM     76  F   UNL A   1      43.757  27.813  26.679  1.00  0.00    -0.206 F 
ATOM     77  C   UNL A   1      43.006  24.493  25.459  1.00  0.00     0.022 A 
BRANCH  74  78
ATOM     78  S   UNL A   1      41.775  22.254  26.577  1.00  0.00     0.124 S 
ATOM     79  O   UNL A   1      42.503  21.816  27.766  1.00  0.00    -0.237 OA
ATOM     80  O   UNL A   1      40.323  22.298  26.699  1.00  0.00    -0.237 OA
ATOM     81  O   UNL A   1      42.281  21.721  25.314  1.00  0.00    -0.744 OA
ENDBRANCH  74  78
ENDBRANCH  57  71
BRANCH  58  82
ATOM     82  C   UNL A   1      40.036  31.989  35.537  1.00  0.00     0.023 A 
ATOM     83  C   UNL A   1      39.095  31.522  36.467  1.00  0.00     0.031 A 
ATOM     84  C   UNL A   1      40.582  33.270  35.740  1.00  0.00     0.131 A 
ATOM     85  C   UNL A   1      38.691  32.346  37.528  1.00  0.00     0.055 A 
ATOM     86  C   UNL A   1      40.222  34.062  36.831  1.00  0.00     0.041 A 
ATOM     87  F   UNL A   1      41.486  33.767  34.880  1.00  0.00    -0.206 F 
ATOM     88  C   UNL A   1      39.259  33.606  37.726  1.00  0.00     0.022 A 
BRANCH  85  89
ATOM     89  S   UNL A   1      37.338  31.780  38.593  1.00  0.00     0.124 S 
ATOM     90  O   UNL A   1      37.950  31.854  39.915  1.00  0.00    -0.237 OA
ATOM     91  O   UNL A   1      36.299  32.764  38.312  1.00  0.00    -0.237 OA
ATOM     92  O   UNL A   1      37.062  30.430  38.106  1.00  0.00    -0.744 OA
ENDBRANCH  85  89
ENDBRANCH  58  82
BRANCH  70  93
ATOM     93  C   UNL A   1      45.054  27.283  34.319  1.00  0.00     0.023 A 
ATOM     94  C   UNL A   1      44.962  26.158  35.157  1.00  0.00     0.031 A 
ATOM     95  C   UNL A   1      46.278  27.975  34.273  1.00  0.00     0.131 A 
ATOM     96  C   UNL A   1      46.054  25.799  35.962  1.00  0.00     0.055 A 
ATOM     97  C   UNL A   1      47.383  27.568  35.019  1.00  0.00     0.041 A 
ATOM     98  F   UNL A   1      46.420  29.059  33.493  1.00  0.00    -0.206 F 
ATOM     99  C   UNL A   1      47.270  26.482  35.882  1.00  0.00     0.022 A 
BRANCH  96 100
ATOM    100  S   UNL A   1      45.826  24.494  37.202  1.00  0.00     0.124 S 
ATOM    101  O   UNL A   1      45.539  25.268  38.405  1.00  0.00    -0.237 OA
ATOM    102  O   UNL A   1      44.711  23.732  36.652  1.00  0.00    -0.237 OA
ATOM    103  O   UNL A   1      47.111  23.797  37.205  1.00  0.00    -0.744 OA
ENDBRANCH  96 100
ENDBRANCH  70  93
ENDBRANCH  44  45
ENDBRANCH  37  39
ENDBRANCH  36  37
ENDBRANCH  35  36
ENDBRANCH  34  35
ENDBRANCH  33  34
ENDBRANCH  32  33
ENDBRANCH  31  32
ENDBRANCH   1  31
TORSDOF 26
ENDMDL
MODEL 2
REMARK VINA RESULT:     -10.2      5.474     11.432
REMARK SMILES O=C(Cc1ccccc1C(=O)OCCOCCOCCOC(=O)c1ccc(-c2c3nc(c(-c4cc(S(=O)(=O)[O-])ccc4F)c4ccc([nH]4)c(-c4cc(S(=O)(=O)[O-])ccc4F)c4nc(c(-c5cc(S(=O)(=O)[O-])ccc5F)c5ccc2[nH]5)C=C4)C=C3)cc1)Nc1cccc(OC[C@@H]2CCCO2)c1
REMARK SMILES IDX 15 1 14 2 13 3 12 4 10 5 11 6 9 7 4 8 5 9 6 10 8 11 7 12
REMARK SMILES IDX 3 13 2 14 1 15 87 16 88 18 89 19 100 20 90 21 92 22 91 23
REMARK SMILES IDX 93 24 94 25 95 26 96 27 99 28 97 29 98 30 16 31 17 32 18 33
REMARK SMILES IDX 19 34 20 35 21 36 22 37 23 38 24 39 25 40 86 41 26 42 85 43
REMARK SMILES IDX 27 44 28 45 29 46 79 47 30 48 84 49 78 50 80 51 31 52 83 53
REMARK SMILES IDX 77 54 76 55 32 57 64 58 44 59 63 60 45 61 48 62 62 63 81 64
REMARK SMILES IDX 46 65 47 66 61 68 82 69 49 70 33 71 34 72 42 73 35 74 41 75
REMARK SMILES IDX 43 76 40 77 36 78 37 79 38 80 39 81 65 82 66 83 74 84 67 85
REMARK SMILES IDX 73 86 75 87 72 88 68 89 69 90 70 91 71 92 50 93 51 94 59 95
REMARK SMILES IDX 52 96 58 97 60 98 57 99 53 100 54 101 55 102 56 103
REMARK H PARENT 87 17 80 56 48 67
REMARK Flexibility Score: inf
ROOT
ATOM      1  O   UNL A   1      36.220  33.482  36.151  1.00  0.00    -0.376 OA
ENDROOT
BRANCH   1   2
ATOM      2  C   UNL A   1      37.602  33.239  36.393  1.00  0.00     0.202 C 
BRANCH   2   3
ATOM      3  C   UNL A   1      38.042  31.786  36.246  1.00  0.00     0.261 C 
BRANCH   3   4
ATOM      4  O   UNL A   1      38.434  31.501  34.890  1.00  0.00    -0.460 OA
BRANCH   4   5
ATOM      5  C   UNL A   1      39.390  30.556  34.754  1.00  0.00     0.338 C 
ATOM      6  O   UNL A   1      40.307  30.352  35.534  1.00  0.00    -0.246 OA
BRANCH   5   7
ATOM      7  C   UNL A   1      39.144  29.669  33.583  1.00  0.00     0.063 A 
ATOM      8  C   UNL A   1      40.053  28.746  33.023  1.00  0.00    -0.024 A 
ATOM      9  C   UNL A   1      39.551  27.811  32.090  1.00  0.00     0.005 A 
ATOM     10  C   UNL A   1      38.232  27.856  31.644  1.00  0.00     0.000 A 
ATOM     11  C   UNL A   1      37.820  29.717  33.103  1.00  0.00     0.016 A 
ATOM     12  C   UNL A   1      37.371  28.829  32.129  1.00  0.00     0.001 A 
BRANCH   8  13
ATOM     13  C   UNL A   1      41.517  28.634  33.385  1.00  0.00     0.136 C 
BRANCH  13  14
ATOM     14  C   UNL A   1      41.974  27.384  34.145  1.00  0.00     0.228 C 
ATOM     15  O   UNL A   1      41.189  26.880  34.951  1.00  0.00    -0.274 OA
ATOM     16  N   UNL A   1      43.196  26.839  33.785  1.00  0.00    -0.326 N 
ATOM     17  H   UNL A   1      43.736  27.361  33.148  1.00  0.00     0.169 HD
BRANCH  16  18
ATOM     18  C   UNL A   1      43.763  25.614  34.229  1.00  0.00     0.044 A 
ATOM     19  C   UNL A   1      44.190  24.702  33.256  1.00  0.00     0.026 A 
ATOM     20  C   UNL A   1      43.936  25.284  35.578  1.00  0.00     0.072 A 
ATOM     21  C   UNL A   1      44.839  23.521  33.627  1.00  0.00     0.006 A 
ATOM     22  C   UNL A   1      44.641  24.141  35.957  1.00  0.00     0.121 A 
ATOM     23  C   UNL A   1      45.081  23.256  34.972  1.00  0.00     0.046 A 
BRANCH  22  24
ATOM     24  O   UNL A   1      44.993  23.793  37.230  1.00  0.00    -0.491 OA
BRANCH  24  25
ATOM     25  C   UNL A   1      46.006  24.527  37.921  1.00  0.00     0.261 C 
BRANCH  25  26
ATOM     26  C   UNL A   1      45.540  25.767  38.718  1.00  0.00     0.156 C 
ATOM     27  C   UNL A   1      45.755  27.094  38.000  1.00  0.00     0.038 C 
ATOM     28  O   UNL A   1      46.140  25.863  40.014  1.00  0.00    -0.375 OA
ATOM     29  C   UNL A   1      46.431  27.977  39.015  1.00  0.00     0.031 C 
ATOM     30  C   UNL A   1      46.997  27.008  40.023  1.00  0.00     0.161 C 
ENDBRANCH  25  26
ENDBRANCH  24  25
ENDBRANCH  22  24
ENDBRANCH  16  18
ENDBRANCH  13  14
ENDBRANCH   8  13
ENDBRANCH   5   7
ENDBRANCH   4   5
ENDBRANCH   3   4
ENDBRANCH   2   3
ENDBRANCH   1   2
BRANCH   1  31
ATOM     31  C   UNL A   1      35.835  34.102  34.924  1.00  0.00     0.188 C 
BRANCH  31  32
ATOM     32  C   UNL A   1      35.188  33.233  33.836  1.00  0.00     0.188 C 
BRANCH  32  33
ATOM     33  O   UNL A   1      34.152  33.801  33.045  1.00  0.00    -0.376 OA
BRANCH  33  34
ATOM     34  C   UNL A   1      34.131  35.205  32.829  1.00  0.00     0.202 C 
BRANCH  34  35
ATOM     35  C   UNL A   1      33.805  35.588  31.392  1.00  0.00     0.261 C 
BRANCH  35  36
ATOM     36  O   UNL A   1      33.325  34.438  30.695  1.00  0.00    -0.460 OA
BRANCH  36  37
ATOM     37  C   UNL A   1      33.791  34.274  29.438  1.00  0.00     0.338 C 
ATOM     38  O   UNL A   1      33.352  34.753  28.405  1.00  0.00    -0.246 OA
BRANCH  37  39
ATOM     39  C   UNL A   1      35.077  33.566  29.545  1.00  0.00     0.060 A 
ATOM     40  C   UNL A   1      35.112  32.335  30.210  1.00  0.00     0.016 A 
ATOM     41  C   UNL A   1      36.230  34.113  28.975  1.00  0.00     0.016 A 
ATOM     42  C   UNL A   1      36.322  31.664  30.349  1.00  0.00     0.010 A 
ATOM     43  C   UNL A   1      37.437  33.441  29.110  1.00  0.00     0.010 A 
ATOM     44  C   UNL A   1      37.490  32.240  29.835  1.00  0.00    -0.014 A 
BRANCH  44  45
ATOM     45  C   UNL A   1      38.812  31.715  30.223  1.00  0.00     0.031 A 
ATOM     46  C   UNL A   1      39.542  32.416  31.331  1.00  0.00     0.074 A 
ATOM     47  C   UNL A   1      39.347  30.669  29.575  1.00  0.00     0.049 A 
ATOM     48  N   UNL A   1      40.759  32.237  31.767  1.00  0.00    -0.248 NA
ATOM     49  C   UNL A   1      38.801  33.483  32.025  1.00  0.00     0.031 C 
ATOM     50  C   UNL A   1      38.693  29.911  28.508  1.00  0.00     0.029 A 
ATOM     51  N   UNL A   1      40.574  30.077  29.709  1.00  0.00    -0.354 N 
ATOM     52  C   UNL A   1      40.935  33.177  32.777  1.00  0.00     0.074 A 
ATOM     53  C   UNL A   1      39.718  33.952  32.854  1.00  0.00     0.031 C 
ATOM     54  C   UNL A   1      39.536  28.958  28.075  1.00  0.00     0.029 A 
ATOM     55  C   UNL A   1      40.800  29.074  28.798  1.00  0.00     0.049 A 
ATOM     56  H   UNL A   1      41.231  30.345  30.392  1.00  0.00     0.167 HD
ATOM     57  C   UNL A   1      42.017  33.363  33.570  1.00  0.00     0.034 A 
ATOM     58  C   UNL A   1      41.918  28.361  28.560  1.00  0.00     0.034 A 
ATOM     59  C   UNL A   1      43.222  32.580  33.452  1.00  0.00     0.049 A 
ATOM     60  C   UNL A   1      43.140  28.638  29.403  1.00  0.00     0.074 A 
ATOM     61  C   UNL A   1      44.379  32.660  34.202  1.00  0.00     0.029 A 
ATOM     62  N   UNL A   1      43.427  31.581  32.505  1.00  0.00    -0.354 N 
ATOM     63  N   UNL A   1      43.298  29.519  30.369  1.00  0.00    -0.248 NA
ATOM     64  C   UNL A   1      44.328  27.822  29.133  1.00  0.00     0.031 C 
ATOM     65  C   UNL A   1      45.312  31.769  33.658  1.00  0.00     0.029 A 
ATOM     66  C   UNL A   1      44.705  31.061  32.633  1.00  0.00     0.049 A 
ATOM     67  H   UNL A   1      42.761  31.286  31.842  1.00  0.00     0.167 HD
ATOM     68  C   UNL A   1      44.593  29.330  30.846  1.00  0.00     0.074 A 
ATOM     69  C   UNL A   1      45.164  28.248  30.069  1.00  0.00     0.031 C 
ATOM     70  C   UNL A   1      45.252  29.982  31.839  1.00  0.00     0.034 A 
BRANCH  57  71
ATOM     71  C   UNL A   1      41.953  34.482  34.581  1.00  0.00     0.023 A 
ATOM     72  C   UNL A   1      41.540  34.261  35.907  1.00  0.00     0.031 A 
ATOM     73  C   UNL A   1      42.266  35.799  34.203  1.00  0.00     0.131 A 
ATOM     74  C   UNL A   1      41.373  35.346  36.781  1.00  0.00     0.055 A 
ATOM     75  C   UNL A   1      42.186  36.863  35.104  1.00  0.00     0.041 A 
ATOM     76  F   UNL A   1      42.637  36.080  32.945  1.00  0.00    -0.206 F 
ATOM     77  C   UNL A   1      41.721  36.643  36.397  1.00  0.00     0.022 A 
BRANCH  74  78
ATOM     78  S   UNL A   1      40.546  35.061  38.369  1.00  0.00     0.124 S 
ATOM     79  O   UNL A   1      39.246  35.688  38.141  1.00  0.00    -0.237 OA
ATOM     80  O   UNL A   1      40.543  33.606  38.467  1.00  0.00    -0.237 OA
ATOM     81  O   UNL A   1      41.402  35.751  39.332  1.00  0.00    -0.744 OA
ENDBRANCH  74  78
ENDBRANCH  57  71
BRANCH  58  82
ATOM     82  C   UNL A   1      41.947  27.343  27.473  1.00  0.00     0.023 A 
ATOM     83  C   UNL A   1      41.599  26.008  27.726  1.00  0.00     0.031 A 
ATOM     84  C   UNL A   1      42.364  27.680  26.172  1.00  0.00     0.131 A 
ATOM     85  C   UNL A   1      41.720  25.048  26.709  1.00  0.00     0.055 A 
ATOM     86  C   UNL A   1      42.424  26.734  25.148  1.00  0.00     0.041 A 
ATOM     87  F   UNL A   1      42.709  28.943  25.875  1.00  0.00    -0.206 F 
ATOM     88  C   UNL A   1      42.115  25.405  25.417  1.00  0.00     0.022 A 
BRANCH  85  89
ATOM     89  S   UNL A   1      41.444  23.306  27.128  1.00  0.00     0.124 S 
ATOM     90  O   UNL A   1      42.128  22.627  26.034  1.00  0.00    -0.237 OA
ATOM     91  O   UNL A   1      42.075  23.207  28.439  1.00  0.00    -0.237 OA
ATOM     92  O   UNL A   1      39.988  23.183  27.128  1.00  0.00    -0.744 OA
ENDBRANCH  85  89
ENDBRANCH  58  82
BRANCH  70  93
ATOM     93  C   UNL A   1      46.640  29.496  32.180  1.00  0.00     0.023 A 
ATOM     94  C   UNL A   1      46.861  28.474  33.118  1.00  0.00     0.031 A 
ATOM     95  C   UNL A   1      47.760  30.073  31.554  1.00  0.00     0.131 A 
ATOM     96  C   UNL A   1      48.173  28.104  33.450  1.00  0.00     0.055 A 
ATOM     97  C   UNL A   1      49.059  29.649  31.833  1.00  0.00     0.041 A 
ATOM     98  F   UNL A   1      47.608  31.057  30.652  1.00  0.00    -0.206 F 
ATOM     99  C   UNL A   1      49.273  28.669  32.797  1.00  0.00     0.022 A 
BRANCH  96 100
ATOM    100  S   UNL A   1      48.430  26.956  34.830  1.00  0.00     0.124 S 
ATOM    101  O   UNL A   1      47.178  26.208  34.837  1.00  0.00    -0.237 OA
ATOM    102  O   UNL A   1      49.612  26.215  34.403  1.00  0.00    -0.237 OA
ATOM    103  O   UNL A   1      48.633  27.838  35.977  1.00  0.00    -0.744 OA
ENDBRANCH  96 100
ENDBRANCH  70  93
ENDBRANCH  44  45
ENDBRANCH  37  39
ENDBRANCH  36  37
ENDBRANCH  35  36
ENDBRANCH  34  35
ENDBRANCH  33  34
ENDBRANCH  32  33
ENDBRANCH  31  32
ENDBRANCH   1  31
TORSDOF 26
ENDMDL
MODEL 3
REMARK VINA RESULT:      -9.9      5.524     11.470
REMARK SMILES O=C(Cc1ccccc1C(=O)OCCOCCOCCOC(=O)c1ccc(-c2c3nc(c(-c4cc(S(=O)(=O)[O-])ccc4F)c4ccc([nH]4)c(-c4cc(S(=O)(=O)[O-])ccc4F)c4nc(c(-c5cc(S(=O)(=O)[O-])ccc5F)c5ccc2[nH]5)C=C4)C=C3)cc1)Nc1cccc(OC[C@@H]2CCCO2)c1
REMARK SMILES IDX 15 1 14 2 13 3 12 4 10 5 11 6 9 7 4 8 5 9 6 10 8 11 7 12
REMARK SMILES IDX 3 13 2 14 1 15 87 16 88 18 89 19 100 20 90 21 92 22 91 23
REMARK SMILES IDX 93 24 94 25 95 26 96 27 99 28 97 29 98 30 16 31 17 32 18 33
REMARK SMILES IDX 19 34 20 35 21 36 22 37 23 38 24 39 25 40 86 41 26 42 85 43
REMARK SMILES IDX 27 44 28 45 29 46 79 47 30 48 84 49 78 50 80 51 31 52 83 53
REMARK SMILES IDX 77 54 76 55 32 57 64 58 44 59 63 60 45 61 48 62 62 63 81 64
REMARK SMILES IDX 46 65 47 66 61 68 82 69 49 70 33 71 34 72 42 73 35 74 41 75
REMARK SMILES IDX 43 76 40 77 36 78 37 79 38 80 39 81 65 82 66 83 74 84 67 85
REMARK SMILES IDX 73 86 75 87 72 88 68 89 69 90 70 91 71 92 50 93 51 94 59 95
REMARK SMILES IDX 52 96 58 97 60 98 57 99 53 100 54 101 55 102 56 103
REMARK H PARENT 87 17 80 56 48 67
REMARK Flexibility Score: inf
ROOT
ATOM      1  O   UNL A   1      36.874  34.988  34.343  1.00  0.00    -0.376 OA
ENDROOT
BRANCH   1   2
ATOM      2  C   UNL A   1      37.953  34.211  34.849  1.00  0.00     0.202 C 
BRANCH   2   3
ATOM      3  C   UNL A   1      37.560  33.116  35.836  1.00  0.00     0.261 C 
BRANCH   3   4
ATOM      4  O   UNL A   1      37.362  31.860  35.160  1.00  0.00    -0.460 OA
BRANCH   4   5
ATOM      5  C   UNL A   1      38.270  30.902  35.449  1.00  0.00     0.338 C 
ATOM      6  O   UNL A   1      38.688  30.628  36.563  1.00  0.00    -0.246 OA
BRANCH   5   7
ATOM      7  C   UNL A   1      38.638  30.094  34.252  1.00  0.00     0.063 A 
ATOM      8  C   UNL A   1      39.924  29.612  33.928  1.00  0.00    -0.024 A 
ATOM      9  C   UNL A   1      40.026  28.647  32.901  1.00  0.00     0.005 A 
ATOM     10  C   UNL A   1      38.918  28.256  32.150  1.00  0.00     0.000 A 
ATOM     11  C   UNL A   1      37.533  29.707  33.468  1.00  0.00     0.016 A 
ATOM     12  C   UNL A   1      37.675  28.808  32.414  1.00  0.00     0.001 A 
BRANCH   8  13
ATOM     13  C   UNL A   1      41.204  30.001  34.631  1.00  0.00     0.136 C 
BRANCH  13  14
ATOM     14  C   UNL A   1      41.814  28.998  35.617  1.00  0.00     0.228 C 
ATOM     15  O   UNL A   1      41.045  28.354  36.334  1.00  0.00    -0.274 OA
ATOM     16  N   UNL A   1      43.184  28.799  35.548  1.00  0.00    -0.326 N 
ATOM     17  H   UNL A   1      43.682  29.402  34.950  1.00  0.00     0.169 HD
BRANCH  16  18
ATOM     18  C   UNL A   1      43.954  27.826  36.241  1.00  0.00     0.044 A 
ATOM     19  C   UNL A   1      44.730  28.260  37.323  1.00  0.00     0.026 A 
ATOM     20  C   UNL A   1      43.959  26.465  35.915  1.00  0.00     0.072 A 
ATOM     21  C   UNL A   1      45.437  27.340  38.103  1.00  0.00     0.006 A 
ATOM     22  C   UNL A   1      44.607  25.532  36.726  1.00  0.00     0.121 A 
ATOM     23  C   UNL A   1      45.356  25.980  37.815  1.00  0.00     0.046 A 
BRANCH  22  24
ATOM     24  O   UNL A   1      44.562  24.174  36.588  1.00  0.00    -0.491 OA
BRANCH  24  25
ATOM     25  C   UNL A   1      45.508  23.351  37.275  1.00  0.00     0.261 C 
BRANCH  25  26
ATOM     26  C   UNL A   1      45.803  21.968  36.650  1.00  0.00     0.156 C 
ATOM     27  C   UNL A   1      47.272  21.727  36.321  1.00  0.00     0.038 C 
ATOM     28  O   UNL A   1      45.037  21.707  35.469  1.00  0.00    -0.375 OA
ATOM     29  C   UNL A   1      47.271  21.218  34.903  1.00  0.00     0.031 C 
ATOM     30  C   UNL A   1      45.935  21.659  34.358  1.00  0.00     0.161 C 
ENDBRANCH  25  26
ENDBRANCH  24  25
ENDBRANCH  22  24
ENDBRANCH  16  18
ENDBRANCH  13  14
ENDBRANCH   8  13
ENDBRANCH   5   7
ENDBRANCH   4   5
ENDBRANCH   3   4
ENDBRANCH   2   3
ENDBRANCH   1   2
BRANCH   1  31
ATOM     31  C   UNL A   1      36.093  34.464  33.269  1.00  0.00     0.188 C 
BRANCH  31  32
ATOM     32  C   UNL A   1      34.718  33.859  33.591  1.00  0.00     0.188 C 
BRANCH  32  33
ATOM     33  O   UNL A   1      33.668  34.028  32.646  1.00  0.00    -0.376 OA
BRANCH  33  34
ATOM     34  C   UNL A   1      33.455  35.305  32.062  1.00  0.00     0.202 C 
BRANCH  34  35
ATOM     35  C   UNL A   1      33.378  35.267  30.543  1.00  0.00     0.261 C 
BRANCH  35  36
ATOM     36  O   UNL A   1      33.464  33.912  30.100  1.00  0.00    -0.460 OA
BRANCH  36  37
ATOM     37  C   UNL A   1      33.999  33.726  28.873  1.00  0.00     0.338 C 
ATOM     38  O   UNL A   1      33.624  34.195  27.811  1.00  0.00    -0.246 OA
BRANCH  37  39
ATOM     39  C   UNL A   1      35.269  33.007  29.063  1.00  0.00     0.060 A 
ATOM     40  C   UNL A   1      35.327  31.987  30.019  1.00  0.00     0.016 A 
ATOM     41  C   UNL A   1      36.384  33.334  28.286  1.00  0.00     0.016 A 
ATOM     42  C   UNL A   1      36.526  31.316  30.235  1.00  0.00     0.010 A 
ATOM     43  C   UNL A   1      37.579  32.662  28.498  1.00  0.00     0.010 A 
ATOM     44  C   UNL A   1      37.661  31.685  29.503  1.00  0.00    -0.014 A 
BRANCH  44  45
ATOM     45  C   UNL A   1      38.996  31.212  29.912  1.00  0.00     0.031 A 
ATOM     46  C   UNL A   1      39.745  32.031  30.922  1.00  0.00     0.074 A 
ATOM     47  C   UNL A   1      39.526  30.107  29.366  1.00  0.00     0.049 A 
ATOM     48  N   UNL A   1      40.973  31.907  31.346  1.00  0.00    -0.248 NA
ATOM     49  C   UNL A   1      39.010  33.160  31.518  1.00  0.00     0.031 C 
ATOM     50  C   UNL A   1      38.855  29.237  28.401  1.00  0.00     0.029 A 
ATOM     51  N   UNL A   1      40.761  29.541  29.532  1.00  0.00    -0.354 N 
ATOM     52  C   UNL A   1      41.164  32.950  32.248  1.00  0.00     0.074 A 
ATOM     53  C   UNL A   1      39.941  33.720  32.271  1.00  0.00     0.031 C 
ATOM     54  C   UNL A   1      39.697  28.249  28.050  1.00  0.00     0.029 A 
ATOM     55  C   UNL A   1      40.976  28.449  28.727  1.00  0.00     0.049 A 
ATOM     56  H   UNL A   1      41.431  29.884  30.168  1.00  0.00     0.167 HD
ATOM     57  C   UNL A   1      42.262  33.226  32.990  1.00  0.00     0.034 A 
ATOM     58  C   UNL A   1      42.095  27.723  28.539  1.00  0.00     0.034 A 
ATOM     59  C   UNL A   1      43.471  32.443  32.926  1.00  0.00     0.049 A 
ATOM     60  C   UNL A   1      43.333  28.096  29.319  1.00  0.00     0.074 A 
ATOM     61  C   UNL A   1      44.644  32.610  33.636  1.00  0.00     0.029 A 
ATOM     62  N   UNL A   1      43.664  31.351  32.086  1.00  0.00    -0.354 N 
ATOM     63  N   UNL A   1      43.505  29.074  30.182  1.00  0.00    -0.248 NA
ATOM     64  C   UNL A   1      44.522  27.264  29.108  1.00  0.00     0.031 C 
ATOM     65  C   UNL A   1      45.572  31.673  33.168  1.00  0.00     0.029 A 
ATOM     66  C   UNL A   1      44.949  30.857  32.237  1.00  0.00     0.049 A 
ATOM     67  H   UNL A   1      42.986  30.984  31.474  1.00  0.00     0.167 HD
ATOM     68  C   UNL A   1      44.812  28.946  30.646  1.00  0.00     0.074 A 
ATOM     69  C   UNL A   1      45.375  27.792  29.973  1.00  0.00     0.031 C 
ATOM     70  C   UNL A   1      45.487  29.704  31.549  1.00  0.00     0.034 A 
BRANCH  57  71
ATOM     71  C   UNL A   1      42.211  34.445  33.879  1.00  0.00     0.023 A 
ATOM     72  C   UNL A   1      42.770  35.674  33.485  1.00  0.00     0.031 A 
ATOM     73  C   UNL A   1      41.636  34.367  35.159  1.00  0.00     0.131 A 
ATOM     74  C   UNL A   1      42.814  36.747  34.388  1.00  0.00     0.055 A 
ATOM     75  C   UNL A   1      41.602  35.467  36.020  1.00  0.00     0.041 A 
ATOM     76  F   UNL A   1      41.114  33.215  35.606  1.00  0.00    -0.206 F 
ATOM     77  C   UNL A   1      42.208  36.661  35.643  1.00  0.00     0.022 A 
BRANCH  74  78
ATOM     78  S   UNL A   1      43.813  38.199  33.959  1.00  0.00     0.124 S 
ATOM     79  O   UNL A   1      44.514  37.732  32.765  1.00  0.00    -0.237 OA
ATOM     80  O   UNL A   1      42.801  39.226  33.744  1.00  0.00    -0.237 OA
ATOM     81  O   UNL A   1      44.661  38.392  35.134  1.00  0.00    -0.744 OA
ENDBRANCH  74  78
ENDBRANCH  57  71
BRANCH  58  82
ATOM     82  C   UNL A   1      42.108  26.596  27.564  1.00  0.00     0.023 A 
ATOM     83  C   UNL A   1      41.952  25.270  27.994  1.00  0.00     0.031 A 
ATOM     84  C   UNL A   1      42.320  26.823  26.192  1.00  0.00     0.131 A 
ATOM     85  C   UNL A   1      42.058  24.218  27.071  1.00  0.00     0.055 A 
ATOM     86  C   UNL A   1      42.363  25.778  25.269  1.00  0.00     0.041 A 
ATOM     87  F   UNL A   1      42.476  28.074  25.727  1.00  0.00    -0.206 F 
ATOM     88  C   UNL A   1      42.247  24.464  25.709  1.00  0.00     0.022 A 
BRANCH  85  89
ATOM     89  S   UNL A   1      42.041  22.516  27.695  1.00  0.00     0.124 S 
ATOM     90  O   UNL A   1      42.819  22.643  28.922  1.00  0.00    -0.237 OA
ATOM     91  O   UNL A   1      40.614  22.269  27.862  1.00  0.00    -0.237 OA
ATOM     92  O   UNL A   1      42.682  21.755  26.625  1.00  0.00    -0.744 OA
ENDBRANCH  85  89
ENDBRANCH  58  82
BRANCH  70  93
ATOM     93  C   UNL A   1      46.887  29.266  31.906  1.00  0.00     0.023 A 
ATOM     94  C   UNL A   1      48.018  29.774  31.245  1.00  0.00     0.031 A 
ATOM     95  C   UNL A   1      47.088  28.318  32.926  1.00  0.00     0.131 A 
ATOM     96  C   UNL A   1      49.293  29.285  31.568  1.00  0.00     0.055 A 
ATOM     97  C   UNL A   1      48.363  27.891  33.294  1.00  0.00     0.041 A 
ATOM     98  F   UNL A   1      46.043  27.795  33.588  1.00  0.00    -0.206 F 
ATOM     99  C   UNL A   1      49.475  28.363  32.603  1.00  0.00     0.022 A 
BRANCH  96 100
ATOM    100  S   UNL A   1      50.701  29.783  30.539  1.00  0.00     0.124 S 
ATOM    101  O   UNL A   1      51.260  28.493  30.148  1.00  0.00    -0.237 OA
ATOM    102  O   UNL A   1      50.057  30.547  29.477  1.00  0.00    -0.237 OA
ATOM    103  O   UNL A   1      51.531  30.568  31.451  1.00  0.00    -0.744 OA
ENDBRANCH  96 100
ENDBRANCH  70  93
ENDBRANCH  44  45
ENDBRANCH  37  39
ENDBRANCH  36  37
ENDBRANCH  35  36
ENDBRANCH  34  35
ENDBRANCH  33  34
ENDBRANCH  32  33
ENDBRANCH  31  32
ENDBRANCH   1  31
TORSDOF 26
ENDMDL
