MODEL 1
REMARK VINA RESULT:      -9.0      0.000      0.000
REMARK SMILES CC(C)Cc1ccc([C@@H](C)C(=O)OCCOCCOCCOC(=O)c2ccc(-c3c4nc(c(-c5cc(S(=O)(=O)[O-])ccc5F)c5ccc([nH]5)c(-c5cc(S(=O)(=O)[O-])ccc5F)c5nc(c(-c6cc(S(=O)(=O)[O-])ccc6F)c6ccc3[nH]6)C=C5)C=C4)cc2)cc1
REMARK SMILES IDX 17 1 16 2 15 3 14 4 13 5 11 6 12 7 9 8 10 9 8 10 5 11 6 12
REMARK SMILES IDX 89 13 7 14 88 15 4 16 2 17 1 18 3 19 18 20 19 21 20 22 21 23
REMARK SMILES IDX 22 24 23 25 24 26 25 27 26 28 87 29 27 30 86 31 28 32 29 33
REMARK SMILES IDX 30 34 80 35 31 36 85 37 79 38 81 39 32 40 84 41 78 42 77 43
REMARK SMILES IDX 33 45 65 46 45 47 64 48 46 49 49 50 63 51 82 52 47 53 48 54
REMARK SMILES IDX 62 56 83 57 50 58 34 59 35 60 43 61 36 62 42 63 44 64 41 65
REMARK SMILES IDX 37 66 38 67 39 68 40 69 66 70 67 71 75 72 68 73 74 74 76 75
REMARK SMILES IDX 73 76 69 77 70 78 71 79 72 80 51 81 52 82 60 83 53 84 59 85
REMARK SMILES IDX 61 86 58 87 54 88 55 89 56 90 57 91
REMARK H PARENT 81 44 49 55
REMARK Flexibility Score: inf
ROOT
ATOM      1  C   UNL A   1      35.583  31.666  27.923  1.00  0.00     0.188 C 
ENDROOT
BRANCH   1   2
ATOM      2  O   UNL A   1      34.461  30.809  28.109  1.00  0.00    -0.376 OA
BRANCH   2   3
ATOM      3  C   UNL A   1      33.869  30.181  26.980  1.00  0.00     0.202 C 
BRANCH   3   4
ATOM      4  C   UNL A   1      32.772  29.132  27.221  1.00  0.00     0.261 C 
BRANCH   4   5
ATOM      5  O   UNL A   1      33.173  27.756  27.041  1.00  0.00    -0.463 OA
BRANCH   5   6
ATOM      6  C   UNL A   1      33.065  27.254  25.784  1.00  0.00     0.313 C 
ATOM      7  O   UNL A   1      34.032  27.100  25.040  1.00  0.00    -0.252 OA
BRANCH   6   8
ATOM      8  C   UNL A   1      31.658  26.865  25.324  1.00  0.00     0.126 C 
ATOM      9  C   UNL A   1      31.688  25.421  24.823  1.00  0.00     0.025 C 
BRANCH   8  10
ATOM     10  C   UNL A   1      30.871  27.733  24.345  1.00  0.00    -0.034 A 
ATOM     11  C   UNL A   1      29.320  29.244  22.503  1.00  0.00    -0.048 A 
ATOM     12  C   UNL A   1      30.645  29.598  22.788  1.00  0.00     0.004 A 
ATOM     13  C   UNL A   1      28.771  28.135  23.150  1.00  0.00     0.004 A 
ATOM     14  C   UNL A   1      31.415  28.848  23.692  1.00  0.00     0.005 A 
ATOM     15  C   UNL A   1      29.538  27.385  24.048  1.00  0.00     0.005 A 
BRANCH  11  16
ATOM     16  C   UNL A   1      28.513  30.000  21.468  1.00  0.00     0.038 C 
BRANCH  16  17
ATOM     17  C   UNL A   1      28.530  31.528  21.690  1.00  0.00    -0.013 C 
ATOM     18  C   UNL A   1      27.877  32.292  20.534  1.00  0.00     0.008 C 
ATOM     19  C   UNL A   1      27.819  31.888  22.997  1.00  0.00     0.008 C 
ENDBRANCH  16  17
ENDBRANCH  11  16
ENDBRANCH   8  10
ENDBRANCH   6   8
ENDBRANCH   5   6
ENDBRANCH   4   5
ENDBRANCH   3   4
ENDBRANCH   2   3
ENDBRANCH   1   2
BRANCH   1  20
ATOM     20  C   UNL A   1      35.602  33.047  28.596  1.00  0.00     0.188 C 
BRANCH  20  21
ATOM     21  O   UNL A   1      34.976  34.072  27.851  1.00  0.00    -0.376 OA
BRANCH  21  22
ATOM     22  C   UNL A   1      33.601  34.273  28.108  1.00  0.00     0.202 C 
BRANCH  22  23
ATOM     23  C   UNL A   1      33.316  35.310  29.202  1.00  0.00     0.261 C 
BRANCH  23  24
ATOM     24  O   UNL A   1      32.745  34.792  30.419  1.00  0.00    -0.460 OA
BRANCH  24  25
ATOM     25  C   UNL A   1      32.961  35.511  31.543  1.00  0.00     0.338 C 
ATOM     26  O   UNL A   1      32.246  36.406  31.978  1.00  0.00    -0.246 OA
BRANCH  25  27
ATOM     27  C   UNL A   1      34.087  34.901  32.287  1.00  0.00     0.060 A 
ATOM     28  C   UNL A   1      35.331  35.549  32.294  1.00  0.00     0.016 A 
ATOM     29  C   UNL A   1      33.928  33.684  32.955  1.00  0.00     0.016 A 
ATOM     30  C   UNL A   1      36.431  34.956  32.919  1.00  0.00     0.010 A 
ATOM     31  C   UNL A   1      35.036  33.082  33.565  1.00  0.00     0.010 A 
ATOM     32  C   UNL A   1      36.304  33.691  33.511  1.00  0.00    -0.014 A 
BRANCH  32  33
ATOM     33  C   UNL A   1      37.524  32.909  33.852  1.00  0.00     0.031 A 
ATOM     34  C   UNL A   1      38.246  33.248  35.134  1.00  0.00     0.074 A 
ATOM     35  C   UNL A   1      37.971  31.902  33.078  1.00  0.00     0.049 A 
ATOM     36  N   UNL A   1      39.350  32.751  35.629  1.00  0.00    -0.248 NA
ATOM     37  C   UNL A   1      37.634  34.296  35.967  1.00  0.00     0.031 C 
ATOM     38  C   UNL A   1      37.339  31.437  31.845  1.00  0.00     0.029 A 
ATOM     39  N   UNL A   1      39.071  31.089  33.217  1.00  0.00    -0.354 N 
ATOM     40  C   UNL A   1      39.573  33.434  36.821  1.00  0.00     0.074 A 
ATOM     41  C   UNL A   1      38.508  34.403  36.956  1.00  0.00     0.031 C 
ATOM     42  C   UNL A   1      38.065  30.424  31.338  1.00  0.00     0.029 A 
ATOM     43  C   UNL A   1      39.237  30.194  32.183  1.00  0.00     0.049 A 
ATOM     44  H   UNL A   1      39.685  31.141  33.985  1.00  0.00     0.167 HD
ATOM     45  C   UNL A   1      40.568  33.264  37.725  1.00  0.00     0.034 A 
ATOM     46  C   UNL A   1      40.231  29.314  31.937  1.00  0.00     0.034 A 
ATOM     47  C   UNL A   1      41.627  32.295  37.583  1.00  0.00     0.049 A 
ATOM     48  C   UNL A   1      41.380  29.208  32.917  1.00  0.00     0.074 A 
ATOM     49  C   UNL A   1      42.669  32.027  38.453  1.00  0.00     0.029 A 
ATOM     50  N   UNL A   1      41.787  31.444  36.498  1.00  0.00    -0.354 N 
ATOM     51  N   UNL A   1      41.568  29.848  34.050  1.00  0.00    -0.248 NA
ATOM     52  C   UNL A   1      42.448  28.252  32.589  1.00  0.00     0.031 C 
ATOM     53  C   UNL A   1      43.505  31.078  37.856  1.00  0.00     0.029 A 
ATOM     54  C   UNL A   1      42.934  30.681  36.659  1.00  0.00     0.049 A 
ATOM     55  H   UNL A   1      41.177  31.389  35.728  1.00  0.00     0.167 HD
ATOM     56  C   UNL A   1      42.753  29.339  34.583  1.00  0.00     0.074 A 
ATOM     57  C   UNL A   1      43.222  28.329  33.660  1.00  0.00     0.031 C 
ATOM     58  C   UNL A   1      43.396  29.675  35.731  1.00  0.00     0.034 A 
BRANCH  45  59
ATOM     59  C   UNL A   1      40.590  34.184  38.922  1.00  0.00     0.023 A 
ATOM     60  C   UNL A   1      39.899  33.881  40.108  1.00  0.00     0.031 A 
ATOM     61  C   UNL A   1      41.312  35.390  38.870  1.00  0.00     0.131 A 
ATOM     62  C   UNL A   1      39.897  34.799  41.170  1.00  0.00     0.055 A 
ATOM     63  C   UNL A   1      41.372  36.261  39.959  1.00  0.00     0.041 A 
ATOM     64  F   UNL A   1      41.968  35.746  37.754  1.00  0.00    -0.206 F 
ATOM     65  C   UNL A   1      40.652  35.974  41.114  1.00  0.00     0.022 A 
BRANCH  62  66
ATOM     66  S   UNL A   1      38.792  34.499  42.577  1.00  0.00     0.124 S 
ATOM     67  O   UNL A   1      37.518  34.998  42.063  1.00  0.00    -0.237 OA
ATOM     68  O   UNL A   1      38.887  33.055  42.750  1.00  0.00    -0.237 OA
ATOM     69  O   UNL A   1      39.378  35.298  43.650  1.00  0.00    -0.744 OA
ENDBRANCH  62  66
ENDBRANCH  45  59
BRANCH  46  70
ATOM     70  C   UNL A   1      40.234  28.482  30.694  1.00  0.00     0.023 A 
ATOM     71  C   UNL A   1      41.090  28.781  29.621  1.00  0.00     0.031 A 
ATOM     72  C   UNL A   1      39.306  27.439  30.519  1.00  0.00     0.131 A 
ATOM     73  C   UNL A   1      40.953  28.098  28.401  1.00  0.00     0.055 A 
ATOM     74  C   UNL A   1      39.223  26.714  29.328  1.00  0.00     0.041 A 
ATOM     75  F   UNL A   1      38.455  27.115  31.505  1.00  0.00    -0.206 F 
ATOM     76  C   UNL A   1      40.037  27.054  28.253  1.00  0.00     0.022 A 
BRANCH  73  77
ATOM     77  S   UNL A   1      41.904  28.679  26.968  1.00  0.00     0.124 S 
ATOM     78  O   UNL A   1      42.563  29.860  27.512  1.00  0.00    -0.237 OA
ATOM     79  O   UNL A   1      42.764  27.534  26.690  1.00  0.00    -0.237 OA
ATOM     80  O   UNL A   1      40.877  28.944  25.963  1.00  0.00    -0.744 OA
ENDBRANCH  73  77
ENDBRANCH  46  70
BRANCH  58  81
ATOM     81  C   UNL A   1      44.645  28.896  36.082  1.00  0.00     0.023 A 
ATOM     82  C   UNL A   1      45.919  29.296  35.642  1.00  0.00     0.031 A 
ATOM     83  C   UNL A   1      44.554  27.724  36.855  1.00  0.00     0.131 A 
ATOM     84  C   UNL A   1      47.039  28.494  35.916  1.00  0.00     0.055 A 
ATOM     85  C   UNL A   1      45.680  26.971  37.188  1.00  0.00     0.041 A 
ATOM     86  F   UNL A   1      43.365  27.290  37.303  1.00  0.00    -0.206 F 
ATOM     87  C   UNL A   1      46.930  27.345  36.703  1.00  0.00     0.022 A 
BRANCH  84  88
ATOM     88  S   UNL A   1      48.620  28.908  35.129  1.00  0.00     0.124 S 
ATOM     89  O   UNL A   1      49.583  28.466  36.132  1.00  0.00    -0.237 OA
ATOM     90  O   UNL A   1      48.572  28.122  33.901  1.00  0.00    -0.237 OA
ATOM     91  O   UNL A   1      48.540  30.355  34.942  1.00  0.00    -0.744 OA
ENDBRANCH  84  88
ENDBRANCH  58  81
ENDBRANCH  32  33
ENDBRANCH  25  27
ENDBRANCH  24  25
ENDBRANCH  23  24
ENDBRANCH  22  23
ENDBRANCH  21  22
ENDBRANCH  20  21
ENDBRANCH   1  20
TORSDOF 23
ENDMDL
MODEL 2
REMARK VINA RESULT:      -8.8      6.454     11.641
REMARK SMILES CC(C)Cc1ccc([C@@H](C)C(=O)OCCOCCOCCOC(=O)c2ccc(-c3c4nc(c(-c5cc(S(=O)(=O)[O-])ccc5F)c5ccc([nH]5)c(-c5cc(S(=O)(=O)[O-])ccc5F)c5nc(c(-c6cc(S(=O)(=O)[O-])ccc6F)c6ccc3[nH]6)C=C5)C=C4)cc2)cc1
REMARK SMILES IDX 17 1 16 2 15 3 14 4 13 5 11 6 12 7 9 8 10 9 8 10 5 11 6 12
REMARK SMILES IDX 89 13 7 14 88 15 4 16 2 17 1 18 3 19 18 20 19 21 20 22 21 23
REMARK SMILES IDX 22 24 23 25 24 26 25 27 26 28 87 29 27 30 86 31 28 32 29 33
REMARK SMILES IDX 30 34 80 35 31 36 85 37 79 38 81 39 32 40 84 41 78 42 77 43
REMARK SMILES IDX 33 45 65 46 45 47 64 48 46 49 49 50 63 51 82 52 47 53 48 54
REMARK SMILES IDX 62 56 83 57 50 58 34 59 35 60 43 61 36 62 42 63 44 64 41 65
REMARK SMILES IDX 37 66 38 67 39 68 40 69 66 70 67 71 75 72 68 73 74 74 76 75
REMARK SMILES IDX 73 76 69 77 70 78 71 79 72 80 51 81 52 82 60 83 53 84 59 85
REMARK SMILES IDX 61 86 58 87 54 88 55 89 56 90 57 91
REMARK H PARENT 81 44 49 55
REMARK Flexibility Score: inf
ROOT
ATOM      1  C   UNL A   1      39.917  21.885  26.216  1.00  0.00     0.188 C 
ENDROOT
BRANCH   1   2
ATOM      2  O   UNL A   1      38.521  21.993  25.956  1.00  0.00    -0.376 OA
BRANCH   2   3
ATOM      3  C   UNL A   1      37.909  23.275  25.966  1.00  0.00     0.202 C 
BRANCH   3   4
ATOM      4  C   UNL A   1      36.377  23.350  26.063  1.00  0.00     0.261 C 
BRANCH   4   5
ATOM      5  O   UNL A   1      35.666  22.159  25.661  1.00  0.00    -0.463 OA
BRANCH   5   6
ATOM      6  C   UNL A   1      34.472  21.934  26.266  1.00  0.00     0.313 C 
ATOM      7  O   UNL A   1      34.375  21.488  27.408  1.00  0.00    -0.252 OA
BRANCH   6   8
ATOM      8  C   UNL A   1      33.220  22.279  25.455  1.00  0.00     0.126 C 
ATOM      9  C   UNL A   1      33.149  21.348  24.246  1.00  0.00     0.025 C 
BRANCH   8  10
ATOM     10  C   UNL A   1      32.922  23.712  25.020  1.00  0.00    -0.034 A 
ATOM     11  C   UNL A   1      32.480  26.375  24.129  1.00  0.00    -0.048 A 
ATOM     12  C   UNL A   1      31.921  25.916  25.329  1.00  0.00     0.004 A 
ATOM     13  C   UNL A   1      33.254  25.493  23.371  1.00  0.00     0.004 A 
ATOM     14  C   UNL A   1      32.145  24.603  25.774  1.00  0.00     0.005 A 
ATOM     15  C   UNL A   1      33.480  24.186  23.816  1.00  0.00     0.005 A 
BRANCH  11  16
ATOM     16  C   UNL A   1      32.309  27.814  23.686  1.00  0.00     0.038 C 
BRANCH  16  17
ATOM     17  C   UNL A   1      31.401  28.630  24.631  1.00  0.00    -0.013 C 
ATOM     18  C   UNL A   1      32.190  29.649  25.460  1.00  0.00     0.008 C 
ATOM     19  C   UNL A   1      30.316  29.361  23.836  1.00  0.00     0.008 C 
ENDBRANCH  16  17
ENDBRANCH  11  16
ENDBRANCH   8  10
ENDBRANCH   6   8
ENDBRANCH   5   6
ENDBRANCH   4   5
ENDBRANCH   3   4
ENDBRANCH   2   3
ENDBRANCH   1   2
BRANCH   1  20
ATOM     20  C   UNL A   1      40.397  21.410  27.596  1.00  0.00     0.188 C 
BRANCH  20  21
ATOM     21  O   UNL A   1      41.505  20.533  27.563  1.00  0.00    -0.376 OA
BRANCH  21  22
ATOM     22  C   UNL A   1      41.369  19.395  26.736  1.00  0.00     0.202 C 
BRANCH  22  23
ATOM     23  C   UNL A   1      42.644  19.031  25.963  1.00  0.00     0.261 C 
BRANCH  23  24
ATOM     24  O   UNL A   1      43.090  20.008  25.003  1.00  0.00    -0.460 OA
BRANCH  24  25
ATOM     25  C   UNL A   1      44.230  20.673  25.300  1.00  0.00     0.338 C 
ATOM     26  O   UNL A   1      45.364  20.348  24.969  1.00  0.00    -0.246 OA
BRANCH  25  27
ATOM     27  C   UNL A   1      43.873  21.977  25.906  1.00  0.00     0.060 A 
ATOM     28  C   UNL A   1      43.351  22.990  25.087  1.00  0.00     0.016 A 
ATOM     29  C   UNL A   1      44.073  22.212  27.268  1.00  0.00     0.016 A 
ATOM     30  C   UNL A   1      43.083  24.255  25.616  1.00  0.00     0.010 A 
ATOM     31  C   UNL A   1      43.821  23.485  27.793  1.00  0.00     0.010 A 
ATOM     32  C   UNL A   1      43.368  24.527  26.961  1.00  0.00    -0.014 A 
BRANCH  32  33
ATOM     33  C   UNL A   1      43.426  25.939  27.433  1.00  0.00     0.031 A 
ATOM     34  C   UNL A   1      44.767  26.632  27.428  1.00  0.00     0.074 A 
ATOM     35  C   UNL A   1      42.326  26.610  27.824  1.00  0.00     0.049 A 
ATOM     36  N   UNL A   1      45.089  27.834  27.832  1.00  0.00    -0.248 NA
ATOM     37  C   UNL A   1      45.898  25.856  26.895  1.00  0.00     0.031 C 
ATOM     38  C   UNL A   1      40.965  26.078  27.826  1.00  0.00     0.029 A 
ATOM     39  N   UNL A   1      42.184  27.893  28.300  1.00  0.00    -0.354 N 
ATOM     40  C   UNL A   1      46.458  27.952  27.616  1.00  0.00     0.074 A 
ATOM     41  C   UNL A   1      46.910  26.688  27.078  1.00  0.00     0.031 C 
ATOM     42  C   UNL A   1      40.127  27.025  28.287  1.00  0.00     0.029 A 
ATOM     43  C   UNL A   1      40.893  28.216  28.653  1.00  0.00     0.049 A 
ATOM     44  H   UNL A   1      42.937  28.522  28.381  1.00  0.00     0.167 HD
ATOM     45  C   UNL A   1      47.265  29.019  27.837  1.00  0.00     0.034 A 
ATOM     46  C   UNL A   1      40.395  29.332  29.228  1.00  0.00     0.034 A 
ATOM     47  C   UNL A   1      46.806  30.276  28.374  1.00  0.00     0.049 A 
ATOM     48  C   UNL A   1      41.335  30.476  29.550  1.00  0.00     0.074 A 
ATOM     49  C   UNL A   1      47.537  31.426  28.613  1.00  0.00     0.029 A 
ATOM     50  N   UNL A   1      45.502  30.546  28.766  1.00  0.00    -0.354 N 
ATOM     51  N   UNL A   1      42.625  30.581  29.324  1.00  0.00    -0.248 NA
ATOM     52  C   UNL A   1      40.745  31.657  30.198  1.00  0.00     0.031 C 
ATOM     53  C   UNL A   1      46.697  32.359  29.229  1.00  0.00     0.029 A 
ATOM     54  C   UNL A   1      45.419  31.830  29.285  1.00  0.00     0.049 A 
ATOM     55  H   UNL A   1      44.747  29.920  28.689  1.00  0.00     0.167 HD
ATOM     56  C   UNL A   1      42.987  31.854  29.765  1.00  0.00     0.074 A 
ATOM     57  C   UNL A   1      41.778  32.483  30.250  1.00  0.00     0.031 C 
ATOM     58  C   UNL A   1      44.207  32.451  29.769  1.00  0.00     0.034 A 
BRANCH  45  59
ATOM     59  C   UNL A   1      48.738  28.853  27.550  1.00  0.00     0.023 A 
ATOM     60  C   UNL A   1      49.258  28.941  26.246  1.00  0.00     0.031 A 
ATOM     61  C   UNL A   1      49.636  28.597  28.602  1.00  0.00     0.131 A 
ATOM     62  C   UNL A   1      50.625  28.715  26.023  1.00  0.00     0.055 A 
ATOM     63  C   UNL A   1      51.007  28.454  28.382  1.00  0.00     0.041 A 
ATOM     64  F   UNL A   1      49.193  28.476  29.864  1.00  0.00    -0.206 F 
ATOM     65  C   UNL A   1      51.507  28.500  27.085  1.00  0.00     0.022 A 
BRANCH  62  66
ATOM     66  S   UNL A   1      51.215  28.578  24.313  1.00  0.00     0.124 S 
ATOM     67  O   UNL A   1      52.290  27.597  24.450  1.00  0.00    -0.237 OA
ATOM     68  O   UNL A   1      50.025  28.125  23.604  1.00  0.00    -0.237 OA
ATOM     69  O   UNL A   1      51.657  29.933  23.992  1.00  0.00    -0.744 OA
ENDBRANCH  62  66
ENDBRANCH  45  59
BRANCH  46  70
ATOM     70  C   UNL A   1      38.948  29.434  29.591  1.00  0.00     0.023 A 
ATOM     71  C   UNL A   1      38.059  30.208  28.827  1.00  0.00     0.031 A 
ATOM     72  C   UNL A   1      38.454  28.842  30.768  1.00  0.00     0.131 A 
ATOM     73  C   UNL A   1      36.749  30.430  29.283  1.00  0.00     0.055 A 
ATOM     74  C   UNL A   1      37.130  29.007  31.180  1.00  0.00     0.041 A 
ATOM     75  F   UNL A   1      39.260  28.101  31.545  1.00  0.00    -0.206 F 
ATOM     76  C   UNL A   1      36.274  29.820  30.446  1.00  0.00     0.022 A 
BRANCH  73  77
ATOM     77  S   UNL A   1      35.713  31.631  28.401  1.00  0.00     0.124 S 
ATOM     78  O   UNL A   1      34.726  31.972  29.418  1.00  0.00    -0.237 OA
ATOM     79  O   UNL A   1      36.677  32.674  28.066  1.00  0.00    -0.237 OA
ATOM     80  O   UNL A   1      35.201  30.869  27.264  1.00  0.00    -0.744 OA
ENDBRANCH  73  77
ENDBRANCH  46  70
BRANCH  58  81
ATOM     81  C   UNL A   1      44.281  33.880  30.258  1.00  0.00     0.023 A 
ATOM     82  C   UNL A   1      43.998  34.970  29.417  1.00  0.00     0.031 A 
ATOM     83  C   UNL A   1      44.658  34.155  31.586  1.00  0.00     0.131 A 
ATOM     84  C   UNL A   1      44.166  36.282  29.889  1.00  0.00     0.055 A 
ATOM     85  C   UNL A   1      44.749  35.459  32.072  1.00  0.00     0.041 A 
ATOM     86  F   UNL A   1      44.942  33.155  32.437  1.00  0.00    -0.206 F 
ATOM     87  C   UNL A   1      44.520  36.533  31.217  1.00  0.00     0.022 A 
BRANCH  84  88
ATOM     88  S   UNL A   1      44.030  37.655  28.712  1.00  0.00     0.124 S 
ATOM     89  O   UNL A   1      42.626  37.585  28.323  1.00  0.00    -0.237 OA
ATOM     90  O   UNL A   1      44.409  38.804  29.528  1.00  0.00    -0.237 OA
ATOM     91  O   UNL A   1      44.983  37.301  27.661  1.00  0.00    -0.744 OA
ENDBRANCH  84  88
ENDBRANCH  58  81
ENDBRANCH  32  33
ENDBRANCH  25  27
ENDBRANCH  24  25
ENDBRANCH  23  24
ENDBRANCH  22  23
ENDBRANCH  21  22
ENDBRANCH  20  21
ENDBRANCH   1  20
TORSDOF 23
ENDMDL
MODEL 3
REMARK VINA RESULT:      -8.8      6.079     11.532
REMARK SMILES CC(C)Cc1ccc([C@@H](C)C(=O)OCCOCCOCCOC(=O)c2ccc(-c3c4nc(c(-c5cc(S(=O)(=O)[O-])ccc5F)c5ccc([nH]5)c(-c5cc(S(=O)(=O)[O-])ccc5F)c5nc(c(-c6cc(S(=O)(=O)[O-])ccc6F)c6ccc3[nH]6)C=C5)C=C4)cc2)cc1
REMARK SMILES IDX 17 1 16 2 15 3 14 4 13 5 11 6 12 7 9 8 10 9 8 10 5 11 6 12
REMARK SMILES IDX 89 13 7 14 88 15 4 16 2 17 1 18 3 19 18 20 19 21 20 22 21 23
REMARK SMILES IDX 22 24 23 25 24 26 25 27 26 28 87 29 27 30 86 31 28 32 29 33
REMARK SMILES IDX 30 34 80 35 31 36 85 37 79 38 81 39 32 40 84 41 78 42 77 43
REMARK SMILES IDX 33 45 65 46 45 47 64 48 46 49 49 50 63 51 82 52 47 53 48 54
REMARK SMILES IDX 62 56 83 57 50 58 34 59 35 60 43 61 36 62 42 63 44 64 41 65
REMARK SMILES IDX 37 66 38 67 39 68 40 69 66 70 67 71 75 72 68 73 74 74 76 75
REMARK SMILES IDX 73 76 69 77 70 78 71 79 72 80 51 81 52 82 60 83 53 84 59 85
REMARK SMILES IDX 61 86 58 87 54 88 55 89 56 90 57 91
REMARK H PARENT 81 44 49 55
REMARK Flexibility Score: inf
ROOT
ATOM      1  C   UNL A   1      43.557  18.716  25.363  1.00  0.00     0.188 C 
ENDROOT
BRANCH   1   2
ATOM      2  O   UNL A   1      42.517  19.661  25.595  1.00  0.00    -0.376 OA
BRANCH   2   3
ATOM      3  C   UNL A   1      41.986  19.805  26.905  1.00  0.00     0.202 C 
BRANCH   3   4
ATOM      4  C   UNL A   1      41.913  21.215  27.512  1.00  0.00     0.261 C 
BRANCH   4   5
ATOM      5  O   UNL A   1      40.588  21.775  27.634  1.00  0.00    -0.463 OA
BRANCH   5   6
ATOM      6  C   UNL A   1      39.778  21.653  26.551  1.00  0.00     0.313 C 
ATOM      7  O   UNL A   1      39.531  20.572  26.018  1.00  0.00    -0.252 OA
BRANCH   6   8
ATOM      8  C   UNL A   1      39.158  22.946  26.014  1.00  0.00     0.126 C 
ATOM      9  C   UNL A   1      39.485  24.084  26.981  1.00  0.00     0.025 C 
BRANCH   8  10
ATOM     10  C   UNL A   1      37.687  23.018  25.612  1.00  0.00    -0.034 A 
ATOM     11  C   UNL A   1      34.978  23.079  24.751  1.00  0.00    -0.048 A 
ATOM     12  C   UNL A   1      35.465  24.025  25.663  1.00  0.00     0.004 A 
ATOM     13  C   UNL A   1      35.851  22.096  24.278  1.00  0.00     0.004 A 
ATOM     14  C   UNL A   1      36.805  24.001  26.083  1.00  0.00     0.005 A 
ATOM     15  C   UNL A   1      37.187  22.073  24.694  1.00  0.00     0.005 A 
BRANCH  11  16
ATOM     16  C   UNL A   1      33.557  23.150  24.232  1.00  0.00     0.038 C 
BRANCH  16  17
ATOM     17  C   UNL A   1      33.426  22.677  22.768  1.00  0.00    -0.013 C 
ATOM     18  C   UNL A   1      32.351  21.600  22.598  1.00  0.00     0.008 C 
ATOM     19  C   UNL A   1      33.105  23.858  21.849  1.00  0.00     0.008 C 
ENDBRANCH  16  17
ENDBRANCH  11  16
ENDBRANCH   8  10
ENDBRANCH   6   8
ENDBRANCH   5   6
ENDBRANCH   4   5
ENDBRANCH   3   4
ENDBRANCH   2   3
ENDBRANCH   1   2
BRANCH   1  20
ATOM     20  C   UNL A   1      44.647  19.027  24.326  1.00  0.00     0.188 C 
BRANCH  20  21
ATOM     21  O   UNL A   1      45.874  19.463  24.876  1.00  0.00    -0.376 OA
BRANCH  21  22
ATOM     22  C   UNL A   1      46.189  20.827  24.680  1.00  0.00     0.202 C 
BRANCH  22  23
ATOM     23  C   UNL A   1      45.520  21.772  25.687  1.00  0.00     0.261 C 
BRANCH  23  24
ATOM     24  O   UNL A   1      45.176  23.076  25.182  1.00  0.00    -0.460 OA
BRANCH  24  25
ATOM     25  C   UNL A   1      43.860  23.327  24.998  1.00  0.00     0.338 C 
ATOM     26  O   UNL A   1      43.058  22.599  24.425  1.00  0.00    -0.246 OA
BRANCH  25  27
ATOM     27  C   UNL A   1      43.492  24.524  25.790  1.00  0.00     0.060 A 
ATOM     28  C   UNL A   1      42.981  25.650  25.126  1.00  0.00     0.016 A 
ATOM     29  C   UNL A   1      43.670  24.549  27.175  1.00  0.00     0.016 A 
ATOM     30  C   UNL A   1      42.702  26.819  25.838  1.00  0.00     0.010 A 
ATOM     31  C   UNL A   1      43.407  25.728  27.883  1.00  0.00     0.010 A 
ATOM     32  C   UNL A   1      42.965  26.884  27.213  1.00  0.00    -0.014 A 
BRANCH  32  33
ATOM     33  C   UNL A   1      43.012  28.207  27.895  1.00  0.00     0.031 A 
ATOM     34  C   UNL A   1      44.343  28.917  27.971  1.00  0.00     0.074 A 
ATOM     35  C   UNL A   1      41.911  28.792  28.404  1.00  0.00     0.049 A 
ATOM     36  N   UNL A   1      44.656  30.048  28.548  1.00  0.00    -0.248 NA
ATOM     37  C   UNL A   1      45.473  28.251  27.303  1.00  0.00     0.031 C 
ATOM     38  C   UNL A   1      40.558  28.242  28.350  1.00  0.00     0.029 A 
ATOM     39  N   UNL A   1      41.762  29.984  29.074  1.00  0.00    -0.354 N 
ATOM     40  C   UNL A   1      46.019  30.222  28.327  1.00  0.00     0.074 A 
ATOM     41  C   UNL A   1      46.477  29.063  27.593  1.00  0.00     0.031 C 
ATOM     42  C   UNL A   1      39.717  29.092  28.967  1.00  0.00     0.029 A 
ATOM     43  C   UNL A   1      40.474  30.226  29.497  1.00  0.00     0.049 A 
ATOM     44  H   UNL A   1      42.506  30.606  29.237  1.00  0.00     0.167 HD
ATOM     45  C   UNL A   1      46.815  31.256  28.694  1.00  0.00     0.034 A 
ATOM     46  C   UNL A   1      39.972  31.232  30.246  1.00  0.00     0.034 A 
ATOM     47  C   UNL A   1      46.349  32.408  29.426  1.00  0.00     0.049 A 
ATOM     48  C   UNL A   1      40.902  32.329  30.722  1.00  0.00     0.074 A 
ATOM     49  C   UNL A   1      47.069  33.520  29.826  1.00  0.00     0.029 A 
ATOM     50  N   UNL A   1      45.050  32.592  29.880  1.00  0.00    -0.354 N 
ATOM     51  N   UNL A   1      42.185  32.490  30.490  1.00  0.00    -0.248 NA
ATOM     52  C   UNL A   1      40.309  33.387  31.554  1.00  0.00     0.031 C 
ATOM     53  C   UNL A   1      46.228  34.333  30.593  1.00  0.00     0.029 A 
ATOM     54  C   UNL A   1      44.959  33.779  30.591  1.00  0.00     0.049 A 
ATOM     55  H   UNL A   1      44.303  31.972  29.721  1.00  0.00     0.167 HD
ATOM     56  C   UNL A   1      42.538  33.687  31.114  1.00  0.00     0.074 A 
ATOM     57  C   UNL A   1      41.331  34.213  31.713  1.00  0.00     0.031 C 
ATOM     58  C   UNL A   1      43.750  34.297  31.187  1.00  0.00     0.034 A 
BRANCH  45  59
ATOM     59  C   UNL A   1      48.283  31.162  28.357  1.00  0.00     0.023 A 
ATOM     60  C   UNL A   1      49.190  30.455  29.165  1.00  0.00     0.031 A 
ATOM     61  C   UNL A   1      48.783  31.797  27.206  1.00  0.00     0.131 A 
ATOM     62  C   UNL A   1      50.556  30.450  28.844  1.00  0.00     0.055 A 
ATOM     63  C   UNL A   1      50.131  31.721  26.849  1.00  0.00     0.041 A 
ATOM     64  F   UNL A   1      47.969  32.509  26.410  1.00  0.00    -0.206 F 
ATOM     65  C   UNL A   1      51.028  31.055  27.676  1.00  0.00     0.022 A 
BRANCH  62  66
ATOM     66  S   UNL A   1      51.728  29.754  30.041  1.00  0.00     0.124 S 
ATOM     67  O   UNL A   1      50.844  29.398  31.148  1.00  0.00    -0.237 OA
ATOM     68  O   UNL A   1      52.307  28.638  29.303  1.00  0.00    -0.237 OA
ATOM     69  O   UNL A   1      52.640  30.862  30.313  1.00  0.00    -0.744 OA
ENDBRANCH  62  66
ENDBRANCH  45  59
BRANCH  46  70
ATOM     70  C   UNL A   1      38.532  31.252  30.647  1.00  0.00     0.023 A 
ATOM     71  C   UNL A   1      37.573  31.936  29.882  1.00  0.00     0.031 A 
ATOM     72  C   UNL A   1      38.110  30.675  31.860  1.00  0.00     0.131 A 
ATOM     73  C   UNL A   1      36.263  32.087  30.367  1.00  0.00     0.055 A 
ATOM     74  C   UNL A   1      36.790  30.768  32.304  1.00  0.00     0.041 A 
ATOM     75  F   UNL A   1      38.985  30.019  32.639  1.00  0.00    -0.206 F 
ATOM     76  C   UNL A   1      35.861  31.493  31.565  1.00  0.00     0.022 A 
BRANCH  73  77
ATOM     77  S   UNL A   1      35.126  33.182  29.472  1.00  0.00     0.124 S 
ATOM     78  O   UNL A   1      36.010  34.275  29.087  1.00  0.00    -0.237 OA
ATOM     79  O   UNL A   1      34.662  32.319  28.391  1.00  0.00    -0.237 OA
ATOM     80  O   UNL A   1      34.117  33.518  30.475  1.00  0.00    -0.744 OA
ENDBRANCH  73  77
ENDBRANCH  46  70
BRANCH  58  81
ATOM     81  C   UNL A   1      43.813  35.635  31.889  1.00  0.00     0.023 A 
ATOM     82  C   UNL A   1      43.703  36.849  31.188  1.00  0.00     0.031 A 
ATOM     83  C   UNL A   1      44.004  35.696  33.282  1.00  0.00     0.131 A 
ATOM     84  C   UNL A   1      43.857  38.068  31.868  1.00  0.00     0.055 A 
ATOM     85  C   UNL A   1      44.081  36.911  33.964  1.00  0.00     0.041 A 
ATOM     86  F   UNL A   1      44.118  34.571  34.006  1.00  0.00    -0.206 F 
ATOM     87  C   UNL A   1      44.025  38.106  33.255  1.00  0.00     0.022 A 
BRANCH  84  88
ATOM     88  S   UNL A   1      43.954  39.599  30.901  1.00  0.00     0.124 S 
ATOM     89  O   UNL A   1      45.353  39.977  31.069  1.00  0.00    -0.237 OA
ATOM     90  O   UNL A   1      43.570  39.150  29.566  1.00  0.00    -0.237 OA
ATOM     91  O   UNL A   1      42.991  40.481  31.558  1.00  0.00    -0.744 OA
ENDBRANCH  84  88
ENDBRANCH  58  81
ENDBRANCH  32  33
ENDBRANCH  25  27
ENDBRANCH  24  25
ENDBRANCH  23  24
ENDBRANCH  22  23
ENDBRANCH  21  22
ENDBRANCH  20  21
ENDBRANCH   1  20
TORSDOF 23
ENDMDL
