MODEL 1
REMARK VINA RESULT:      -9.7      0.000      0.000
REMARK SMILES CCn1ccc([C@@H](C)NC(=O)c2cnn(CCC(=O)OCCOCCOCCOC(=O)c3ccc(-c4c5nc(c(-c6cc(S(=O)(=O)[O-])ccc6F)c6ccc([nH]6)c(-c6cc(S(=O)(=O)[O-])ccc6F)c6nc(c(-c7cc(S(=O)(=O)[O-])ccc7F)c7ccc4[nH]7)C=C6)C=C5)cc3)c2)n1
REMARK SMILES IDX 23 1 22 2 21 3 20 4 18 5 19 6 17 7 16 8 15 9 12 10 13 11
REMARK SMILES IDX 95 12 14 13 10 14 9 15 11 17 7 18 8 19 6 20 3 21 4 22 96 23
REMARK SMILES IDX 5 24 2 25 1 26 24 27 25 28 26 29 27 30 28 31 29 32 30 33
REMARK SMILES IDX 31 34 32 35 33 36 94 37 34 38 93 39 35 40 36 41 37 42 87 43
REMARK SMILES IDX 38 44 92 45 86 46 88 47 39 48 91 49 85 50 84 51 40 53 72 54
REMARK SMILES IDX 52 55 71 56 53 57 56 58 70 59 89 60 54 61 55 62 69 64 90 65
REMARK SMILES IDX 57 66 41 67 42 68 50 69 43 70 49 71 51 72 48 73 44 74 45 75
REMARK SMILES IDX 46 76 47 77 73 78 74 79 82 80 75 81 81 82 83 83 80 84 76 85
REMARK SMILES IDX 77 86 78 87 79 88 58 89 59 90 67 91 60 92 66 93 68 94 65 95
REMARK SMILES IDX 61 96 62 97 63 98 64 99
REMARK H PARENT 9 16 88 52 56 63
REMARK Flexibility Score: inf
ROOT
ATOM      1  O   UNL A   1      41.330  21.186  27.160  1.00  0.00    -0.376 OA
ENDROOT
BRANCH   1   2
ATOM      2  C   UNL A   1      40.300  22.153  26.997  1.00  0.00     0.202 C 
BRANCH   2   3
ATOM      3  C   UNL A   1      39.110  21.742  26.117  1.00  0.00     0.261 C 
BRANCH   3   4
ATOM      4  O   UNL A   1      38.249  22.847  25.794  1.00  0.00    -0.463 OA
BRANCH   4   5
ATOM      5  C   UNL A   1      37.271  22.652  24.888  1.00  0.00     0.307 C 
ATOM      6  O   UNL A   1      36.815  23.537  24.167  1.00  0.00    -0.252 OA
BRANCH   5   7
ATOM      7  C   UNL A   1      36.829  21.212  24.707  1.00  0.00     0.146 C 
BRANCH   7   8
ATOM      8  C   UNL A   1      35.587  20.652  25.391  1.00  0.00     0.156 C 
BRANCH   8   9
ATOM      9  N   UNL A   1      34.424  21.510  25.403  1.00  0.00    -0.271 N 
ATOM     10  C   UNL A   1      32.853  22.948  25.917  1.00  0.00     0.077 A 
ATOM     11  C   UNL A   1      32.698  22.431  24.621  1.00  0.00     0.149 A 
ATOM     12  C   UNL A   1      34.057  22.424  26.350  1.00  0.00     0.122 A 
ATOM     13  N   UNL A   1      33.596  21.497  24.352  1.00  0.00    -0.181 NA
BRANCH  10  14
ATOM     14  C   UNL A   1      31.950  23.809  26.636  1.00  0.00     0.254 C 
ATOM     15  N   UNL A   1      31.983  25.146  26.324  1.00  0.00    -0.344 N 
ATOM     16  H   UNL A   1      31.496  25.743  26.937  1.00  0.00     0.164 HD
ATOM     17  O   UNL A   1      31.158  23.396  27.478  1.00  0.00    -0.269 OA
BRANCH  15  18
ATOM     18  C   UNL A   1      32.651  25.796  25.191  1.00  0.00     0.130 C 
ATOM     19  C   UNL A   1      34.126  26.016  25.499  1.00  0.00     0.038 C 
BRANCH  18  20
ATOM     20  C   UNL A   1      31.922  27.064  24.850  1.00  0.00     0.084 A 
ATOM     21  N   UNL A   1      31.377  29.112  24.978  1.00  0.00    -0.273 N 
ATOM     22  C   UNL A   1      30.636  28.620  23.942  1.00  0.00     0.109 A 
ATOM     23  N   UNL A   1      32.163  28.185  25.547  1.00  0.00    -0.176 NA
ATOM     24  C   UNL A   1      30.957  27.288  23.839  1.00  0.00     0.047 A 
BRANCH  21  25
ATOM     25  C   UNL A   1      31.434  30.483  25.447  1.00  0.00     0.141 C 
ATOM     26  C   UNL A   1      31.899  30.607  26.889  1.00  0.00     0.029 C 
ENDBRANCH  21  25
ENDBRANCH  18  20
ENDBRANCH  15  18
ENDBRANCH  10  14
ENDBRANCH   8   9
ENDBRANCH   7   8
ENDBRANCH   5   7
ENDBRANCH   4   5
ENDBRANCH   3   4
ENDBRANCH   2   3
ENDBRANCH   1   2
BRANCH   1  27
ATOM     27  C   UNL A   1      41.630  20.370  26.031  1.00  0.00     0.188 C 
BRANCH  27  28
ATOM     28  C   UNL A   1      41.986  18.911  26.316  1.00  0.00     0.188 C 
BRANCH  28  29
ATOM     29  O   UNL A   1      43.335  18.521  26.179  1.00  0.00    -0.376 OA
BRANCH  29  30
ATOM     30  C   UNL A   1      44.130  18.623  24.999  1.00  0.00     0.202 C 
BRANCH  30  31
ATOM     31  C   UNL A   1      45.324  19.561  24.817  1.00  0.00     0.261 C 
BRANCH  31  32
ATOM     32  O   UNL A   1      45.188  20.827  25.400  1.00  0.00    -0.460 OA
BRANCH  32  33
ATOM     33  C   UNL A   1      44.877  21.836  24.565  1.00  0.00     0.338 C 
ATOM     34  O   UNL A   1      44.271  21.771  23.502  1.00  0.00    -0.246 OA
BRANCH  33  35
ATOM     35  C   UNL A   1      45.440  23.045  25.173  1.00  0.00     0.060 A 
ATOM     36  C   UNL A   1      45.865  22.948  26.493  1.00  0.00     0.016 A 
ATOM     37  C   UNL A   1      45.227  24.279  24.538  1.00  0.00     0.016 A 
ATOM     38  C   UNL A   1      45.707  24.061  27.279  1.00  0.00     0.010 A 
ATOM     39  C   UNL A   1      45.013  25.367  25.328  1.00  0.00     0.010 A 
ATOM     40  C   UNL A   1      45.138  25.201  26.702  1.00  0.00    -0.014 A 
BRANCH  40  41
ATOM     41  C   UNL A   1      44.806  26.326  27.538  1.00  0.00     0.031 A 
ATOM     42  C   UNL A   1      45.866  27.342  27.439  1.00  0.00     0.074 A 
ATOM     43  C   UNL A   1      43.624  26.428  28.177  1.00  0.00     0.049 A 
ATOM     44  N   UNL A   1      46.882  27.462  28.230  1.00  0.00    -0.248 NA
ATOM     45  C   UNL A   1      46.032  28.045  26.151  1.00  0.00     0.031 C 
ATOM     46  C   UNL A   1      42.469  25.530  28.107  1.00  0.00     0.029 A 
ATOM     47  N   UNL A   1      43.174  27.425  28.982  1.00  0.00    -0.354 N 
ATOM     48  C   UNL A   1      47.582  28.536  27.704  1.00  0.00     0.074 A 
ATOM     49  C   UNL A   1      47.258  28.548  26.309  1.00  0.00     0.031 C 
ATOM     50  C   UNL A   1      41.391  26.142  28.655  1.00  0.00     0.029 A 
ATOM     51  C   UNL A   1      41.796  27.424  29.211  1.00  0.00     0.049 A 
ATOM     52  H   UNL A   1      43.774  28.100  29.376  1.00  0.00     0.167 HD
ATOM     53  C   UNL A   1      47.923  29.571  28.520  1.00  0.00     0.034 A 
ATOM     54  C   UNL A   1      41.062  28.443  29.749  1.00  0.00     0.034 A 
ATOM     55  C   UNL A   1      47.883  29.146  29.915  1.00  0.00     0.049 A 
ATOM     56  C   UNL A   1      42.021  29.291  30.510  1.00  0.00     0.074 A 
ATOM     57  C   UNL A   1      48.430  28.087  30.620  1.00  0.00     0.029 A 
ATOM     58  N   UNL A   1      46.857  29.619  30.708  1.00  0.00    -0.354 N 
ATOM     59  N   UNL A   1      42.638  28.871  31.582  1.00  0.00    -0.248 NA
ATOM     60  C   UNL A   1      42.700  30.359  29.789  1.00  0.00     0.031 C 
ATOM     61  C   UNL A   1      47.418  27.687  31.545  1.00  0.00     0.029 A 
ATOM     62  C   UNL A   1      46.351  28.580  31.447  1.00  0.00     0.049 A 
ATOM     63  H   UNL A   1      46.540  30.551  30.739  1.00  0.00     0.167 HD
ATOM     64  C   UNL A   1      43.957  29.273  31.419  1.00  0.00     0.074 A 
ATOM     65  C   UNL A   1      43.917  30.259  30.335  1.00  0.00     0.031 C 
ATOM     66  C   UNL A   1      44.986  28.540  31.946  1.00  0.00     0.034 A 
BRANCH  53  67
ATOM     67  C   UNL A   1      47.772  31.033  28.116  1.00  0.00     0.023 A 
ATOM     68  C   UNL A   1      46.478  31.425  27.745  1.00  0.00     0.031 A 
ATOM     69  C   UNL A   1      48.800  31.947  27.773  1.00  0.00     0.131 A 
ATOM     70  C   UNL A   1      46.272  32.535  26.912  1.00  0.00     0.055 A 
ATOM     71  C   UNL A   1      48.583  33.082  26.990  1.00  0.00     0.041 A 
ATOM     72  F   UNL A   1      50.083  31.793  28.114  1.00  0.00    -0.206 F 
ATOM     73  C   UNL A   1      47.318  33.359  26.515  1.00  0.00     0.022 A 
BRANCH  70  74
ATOM     74  S   UNL A   1      44.628  32.749  26.202  1.00  0.00     0.124 S 
ATOM     75  O   UNL A   1      44.964  33.084  24.822  1.00  0.00    -0.237 OA
ATOM     76  O   UNL A   1      44.037  31.433  26.421  1.00  0.00    -0.237 OA
ATOM     77  O   UNL A   1      44.058  33.832  26.997  1.00  0.00    -0.744 OA
ENDBRANCH  70  74
ENDBRANCH  53  67
BRANCH  54  78
ATOM     78  C   UNL A   1      39.695  28.913  29.348  1.00  0.00     0.023 A 
ATOM     79  C   UNL A   1      38.766  29.485  30.255  1.00  0.00     0.031 A 
ATOM     80  C   UNL A   1      39.376  29.034  27.977  1.00  0.00     0.131 A 
ATOM     81  C   UNL A   1      37.598  30.136  29.776  1.00  0.00     0.055 A 
ATOM     82  C   UNL A   1      38.226  29.679  27.512  1.00  0.00     0.041 A 
ATOM     83  F   UNL A   1      40.217  28.606  27.023  1.00  0.00    -0.206 F 
ATOM     84  C   UNL A   1      37.337  30.244  28.410  1.00  0.00     0.022 A 
BRANCH  81  85
ATOM     85  S   UNL A   1      36.417  30.940  30.919  1.00  0.00     0.124 S 
ATOM     86  O   UNL A   1      35.416  31.480  30.006  1.00  0.00    -0.237 OA
ATOM     87  O   UNL A   1      35.993  29.835  31.770  1.00  0.00    -0.237 OA
ATOM     88  O   UNL A   1      37.231  31.951  31.598  1.00  0.00    -0.744 OA
ENDBRANCH  81  85
ENDBRANCH  54  78
BRANCH  66  89
ATOM     89  C   UNL A   1      44.664  27.502  33.005  1.00  0.00     0.023 A 
ATOM     90  C   UNL A   1      44.652  26.100  32.815  1.00  0.00     0.031 A 
ATOM     91  C   UNL A   1      44.431  27.981  34.307  1.00  0.00     0.131 A 
ATOM     92  C   UNL A   1      44.390  25.242  33.905  1.00  0.00     0.055 A 
ATOM     93  C   UNL A   1      44.198  27.130  35.385  1.00  0.00     0.041 A 
ATOM     94  F   UNL A   1      44.453  29.300  34.561  1.00  0.00    -0.206 F 
ATOM     95  C   UNL A   1      44.165  25.757  35.186  1.00  0.00     0.022 A 
BRANCH  92  96
ATOM     96  S   UNL A   1      44.291  23.435  33.678  1.00  0.00     0.124 S 
ATOM     97  O   UNL A   1      45.666  22.989  33.872  1.00  0.00    -0.237 OA
ATOM     98  O   UNL A   1      43.339  23.042  34.714  1.00  0.00    -0.237 OA
ATOM     99  O   UNL A   1      43.792  23.293  32.309  1.00  0.00    -0.744 OA
ENDBRANCH  92  96
ENDBRANCH  66  89
ENDBRANCH  40  41
ENDBRANCH  33  35
ENDBRANCH  32  33
ENDBRANCH  31  32
ENDBRANCH  30  31
ENDBRANCH  29  30
ENDBRANCH  28  29
ENDBRANCH  27  28
ENDBRANCH   1  27
TORSDOF 26
ENDMDL
MODEL 2
REMARK VINA RESULT:      -9.3      1.906      2.484
REMARK SMILES CCn1ccc([C@@H](C)NC(=O)c2cnn(CCC(=O)OCCOCCOCCOC(=O)c3ccc(-c4c5nc(c(-c6cc(S(=O)(=O)[O-])ccc6F)c6ccc([nH]6)c(-c6cc(S(=O)(=O)[O-])ccc6F)c6nc(c(-c7cc(S(=O)(=O)[O-])ccc7F)c7ccc4[nH]7)C=C6)C=C5)cc3)c2)n1
REMARK SMILES IDX 23 1 22 2 21 3 20 4 18 5 19 6 17 7 16 8 15 9 12 10 13 11
REMARK SMILES IDX 95 12 14 13 10 14 9 15 11 17 7 18 8 19 6 20 3 21 4 22 96 23
REMARK SMILES IDX 5 24 2 25 1 26 24 27 25 28 26 29 27 30 28 31 29 32 30 33
REMARK SMILES IDX 31 34 32 35 33 36 94 37 34 38 93 39 35 40 36 41 37 42 87 43
REMARK SMILES IDX 38 44 92 45 86 46 88 47 39 48 91 49 85 50 84 51 40 53 72 54
REMARK SMILES IDX 52 55 71 56 53 57 56 58 70 59 89 60 54 61 55 62 69 64 90 65
REMARK SMILES IDX 57 66 41 67 42 68 50 69 43 70 49 71 51 72 48 73 44 74 45 75
REMARK SMILES IDX 46 76 47 77 73 78 74 79 82 80 75 81 81 82 83 83 80 84 76 85
REMARK SMILES IDX 77 86 78 87 79 88 58 89 59 90 67 91 60 92 66 93 68 94 65 95
REMARK SMILES IDX 61 96 62 97 63 98 64 99
REMARK H PARENT 9 16 88 52 56 63
REMARK Flexibility Score: inf
ROOT
ATOM      1  O   UNL A   1      40.417  20.954  26.963  1.00  0.00    -0.376 OA
ENDROOT
BRANCH   1   2
ATOM      2  C   UNL A   1      39.565  22.016  26.553  1.00  0.00     0.202 C 
BRANCH   2   3
ATOM      3  C   UNL A   1      38.610  21.715  25.389  1.00  0.00     0.261 C 
BRANCH   3   4
ATOM      4  O   UNL A   1      37.551  22.680  25.275  1.00  0.00    -0.463 OA
BRANCH   4   5
ATOM      5  C   UNL A   1      36.564  22.445  24.389  1.00  0.00     0.307 C 
ATOM      6  O   UNL A   1      36.670  22.626  23.178  1.00  0.00    -0.252 OA
BRANCH   5   7
ATOM      7  C   UNL A   1      35.311  21.809  24.962  1.00  0.00     0.146 C 
BRANCH   7   8
ATOM      8  C   UNL A   1      34.020  22.596  25.161  1.00  0.00     0.156 C 
BRANCH   8   9
ATOM      9  N   UNL A   1      33.659  23.509  24.101  1.00  0.00    -0.271 N 
ATOM     10  C   UNL A   1      33.340  25.265  22.832  1.00  0.00     0.077 A 
ATOM     11  C   UNL A   1      32.918  24.077  22.213  1.00  0.00     0.149 A 
ATOM     12  C   UNL A   1      33.934  24.844  24.007  1.00  0.00     0.122 A 
ATOM     13  N   UNL A   1      33.030  23.035  23.020  1.00  0.00    -0.181 NA
BRANCH  10  14
ATOM     14  C   UNL A   1      33.169  26.613  22.357  1.00  0.00     0.254 C 
ATOM     15  N   UNL A   1      32.041  27.281  22.767  1.00  0.00    -0.344 N 
ATOM     16  H   UNL A   1      31.847  28.126  22.301  1.00  0.00     0.164 HD
ATOM     17  O   UNL A   1      33.986  27.179  21.636  1.00  0.00    -0.269 OA
BRANCH  15  18
ATOM     18  C   UNL A   1      31.089  26.893  23.814  1.00  0.00     0.130 C 
ATOM     19  C   UNL A   1      29.670  27.269  23.409  1.00  0.00     0.038 C 
BRANCH  18  20
ATOM     20  C   UNL A   1      31.515  27.506  25.118  1.00  0.00     0.084 A 
ATOM     21  N   UNL A   1      31.992  29.042  26.504  1.00  0.00    -0.273 N 
ATOM     22  C   UNL A   1      32.131  27.882  27.210  1.00  0.00     0.109 A 
ATOM     23  N   UNL A   1      31.621  28.839  25.230  1.00  0.00    -0.176 NA
ATOM     24  C   UNL A   1      31.840  26.863  26.336  1.00  0.00     0.047 A 
BRANCH  21  25
ATOM     25  C   UNL A   1      32.137  30.397  26.999  1.00  0.00     0.141 C 
ATOM     26  C   UNL A   1      31.298  31.409  26.236  1.00  0.00     0.029 C 
ENDBRANCH  21  25
ENDBRANCH  18  20
ENDBRANCH  15  18
ENDBRANCH  10  14
ENDBRANCH   8   9
ENDBRANCH   7   8
ENDBRANCH   5   7
ENDBRANCH   4   5
ENDBRANCH   3   4
ENDBRANCH   2   3
ENDBRANCH   1   2
BRANCH   1  27
ATOM     27  C   UNL A   1      41.039  20.193  25.930  1.00  0.00     0.188 C 
BRANCH  27  28
ATOM     28  C   UNL A   1      41.667  18.862  26.343  1.00  0.00     0.188 C 
BRANCH  28  29
ATOM     29  O   UNL A   1      43.068  18.733  26.240  1.00  0.00    -0.376 OA
BRANCH  29  30
ATOM     30  C   UNL A   1      43.850  18.903  25.059  1.00  0.00     0.202 C 
BRANCH  30  31
ATOM     31  C   UNL A   1      44.882  20.009  24.835  1.00  0.00     0.261 C 
BRANCH  31  32
ATOM     32  O   UNL A   1      44.588  21.237  25.440  1.00  0.00    -0.460 OA
BRANCH  32  33
ATOM     33  C   UNL A   1      44.231  22.236  24.613  1.00  0.00     0.338 C 
ATOM     34  O   UNL A   1      44.519  22.371  23.430  1.00  0.00    -0.246 OA
BRANCH  33  35
ATOM     35  C   UNL A   1      43.437  23.163  25.425  1.00  0.00     0.060 A 
ATOM     36  C   UNL A   1      43.133  24.396  24.860  1.00  0.00     0.016 A 
ATOM     37  C   UNL A   1      43.310  22.912  26.802  1.00  0.00     0.016 A 
ATOM     38  C   UNL A   1      43.072  25.471  25.710  1.00  0.00     0.010 A 
ATOM     39  C   UNL A   1      43.310  23.984  27.641  1.00  0.00     0.010 A 
ATOM     40  C   UNL A   1      43.316  25.251  27.070  1.00  0.00    -0.014 A 
BRANCH  40  41
ATOM     41  C   UNL A   1      43.425  26.378  27.960  1.00  0.00     0.031 A 
ATOM     42  C   UNL A   1      44.691  27.084  27.704  1.00  0.00     0.074 A 
ATOM     43  C   UNL A   1      42.423  26.754  28.778  1.00  0.00     0.049 A 
ATOM     44  N   UNL A   1      45.809  26.893  28.325  1.00  0.00    -0.248 NA
ATOM     45  C   UNL A   1      44.844  27.785  26.413  1.00  0.00     0.031 C 
ATOM     46  C   UNL A   1      41.073  26.196  28.883  1.00  0.00     0.029 A 
ATOM     47  N   UNL A   1      42.381  27.791  29.654  1.00  0.00    -0.354 N 
ATOM     48  C   UNL A   1      46.683  27.771  27.706  1.00  0.00     0.074 A 
ATOM     49  C   UNL A   1      46.169  27.939  26.380  1.00  0.00     0.031 C 
ATOM     50  C   UNL A   1      40.292  27.040  29.600  1.00  0.00     0.029 A 
ATOM     51  C   UNL A   1      41.104  28.140  30.097  1.00  0.00     0.049 A 
ATOM     52  H   UNL A   1      43.192  28.264  29.954  1.00  0.00     0.167 HD
ATOM     53  C   UNL A   1      47.406  28.637  28.468  1.00  0.00     0.034 A 
ATOM     54  C   UNL A   1      40.758  29.287  30.754  1.00  0.00     0.034 A 
ATOM     55  C   UNL A   1      47.463  28.166  29.848  1.00  0.00     0.049 A 
ATOM     56  C   UNL A   1      42.011  29.813  31.363  1.00  0.00     0.074 A 
ATOM     57  C   UNL A   1      47.807  26.966  30.447  1.00  0.00     0.029 A 
ATOM     58  N   UNL A   1      46.732  28.851  30.797  1.00  0.00    -0.354 N 
ATOM     59  N   UNL A   1      42.647  29.192  32.320  1.00  0.00    -0.248 NA
ATOM     60  C   UNL A   1      42.835  30.702  30.554  1.00  0.00     0.031 C 
ATOM     61  C   UNL A   1      46.875  26.798  31.516  1.00  0.00     0.029 A 
ATOM     62  C   UNL A   1      46.083  27.944  31.597  1.00  0.00     0.049 A 
ATOM     63  H   UNL A   1      46.684  29.830  30.887  1.00  0.00     0.167 HD
ATOM     64  C   UNL A   1      43.986  29.241  31.954  1.00  0.00     0.074 A 
ATOM     65  C   UNL A   1      44.048  30.258  30.900  1.00  0.00     0.031 C 
ATOM     66  C   UNL A   1      44.848  28.238  32.304  1.00  0.00     0.034 A 
BRANCH  53  67
ATOM     67  C   UNL A   1      47.593  30.107  28.107  1.00  0.00     0.023 A 
ATOM     68  C   UNL A   1      46.416  30.867  28.054  1.00  0.00     0.031 A 
ATOM     69  C   UNL A   1      48.733  30.717  27.526  1.00  0.00     0.131 A 
ATOM     70  C   UNL A   1      46.352  32.043  27.290  1.00  0.00     0.055 A 
ATOM     71  C   UNL A   1      48.677  31.917  26.815  1.00  0.00     0.041 A 
ATOM     72  F   UNL A   1      49.960  30.189  27.552  1.00  0.00    -0.206 F 
ATOM     73  C   UNL A   1      47.471  32.566  26.653  1.00  0.00     0.022 A 
BRANCH  70  74
ATOM     74  S   UNL A   1      44.722  32.754  26.992  1.00  0.00     0.124 S 
ATOM     75  O   UNL A   1      44.032  31.619  26.386  1.00  0.00    -0.237 OA
ATOM     76  O   UNL A   1      44.305  33.117  28.342  1.00  0.00    -0.237 OA
ATOM     77  O   UNL A   1      45.003  33.874  26.100  1.00  0.00    -0.744 OA
ENDBRANCH  70  74
ENDBRANCH  53  67
BRANCH  54  78
ATOM     78  C   UNL A   1      39.522  30.119  30.579  1.00  0.00     0.023 A 
ATOM     79  C   UNL A   1      38.932  30.875  31.625  1.00  0.00     0.031 A 
ATOM     80  C   UNL A   1      39.039  30.382  29.277  1.00  0.00     0.131 A 
ATOM     81  C   UNL A   1      37.921  31.833  31.341  1.00  0.00     0.055 A 
ATOM     82  C   UNL A   1      38.047  31.328  29.005  1.00  0.00     0.041 A 
ATOM     83  F   UNL A   1      39.578  29.790  28.200  1.00  0.00    -0.206 F 
ATOM     84  C   UNL A   1      37.492  32.066  30.034  1.00  0.00     0.022 A 
BRANCH  81  85
ATOM     85  S   UNL A   1      37.190  32.868  32.660  1.00  0.00     0.124 S 
ATOM     86  O   UNL A   1      36.480  31.887  33.472  1.00  0.00    -0.237 OA
ATOM     87  O   UNL A   1      38.362  33.488  33.265  1.00  0.00    -0.237 OA
ATOM     88  O   UNL A   1      36.324  33.795  31.927  1.00  0.00    -0.744 OA
ENDBRANCH  81  85
ENDBRANCH  54  78
BRANCH  66  89
ATOM     89  C   UNL A   1      44.422  27.268  33.391  1.00  0.00     0.023 A 
ATOM     90  C   UNL A   1      44.417  27.531  34.781  1.00  0.00     0.031 A 
ATOM     91  C   UNL A   1      43.917  26.025  32.965  1.00  0.00     0.131 A 
ATOM     92  C   UNL A   1      43.940  26.555  35.683  1.00  0.00     0.055 A 
ATOM     93  C   UNL A   1      43.424  25.074  33.856  1.00  0.00     0.041 A 
ATOM     94  F   UNL A   1      43.870  25.722  31.657  1.00  0.00    -0.206 F 
ATOM     95  C   UNL A   1      43.444  25.331  35.220  1.00  0.00     0.022 A 
BRANCH  92  96
ATOM     96  S   UNL A   1      43.993  26.832  37.484  1.00  0.00     0.124 S 
ATOM     97  O   UNL A   1      42.663  26.436  37.931  1.00  0.00    -0.237 OA
ATOM     98  O   UNL A   1      45.092  25.965  37.902  1.00  0.00    -0.237 OA
ATOM     99  O   UNL A   1      44.273  28.265  37.599  1.00  0.00    -0.744 OA
ENDBRANCH  92  96
ENDBRANCH  66  89
ENDBRANCH  40  41
ENDBRANCH  33  35
ENDBRANCH  32  33
ENDBRANCH  31  32
ENDBRANCH  30  31
ENDBRANCH  29  30
ENDBRANCH  28  29
ENDBRANCH  27  28
ENDBRANCH   1  27
TORSDOF 26
ENDMDL
MODEL 3
REMARK VINA RESULT:      -9.0      1.914      2.197
REMARK SMILES CCn1ccc([C@@H](C)NC(=O)c2cnn(CCC(=O)OCCOCCOCCOC(=O)c3ccc(-c4c5nc(c(-c6cc(S(=O)(=O)[O-])ccc6F)c6ccc([nH]6)c(-c6cc(S(=O)(=O)[O-])ccc6F)c6nc(c(-c7cc(S(=O)(=O)[O-])ccc7F)c7ccc4[nH]7)C=C6)C=C5)cc3)c2)n1
REMARK SMILES IDX 23 1 22 2 21 3 20 4 18 5 19 6 17 7 16 8 15 9 12 10 13 11
REMARK SMILES IDX 95 12 14 13 10 14 9 15 11 17 7 18 8 19 6 20 3 21 4 22 96 23
REMARK SMILES IDX 5 24 2 25 1 26 24 27 25 28 26 29 27 30 28 31 29 32 30 33
REMARK SMILES IDX 31 34 32 35 33 36 94 37 34 38 93 39 35 40 36 41 37 42 87 43
REMARK SMILES IDX 38 44 92 45 86 46 88 47 39 48 91 49 85 50 84 51 40 53 72 54
REMARK SMILES IDX 52 55 71 56 53 57 56 58 70 59 89 60 54 61 55 62 69 64 90 65
REMARK SMILES IDX 57 66 41 67 42 68 50 69 43 70 49 71 51 72 48 73 44 74 45 75
REMARK SMILES IDX 46 76 47 77 73 78 74 79 82 80 75 81 81 82 83 83 80 84 76 85
REMARK SMILES IDX 77 86 78 87 79 88 58 89 59 90 67 91 60 92 66 93 68 94 65 95
REMARK SMILES IDX 61 96 62 97 63 98 64 99
REMARK H PARENT 9 16 88 52 56 63
REMARK Flexibility Score: inf
ROOT
ATOM      1  O   UNL A   1      41.675  21.140  26.989  1.00  0.00    -0.376 OA
ENDROOT
BRANCH   1   2
ATOM      2  C   UNL A   1      40.385  21.670  27.267  1.00  0.00     0.202 C 
BRANCH   2   3
ATOM      3  C   UNL A   1      39.358  21.598  26.128  1.00  0.00     0.261 C 
BRANCH   3   4
ATOM      4  O   UNL A   1      38.466  22.725  26.111  1.00  0.00    -0.463 OA
BRANCH   4   5
ATOM      5  C   UNL A   1      37.478  22.745  25.195  1.00  0.00     0.307 C 
ATOM      6  O   UNL A   1      37.238  23.703  24.464  1.00  0.00    -0.252 OA
BRANCH   5   7
ATOM      7  C   UNL A   1      36.727  21.439  25.019  1.00  0.00     0.146 C 
BRANCH   7   8
ATOM      8  C   UNL A   1      35.511  21.082  25.867  1.00  0.00     0.156 C 
BRANCH   8   9
ATOM      9  N   UNL A   1      34.358  21.940  25.723  1.00  0.00    -0.271 N 
ATOM     10  C   UNL A   1      32.747  23.396  26.016  1.00  0.00     0.077 A 
ATOM     11  C   UNL A   1      32.733  22.838  24.728  1.00  0.00     0.149 A 
ATOM     12  C   UNL A   1      33.894  22.884  26.595  1.00  0.00     0.122 A 
ATOM     13  N   UNL A   1      33.650  21.895  24.589  1.00  0.00    -0.181 NA
BRANCH  10  14
ATOM     14  C   UNL A   1      31.775  24.280  26.603  1.00  0.00     0.254 C 
ATOM     15  N   UNL A   1      31.947  25.626  26.390  1.00  0.00    -0.344 N 
ATOM     16  H   UNL A   1      31.386  26.224  26.936  1.00  0.00     0.164 HD
ATOM     17  O   UNL A   1      30.811  23.882  27.252  1.00  0.00    -0.269 OA
BRANCH  15  18
ATOM     18  C   UNL A   1      32.859  26.284  25.449  1.00  0.00     0.130 C 
ATOM     19  C   UNL A   1      33.601  27.423  26.137  1.00  0.00     0.038 C 
BRANCH  18  20
ATOM     20  C   UNL A   1      32.086  26.727  24.240  1.00  0.00     0.084 A 
ATOM     21  N   UNL A   1      31.072  28.061  22.937  1.00  0.00    -0.273 N 
ATOM     22  C   UNL A   1      31.024  26.853  22.302  1.00  0.00     0.109 A 
ATOM     23  N   UNL A   1      31.709  28.009  24.117  1.00  0.00    -0.176 NA
ATOM     24  C   UNL A   1      31.663  25.961  23.128  1.00  0.00     0.047 A 
BRANCH  21  25
ATOM     25  C   UNL A   1      30.581  29.335  22.445  1.00  0.00     0.141 C 
ATOM     26  C   UNL A   1      29.068  29.462  22.511  1.00  0.00     0.029 C 
ENDBRANCH  21  25
ENDBRANCH  18  20
ENDBRANCH  15  18
ENDBRANCH  10  14
ENDBRANCH   8   9
ENDBRANCH   7   8
ENDBRANCH   5   7
ENDBRANCH   4   5
ENDBRANCH   3   4
ENDBRANCH   2   3
ENDBRANCH   1   2
BRANCH   1  27
ATOM     27  C   UNL A   1      41.740  20.065  26.055  1.00  0.00     0.188 C 
BRANCH  27  28
ATOM     28  C   UNL A   1      42.286  18.736  26.577  1.00  0.00     0.188 C 
BRANCH  28  29
ATOM     29  O   UNL A   1      43.596  18.367  26.204  1.00  0.00    -0.376 OA
BRANCH  29  30
ATOM     30  C   UNL A   1      44.179  18.509  24.910  1.00  0.00     0.202 C 
BRANCH  30  31
ATOM     31  C   UNL A   1      45.133  19.628  24.489  1.00  0.00     0.261 C 
BRANCH  31  32
ATOM     32  O   UNL A   1      44.902  20.872  25.091  1.00  0.00    -0.460 OA
BRANCH  32  33
ATOM     33  C   UNL A   1      44.914  21.939  24.271  1.00  0.00     0.338 C 
ATOM     34  O   UNL A   1      44.461  22.018  23.135  1.00  0.00    -0.246 OA
BRANCH  33  35
ATOM     35  C   UNL A   1      45.612  22.999  25.004  1.00  0.00     0.060 A 
ATOM     36  C   UNL A   1      45.967  22.726  26.321  1.00  0.00     0.016 A 
ATOM     37  C   UNL A   1      45.594  24.303  24.483  1.00  0.00     0.016 A 
ATOM     38  C   UNL A   1      45.930  23.776  27.204  1.00  0.00     0.010 A 
ATOM     39  C   UNL A   1      45.497  25.335  25.366  1.00  0.00     0.010 A 
ATOM     40  C   UNL A   1      45.545  25.031  26.722  1.00  0.00    -0.014 A 
BRANCH  40  41
ATOM     41  C   UNL A   1      45.335  26.111  27.651  1.00  0.00     0.031 A 
ATOM     42  C   UNL A   1      46.407  27.107  27.496  1.00  0.00     0.074 A 
ATOM     43  C   UNL A   1      44.231  26.202  28.418  1.00  0.00     0.049 A 
ATOM     44  N   UNL A   1      47.505  27.157  28.179  1.00  0.00    -0.248 NA
ATOM     45  C   UNL A   1      46.456  27.882  26.240  1.00  0.00     0.031 C 
ATOM     46  C   UNL A   1      43.050  25.336  28.422  1.00  0.00     0.029 A 
ATOM     47  N   UNL A   1      43.897  27.159  29.321  1.00  0.00    -0.354 N 
ATOM     48  C   UNL A   1      48.175  28.245  27.642  1.00  0.00     0.074 A 
ATOM     49  C   UNL A   1      47.706  28.346  26.293  1.00  0.00     0.031 C 
ATOM     50  C   UNL A   1      42.053  25.938  29.116  1.00  0.00     0.029 A 
ATOM     51  C   UNL A   1      42.552  27.176  29.696  1.00  0.00     0.049 A 
ATOM     52  H   UNL A   1      44.554  27.796  29.686  1.00  0.00     0.167 HD
ATOM     53  C   UNL A   1      48.630  29.222  28.474  1.00  0.00     0.034 A 
ATOM     54  C   UNL A   1      41.909  28.178  30.367  1.00  0.00     0.034 A 
ATOM     55  C   UNL A   1      48.726  28.715  29.839  1.00  0.00     0.049 A 
ATOM     56  C   UNL A   1      42.967  28.957  31.067  1.00  0.00     0.074 A 
ATOM     57  C   UNL A   1      49.314  27.605  30.421  1.00  0.00     0.029 A 
ATOM     58  N   UNL A   1      47.803  29.164  30.763  1.00  0.00    -0.354 N 
ATOM     59  N   UNL A   1      43.682  28.461  32.041  1.00  0.00    -0.248 NA
ATOM     60  C   UNL A   1      43.596  30.050  30.339  1.00  0.00     0.031 C 
ATOM     61  C   UNL A   1      48.395  27.173  31.424  1.00  0.00     0.029 A 
ATOM     62  C   UNL A   1      47.349  28.095  31.493  1.00  0.00     0.049 A 
ATOM     63  H   UNL A   1      47.519  30.099  30.880  1.00  0.00     0.167 HD
ATOM     64  C   UNL A   1      44.987  28.842  31.760  1.00  0.00     0.074 A 
ATOM     65  C   UNL A   1      44.860  29.891  30.745  1.00  0.00     0.031 C 
ATOM     66  C   UNL A   1      46.044  28.056  32.131  1.00  0.00     0.034 A 
BRANCH  53  67
ATOM     67  C   UNL A   1      48.479  30.708  28.171  1.00  0.00     0.023 A 
ATOM     68  C   UNL A   1      49.642  31.475  28.331  1.00  0.00     0.031 A 
ATOM     69  C   UNL A   1      47.277  31.451  28.056  1.00  0.00     0.131 A 
ATOM     70  C   UNL A   1      49.566  32.856  28.571  1.00  0.00     0.055 A 
ATOM     71  C   UNL A   1      47.213  32.833  28.238  1.00  0.00     0.041 A 
ATOM     72  F   UNL A   1      46.081  30.906  27.814  1.00  0.00    -0.206 F 
ATOM     73  C   UNL A   1      48.357  33.541  28.544  1.00  0.00     0.022 A 
BRANCH  70  74
ATOM     74  S   UNL A   1      51.070  33.690  29.116  1.00  0.00     0.124 S 
ATOM     75  O   UNL A   1      50.510  34.773  29.918  1.00  0.00    -0.237 OA
ATOM     76  O   UNL A   1      51.748  32.626  29.851  1.00  0.00    -0.237 OA
ATOM     77  O   UNL A   1      51.705  34.089  27.864  1.00  0.00    -0.744 OA
ENDBRANCH  70  74
ENDBRANCH  53  67
BRANCH  54  78
ATOM     78  C   UNL A   1      40.521  28.700  30.142  1.00  0.00     0.023 A 
ATOM     79  C   UNL A   1      39.563  28.849  31.178  1.00  0.00     0.031 A 
ATOM     80  C   UNL A   1      40.199  29.311  28.909  1.00  0.00     0.131 A 
ATOM     81  C   UNL A   1      38.364  29.579  30.953  1.00  0.00     0.055 A 
ATOM     82  C   UNL A   1      39.019  30.030  28.695  1.00  0.00     0.041 A 
ATOM     83  F   UNL A   1      41.062  29.309  27.881  1.00  0.00    -0.206 F 
ATOM     84  C   UNL A   1      38.102  30.177  29.720  1.00  0.00     0.022 A 
BRANCH  81  85
ATOM     85  S   UNL A   1      37.142  29.843  32.288  1.00  0.00     0.124 S 
ATOM     86  O   UNL A   1      37.695  30.992  32.996  1.00  0.00    -0.237 OA
ATOM     87  O   UNL A   1      35.906  30.067  31.549  1.00  0.00    -0.237 OA
ATOM     88  O   UNL A   1      37.180  28.587  33.041  1.00  0.00    -0.744 OA
ENDBRANCH  81  85
ENDBRANCH  54  78
BRANCH  66  89
ATOM     89  C   UNL A   1      45.806  26.964  33.159  1.00  0.00     0.023 A 
ATOM     90  C   UNL A   1      45.210  25.706  32.908  1.00  0.00     0.031 A 
ATOM     91  C   UNL A   1      46.293  27.203  34.457  1.00  0.00     0.131 A 
ATOM     92  C   UNL A   1      45.101  24.757  33.947  1.00  0.00     0.055 A 
ATOM     93  C   UNL A   1      46.206  26.255  35.474  1.00  0.00     0.041 A 
ATOM     94  F   UNL A   1      46.893  28.368  34.756  1.00  0.00    -0.206 F 
ATOM     95  C   UNL A   1      45.599  25.031  35.226  1.00  0.00     0.022 A 
BRANCH  92  96
ATOM     96  S   UNL A   1      44.268  23.158  33.677  1.00  0.00     0.124 S 
ATOM     97  O   UNL A   1      43.956  23.170  32.253  1.00  0.00    -0.237 OA
ATOM     98  O   UNL A   1      45.287  22.199  34.100  1.00  0.00    -0.237 OA
ATOM     99  O   UNL A   1      43.101  23.230  34.558  1.00  0.00    -0.744 OA
ENDBRANCH  92  96
ENDBRANCH  66  89
ENDBRANCH  40  41
ENDBRANCH  33  35
ENDBRANCH  32  33
ENDBRANCH  31  32
ENDBRANCH  30  31
ENDBRANCH  29  30
ENDBRANCH  28  29
ENDBRANCH  27  28
ENDBRANCH   1  27
TORSDOF 26
ENDMDL
