MODEL 1
REMARK VINA RESULT:     -10.5      0.000      0.000
REMARK SMILES Cc1ccc(S(=O)(=O)Nc2ccc(C(=O)CCC(=O)OCCOCCOCCOC(=O)c3ccc(-c4c5nc(c(-c6cc(S(=O)(=O)[O-])ccc6F)c6ccc([nH]6)c(-c6cc(S(=O)(=O)[O-])ccc6F)c6nc(c(-c7cc(S(=O)(=O)[O-])ccc7F)c7ccc4[nH]7)C=C6)C=C5)cc3)cc2)c(C)c1
REMARK SMILES IDX 23 1 22 2 21 3 20 4 18 5 19 6 17 7 16 8 14 9 15 10 13 11
REMARK SMILES IDX 10 12 11 13 96 14 12 15 95 16 9 17 6 19 7 20 8 21 5 22 1 23
REMARK SMILES IDX 2 24 3 25 99 26 4 27 97 28 98 29 24 30 25 31 26 32 27 33
REMARK SMILES IDX 28 34 29 35 30 36 31 37 32 38 33 39 94 40 34 41 93 42 35 43
REMARK SMILES IDX 36 44 37 45 87 46 38 47 92 48 86 49 88 50 39 51 91 52 85 53
REMARK SMILES IDX 84 54 40 56 72 57 52 58 71 59 53 60 56 61 70 62 89 63 54 64
REMARK SMILES IDX 55 65 69 67 90 68 57 69 41 70 42 71 50 72 43 73 49 74 51 75
REMARK SMILES IDX 48 76 44 77 45 78 46 79 47 80 73 81 74 82 82 83 75 84 81 85
REMARK SMILES IDX 83 86 80 87 76 88 77 89 78 90 79 91 58 92 59 93 67 94 60 95
REMARK SMILES IDX 66 96 68 97 65 98 61 99 62 100 63 101 64 102
REMARK H PARENT 9 18 88 55 56 66
REMARK Flexibility Score: inf
ROOT
ATOM      1  O   UNL A   1      32.973  21.669  27.151  1.00  0.00    -0.376 OA
ENDROOT
BRANCH   1   2
ATOM      2  C   UNL A   1      32.551  23.003  26.911  1.00  0.00     0.202 C 
BRANCH   2   3
ATOM      3  C   UNL A   1      31.369  23.073  25.950  1.00  0.00     0.261 C 
BRANCH   3   4
ATOM      4  O   UNL A   1      31.397  22.046  24.956  1.00  0.00    -0.463 OA
BRANCH   4   5
ATOM      5  C   UNL A   1      32.212  22.229  23.895  1.00  0.00     0.306 C 
ATOM      6  O   UNL A   1      32.991  21.396  23.453  1.00  0.00    -0.252 OA
BRANCH   5   7
ATOM      7  C   UNL A   1      32.040  23.608  23.301  1.00  0.00     0.131 C 
BRANCH   7   8
ATOM      8  C   UNL A   1      32.923  23.933  22.090  1.00  0.00     0.093 C 
BRANCH   8   9
ATOM      9  C   UNL A   1      32.893  25.416  21.707  1.00  0.00     0.163 C 
ATOM     10  O   UNL A   1      33.041  25.755  20.530  1.00  0.00    -0.294 OA
BRANCH   9  11
ATOM     11  C   UNL A   1      32.791  26.494  22.749  1.00  0.00     0.018 A 
ATOM     12  C   UNL A   1      32.397  28.879  24.223  1.00  0.00     0.049 A 
ATOM     13  C   UNL A   1      31.389  27.912  24.139  1.00  0.00     0.027 A 
ATOM     14  C   UNL A   1      33.657  28.532  23.776  1.00  0.00     0.027 A 
ATOM     15  C   UNL A   1      31.578  26.732  23.397  1.00  0.00     0.014 A 
ATOM     16  C   UNL A   1      33.845  27.343  23.052  1.00  0.00     0.014 A 
BRANCH  12  17
ATOM     17  N   UNL A   1      32.066  30.134  24.814  1.00  0.00    -0.280 N 
ATOM     18  H   UNL A   1      31.886  30.877  24.195  1.00  0.00     0.180 HD
BRANCH  17  19
ATOM     19  S   UNL A   1      31.951  30.480  26.462  1.00  0.00     0.262 S 
ATOM     20  O   UNL A   1      31.127  29.456  27.073  1.00  0.00    -0.201 OA
ATOM     21  O   UNL A   1      31.553  31.872  26.513  1.00  0.00    -0.201 OA
BRANCH  19  22
ATOM     22  C   UNL A   1      33.568  30.398  27.239  1.00  0.00     0.090 A 
ATOM     23  C   UNL A   1      37.850  30.339  27.693  1.00  0.00     0.044 C 
ATOM     24  C   UNL A   1      36.344  30.337  27.714  1.00  0.00    -0.051 A 
ATOM     25  C   UNL A   1      35.613  31.513  27.921  1.00  0.00     0.005 A 
ATOM     26  C   UNL A   1      35.644  29.154  27.481  1.00  0.00     0.008 A 
ATOM     27  C   UNL A   1      34.231  31.554  27.656  1.00  0.00     0.023 A 
ATOM     28  C   UNL A   1      34.252  29.161  27.268  1.00  0.00    -0.030 A 
ATOM     29  C   UNL A   1      33.570  27.821  27.201  1.00  0.00     0.046 C 
ENDBRANCH  19  22
ENDBRANCH  17  19
ENDBRANCH  12  17
ENDBRANCH   9  11
ENDBRANCH   8   9
ENDBRANCH   7   8
ENDBRANCH   5   7
ENDBRANCH   4   5
ENDBRANCH   3   4
ENDBRANCH   2   3
ENDBRANCH   1   2
BRANCH   1  30
ATOM     30  C   UNL A   1      34.378  21.485  27.058  1.00  0.00     0.188 C 
BRANCH  30  31
ATOM     31  C   UNL A   1      35.068  22.537  26.201  1.00  0.00     0.188 C 
BRANCH  31  32
ATOM     32  O   UNL A   1      35.751  22.135  25.021  1.00  0.00    -0.376 OA
BRANCH  32  33
ATOM     33  C   UNL A   1      36.128  20.752  24.978  1.00  0.00     0.202 C 
BRANCH  33  34
ATOM     34  C   UNL A   1      37.625  20.377  24.975  1.00  0.00     0.261 C 
BRANCH  34  35
ATOM     35  O   UNL A   1      38.489  21.479  25.278  1.00  0.00    -0.460 OA
BRANCH  35  36
ATOM     36  C   UNL A   1      39.535  21.181  26.101  1.00  0.00     0.338 C 
ATOM     37  O   UNL A   1      40.192  20.162  26.088  1.00  0.00    -0.246 OA
BRANCH  36  38
ATOM     38  C   UNL A   1      39.965  22.442  26.776  1.00  0.00     0.060 A 
ATOM     39  C   UNL A   1      39.155  23.580  26.593  1.00  0.00     0.016 A 
ATOM     40  C   UNL A   1      41.007  22.466  27.708  1.00  0.00     0.016 A 
ATOM     41  C   UNL A   1      39.401  24.744  27.313  1.00  0.00     0.010 A 
ATOM     42  C   UNL A   1      41.286  23.648  28.396  1.00  0.00     0.010 A 
ATOM     43  C   UNL A   1      40.517  24.800  28.156  1.00  0.00    -0.014 A 
BRANCH  43  44
ATOM     44  C   UNL A   1      41.113  26.128  28.421  1.00  0.00     0.031 A 
ATOM     45  C   UNL A   1      42.501  26.341  27.880  1.00  0.00     0.074 A 
ATOM     46  C   UNL A   1      40.457  27.104  29.067  1.00  0.00     0.049 A 
ATOM     47  N   UNL A   1      43.301  27.364  27.999  1.00  0.00    -0.248 NA
ATOM     48  C   UNL A   1      43.066  25.223  27.103  1.00  0.00     0.031 C 
ATOM     49  C   UNL A   1      39.092  27.016  29.581  1.00  0.00     0.029 A 
ATOM     50  N   UNL A   1      40.869  28.365  29.408  1.00  0.00    -0.354 N 
ATOM     51  C   UNL A   1      44.459  27.011  27.312  1.00  0.00     0.074 A 
ATOM     52  C   UNL A   1      44.281  25.660  26.837  1.00  0.00     0.031 C 
ATOM     53  C   UNL A   1      38.788  28.174  30.197  1.00  0.00     0.029 A 
ATOM     54  C   UNL A   1      39.948  29.065  30.150  1.00  0.00     0.049 A 
ATOM     55  H   UNL A   1      41.743  28.737  29.146  1.00  0.00     0.167 HD
ATOM     56  C   UNL A   1      45.567  27.754  27.084  1.00  0.00     0.034 A 
ATOM     57  C   UNL A   1      40.054  30.269  30.746  1.00  0.00     0.034 A 
ATOM     58  C   UNL A   1      45.734  29.082  27.609  1.00  0.00     0.049 A 
ATOM     59  C   UNL A   1      41.338  31.049  30.575  1.00  0.00     0.074 A 
ATOM     60  C   UNL A   1      46.815  29.934  27.479  1.00  0.00     0.029 A 
ATOM     61  N   UNL A   1      44.792  29.746  28.389  1.00  0.00    -0.354 N 
ATOM     62  N   UNL A   1      42.432  30.712  29.927  1.00  0.00    -0.248 NA
ATOM     63  C   UNL A   1      41.395  32.374  31.202  1.00  0.00     0.031 C 
ATOM     64  C   UNL A   1      46.559  31.076  28.246  1.00  0.00     0.029 A 
ATOM     65  C   UNL A   1      45.279  30.984  28.773  1.00  0.00     0.049 A 
ATOM     66  H   UNL A   1      43.908  29.388  28.632  1.00  0.00     0.167 HD
ATOM     67  C   UNL A   1      43.296  31.800  30.043  1.00  0.00     0.074 A 
ATOM     68  C   UNL A   1      42.587  32.804  30.813  1.00  0.00     0.031 C 
ATOM     69  C   UNL A   1      44.554  31.962  29.554  1.00  0.00     0.034 A 
BRANCH  56  70
ATOM     70  C   UNL A   1      46.679  27.094  26.302  1.00  0.00     0.023 A 
ATOM     71  C   UNL A   1      47.744  26.434  26.945  1.00  0.00     0.031 A 
ATOM     72  C   UNL A   1      46.735  27.220  24.904  1.00  0.00     0.131 A 
ATOM     73  C   UNL A   1      48.864  26.025  26.204  1.00  0.00     0.055 A 
ATOM     74  C   UNL A   1      47.806  26.717  24.162  1.00  0.00     0.041 A 
ATOM     75  F   UNL A   1      45.770  27.871  24.235  1.00  0.00    -0.206 F 
ATOM     76  C   UNL A   1      48.889  26.135  24.814  1.00  0.00     0.022 A 
BRANCH  73  77
ATOM     77  S   UNL A   1      50.366  25.543  27.105  1.00  0.00     0.124 S 
ATOM     78  O   UNL A   1      49.948  24.283  27.717  1.00  0.00    -0.237 OA
ATOM     79  O   UNL A   1      51.354  25.439  26.038  1.00  0.00    -0.237 OA
ATOM     80  O   UNL A   1      50.570  26.644  28.044  1.00  0.00    -0.744 OA
ENDBRANCH  73  77
ENDBRANCH  56  70
BRANCH  57  81
ATOM     81  C   UNL A   1      38.940  30.785  31.595  1.00  0.00     0.023 A 
ATOM     82  C   UNL A   1      38.023  31.734  31.115  1.00  0.00     0.031 A 
ATOM     83  C   UNL A   1      38.794  30.343  32.923  1.00  0.00     0.131 A 
ATOM     84  C   UNL A   1      37.019  32.229  31.964  1.00  0.00     0.055 A 
ATOM     85  C   UNL A   1      37.764  30.800  33.747  1.00  0.00     0.041 A 
ATOM     86  F   UNL A   1      39.647  29.442  33.437  1.00  0.00    -0.206 F 
ATOM     87  C   UNL A   1      36.873  31.755  33.270  1.00  0.00     0.022 A 
BRANCH  84  88
ATOM     88  S   UNL A   1      35.938  33.555  31.359  1.00  0.00     0.124 S 
ATOM     89  O   UNL A   1      36.563  33.890  30.084  1.00  0.00    -0.237 OA
ATOM     90  O   UNL A   1      34.646  32.883  31.284  1.00  0.00    -0.237 OA
ATOM     91  O   UNL A   1      36.046  34.581  32.395  1.00  0.00    -0.744 OA
ENDBRANCH  84  88
ENDBRANCH  57  81
BRANCH  69  92
ATOM     92  C   UNL A   1      45.220  33.297  29.793  1.00  0.00     0.023 A 
ATOM     93  C   UNL A   1      45.092  34.366  28.891  1.00  0.00     0.031 A 
ATOM     94  C   UNL A   1      45.995  33.498  30.951  1.00  0.00     0.131 A 
ATOM     95  C   UNL A   1      45.785  35.563  29.126  1.00  0.00     0.055 A 
ATOM     96  C   UNL A   1      46.619  34.717  31.217  1.00  0.00     0.041 A 
ATOM     97  F   UNL A   1      46.154  32.512  31.848  1.00  0.00    -0.206 F 
ATOM     98  C   UNL A   1      46.530  35.753  30.293  1.00  0.00     0.022 A 
BRANCH  95  99
ATOM     99  S   UNL A   1      45.798  36.829  27.826  1.00  0.00     0.124 S 
ATOM    100  O   UNL A   1      46.590  37.887  28.444  1.00  0.00    -0.237 OA
ATOM    101  O   UNL A   1      46.429  36.127  26.713  1.00  0.00    -0.237 OA
ATOM    102  O   UNL A   1      44.382  37.142  27.640  1.00  0.00    -0.744 OA
ENDBRANCH  95  99
ENDBRANCH  69  92
ENDBRANCH  43  44
ENDBRANCH  36  38
ENDBRANCH  35  36
ENDBRANCH  34  35
ENDBRANCH  33  34
ENDBRANCH  32  33
ENDBRANCH  31  32
ENDBRANCH  30  31
ENDBRANCH   1  30
TORSDOF 26
ENDMDL
MODEL 2
REMARK VINA RESULT:     -10.1      1.339      2.392
REMARK SMILES Cc1ccc(S(=O)(=O)Nc2ccc(C(=O)CCC(=O)OCCOCCOCCOC(=O)c3ccc(-c4c5nc(c(-c6cc(S(=O)(=O)[O-])ccc6F)c6ccc([nH]6)c(-c6cc(S(=O)(=O)[O-])ccc6F)c6nc(c(-c7cc(S(=O)(=O)[O-])ccc7F)c7ccc4[nH]7)C=C6)C=C5)cc3)cc2)c(C)c1
REMARK SMILES IDX 23 1 22 2 21 3 20 4 18 5 19 6 17 7 16 8 14 9 15 10 13 11
REMARK SMILES IDX 10 12 11 13 96 14 12 15 95 16 9 17 6 19 7 20 8 21 5 22 1 23
REMARK SMILES IDX 2 24 3 25 99 26 4 27 97 28 98 29 24 30 25 31 26 32 27 33
REMARK SMILES IDX 28 34 29 35 30 36 31 37 32 38 33 39 94 40 34 41 93 42 35 43
REMARK SMILES IDX 36 44 37 45 87 46 38 47 92 48 86 49 88 50 39 51 91 52 85 53
REMARK SMILES IDX 84 54 40 56 72 57 52 58 71 59 53 60 56 61 70 62 89 63 54 64
REMARK SMILES IDX 55 65 69 67 90 68 57 69 41 70 42 71 50 72 43 73 49 74 51 75
REMARK SMILES IDX 48 76 44 77 45 78 46 79 47 80 73 81 74 82 82 83 75 84 81 85
REMARK SMILES IDX 83 86 80 87 76 88 77 89 78 90 79 91 58 92 59 93 67 94 60 95
REMARK SMILES IDX 66 96 68 97 65 98 61 99 62 100 63 101 64 102
REMARK H PARENT 9 18 88 55 56 66
REMARK Flexibility Score: inf
ROOT
ATOM      1  O   UNL A   1      33.408  21.880  27.527  1.00  0.00    -0.376 OA
ENDROOT
BRANCH   1   2
ATOM      2  C   UNL A   1      32.775  23.027  26.982  1.00  0.00     0.202 C 
BRANCH   2   3
ATOM      3  C   UNL A   1      31.496  22.679  26.227  1.00  0.00     0.261 C 
BRANCH   3   4
ATOM      4  O   UNL A   1      31.377  21.281  25.949  1.00  0.00    -0.463 OA
BRANCH   4   5
ATOM      5  C   UNL A   1      31.992  20.812  24.843  1.00  0.00     0.306 C 
ATOM      6  O   UNL A   1      32.634  19.773  24.780  1.00  0.00    -0.252 OA
BRANCH   5   7
ATOM      7  C   UNL A   1      31.783  21.735  23.664  1.00  0.00     0.131 C 
BRANCH   7   8
ATOM      8  C   UNL A   1      32.893  21.738  22.606  1.00  0.00     0.093 C 
BRANCH   8   9
ATOM      9  C   UNL A   1      33.091  23.106  21.948  1.00  0.00     0.163 C 
ATOM     10  O   UNL A   1      33.525  23.182  20.796  1.00  0.00    -0.294 OA
BRANCH   9  11
ATOM     11  C   UNL A   1      32.869  24.383  22.709  1.00  0.00     0.018 A 
ATOM     12  C   UNL A   1      32.301  26.394  24.619  1.00  0.00     0.049 A 
ATOM     13  C   UNL A   1      33.607  25.926  24.435  1.00  0.00     0.027 A 
ATOM     14  C   UNL A   1      31.351  26.026  23.685  1.00  0.00     0.027 A 
ATOM     15  C   UNL A   1      33.890  24.918  23.495  1.00  0.00     0.014 A 
ATOM     16  C   UNL A   1      31.644  25.033  22.736  1.00  0.00     0.014 A 
BRANCH  12  17
ATOM     17  N   UNL A   1      32.054  27.261  25.723  1.00  0.00    -0.280 N 
ATOM     18  H   UNL A   1      31.742  26.836  26.554  1.00  0.00     0.180 HD
BRANCH  17  19
ATOM     19  S   UNL A   1      32.242  28.938  25.758  1.00  0.00     0.262 S 
ATOM     20  O   UNL A   1      33.641  29.232  25.521  1.00  0.00    -0.201 OA
ATOM     21  O   UNL A   1      31.603  29.349  26.992  1.00  0.00    -0.201 OA
BRANCH  19  22
ATOM     22  C   UNL A   1      31.303  29.706  24.435  1.00  0.00     0.090 A 
ATOM     23  C   UNL A   1      28.371  30.243  21.326  1.00  0.00     0.044 C 
ATOM     24  C   UNL A   1      29.456  30.222  22.371  1.00  0.00    -0.051 A 
ATOM     25  C   UNL A   1      29.241  30.725  23.659  1.00  0.00     0.005 A 
ATOM     26  C   UNL A   1      30.695  29.652  22.080  1.00  0.00     0.008 A 
ATOM     27  C   UNL A   1      30.147  30.444  24.700  1.00  0.00     0.023 A 
ATOM     28  C   UNL A   1      31.642  29.411  23.094  1.00  0.00    -0.030 A 
ATOM     29  C   UNL A   1      33.007  28.958  22.651  1.00  0.00     0.046 C 
ENDBRANCH  19  22
ENDBRANCH  17  19
ENDBRANCH  12  17
ENDBRANCH   9  11
ENDBRANCH   8   9
ENDBRANCH   7   8
ENDBRANCH   5   7
ENDBRANCH   4   5
ENDBRANCH   3   4
ENDBRANCH   2   3
ENDBRANCH   1   2
BRANCH   1  30
ATOM     30  C   UNL A   1      34.761  21.724  27.124  1.00  0.00     0.188 C 
BRANCH  30  31
ATOM     31  C   UNL A   1      35.122  22.548  25.895  1.00  0.00     0.188 C 
BRANCH  31  32
ATOM     32  O   UNL A   1      35.737  21.908  24.785  1.00  0.00    -0.376 OA
BRANCH  32  33
ATOM     33  C   UNL A   1      36.142  20.551  25.012  1.00  0.00     0.202 C 
BRANCH  33  34
ATOM     34  C   UNL A   1      37.644  20.202  25.015  1.00  0.00     0.261 C 
BRANCH  34  35
ATOM     35  O   UNL A   1      38.491  21.329  25.269  1.00  0.00    -0.460 OA
BRANCH  35  36
ATOM     36  C   UNL A   1      39.530  21.088  26.120  1.00  0.00     0.338 C 
ATOM     37  O   UNL A   1      40.203  20.080  26.166  1.00  0.00    -0.246 OA
BRANCH  36  38
ATOM     38  C   UNL A   1      39.932  22.387  26.737  1.00  0.00     0.060 A 
ATOM     39  C   UNL A   1      39.123  23.508  26.466  1.00  0.00     0.016 A 
ATOM     40  C   UNL A   1      40.944  22.470  27.699  1.00  0.00     0.016 A 
ATOM     41  C   UNL A   1      39.340  24.712  27.128  1.00  0.00     0.010 A 
ATOM     42  C   UNL A   1      41.195  23.689  28.329  1.00  0.00     0.010 A 
ATOM     43  C   UNL A   1      40.427  24.822  28.002  1.00  0.00    -0.014 A 
BRANCH  43  44
ATOM     44  C   UNL A   1      41.008  26.166  28.211  1.00  0.00     0.031 A 
ATOM     45  C   UNL A   1      42.414  26.357  27.708  1.00  0.00     0.074 A 
ATOM     46  C   UNL A   1      40.325  27.172  28.777  1.00  0.00     0.049 A 
ATOM     47  N   UNL A   1      43.204  27.390  27.797  1.00  0.00    -0.248 NA
ATOM     48  C   UNL A   1      43.011  25.200  27.017  1.00  0.00     0.031 C 
ATOM     49  C   UNL A   1      38.944  27.105  29.247  1.00  0.00     0.029 A 
ATOM     50  N   UNL A   1      40.720  28.454  29.060  1.00  0.00    -0.354 N 
ATOM     51  C   UNL A   1      44.388  27.006  27.172  1.00  0.00     0.074 A 
ATOM     52  C   UNL A   1      44.233  25.629  26.769  1.00  0.00     0.031 C 
ATOM     53  C   UNL A   1      38.613  28.295  29.785  1.00  0.00     0.029 A 
ATOM     54  C   UNL A   1      39.770  29.188  29.728  1.00  0.00     0.049 A 
ATOM     55  H   UNL A   1      41.600  28.816  28.808  1.00  0.00     0.167 HD
ATOM     56  C   UNL A   1      45.500  27.741  26.941  1.00  0.00     0.034 A 
ATOM     57  C   UNL A   1      39.849  30.426  30.258  1.00  0.00     0.034 A 
ATOM     58  C   UNL A   1      45.643  29.098  27.395  1.00  0.00     0.049 A 
ATOM     59  C   UNL A   1      41.135  31.202  30.088  1.00  0.00     0.074 A 
ATOM     60  C   UNL A   1      46.723  29.948  27.256  1.00  0.00     0.029 A 
ATOM     61  N   UNL A   1      44.670  29.799  28.103  1.00  0.00    -0.354 N 
ATOM     62  N   UNL A   1      42.254  30.836  29.499  1.00  0.00    -0.248 NA
ATOM     63  C   UNL A   1      41.164  32.561  30.640  1.00  0.00     0.031 C 
ATOM     64  C   UNL A   1      46.436  31.130  27.947  1.00  0.00     0.029 A 
ATOM     65  C   UNL A   1      45.138  31.060  28.433  1.00  0.00     0.049 A 
ATOM     66  H   UNL A   1      43.780  29.450  28.334  1.00  0.00     0.167 HD
ATOM     67  C   UNL A   1      43.108  31.934  29.584  1.00  0.00     0.074 A 
ATOM     68  C   UNL A   1      42.368  32.976  30.270  1.00  0.00     0.031 C 
ATOM     69  C   UNL A   1      44.382  32.076  29.131  1.00  0.00     0.034 A 
BRANCH  56  70
ATOM     70  C   UNL A   1      46.642  27.045  26.238  1.00  0.00     0.023 A 
ATOM     71  C   UNL A   1      47.625  26.333  26.951  1.00  0.00     0.031 A 
ATOM     72  C   UNL A   1      46.812  27.186  24.851  1.00  0.00     0.131 A 
ATOM     73  C   UNL A   1      48.782  25.887  26.293  1.00  0.00     0.055 A 
ATOM     74  C   UNL A   1      47.916  26.648  24.186  1.00  0.00     0.041 A 
ATOM     75  F   UNL A   1      45.931  27.886  24.119  1.00  0.00    -0.206 F 
ATOM     76  C   UNL A   1      48.920  26.013  24.911  1.00  0.00     0.022 A 
BRANCH  73  77
ATOM     77  S   UNL A   1      50.187  25.330  27.300  1.00  0.00     0.124 S 
ATOM     78  O   UNL A   1      50.433  26.505  28.135  1.00  0.00    -0.237 OA
ATOM     79  O   UNL A   1      49.644  24.163  27.983  1.00  0.00    -0.237 OA
ATOM     80  O   UNL A   1      51.227  25.052  26.312  1.00  0.00    -0.744 OA
ENDBRANCH  73  77
ENDBRANCH  56  70
BRANCH  57  81
ATOM     81  C   UNL A   1      38.704  30.982  31.036  1.00  0.00     0.023 A 
ATOM     82  C   UNL A   1      37.587  31.551  30.404  1.00  0.00     0.031 A 
ATOM     83  C   UNL A   1      38.727  30.969  32.443  1.00  0.00     0.131 A 
ATOM     84  C   UNL A   1      36.553  32.106  31.176  1.00  0.00     0.055 A 
ATOM     85  C   UNL A   1      37.674  31.477  33.206  1.00  0.00     0.041 A 
ATOM     86  F   UNL A   1      39.774  30.444  33.101  1.00  0.00    -0.206 F 
ATOM     87  C   UNL A   1      36.581  32.058  32.571  1.00  0.00     0.022 A 
BRANCH  84  88
ATOM     88  S   UNL A   1      35.192  32.958  30.330  1.00  0.00     0.124 S 
ATOM     89  O   UNL A   1      34.692  31.912  29.444  1.00  0.00    -0.237 OA
ATOM     90  O   UNL A   1      34.325  33.326  31.443  1.00  0.00    -0.237 OA
ATOM     91  O   UNL A   1      35.854  34.077  29.662  1.00  0.00    -0.744 OA
ENDBRANCH  84  88
ENDBRANCH  57  81
BRANCH  69  92
ATOM     92  C   UNL A   1      45.033  33.427  29.317  1.00  0.00     0.023 A 
ATOM     93  C   UNL A   1      44.967  34.428  28.334  1.00  0.00     0.031 A 
ATOM     94  C   UNL A   1      45.731  33.712  30.505  1.00  0.00     0.131 A 
ATOM     95  C   UNL A   1      45.645  35.641  28.527  1.00  0.00     0.055 A 
ATOM     96  C   UNL A   1      46.338  34.949  30.723  1.00  0.00     0.041 A 
ATOM     97  F   UNL A   1      45.829  32.793  31.480  1.00  0.00    -0.206 F 
ATOM     98  C   UNL A   1      46.312  35.916  29.724  1.00  0.00     0.022 A 
BRANCH  95  99
ATOM     99  S   UNL A   1      45.745  36.810  27.144  1.00  0.00     0.124 S 
ATOM    100  O   UNL A   1      46.660  37.819  27.668  1.00  0.00    -0.237 OA
ATOM    101  O   UNL A   1      46.265  35.976  26.066  1.00  0.00    -0.237 OA
ATOM    102  O   UNL A   1      44.363  37.256  26.972  1.00  0.00    -0.744 OA
ENDBRANCH  95  99
ENDBRANCH  69  92
ENDBRANCH  43  44
ENDBRANCH  36  38
ENDBRANCH  35  36
ENDBRANCH  34  35
ENDBRANCH  33  34
ENDBRANCH  32  33
ENDBRANCH  31  32
ENDBRANCH  30  31
ENDBRANCH   1  30
TORSDOF 26
ENDMDL
MODEL 3
REMARK VINA RESULT:     -10.1      1.345      7.744
REMARK SMILES Cc1ccc(S(=O)(=O)Nc2ccc(C(=O)CCC(=O)OCCOCCOCCOC(=O)c3ccc(-c4c5nc(c(-c6cc(S(=O)(=O)[O-])ccc6F)c6ccc([nH]6)c(-c6cc(S(=O)(=O)[O-])ccc6F)c6nc(c(-c7cc(S(=O)(=O)[O-])ccc7F)c7ccc4[nH]7)C=C6)C=C5)cc3)cc2)c(C)c1
REMARK SMILES IDX 23 1 22 2 21 3 20 4 18 5 19 6 17 7 16 8 14 9 15 10 13 11
REMARK SMILES IDX 10 12 11 13 96 14 12 15 95 16 9 17 6 19 7 20 8 21 5 22 1 23
REMARK SMILES IDX 2 24 3 25 99 26 4 27 97 28 98 29 24 30 25 31 26 32 27 33
REMARK SMILES IDX 28 34 29 35 30 36 31 37 32 38 33 39 94 40 34 41 93 42 35 43
REMARK SMILES IDX 36 44 37 45 87 46 38 47 92 48 86 49 88 50 39 51 91 52 85 53
REMARK SMILES IDX 84 54 40 56 72 57 52 58 71 59 53 60 56 61 70 62 89 63 54 64
REMARK SMILES IDX 55 65 69 67 90 68 57 69 41 70 42 71 50 72 43 73 49 74 51 75
REMARK SMILES IDX 48 76 44 77 45 78 46 79 47 80 73 81 74 82 82 83 75 84 81 85
REMARK SMILES IDX 83 86 80 87 76 88 77 89 78 90 79 91 58 92 59 93 67 94 60 95
REMARK SMILES IDX 66 96 68 97 65 98 61 99 62 100 63 101 64 102
REMARK H PARENT 9 18 88 55 56 66
REMARK Flexibility Score: inf
ROOT
ATOM      1  O   UNL A   1      33.223  21.928  27.496  1.00  0.00    -0.376 OA
ENDROOT
BRANCH   1   2
ATOM      2  C   UNL A   1      32.350  23.005  27.191  1.00  0.00     0.202 C 
BRANCH   2   3
ATOM      3  C   UNL A   1      31.281  22.614  26.177  1.00  0.00     0.261 C 
BRANCH   3   4
ATOM      4  O   UNL A   1      31.301  21.221  25.854  1.00  0.00    -0.463 OA
BRANCH   4   5
ATOM      5  C   UNL A   1      32.005  20.845  24.765  1.00  0.00     0.306 C 
ATOM      6  O   UNL A   1      32.692  19.836  24.684  1.00  0.00    -0.252 OA
BRANCH   5   7
ATOM      7  C   UNL A   1      31.835  21.831  23.632  1.00  0.00     0.131 C 
BRANCH   7   8
ATOM      8  C   UNL A   1      32.966  21.870  22.597  1.00  0.00     0.093 C 
BRANCH   8   9
ATOM      9  C   UNL A   1      33.124  23.240  21.931  1.00  0.00     0.163 C 
ATOM     10  O   UNL A   1      33.596  23.325  20.795  1.00  0.00    -0.294 OA
BRANCH   9  11
ATOM     11  C   UNL A   1      32.813  24.512  22.669  1.00  0.00     0.018 A 
ATOM     12  C   UNL A   1      32.174  26.520  24.559  1.00  0.00     0.049 A 
ATOM     13  C   UNL A   1      33.506  26.208  24.264  1.00  0.00     0.027 A 
ATOM     14  C   UNL A   1      31.196  25.997  23.736  1.00  0.00     0.027 A 
ATOM     15  C   UNL A   1      33.826  25.203  23.334  1.00  0.00     0.014 A 
ATOM     16  C   UNL A   1      31.523  25.006  22.795  1.00  0.00     0.014 A 
BRANCH  12  17
ATOM     17  N   UNL A   1      31.923  27.398  25.654  1.00  0.00    -0.280 N 
ATOM     18  H   UNL A   1      31.613  26.981  26.490  1.00  0.00     0.180 HD
BRANCH  17  19
ATOM     19  S   UNL A   1      32.102  29.076  25.670  1.00  0.00     0.262 S 
ATOM     20  O   UNL A   1      33.496  29.375  25.411  1.00  0.00    -0.201 OA
ATOM     21  O   UNL A   1      31.477  29.495  26.909  1.00  0.00    -0.201 OA
BRANCH  19  22
ATOM     22  C   UNL A   1      31.141  29.826  24.353  1.00  0.00     0.090 A 
ATOM     23  C   UNL A   1      28.125  30.342  21.322  1.00  0.00     0.044 C 
ATOM     24  C   UNL A   1      29.242  30.325  22.332  1.00  0.00    -0.051 A 
ATOM     25  C   UNL A   1      29.082  30.875  23.609  1.00  0.00     0.005 A 
ATOM     26  C   UNL A   1      30.455  29.713  22.021  1.00  0.00     0.008 A 
ATOM     27  C   UNL A   1      30.013  30.603  24.629  1.00  0.00     0.023 A 
ATOM     28  C   UNL A   1      31.428  29.479  23.012  1.00  0.00    -0.030 A 
ATOM     29  C   UNL A   1      32.766  28.975  22.542  1.00  0.00     0.046 C 
ENDBRANCH  19  22
ENDBRANCH  17  19
ENDBRANCH  12  17
ENDBRANCH   9  11
ENDBRANCH   8   9
ENDBRANCH   7   8
ENDBRANCH   5   7
ENDBRANCH   4   5
ENDBRANCH   3   4
ENDBRANCH   2   3
ENDBRANCH   1   2
BRANCH   1  30
ATOM     30  C   UNL A   1      34.597  22.232  27.307  1.00  0.00     0.188 C 
BRANCH  30  31
ATOM     31  C   UNL A   1      34.880  22.952  25.995  1.00  0.00     0.188 C 
BRANCH  31  32
ATOM     32  O   UNL A   1      35.637  22.293  24.990  1.00  0.00    -0.376 OA
BRANCH  32  33
ATOM     33  C   UNL A   1      35.922  20.911  25.249  1.00  0.00     0.202 C 
BRANCH  33  34
ATOM     34  C   UNL A   1      37.339  20.367  24.974  1.00  0.00     0.261 C 
BRANCH  34  35
ATOM     35  O   UNL A   1      38.370  21.344  25.158  1.00  0.00    -0.460 OA
BRANCH  35  36
ATOM     36  C   UNL A   1      39.338  20.997  26.054  1.00  0.00     0.338 C 
ATOM     37  O   UNL A   1      39.862  19.908  26.160  1.00  0.00    -0.246 OA
BRANCH  36  38
ATOM     38  C   UNL A   1      39.898  22.252  26.639  1.00  0.00     0.060 A 
ATOM     39  C   UNL A   1      39.314  23.468  26.235  1.00  0.00     0.016 A 
ATOM     40  C   UNL A   1      40.824  22.233  27.687  1.00  0.00     0.016 A 
ATOM     41  C   UNL A   1      39.672  24.662  26.852  1.00  0.00     0.010 A 
ATOM     42  C   UNL A   1      41.220  23.435  28.275  1.00  0.00     0.010 A 
ATOM     43  C   UNL A   1      40.684  24.652  27.818  1.00  0.00    -0.014 A 
BRANCH  43  44
ATOM     44  C   UNL A   1      41.462  25.896  28.013  1.00  0.00     0.031 A 
ATOM     45  C   UNL A   1      40.751  27.004  28.742  1.00  0.00     0.074 A 
ATOM     46  C   UNL A   1      42.733  26.029  27.605  1.00  0.00     0.049 A 
ATOM     47  N   UNL A   1      41.143  28.219  29.010  1.00  0.00    -0.248 NA
ATOM     48  C   UNL A   1      39.394  26.690  29.223  1.00  0.00     0.031 C 
ATOM     49  C   UNL A   1      43.526  24.998  26.941  1.00  0.00     0.029 A 
ATOM     50  N   UNL A   1      43.575  27.107  27.689  1.00  0.00    -0.354 N 
ATOM     51  C   UNL A   1      40.081  28.809  29.691  1.00  0.00     0.074 A 
ATOM     52  C   UNL A   1      39.010  27.842  29.736  1.00  0.00     0.031 C 
ATOM     53  C   UNL A   1      44.739  25.506  26.653  1.00  0.00     0.029 A 
ATOM     54  C   UNL A   1      44.791  26.904  27.081  1.00  0.00     0.049 A 
ATOM     55  H   UNL A   1      43.333  27.947  28.141  1.00  0.00     0.167 HD
ATOM     56  C   UNL A   1      40.011  30.042  30.243  1.00  0.00     0.034 A 
ATOM     57  C   UNL A   1      45.806  27.766  26.871  1.00  0.00     0.034 A 
ATOM     58  C   UNL A   1      41.078  31.000  30.143  1.00  0.00     0.049 A 
ATOM     59  C   UNL A   1      45.676  29.176  27.399  1.00  0.00     0.074 A 
ATOM     60  C   UNL A   1      41.129  32.293  30.630  1.00  0.00     0.029 A 
ATOM     61  N   UNL A   1      42.285  30.771  29.487  1.00  0.00    -0.354 N 
ATOM     62  N   UNL A   1      44.671  29.733  28.040  1.00  0.00    -0.248 NA
ATOM     63  C   UNL A   1      46.822  30.069  27.189  1.00  0.00     0.031 C 
ATOM     64  C   UNL A   1      42.328  32.870  30.199  1.00  0.00     0.029 A 
ATOM     65  C   UNL A   1      43.073  31.909  29.530  1.00  0.00     0.049 A 
ATOM     66  H   UNL A   1      42.540  29.925  29.056  1.00  0.00     0.167 HD
ATOM     67  C   UNL A   1      45.078  31.033  28.337  1.00  0.00     0.074 A 
ATOM     68  C   UNL A   1      46.424  31.168  27.814  1.00  0.00     0.031 C 
ATOM     69  C   UNL A   1      44.409  32.021  28.988  1.00  0.00     0.034 A 
BRANCH  56  70
ATOM     70  C   UNL A   1      38.712  30.411  30.921  1.00  0.00     0.023 A 
ATOM     71  C   UNL A   1      37.661  31.031  30.217  1.00  0.00     0.031 A 
ATOM     72  C   UNL A   1      38.562  30.243  32.307  1.00  0.00     0.131 A 
ATOM     73  C   UNL A   1      36.563  31.555  30.917  1.00  0.00     0.055 A 
ATOM     74  C   UNL A   1      37.417  30.674  32.981  1.00  0.00     0.041 A 
ATOM     75  F   UNL A   1      39.542  29.694  33.041  1.00  0.00    -0.206 F 
ATOM     76  C   UNL A   1      36.420  31.354  32.290  1.00  0.00     0.022 A 
BRANCH  73  77
ATOM     77  S   UNL A   1      35.437  32.678  30.040  1.00  0.00     0.124 S 
ATOM     78  O   UNL A   1      34.274  32.677  30.927  1.00  0.00    -0.237 OA
ATOM     79  O   UNL A   1      36.202  33.917  29.990  1.00  0.00    -0.237 OA
ATOM     80  O   UNL A   1      35.227  32.017  28.754  1.00  0.00    -0.744 OA
ENDBRANCH  73  77
ENDBRANCH  56  70
BRANCH  57  81
ATOM     81  C   UNL A   1      47.002  27.338  26.089  1.00  0.00     0.023 A 
ATOM     82  C   UNL A   1      48.134  26.787  26.710  1.00  0.00     0.031 A 
ATOM     83  C   UNL A   1      47.033  27.499  24.691  1.00  0.00     0.131 A 
ATOM     84  C   UNL A   1      49.258  26.442  25.940  1.00  0.00     0.055 A 
ATOM     85  C   UNL A   1      48.132  27.108  23.924  1.00  0.00     0.041 A 
ATOM     86  F   UNL A   1      45.981  28.028  24.045  1.00  0.00    -0.206 F 
ATOM     87  C   UNL A   1      49.258  26.583  24.550  1.00  0.00     0.022 A 
BRANCH  84  88
ATOM     88  S   UNL A   1      50.755  25.864  26.789  1.00  0.00     0.124 S 
ATOM     89  O   UNL A   1      50.356  24.529  27.220  1.00  0.00    -0.237 OA
ATOM     90  O   UNL A   1      51.750  25.925  25.724  1.00  0.00    -0.237 OA
ATOM     91  O   UNL A   1      50.934  26.839  27.863  1.00  0.00    -0.744 OA
ENDBRANCH  84  88
ENDBRANCH  57  81
BRANCH  69  92
ATOM     92  C   UNL A   1      45.149  33.319  29.217  1.00  0.00     0.023 A 
ATOM     93  C   UNL A   1      45.086  34.384  28.303  1.00  0.00     0.031 A 
ATOM     94  C   UNL A   1      45.930  33.487  30.376  1.00  0.00     0.131 A 
ATOM     95  C   UNL A   1      45.845  35.542  28.529  1.00  0.00     0.055 A 
ATOM     96  C   UNL A   1      46.621  34.671  30.632  1.00  0.00     0.041 A 
ATOM     97  F   UNL A   1      46.028  32.503  31.284  1.00  0.00    -0.206 F 
ATOM     98  C   UNL A   1      46.595  35.701  29.697  1.00  0.00     0.022 A 
BRANCH  95  99
ATOM     99  S   UNL A   1      45.935  36.791  27.217  1.00  0.00     0.124 S 
ATOM    100  O   UNL A   1      44.526  37.001  26.903  1.00  0.00    -0.237 OA
ATOM    101  O   UNL A   1      46.612  37.898  27.885  1.00  0.00    -0.237 OA
ATOM    102  O   UNL A   1      46.712  36.131  26.168  1.00  0.00    -0.744 OA
ENDBRANCH  95  99
ENDBRANCH  69  92
ENDBRANCH  43  44
ENDBRANCH  36  38
ENDBRANCH  35  36
ENDBRANCH  34  35
ENDBRANCH  33  34
ENDBRANCH  32  33
ENDBRANCH  31  32
ENDBRANCH  30  31
ENDBRANCH   1  30
TORSDOF 26
ENDMDL
