MODEL 1
REMARK VINA RESULT:     -10.1      0.000      0.000
REMARK SMILES CC[C@@](C)(NS(=O)(=O)c1ccc(F)c(F)c1)C(=O)OCCOCCOCCOC(=O)c1ccc(-c2c3nc(c(-c4cc(S(=O)(=O)[O-])ccc4F)c4ccc([nH]4)c(-c4cc(S(=O)(=O)[O-])ccc4F)c4nc(c(-c5cc(S(=O)(=O)[O-])ccc5F)c5ccc2[nH]5)C=C4)C=C3)cc1
REMARK SMILES IDX 23 1 22 2 21 3 20 4 19 5 17 6 18 7 3 8 4 9 2 10 1 11 5 12
REMARK SMILES IDX 6 14 7 15 8 16 9 17 10 18 16 19 11 20 14 21 12 22 15 23
REMARK SMILES IDX 13 24 24 25 25 26 26 27 27 28 28 29 29 30 30 31 31 32 32 33
REMARK SMILES IDX 93 34 33 35 92 36 34 37 35 38 36 39 86 40 37 41 91 42 85 43
REMARK SMILES IDX 87 44 38 45 90 46 84 47 83 48 39 50 71 51 51 52 70 53 52 54
REMARK SMILES IDX 55 55 69 56 88 57 53 58 54 59 68 61 89 62 56 63 40 64 41 65
REMARK SMILES IDX 49 66 42 67 48 68 50 69 47 70 43 71 44 72 45 73 46 74 72 75
REMARK SMILES IDX 73 76 81 77 74 78 80 79 82 80 79 81 75 82 76 83 77 84 78 85
REMARK SMILES IDX 57 86 58 87 66 88 59 89 65 90 67 91 64 92 60 93 61 94 62 95
REMARK SMILES IDX 63 96
REMARK H PARENT 5 13 87 49 55 60
REMARK Flexibility Score: inf
ROOT
ATOM      1  C   UNL A   1      35.343  22.298  26.063  1.00  0.00     0.188 C 
ENDROOT
BRANCH   1   2
ATOM      2  O   UNL A   1      34.338  22.861  26.904  1.00  0.00    -0.376 OA
BRANCH   2   3
ATOM      3  C   UNL A   1      33.359  23.680  26.247  1.00  0.00     0.202 C 
BRANCH   3   4
ATOM      4  C   UNL A   1      33.876  25.069  25.874  1.00  0.00     0.261 C 
BRANCH   4   5
ATOM      5  O   UNL A   1      32.814  26.035  26.050  1.00  0.00    -0.462 OA
BRANCH   5   6
ATOM      6  C   UNL A   1      33.112  27.318  25.713  1.00  0.00     0.327 C 
ATOM      7  O   UNL A   1      34.233  27.685  25.380  1.00  0.00    -0.250 OA
BRANCH   6   8
ATOM      8  C   UNL A   1      31.873  28.233  25.721  1.00  0.00     0.127 C 
ATOM      9  C   UNL A   1      31.157  28.038  27.065  1.00  0.00     0.042 C 
BRANCH   8  10
ATOM     10  C   UNL A   1      32.309  29.734  25.608  1.00  0.00     0.032 C 
ATOM     11  C   UNL A   1      32.292  30.572  26.882  1.00  0.00     0.006 C 
ENDBRANCH   8  10
BRANCH   8  12
ATOM     12  N   UNL A   1      30.928  28.031  24.580  1.00  0.00    -0.194 NA
ATOM     13  H   UNL A   1      30.409  28.907  24.516  1.00  0.00     0.142 HD
BRANCH  12  14
ATOM     14  S   UNL A   1      31.291  27.643  23.002  1.00  0.00     0.241 S 
ATOM     15  O   UNL A   1      30.175  27.955  22.138  1.00  0.00    -0.207 OA
ATOM     16  O   UNL A   1      32.593  28.223  22.759  1.00  0.00    -0.207 OA
BRANCH  14  17
ATOM     17  C   UNL A   1      31.506  25.883  22.979  1.00  0.00     0.085 A 
ATOM     18  C   UNL A   1      30.512  25.055  23.520  1.00  0.00     0.025 A 
ATOM     19  C   UNL A   1      32.698  25.338  22.500  1.00  0.00     0.064 A 
ATOM     20  C   UNL A   1      30.678  23.667  23.498  1.00  0.00     0.044 A 
ATOM     21  C   UNL A   1      32.839  23.955  22.466  1.00  0.00     0.160 A 
ATOM     22  C   UNL A   1      31.832  23.125  22.945  1.00  0.00     0.158 A 
ATOM     23  F   UNL A   1      33.948  23.424  21.935  1.00  0.00    -0.204 F 
ATOM     24  F   UNL A   1      31.961  21.793  22.869  1.00  0.00    -0.204 F 
ENDBRANCH  14  17
ENDBRANCH  12  14
ENDBRANCH   8  12
ENDBRANCH   6   8
ENDBRANCH   5   6
ENDBRANCH   4   5
ENDBRANCH   3   4
ENDBRANCH   2   3
ENDBRANCH   1   2
BRANCH   1  25
ATOM     25  C   UNL A   1      34.926  20.988  25.401  1.00  0.00     0.188 C 
BRANCH  25  26
ATOM     26  O   UNL A   1      36.013  20.162  25.038  1.00  0.00    -0.376 OA
BRANCH  26  27
ATOM     27  C   UNL A   1      37.263  20.758  24.700  1.00  0.00     0.202 C 
BRANCH  27  28
ATOM     28  C   UNL A   1      38.252  21.299  25.750  1.00  0.00     0.261 C 
BRANCH  28  29
ATOM     29  O   UNL A   1      39.605  20.831  25.735  1.00  0.00    -0.460 OA
BRANCH  29  30
ATOM     30  C   UNL A   1      40.361  20.890  26.855  1.00  0.00     0.338 C 
ATOM     31  O   UNL A   1      40.937  19.965  27.394  1.00  0.00    -0.246 OA
BRANCH  30  32
ATOM     32  C   UNL A   1      40.625  22.341  27.080  1.00  0.00     0.060 A 
ATOM     33  C   UNL A   1      39.962  23.281  26.274  1.00  0.00     0.016 A 
ATOM     34  C   UNL A   1      41.364  22.769  28.190  1.00  0.00     0.016 A 
ATOM     35  C   UNL A   1      40.048  24.645  26.570  1.00  0.00     0.010 A 
ATOM     36  C   UNL A   1      41.451  24.125  28.484  1.00  0.00     0.010 A 
ATOM     37  C   UNL A   1      40.822  25.071  27.656  1.00  0.00    -0.014 A 
BRANCH  37  38
ATOM     38  C   UNL A   1      41.251  26.482  27.787  1.00  0.00     0.031 A 
ATOM     39  C   UNL A   1      42.656  26.793  27.351  1.00  0.00     0.074 A 
ATOM     40  C   UNL A   1      40.477  27.419  28.359  1.00  0.00     0.049 A 
ATOM     41  N   UNL A   1      43.381  27.856  27.558  1.00  0.00    -0.248 NA
ATOM     42  C   UNL A   1      43.345  25.720  26.614  1.00  0.00     0.031 C 
ATOM     43  C   UNL A   1      39.095  27.225  28.793  1.00  0.00     0.029 A 
ATOM     44  N   UNL A   1      40.765  28.713  28.711  1.00  0.00    -0.354 N 
ATOM     45  C   UNL A   1      44.625  27.568  27.006  1.00  0.00     0.074 A 
ATOM     46  C   UNL A   1      44.563  26.218  26.495  1.00  0.00     0.031 C 
ATOM     47  C   UNL A   1      38.667  28.353  29.388  1.00  0.00     0.029 A 
ATOM     48  C   UNL A   1      39.760  29.325  29.424  1.00  0.00     0.049 A 
ATOM     49  H   UNL A   1      41.610  29.161  28.475  1.00  0.00     0.167 HD
ATOM     50  C   UNL A   1      45.720  28.363  26.934  1.00  0.00     0.034 A 
ATOM     51  C   UNL A   1      39.752  30.507  30.074  1.00  0.00     0.034 A 
ATOM     52  C   UNL A   1      45.752  29.697  27.476  1.00  0.00     0.049 A 
ATOM     53  C   UNL A   1      40.998  31.363  30.042  1.00  0.00     0.074 A 
ATOM     54  C   UNL A   1      46.783  30.617  27.443  1.00  0.00     0.029 A 
ATOM     55  N   UNL A   1      44.707  30.291  28.176  1.00  0.00    -0.354 N 
ATOM     56  N   UNL A   1      42.165  31.102  29.495  1.00  0.00    -0.248 NA
ATOM     57  C   UNL A   1      40.930  32.669  30.710  1.00  0.00     0.031 C 
ATOM     58  C   UNL A   1      46.392  31.730  28.194  1.00  0.00     0.029 A 
ATOM     59  C   UNL A   1      45.082  31.549  28.613  1.00  0.00     0.049 A 
ATOM     60  H   UNL A   1      43.829  29.876  28.337  1.00  0.00     0.167 HD
ATOM     61  C   UNL A   1      42.957  32.226  29.723  1.00  0.00     0.074 A 
ATOM     62  C   UNL A   1      42.134  33.165  30.459  1.00  0.00     0.031 C 
ATOM     63  C   UNL A   1      44.240  32.467  29.348  1.00  0.00     0.034 A 
BRANCH  50  64
ATOM     64  C   UNL A   1      46.964  27.768  26.318  1.00  0.00     0.023 A 
ATOM     65  C   UNL A   1      47.346  28.053  24.995  1.00  0.00     0.031 A 
ATOM     66  C   UNL A   1      47.731  26.832  27.034  1.00  0.00     0.131 A 
ATOM     67  C   UNL A   1      48.389  27.330  24.396  1.00  0.00     0.055 A 
ATOM     68  C   UNL A   1      48.833  26.193  26.463  1.00  0.00     0.041 A 
ATOM     69  F   UNL A   1      47.401  26.494  28.290  1.00  0.00    -0.206 F 
ATOM     70  C   UNL A   1      49.154  26.423  25.129  1.00  0.00     0.022 A 
BRANCH  67  71
ATOM     71  S   UNL A   1      48.594  27.446  22.596  1.00  0.00     0.124 S 
ATOM     72  O   UNL A   1      47.382  28.163  22.207  1.00  0.00    -0.237 OA
ATOM     73  O   UNL A   1      49.843  28.188  22.468  1.00  0.00    -0.237 OA
ATOM     74  O   UNL A   1      48.648  26.051  22.167  1.00  0.00    -0.744 OA
ENDBRANCH  67  71
ENDBRANCH  50  64
BRANCH  51  75
ATOM     75  C   UNL A   1      38.549  30.923  30.854  1.00  0.00     0.023 A 
ATOM     76  C   UNL A   1      37.466  31.572  30.241  1.00  0.00     0.031 A 
ATOM     77  C   UNL A   1      38.473  30.679  32.238  1.00  0.00     0.131 A 
ATOM     78  C   UNL A   1      36.362  31.973  31.014  1.00  0.00     0.055 A 
ATOM     79  C   UNL A   1      37.353  31.037  32.992  1.00  0.00     0.041 A 
ATOM     80  F   UNL A   1      39.482  30.065  32.876  1.00  0.00    -0.206 F 
ATOM     81  C   UNL A   1      36.292  31.695  32.381  1.00  0.00     0.022 A 
BRANCH  78  82
ATOM     82  S   UNL A   1      35.036  32.920  30.214  1.00  0.00     0.124 S 
ATOM     83  O   UNL A   1      34.520  31.953  29.252  1.00  0.00    -0.237 OA
ATOM     84  O   UNL A   1      34.166  33.233  31.341  1.00  0.00    -0.237 OA
ATOM     85  O   UNL A   1      35.737  34.065  29.635  1.00  0.00    -0.744 OA
ENDBRANCH  78  82
ENDBRANCH  51  75
BRANCH  63  86
ATOM     86  C   UNL A   1      44.818  33.824  29.667  1.00  0.00     0.023 A 
ATOM     87  C   UNL A   1      44.629  34.935  28.829  1.00  0.00     0.031 A 
ATOM     88  C   UNL A   1      45.533  34.011  30.866  1.00  0.00     0.131 A 
ATOM     89  C   UNL A   1      45.175  36.179  29.187  1.00  0.00     0.055 A 
ATOM     90  C   UNL A   1      46.020  35.261  31.245  1.00  0.00     0.041 A 
ATOM     91  F   UNL A   1      45.745  32.982  31.701  1.00  0.00    -0.206 F 
ATOM     92  C   UNL A   1      45.848  36.353  30.400  1.00  0.00     0.022 A 
BRANCH  89  93
ATOM     93  S   UNL A   1      45.052  37.558  28.016  1.00  0.00     0.124 S 
ATOM     94  O   UNL A   1      44.268  38.528  28.771  1.00  0.00    -0.237 OA
ATOM     95  O   UNL A   1      46.453  37.903  27.792  1.00  0.00    -0.237 OA
ATOM     96  O   UNL A   1      44.369  36.969  26.865  1.00  0.00    -0.744 OA
ENDBRANCH  89  93
ENDBRANCH  63  86
ENDBRANCH  37  38
ENDBRANCH  30  32
ENDBRANCH  29  30
ENDBRANCH  28  29
ENDBRANCH  27  28
ENDBRANCH  26  27
ENDBRANCH  25  26
ENDBRANCH   1  25
TORSDOF 24
ENDMDL
MODEL 2
REMARK VINA RESULT:      -9.7      2.853      3.273
REMARK SMILES CC[C@@](C)(NS(=O)(=O)c1ccc(F)c(F)c1)C(=O)OCCOCCOCCOC(=O)c1ccc(-c2c3nc(c(-c4cc(S(=O)(=O)[O-])ccc4F)c4ccc([nH]4)c(-c4cc(S(=O)(=O)[O-])ccc4F)c4nc(c(-c5cc(S(=O)(=O)[O-])ccc5F)c5ccc2[nH]5)C=C4)C=C3)cc1
REMARK SMILES IDX 23 1 22 2 21 3 20 4 19 5 17 6 18 7 3 8 4 9 2 10 1 11 5 12
REMARK SMILES IDX 6 14 7 15 8 16 9 17 10 18 16 19 11 20 14 21 12 22 15 23
REMARK SMILES IDX 13 24 24 25 25 26 26 27 27 28 28 29 29 30 30 31 31 32 32 33
REMARK SMILES IDX 93 34 33 35 92 36 34 37 35 38 36 39 86 40 37 41 91 42 85 43
REMARK SMILES IDX 87 44 38 45 90 46 84 47 83 48 39 50 71 51 51 52 70 53 52 54
REMARK SMILES IDX 55 55 69 56 88 57 53 58 54 59 68 61 89 62 56 63 40 64 41 65
REMARK SMILES IDX 49 66 42 67 48 68 50 69 47 70 43 71 44 72 45 73 46 74 72 75
REMARK SMILES IDX 73 76 81 77 74 78 80 79 82 80 79 81 75 82 76 83 77 84 78 85
REMARK SMILES IDX 57 86 58 87 66 88 59 89 65 90 67 91 64 92 60 93 61 94 62 95
REMARK SMILES IDX 63 96
REMARK H PARENT 5 13 87 49 55 60
REMARK Flexibility Score: inf
ROOT
ATOM      1  C   UNL A   1      35.102  22.804  26.216  1.00  0.00     0.188 C 
ENDROOT
BRANCH   1   2
ATOM      2  O   UNL A   1      33.948  23.370  26.836  1.00  0.00    -0.376 OA
BRANCH   2   3
ATOM      3  C   UNL A   1      33.178  24.267  26.024  1.00  0.00     0.202 C 
BRANCH   3   4
ATOM      4  C   UNL A   1      33.843  25.629  25.819  1.00  0.00     0.261 C 
BRANCH   4   5
ATOM      5  O   UNL A   1      32.834  26.663  25.872  1.00  0.00    -0.462 OA
BRANCH   5   6
ATOM      6  C   UNL A   1      33.246  27.917  25.544  1.00  0.00     0.327 C 
ATOM      7  O   UNL A   1      34.248  28.144  24.876  1.00  0.00    -0.250 OA
BRANCH   6   8
ATOM      8  C   UNL A   1      32.273  29.005  26.035  1.00  0.00     0.127 C 
ATOM      9  C   UNL A   1      31.711  28.552  27.390  1.00  0.00     0.042 C 
BRANCH   8  10
ATOM     10  C   UNL A   1      33.037  30.357  26.244  1.00  0.00     0.032 C 
ATOM     11  C   UNL A   1      33.930  30.480  27.474  1.00  0.00     0.006 C 
ENDBRANCH   8  10
BRANCH   8  12
ATOM     12  N   UNL A   1      31.167  29.343  25.086  1.00  0.00    -0.194 NA
ATOM     13  H   UNL A   1      31.080  30.357  25.142  1.00  0.00     0.142 HD
BRANCH  12  14
ATOM     14  S   UNL A   1      31.070  29.001  23.459  1.00  0.00     0.241 S 
ATOM     15  O   UNL A   1      29.848  29.539  22.905  1.00  0.00    -0.207 OA
ATOM     16  O   UNL A   1      32.353  29.382  22.914  1.00  0.00    -0.207 OA
BRANCH  14  17
ATOM     17  C   UNL A   1      30.973  27.234  23.345  1.00  0.00     0.085 A 
ATOM     18  C   UNL A   1      30.026  26.539  24.110  1.00  0.00     0.025 A 
ATOM     19  C   UNL A   1      31.896  26.541  22.561  1.00  0.00     0.064 A 
ATOM     20  C   UNL A   1      29.946  25.147  24.019  1.00  0.00     0.044 A 
ATOM     21  C   UNL A   1      31.790  25.158  22.463  1.00  0.00     0.160 A 
ATOM     22  C   UNL A   1      30.813  24.467  23.172  1.00  0.00     0.158 A 
ATOM     23  F   UNL A   1      32.622  24.494  21.650  1.00  0.00    -0.204 F 
ATOM     24  F   UNL A   1      30.693  23.139  23.039  1.00  0.00    -0.204 F 
ENDBRANCH  14  17
ENDBRANCH  12  14
ENDBRANCH   8  12
ENDBRANCH   6   8
ENDBRANCH   5   6
ENDBRANCH   4   5
ENDBRANCH   3   4
ENDBRANCH   2   3
ENDBRANCH   1   2
BRANCH   1  25
ATOM     25  C   UNL A   1      34.919  21.349  25.792  1.00  0.00     0.188 C 
BRANCH  25  26
ATOM     26  O   UNL A   1      36.112  20.727  25.364  1.00  0.00    -0.376 OA
BRANCH  26  27
ATOM     27  C   UNL A   1      37.158  21.522  24.811  1.00  0.00     0.202 C 
BRANCH  27  28
ATOM     28  C   UNL A   1      37.996  22.512  25.643  1.00  0.00     0.261 C 
BRANCH  28  29
ATOM     29  O   UNL A   1      39.398  22.270  25.803  1.00  0.00    -0.460 OA
BRANCH  29  30
ATOM     30  C   UNL A   1      39.970  22.354  27.026  1.00  0.00     0.338 C 
ATOM     31  O   UNL A   1      40.480  21.447  27.655  1.00  0.00    -0.246 OA
BRANCH  30  32
ATOM     32  C   UNL A   1      40.159  23.813  27.277  1.00  0.00     0.060 A 
ATOM     33  C   UNL A   1      40.530  24.641  26.206  1.00  0.00     0.016 A 
ATOM     34  C   UNL A   1      39.790  24.380  28.504  1.00  0.00     0.016 A 
ATOM     35  C   UNL A   1      40.544  26.030  26.362  1.00  0.00     0.010 A 
ATOM     36  C   UNL A   1      39.804  25.762  28.660  1.00  0.00     0.010 A 
ATOM     37  C   UNL A   1      40.214  26.590  27.602  1.00  0.00    -0.014 A 
BRANCH  37  38
ATOM     38  C   UNL A   1      40.570  27.989  27.932  1.00  0.00     0.031 A 
ATOM     39  C   UNL A   1      42.038  28.305  27.990  1.00  0.00     0.074 A 
ATOM     40  C   UNL A   1      39.647  28.906  28.267  1.00  0.00     0.049 A 
ATOM     41  N   UNL A   1      42.652  29.350  28.471  1.00  0.00    -0.248 NA
ATOM     42  C   UNL A   1      42.935  27.261  27.465  1.00  0.00     0.031 C 
ATOM     43  C   UNL A   1      38.200  28.707  28.220  1.00  0.00     0.029 A 
ATOM     44  N   UNL A   1      39.799  30.180  28.754  1.00  0.00    -0.354 N 
ATOM     45  C   UNL A   1      44.009  29.075  28.338  1.00  0.00     0.074 A 
ATOM     46  C   UNL A   1      44.123  27.751  27.770  1.00  0.00     0.031 C 
ATOM     47  C   UNL A   1      37.596  29.810  28.698  1.00  0.00     0.029 A 
ATOM     48  C   UNL A   1      38.614  30.767  29.132  1.00  0.00     0.049 A 
ATOM     49  H   UNL A   1      40.673  30.629  28.826  1.00  0.00     0.167 HD
ATOM     50  C   UNL A   1      45.064  29.862  28.663  1.00  0.00     0.034 A 
ATOM     51  C   UNL A   1      38.389  31.918  29.800  1.00  0.00     0.034 A 
ATOM     52  C   UNL A   1      44.911  31.168  29.249  1.00  0.00     0.049 A 
ATOM     53  C   UNL A   1      39.574  32.761  30.214  1.00  0.00     0.074 A 
ATOM     54  C   UNL A   1      45.892  32.078  29.596  1.00  0.00     0.029 A 
ATOM     55  N   UNL A   1      43.693  31.740  29.600  1.00  0.00    -0.354 N 
ATOM     56  N   UNL A   1      40.856  32.514  30.062  1.00  0.00    -0.248 NA
ATOM     57  C   UNL A   1      39.286  34.035  30.886  1.00  0.00     0.031 C 
ATOM     58  C   UNL A   1      45.274  33.159  30.232  1.00  0.00     0.029 A 
ATOM     59  C   UNL A   1      43.899  32.972  30.195  1.00  0.00     0.049 A 
ATOM     60  H   UNL A   1      42.812  31.327  29.448  1.00  0.00     0.167 HD
ATOM     61  C   UNL A   1      41.526  33.617  30.588  1.00  0.00     0.074 A 
ATOM     62  C   UNL A   1      40.504  34.530  31.062  1.00  0.00     0.031 C 
ATOM     63  C   UNL A   1      42.860  33.863  30.661  1.00  0.00     0.034 A 
BRANCH  50  64
ATOM     64  C   UNL A   1      46.444  29.284  28.455  1.00  0.00     0.023 A 
ATOM     65  C   UNL A   1      47.098  28.547  29.458  1.00  0.00     0.031 A 
ATOM     66  C   UNL A   1      47.153  29.550  27.271  1.00  0.00     0.131 A 
ATOM     67  C   UNL A   1      48.449  28.200  29.305  1.00  0.00     0.055 A 
ATOM     68  C   UNL A   1      48.465  29.110  27.083  1.00  0.00     0.041 A 
ATOM     69  F   UNL A   1      46.596  30.274  26.288  1.00  0.00    -0.206 F 
ATOM     70  C   UNL A   1      49.129  28.451  28.113  1.00  0.00     0.022 A 
BRANCH  67  71
ATOM     71  S   UNL A   1      49.356  27.602  30.759  1.00  0.00     0.124 S 
ATOM     72  O   UNL A   1      50.697  28.127  30.506  1.00  0.00    -0.237 OA
ATOM     73  O   UNL A   1      48.627  28.221  31.861  1.00  0.00    -0.237 OA
ATOM     74  O   UNL A   1      49.236  26.150  30.666  1.00  0.00    -0.744 OA
ENDBRANCH  67  71
ENDBRANCH  50  64
BRANCH  51  75
ATOM     75  C   UNL A   1      36.996  32.309  30.168  1.00  0.00     0.023 A 
ATOM     76  C   UNL A   1      36.203  33.088  29.311  1.00  0.00     0.031 A 
ATOM     77  C   UNL A   1      36.440  31.909  31.397  1.00  0.00     0.131 A 
ATOM     78  C   UNL A   1      34.906  33.460  29.703  1.00  0.00     0.055 A 
ATOM     79  C   UNL A   1      35.133  32.241  31.761  1.00  0.00     0.041 A 
ATOM     80  F   UNL A   1      37.156  31.166  32.257  1.00  0.00    -0.206 F 
ATOM     81  C   UNL A   1      34.360  33.027  30.915  1.00  0.00     0.022 A 
BRANCH  78  82
ATOM     82  S   UNL A   1      33.954  34.570  28.628  1.00  0.00     0.124 S 
ATOM     83  O   UNL A   1      34.142  35.856  29.289  1.00  0.00    -0.237 OA
ATOM     84  O   UNL A   1      34.628  34.401  27.346  1.00  0.00    -0.237 OA
ATOM     85  O   UNL A   1      32.598  34.026  28.692  1.00  0.00    -0.744 OA
ENDBRANCH  78  82
ENDBRANCH  51  75
BRANCH  63  86
ATOM     86  C   UNL A   1      43.297  35.198  31.214  1.00  0.00     0.023 A 
ATOM     87  C   UNL A   1      43.455  35.423  32.591  1.00  0.00     0.031 A 
ATOM     88  C   UNL A   1      43.607  36.248  30.329  1.00  0.00     0.131 A 
ATOM     89  C   UNL A   1      43.883  36.681  33.046  1.00  0.00     0.055 A 
ATOM     90  C   UNL A   1      44.089  37.475  30.783  1.00  0.00     0.041 A 
ATOM     91  F   UNL A   1      43.471  36.086  29.003  1.00  0.00    -0.206 F 
ATOM     92  C   UNL A   1      44.222  37.699  32.150  1.00  0.00     0.022 A 
BRANCH  89  93
ATOM     93  S   UNL A   1      43.927  36.997  34.831  1.00  0.00     0.124 S 
ATOM     94  O   UNL A   1      45.325  36.726  35.151  1.00  0.00    -0.237 OA
ATOM     95  O   UNL A   1      43.513  38.394  34.912  1.00  0.00    -0.237 OA
ATOM     96  O   UNL A   1      42.969  36.034  35.373  1.00  0.00    -0.744 OA
ENDBRANCH  89  93
ENDBRANCH  63  86
ENDBRANCH  37  38
ENDBRANCH  30  32
ENDBRANCH  29  30
ENDBRANCH  28  29
ENDBRANCH  27  28
ENDBRANCH  26  27
ENDBRANCH  25  26
ENDBRANCH   1  25
TORSDOF 24
ENDMDL
MODEL 3
REMARK VINA RESULT:      -9.1      2.942      8.306
REMARK SMILES CC[C@@](C)(NS(=O)(=O)c1ccc(F)c(F)c1)C(=O)OCCOCCOCCOC(=O)c1ccc(-c2c3nc(c(-c4cc(S(=O)(=O)[O-])ccc4F)c4ccc([nH]4)c(-c4cc(S(=O)(=O)[O-])ccc4F)c4nc(c(-c5cc(S(=O)(=O)[O-])ccc5F)c5ccc2[nH]5)C=C4)C=C3)cc1
REMARK SMILES IDX 23 1 22 2 21 3 20 4 19 5 17 6 18 7 3 8 4 9 2 10 1 11 5 12
REMARK SMILES IDX 6 14 7 15 8 16 9 17 10 18 16 19 11 20 14 21 12 22 15 23
REMARK SMILES IDX 13 24 24 25 25 26 26 27 27 28 28 29 29 30 30 31 31 32 32 33
REMARK SMILES IDX 93 34 33 35 92 36 34 37 35 38 36 39 86 40 37 41 91 42 85 43
REMARK SMILES IDX 87 44 38 45 90 46 84 47 83 48 39 50 71 51 51 52 70 53 52 54
REMARK SMILES IDX 55 55 69 56 88 57 53 58 54 59 68 61 89 62 56 63 40 64 41 65
REMARK SMILES IDX 49 66 42 67 48 68 50 69 47 70 43 71 44 72 45 73 46 74 72 75
REMARK SMILES IDX 73 76 81 77 74 78 80 79 82 80 79 81 75 82 76 83 77 84 78 85
REMARK SMILES IDX 57 86 58 87 66 88 59 89 65 90 67 91 64 92 60 93 61 94 62 95
REMARK SMILES IDX 63 96
REMARK H PARENT 5 13 87 49 55 60
REMARK Flexibility Score: inf
ROOT
ATOM      1  C   UNL A   1      40.379  22.252  26.213  1.00  0.00     0.188 C 
ENDROOT
BRANCH   1   2
ATOM      2  O   UNL A   1      38.997  22.367  26.549  1.00  0.00    -0.376 OA
BRANCH   2   3
ATOM      3  C   UNL A   1      38.418  23.668  26.380  1.00  0.00     0.202 C 
BRANCH   3   4
ATOM      4  C   UNL A   1      37.271  23.700  25.369  1.00  0.00     0.261 C 
BRANCH   4   5
ATOM      5  O   UNL A   1      36.109  23.062  25.948  1.00  0.00    -0.462 OA
BRANCH   5   6
ATOM      6  C   UNL A   1      35.710  21.903  25.361  1.00  0.00     0.327 C 
ATOM      7  O   UNL A   1      36.462  21.180  24.716  1.00  0.00    -0.250 OA
BRANCH   6   8
ATOM      8  C   UNL A   1      34.240  21.562  25.665  1.00  0.00     0.127 C 
ATOM      9  C   UNL A   1      33.941  20.188  25.049  1.00  0.00     0.042 C 
BRANCH   8  10
ATOM     10  C   UNL A   1      34.017  21.467  27.213  1.00  0.00     0.032 C 
ATOM     11  C   UNL A   1      33.019  22.434  27.843  1.00  0.00     0.006 C 
ENDBRANCH   8  10
BRANCH   8  12
ATOM     12  N   UNL A   1      33.244  22.579  25.205  1.00  0.00    -0.194 NA
ATOM     13  H   UNL A   1      33.368  23.368  25.841  1.00  0.00     0.142 HD
BRANCH  12  14
ATOM     14  S   UNL A   1      33.107  23.272  23.697  1.00  0.00     0.241 S 
ATOM     15  O   UNL A   1      34.176  22.816  22.837  1.00  0.00    -0.207 OA
ATOM     16  O   UNL A   1      31.726  23.082  23.316  1.00  0.00    -0.207 OA
BRANCH  14  17
ATOM     17  C   UNL A   1      33.332  25.012  23.947  1.00  0.00     0.085 A 
ATOM     18  C   UNL A   1      33.403  25.870  22.840  1.00  0.00     0.025 A 
ATOM     19  C   UNL A   1      33.524  25.507  25.238  1.00  0.00     0.064 A 
ATOM     20  C   UNL A   1      33.576  27.242  23.035  1.00  0.00     0.044 A 
ATOM     21  C   UNL A   1      33.673  26.877  25.418  1.00  0.00     0.160 A 
ATOM     22  C   UNL A   1      33.683  27.741  24.328  1.00  0.00     0.158 A 
ATOM     23  F   UNL A   1      33.778  27.366  26.660  1.00  0.00    -0.204 F 
ATOM     24  F   UNL A   1      33.787  29.064  24.515  1.00  0.00    -0.204 F 
ENDBRANCH  14  17
ENDBRANCH  12  14
ENDBRANCH   8  12
ENDBRANCH   6   8
ENDBRANCH   5   6
ENDBRANCH   4   5
ENDBRANCH   3   4
ENDBRANCH   2   3
ENDBRANCH   1   2
BRANCH   1  25
ATOM     25  C   UNL A   1      40.945  20.849  26.412  1.00  0.00     0.188 C 
BRANCH  25  26
ATOM     26  O   UNL A   1      42.157  20.621  25.725  1.00  0.00    -0.376 OA
BRANCH  26  27
ATOM     27  C   UNL A   1      43.029  21.719  25.459  1.00  0.00     0.202 C 
BRANCH  27  28
ATOM     28  C   UNL A   1      43.964  22.330  26.519  1.00  0.00     0.261 C 
BRANCH  28  29
ATOM     29  O   UNL A   1      45.277  22.747  26.128  1.00  0.00    -0.460 OA
BRANCH  29  30
ATOM     30  C   UNL A   1      45.436  23.752  25.236  1.00  0.00     0.338 C 
ATOM     31  O   UNL A   1      45.412  23.659  24.024  1.00  0.00    -0.246 OA
BRANCH  30  32
ATOM     32  C   UNL A   1      45.295  25.010  26.025  1.00  0.00     0.060 A 
ATOM     33  C   UNL A   1      44.779  26.152  25.391  1.00  0.00     0.016 A 
ATOM     34  C   UNL A   1      45.489  25.008  27.412  1.00  0.00     0.016 A 
ATOM     35  C   UNL A   1      44.468  27.292  26.138  1.00  0.00     0.010 A 
ATOM     36  C   UNL A   1      45.182  26.143  28.156  1.00  0.00     0.010 A 
ATOM     37  C   UNL A   1      44.703  27.300  27.518  1.00  0.00    -0.014 A 
BRANCH  37  38
ATOM     38  C   UNL A   1      44.754  28.568  28.281  1.00  0.00     0.031 A 
ATOM     39  C   UNL A   1      43.450  29.060  28.842  1.00  0.00     0.074 A 
ATOM     40  C   UNL A   1      45.876  29.300  28.381  1.00  0.00     0.049 A 
ATOM     41  N   UNL A   1      43.137  30.224  29.339  1.00  0.00    -0.248 NA
ATOM     42  C   UNL A   1      42.332  28.102  28.788  1.00  0.00     0.031 C 
ATOM     43  C   UNL A   1      47.194  28.902  27.893  1.00  0.00     0.029 A 
ATOM     44  N   UNL A   1      46.070  30.558  28.896  1.00  0.00    -0.354 N 
ATOM     45  C   UNL A   1      41.778  30.152  29.625  1.00  0.00     0.074 A 
ATOM     46  C   UNL A   1      41.324  28.845  29.208  1.00  0.00     0.031 C 
ATOM     47  C   UNL A   1      48.056  29.914  28.099  1.00  0.00     0.029 A 
ATOM     48  C   UNL A   1      47.338  31.048  28.683  1.00  0.00     0.049 A 
ATOM     49  H   UNL A   1      45.369  31.061  29.371  1.00  0.00     0.167 HD
ATOM     50  C   UNL A   1      40.984  31.095  30.187  1.00  0.00     0.034 A 
ATOM     51  C   UNL A   1      47.836  32.285  28.885  1.00  0.00     0.034 A 
ATOM     52  C   UNL A   1      41.468  32.396  30.568  1.00  0.00     0.049 A 
ATOM     53  C   UNL A   1      46.927  33.350  29.455  1.00  0.00     0.074 A 
ATOM     54  C   UNL A   1      40.779  33.430  31.174  1.00  0.00     0.029 A 
ATOM     55  N   UNL A   1      42.765  32.851  30.355  1.00  0.00    -0.354 N 
ATOM     56  N   UNL A   1      45.649  33.272  29.753  1.00  0.00    -0.248 NA
ATOM     57  C   UNL A   1      47.523  34.667  29.719  1.00  0.00     0.031 C 
ATOM     58  C   UNL A   1      41.633  34.534  31.248  1.00  0.00     0.029 A 
ATOM     59  C   UNL A   1      42.885  34.162  30.780  1.00  0.00     0.049 A 
ATOM     60  H   UNL A   1      43.491  32.317  29.958  1.00  0.00     0.167 HD
ATOM     61  C   UNL A   1      45.297  34.517  30.271  1.00  0.00     0.074 A 
ATOM     62  C   UNL A   1      46.499  35.327  30.242  1.00  0.00     0.031 C 
ATOM     63  C   UNL A   1      44.098  34.949  30.739  1.00  0.00     0.034 A 
BRANCH  50  64
ATOM     64  C   UNL A   1      39.518  30.760  30.337  1.00  0.00     0.023 A 
ATOM     65  C   UNL A   1      38.553  31.234  29.431  1.00  0.00     0.031 A 
ATOM     66  C   UNL A   1      39.068  30.034  31.454  1.00  0.00     0.131 A 
ATOM     67  C   UNL A   1      37.187  31.071  29.714  1.00  0.00     0.055 A 
ATOM     68  C   UNL A   1      37.712  29.786  31.673  1.00  0.00     0.041 A 
ATOM     69  F   UNL A   1      39.937  29.581  32.371  1.00  0.00    -0.206 F 
ATOM     70  C   UNL A   1      36.761  30.326  30.814  1.00  0.00     0.022 A 
BRANCH  67  71
ATOM     71  S   UNL A   1      35.986  32.021  28.739  1.00  0.00     0.124 S 
ATOM     72  O   UNL A   1      34.827  32.030  29.628  1.00  0.00    -0.237 OA
ATOM     73  O   UNL A   1      36.665  33.300  28.562  1.00  0.00    -0.237 OA
ATOM     74  O   UNL A   1      35.825  31.225  27.525  1.00  0.00    -0.744 OA
ENDBRANCH  67  71
ENDBRANCH  50  64
BRANCH  51  75
ATOM     75  C   UNL A   1      49.244  32.597  28.497  1.00  0.00     0.023 A 
ATOM     76  C   UNL A   1      49.570  33.012  27.196  1.00  0.00     0.031 A 
ATOM     77  C   UNL A   1      50.289  32.475  29.431  1.00  0.00     0.131 A 
ATOM     78  C   UNL A   1      50.911  33.271  26.860  1.00  0.00     0.055 A 
ATOM     79  C   UNL A   1      51.612  32.780  29.105  1.00  0.00     0.041 A 
ATOM     80  F   UNL A   1      50.034  32.079  30.689  1.00  0.00    -0.206 F 
ATOM     81  C   UNL A   1      51.930  33.173  27.810  1.00  0.00     0.022 A 
BRANCH  78  82
ATOM     82  S   UNL A   1      51.314  33.683  25.140  1.00  0.00     0.124 S 
ATOM     83  O   UNL A   1      52.589  34.374  25.291  1.00  0.00    -0.237 OA
ATOM     84  O   UNL A   1      51.366  32.366  24.517  1.00  0.00    -0.237 OA
ATOM     85  O   UNL A   1      50.194  34.524  24.720  1.00  0.00    -0.744 OA
ENDBRANCH  78  82
ENDBRANCH  51  75
BRANCH  63  86
ATOM     86  C   UNL A   1      44.034  36.340  31.323  1.00  0.00     0.023 A 
ATOM     87  C   UNL A   1      43.854  37.480  30.525  1.00  0.00     0.031 A 
ATOM     88  C   UNL A   1      44.108  36.511  32.719  1.00  0.00     0.131 A 
ATOM     89  C   UNL A   1      43.783  38.748  31.126  1.00  0.00     0.055 A 
ATOM     90  C   UNL A   1      43.976  37.764  33.314  1.00  0.00     0.041 A 
ATOM     91  F   UNL A   1      44.282  35.453  33.527  1.00  0.00    -0.206 F 
ATOM     92  C   UNL A   1      43.820  38.893  32.516  1.00  0.00     0.022 A 
BRANCH  89  93
ATOM     93  S   UNL A   1      43.708  40.217  30.066  1.00  0.00     0.124 S 
ATOM     94  O   UNL A   1      42.965  41.155  30.900  1.00  0.00    -0.237 OA
ATOM     95  O   UNL A   1      45.120  40.525  29.859  1.00  0.00    -0.237 OA
ATOM     96  O   UNL A   1      42.997  39.746  28.878  1.00  0.00    -0.744 OA
ENDBRANCH  89  93
ENDBRANCH  63  86
ENDBRANCH  37  38
ENDBRANCH  30  32
ENDBRANCH  29  30
ENDBRANCH  28  29
ENDBRANCH  27  28
ENDBRANCH  26  27
ENDBRANCH  25  26
ENDBRANCH   1  25
TORSDOF 24
ENDMDL
