MODEL 1
REMARK VINA RESULT:     -10.5      0.000      0.000
REMARK SMILES C[C@H](C(=O)OCCOCCOCCOC(=O)c1ccc(-c2c3nc(c(-c4cc(S(=O)(=O)[O-])ccc4F)c4ccc([nH]4)c(-c4cc(S(=O)(=O)[O-])ccc4F)c4nc(c(-c5cc(S(=O)(=O)[O-])ccc5F)c5ccc2[nH]5)C=C4)C=C3)cc1)[C@H](C)[NH+]1CCN(c2ccccc2Cl)CC1
REMARK SMILES IDX 9 1 8 2 7 3 6 4 5 5 3 6 4 7 2 8 1 9 80 10 81 11 82 12 83 13
REMARK SMILES IDX 94 14 84 16 93 17 85 18 86 19 87 20 91 21 88 22 90 23 92 24
REMARK SMILES IDX 89 25 10 26 11 27 12 28 13 29 14 30 15 31 16 32 17 33 18 34
REMARK SMILES IDX 79 35 19 36 78 37 20 38 21 39 22 40 72 41 23 42 77 43 71 44
REMARK SMILES IDX 73 45 24 46 76 47 70 48 69 49 25 51 57 52 37 53 56 54 38 55
REMARK SMILES IDX 41 56 55 57 74 58 39 59 40 60 54 62 75 63 42 64 26 65 27 66
REMARK SMILES IDX 35 67 28 68 34 69 36 70 33 71 29 72 30 73 31 74 32 75 58 76
REMARK SMILES IDX 59 77 67 78 60 79 66 80 68 81 65 82 61 83 62 84 63 85 64 86
REMARK SMILES IDX 43 87 44 88 52 89 45 90 51 91 53 92 50 93 46 94 47 95 48 96
REMARK SMILES IDX 49 97
REMARK H PARENT 82 15 73 50 41 61
REMARK Flexibility Score: inf
ROOT
ATOM      1  C   UNL A   1      40.746  21.745  27.535  1.00  0.00     0.188 C 
ENDROOT
BRANCH   1   2
ATOM      2  O   UNL A   1      39.843  22.309  26.618  1.00  0.00    -0.376 OA
BRANCH   2   3
ATOM      3  C   UNL A   1      39.070  23.447  26.926  1.00  0.00     0.202 C 
BRANCH   3   4
ATOM      4  C   UNL A   1      37.709  23.902  26.337  1.00  0.00     0.261 C 
BRANCH   4   5
ATOM      5  O   UNL A   1      37.139  23.375  25.134  1.00  0.00    -0.463 OA
BRANCH   5   6
ATOM      6  C   UNL A   1      36.053  22.594  25.342  1.00  0.00     0.314 C 
ATOM      7  O   UNL A   1      36.102  21.639  26.102  1.00  0.00    -0.252 OA
BRANCH   6   8
ATOM      8  C   UNL A   1      34.798  23.049  24.638  1.00  0.00     0.154 C 
ATOM      9  C   UNL A   1      34.993  23.105  23.122  1.00  0.00     0.026 C 
BRANCH   8  10
ATOM     10  C   UNL A   1      33.538  22.229  25.102  1.00  0.00     0.195 C 
ATOM     11  C   UNL A   1      33.482  20.911  24.289  1.00  0.00     0.076 C 
BRANCH  10  12
ATOM     12  N   UNL A   1      32.217  22.854  25.307  1.00  0.00    -0.329 N 
ATOM     13  C   UNL A   1      32.051  23.977  26.228  1.00  0.00     0.284 C 
ATOM     14  C   UNL A   1      31.249  22.980  24.198  1.00  0.00     0.284 C 
ATOM     15  H   UNL A   1      31.966  22.006  25.816  1.00  0.00     0.348 HD
ATOM     16  C   UNL A   1      32.032  25.393  25.604  1.00  0.00     0.178 C 
ATOM     17  C   UNL A   1      31.214  24.333  23.443  1.00  0.00     0.178 C 
ATOM     18  N   UNL A   1      31.228  25.470  24.376  1.00  0.00    -0.359 N 
BRANCH  18  19
ATOM     19  C   UNL A   1      31.056  26.754  23.861  1.00  0.00     0.056 A 
ATOM     20  C   UNL A   1      29.794  27.366  23.829  1.00  0.00     0.027 A 
ATOM     21  C   UNL A   1      32.124  27.436  23.256  1.00  0.00     0.064 A 
ATOM     22  C   UNL A   1      29.580  28.568  23.143  1.00  0.00     0.002 A 
ATOM     23  C   UNL A   1      31.921  28.645  22.585  1.00  0.00     0.023 A 
ATOM     24  Cl  UNL A   1      33.729  26.789  23.302  1.00  0.00    -0.082 Cl
ATOM     25  C   UNL A   1      30.644  29.199  22.505  1.00  0.00     0.002 A 
ENDBRANCH  18  19
ENDBRANCH  10  12
ENDBRANCH   8  10
ENDBRANCH   6   8
ENDBRANCH   5   6
ENDBRANCH   4   5
ENDBRANCH   3   4
ENDBRANCH   2   3
ENDBRANCH   1   2
BRANCH   1  26
ATOM     26  C   UNL A   1      41.564  20.594  26.940  1.00  0.00     0.188 C 
BRANCH  26  27
ATOM     27  O   UNL A   1      42.969  20.726  26.848  1.00  0.00    -0.376 OA
BRANCH  27  28
ATOM     28  C   UNL A   1      43.598  20.619  25.583  1.00  0.00     0.202 C 
BRANCH  28  29
ATOM     29  C   UNL A   1      44.077  21.830  24.744  1.00  0.00     0.261 C 
BRANCH  29  30
ATOM     30  O   UNL A   1      43.374  23.077  24.839  1.00  0.00    -0.460 OA
BRANCH  30  31
ATOM     31  C   UNL A   1      44.122  24.188  25.055  1.00  0.00     0.338 C 
ATOM     32  O   UNL A   1      45.165  24.472  24.496  1.00  0.00    -0.246 OA
BRANCH  31  33
ATOM     33  C   UNL A   1      43.339  25.129  25.906  1.00  0.00     0.060 A 
ATOM     34  C   UNL A   1      43.723  26.480  25.957  1.00  0.00     0.016 A 
ATOM     35  C   UNL A   1      42.242  24.693  26.652  1.00  0.00     0.016 A 
ATOM     36  C   UNL A   1      43.036  27.389  26.765  1.00  0.00     0.010 A 
ATOM     37  C   UNL A   1      41.584  25.595  27.499  1.00  0.00     0.010 A 
ATOM     38  C   UNL A   1      41.999  26.939  27.589  1.00  0.00    -0.014 A 
BRANCH  38  39
ATOM     39  C   UNL A   1      41.538  27.792  28.718  1.00  0.00     0.031 A 
ATOM     40  C   UNL A   1      42.320  27.734  30.005  1.00  0.00     0.074 A 
ATOM     41  C   UNL A   1      40.484  28.621  28.612  1.00  0.00     0.049 A 
ATOM     42  N   UNL A   1      42.070  28.290  31.161  1.00  0.00    -0.248 NA
ATOM     43  C   UNL A   1      43.551  26.928  29.977  1.00  0.00     0.031 C 
ATOM     44  C   UNL A   1      39.691  28.836  27.404  1.00  0.00     0.029 A 
ATOM     45  N   UNL A   1      39.890  29.431  29.552  1.00  0.00    -0.354 N 
ATOM     46  C   UNL A   1      43.105  27.892  32.002  1.00  0.00     0.074 A 
ATOM     47  C   UNL A   1      43.962  27.019  31.231  1.00  0.00     0.031 C 
ATOM     48  C   UNL A   1      38.700  29.703  27.682  1.00  0.00     0.029 A 
ATOM     49  C   UNL A   1      38.758  30.067  29.098  1.00  0.00     0.049 A 
ATOM     50  H   UNL A   1      40.243  29.545  30.464  1.00  0.00     0.167 HD
ATOM     51  C   UNL A   1      43.323  28.228  33.298  1.00  0.00     0.034 A 
ATOM     52  C   UNL A   1      37.853  30.823  29.758  1.00  0.00     0.034 A 
ATOM     53  C   UNL A   1      42.454  29.088  34.061  1.00  0.00     0.049 A 
ATOM     54  C   UNL A   1      38.051  31.090  31.236  1.00  0.00     0.074 A 
ATOM     55  C   UNL A   1      42.582  29.491  35.379  1.00  0.00     0.029 A 
ATOM     56  N   UNL A   1      41.286  29.668  33.583  1.00  0.00    -0.354 N 
ATOM     57  N   UNL A   1      39.023  30.697  32.028  1.00  0.00    -0.248 NA
ATOM     58  C   UNL A   1      37.029  31.906  31.908  1.00  0.00     0.031 C 
ATOM     59  C   UNL A   1      41.453  30.241  35.722  1.00  0.00     0.029 A 
ATOM     60  C   UNL A   1      40.666  30.393  34.590  1.00  0.00     0.049 A 
ATOM     61  H   UNL A   1      40.948  29.578  32.662  1.00  0.00     0.167 HD
ATOM     62  C   UNL A   1      38.747  31.252  33.278  1.00  0.00     0.074 A 
ATOM     63  C   UNL A   1      37.525  32.015  33.131  1.00  0.00     0.031 C 
ATOM     64  C   UNL A   1      39.444  31.148  34.439  1.00  0.00     0.034 A 
BRANCH  51  65
ATOM     65  C   UNL A   1      44.519  27.609  33.982  1.00  0.00     0.023 A 
ATOM     66  C   UNL A   1      44.419  26.414  34.718  1.00  0.00     0.031 A 
ATOM     67  C   UNL A   1      45.774  28.241  33.923  1.00  0.00     0.131 A 
ATOM     68  C   UNL A   1      45.532  25.932  35.422  1.00  0.00     0.055 A 
ATOM     69  C   UNL A   1      46.899  27.708  34.554  1.00  0.00     0.041 A 
ATOM     70  F   UNL A   1      45.926  29.398  33.259  1.00  0.00    -0.206 F 
ATOM     71  C   UNL A   1      46.778  26.555  35.323  1.00  0.00     0.022 A 
BRANCH  68  72
ATOM     72  S   UNL A   1      45.291  24.569  36.595  1.00  0.00     0.124 S 
ATOM     73  O   UNL A   1      44.542  25.228  37.662  1.00  0.00    -0.237 OA
ATOM     74  O   UNL A   1      44.550  23.596  35.801  1.00  0.00    -0.237 OA
ATOM     75  O   UNL A   1      46.653  24.178  36.952  1.00  0.00    -0.744 OA
ENDBRANCH  68  72
ENDBRANCH  51  65
BRANCH  52  76
ATOM     76  C   UNL A   1      36.639  31.340  29.059  1.00  0.00     0.023 A 
ATOM     77  C   UNL A   1      35.637  30.471  28.596  1.00  0.00     0.031 A 
ATOM     78  C   UNL A   1      36.500  32.711  28.773  1.00  0.00     0.131 A 
ATOM     79  C   UNL A   1      34.570  30.973  27.833  1.00  0.00     0.055 A 
ATOM     80  C   UNL A   1      35.404  33.214  28.069  1.00  0.00     0.041 A 
ATOM     81  F   UNL A   1      37.433  33.587  29.179  1.00  0.00    -0.206 F 
ATOM     82  C   UNL A   1      34.438  32.340  27.581  1.00  0.00     0.022 A 
BRANCH  79  83
ATOM     83  S   UNL A   1      33.413  29.797  27.078  1.00  0.00     0.124 S 
ATOM     84  O   UNL A   1      33.869  28.532  27.640  1.00  0.00    -0.237 OA
ATOM     85  O   UNL A   1      32.126  30.288  27.559  1.00  0.00    -0.237 OA
ATOM     86  O   UNL A   1      33.645  29.963  25.644  1.00  0.00    -0.744 OA
ENDBRANCH  79  83
ENDBRANCH  52  76
BRANCH  64  87
ATOM     87  C   UNL A   1      38.937  31.928  35.632  1.00  0.00     0.023 A 
ATOM     88  C   UNL A   1      38.269  31.308  36.703  1.00  0.00     0.031 A 
ATOM     89  C   UNL A   1      39.129  33.320  35.695  1.00  0.00     0.131 A 
ATOM     90  C   UNL A   1      37.768  32.084  37.760  1.00  0.00     0.055 A 
ATOM     91  C   UNL A   1      38.691  34.078  36.783  1.00  0.00     0.041 A 
ATOM     92  F   UNL A   1      39.756  33.970  34.701  1.00  0.00    -0.206 F 
ATOM     93  C   UNL A   1      37.994  33.462  37.817  1.00  0.00     0.022 A 
BRANCH  90  94
ATOM     94  S   UNL A   1      36.728  31.287  39.014  1.00  0.00     0.124 S 
ATOM     95  O   UNL A   1      36.600  29.934  38.485  1.00  0.00    -0.237 OA
ATOM     96  O   UNL A   1      37.534  31.426  40.223  1.00  0.00    -0.237 OA
ATOM     97  O   UNL A   1      35.499  32.079  38.995  1.00  0.00    -0.744 OA
ENDBRANCH  90  94
ENDBRANCH  64  87
ENDBRANCH  38  39
ENDBRANCH  31  33
ENDBRANCH  30  31
ENDBRANCH  29  30
ENDBRANCH  28  29
ENDBRANCH  27  28
ENDBRANCH  26  27
ENDBRANCH   1  26
TORSDOF 23
ENDMDL
MODEL 2
REMARK VINA RESULT:     -10.4      1.904      3.600
REMARK SMILES C[C@H](C(=O)OCCOCCOCCOC(=O)c1ccc(-c2c3nc(c(-c4cc(S(=O)(=O)[O-])ccc4F)c4ccc([nH]4)c(-c4cc(S(=O)(=O)[O-])ccc4F)c4nc(c(-c5cc(S(=O)(=O)[O-])ccc5F)c5ccc2[nH]5)C=C4)C=C3)cc1)[C@H](C)[NH+]1CCN(c2ccccc2Cl)CC1
REMARK SMILES IDX 9 1 8 2 7 3 6 4 5 5 3 6 4 7 2 8 1 9 80 10 81 11 82 12 83 13
REMARK SMILES IDX 94 14 84 16 93 17 85 18 86 19 87 20 91 21 88 22 90 23 92 24
REMARK SMILES IDX 89 25 10 26 11 27 12 28 13 29 14 30 15 31 16 32 17 33 18 34
REMARK SMILES IDX 79 35 19 36 78 37 20 38 21 39 22 40 72 41 23 42 77 43 71 44
REMARK SMILES IDX 73 45 24 46 76 47 70 48 69 49 25 51 57 52 37 53 56 54 38 55
REMARK SMILES IDX 41 56 55 57 74 58 39 59 40 60 54 62 75 63 42 64 26 65 27 66
REMARK SMILES IDX 35 67 28 68 34 69 36 70 33 71 29 72 30 73 31 74 32 75 58 76
REMARK SMILES IDX 59 77 67 78 60 79 66 80 68 81 65 82 61 83 62 84 63 85 64 86
REMARK SMILES IDX 43 87 44 88 52 89 45 90 51 91 53 92 50 93 46 94 47 95 48 96
REMARK SMILES IDX 49 97
REMARK H PARENT 82 15 73 50 41 61
REMARK Flexibility Score: inf
ROOT
ATOM      1  C   UNL A   1      40.041  21.773  26.956  1.00  0.00     0.188 C 
ENDROOT
BRANCH   1   2
ATOM      2  O   UNL A   1      39.070  22.205  26.036  1.00  0.00    -0.376 OA
BRANCH   2   3
ATOM      3  C   UNL A   1      38.245  23.321  26.284  1.00  0.00     0.202 C 
BRANCH   3   4
ATOM      4  C   UNL A   1      36.964  23.782  25.540  1.00  0.00     0.261 C 
BRANCH   4   5
ATOM      5  O   UNL A   1      36.277  22.996  24.560  1.00  0.00    -0.463 OA
BRANCH   5   6
ATOM      6  C   UNL A   1      35.266  23.652  23.945  1.00  0.00     0.314 C 
ATOM      7  O   UNL A   1      35.292  23.862  22.742  1.00  0.00    -0.252 OA
BRANCH   6   8
ATOM      8  C   UNL A   1      34.105  24.012  24.839  1.00  0.00     0.154 C 
ATOM      9  C   UNL A   1      34.344  25.337  25.564  1.00  0.00     0.026 C 
BRANCH   8  10
ATOM     10  C   UNL A   1      32.731  23.926  24.076  1.00  0.00     0.195 C 
ATOM     11  C   UNL A   1      31.990  25.276  24.245  1.00  0.00     0.076 C 
BRANCH  10  12
ATOM     12  N   UNL A   1      31.846  22.749  24.168  1.00  0.00    -0.329 N 
ATOM     13  C   UNL A   1      31.693  21.833  23.038  1.00  0.00     0.284 C 
ATOM     14  C   UNL A   1      31.696  22.000  25.432  1.00  0.00     0.284 C 
ATOM     15  H   UNL A   1      31.070  23.410  24.128  1.00  0.00     0.348 HD
ATOM     16  C   UNL A   1      32.537  20.537  23.074  1.00  0.00     0.178 C 
ATOM     17  C   UNL A   1      32.569  20.731  25.608  1.00  0.00     0.178 C 
ATOM     18  N   UNL A   1      32.555  19.897  24.397  1.00  0.00    -0.359 N 
BRANCH  18  19
ATOM     19  C   UNL A   1      33.175  18.649  24.443  1.00  0.00     0.056 A 
ATOM     20  C   UNL A   1      32.430  17.461  24.393  1.00  0.00     0.027 A 
ATOM     21  C   UNL A   1      34.560  18.540  24.649  1.00  0.00     0.064 A 
ATOM     22  C   UNL A   1      33.024  16.215  24.632  1.00  0.00     0.002 A 
ATOM     23  C   UNL A   1      35.161  17.298  24.870  1.00  0.00     0.023 A 
ATOM     24  Cl  UNL A   1      35.568  19.947  24.660  1.00  0.00    -0.082 Cl
ATOM     25  C   UNL A   1      34.389  16.137  24.888  1.00  0.00     0.002 A 
ENDBRANCH  18  19
ENDBRANCH  10  12
ENDBRANCH   8  10
ENDBRANCH   6   8
ENDBRANCH   5   6
ENDBRANCH   4   5
ENDBRANCH   3   4
ENDBRANCH   2   3
ENDBRANCH   1   2
BRANCH   1  26
ATOM     26  C   UNL A   1      40.782  20.513  26.497  1.00  0.00     0.188 C 
BRANCH  26  27
ATOM     27  O   UNL A   1      42.152  20.369  26.816  1.00  0.00    -0.376 OA
BRANCH  27  28
ATOM     28  C   UNL A   1      43.117  20.408  25.779  1.00  0.00     0.202 C 
BRANCH  28  29
ATOM     29  C   UNL A   1      43.866  21.689  25.334  1.00  0.00     0.261 C 
BRANCH  29  30
ATOM     30  O   UNL A   1      43.116  22.873  25.024  1.00  0.00    -0.460 OA
BRANCH  30  31
ATOM     31  C   UNL A   1      43.788  24.051  25.062  1.00  0.00     0.338 C 
ATOM     32  O   UNL A   1      44.742  24.358  24.372  1.00  0.00    -0.246 OA
BRANCH  31  33
ATOM     33  C   UNL A   1      43.020  25.007  25.910  1.00  0.00     0.060 A 
ATOM     34  C   UNL A   1      43.468  26.335  26.015  1.00  0.00     0.016 A 
ATOM     35  C   UNL A   1      41.875  24.607  26.602  1.00  0.00     0.016 A 
ATOM     36  C   UNL A   1      42.796  27.255  26.823  1.00  0.00     0.010 A 
ATOM     37  C   UNL A   1      41.229  25.518  27.450  1.00  0.00     0.010 A 
ATOM     38  C   UNL A   1      41.707  26.837  27.594  1.00  0.00    -0.014 A 
BRANCH  38  39
ATOM     39  C   UNL A   1      41.245  27.681  28.729  1.00  0.00     0.031 A 
ATOM     40  C   UNL A   1      42.034  27.623  30.012  1.00  0.00     0.074 A 
ATOM     41  C   UNL A   1      40.184  28.502  28.632  1.00  0.00     0.049 A 
ATOM     42  N   UNL A   1      41.786  28.173  31.172  1.00  0.00    -0.248 NA
ATOM     43  C   UNL A   1      43.272  26.828  29.973  1.00  0.00     0.031 C 
ATOM     44  C   UNL A   1      39.383  28.716  27.429  1.00  0.00     0.029 A 
ATOM     45  N   UNL A   1      39.589  29.303  29.579  1.00  0.00    -0.354 N 
ATOM     46  C   UNL A   1      42.829  27.780  32.005  1.00  0.00     0.074 A 
ATOM     47  C   UNL A   1      43.689  26.916  31.226  1.00  0.00     0.031 C 
ATOM     48  C   UNL A   1      38.387  29.574  27.716  1.00  0.00     0.029 A 
ATOM     49  C   UNL A   1      38.449  29.932  29.134  1.00  0.00     0.049 A 
ATOM     50  H   UNL A   1      39.946  29.416  30.489  1.00  0.00     0.167 HD
ATOM     51  C   UNL A   1      43.052  28.111  33.302  1.00  0.00     0.034 A 
ATOM     52  C   UNL A   1      37.542  30.678  29.802  1.00  0.00     0.034 A 
ATOM     53  C   UNL A   1      42.179  28.961  34.073  1.00  0.00     0.049 A 
ATOM     54  C   UNL A   1      37.746  30.940  31.280  1.00  0.00     0.074 A 
ATOM     55  C   UNL A   1      42.311  29.359  35.392  1.00  0.00     0.029 A 
ATOM     56  N   UNL A   1      41.004  29.534  33.604  1.00  0.00    -0.354 N 
ATOM     57  N   UNL A   1      38.725  30.551  32.065  1.00  0.00    -0.248 NA
ATOM     58  C   UNL A   1      36.720  31.745  31.960  1.00  0.00     0.031 C 
ATOM     59  C   UNL A   1      41.178  30.099  35.744  1.00  0.00     0.029 A 
ATOM     60  C   UNL A   1      40.384  30.249  34.617  1.00  0.00     0.049 A 
ATOM     61  H   UNL A   1      40.662  29.445  32.684  1.00  0.00     0.167 HD
ATOM     62  C   UNL A   1      38.452  31.099  33.319  1.00  0.00     0.074 A 
ATOM     63  C   UNL A   1      37.223  31.853  33.181  1.00  0.00     0.031 C 
ATOM     64  C   UNL A   1      39.155  30.995  34.476  1.00  0.00     0.034 A 
BRANCH  51  65
ATOM     65  C   UNL A   1      44.255  27.499  33.977  1.00  0.00     0.023 A 
ATOM     66  C   UNL A   1      44.211  26.220  34.560  1.00  0.00     0.031 A 
ATOM     67  C   UNL A   1      45.460  28.219  34.064  1.00  0.00     0.131 A 
ATOM     68  C   UNL A   1      45.321  25.735  35.267  1.00  0.00     0.055 A 
ATOM     69  C   UNL A   1      46.590  27.694  34.693  1.00  0.00     0.041 A 
ATOM     70  F   UNL A   1      45.556  29.456  33.551  1.00  0.00    -0.206 F 
ATOM     71  C   UNL A   1      46.520  26.450  35.313  1.00  0.00     0.022 A 
BRANCH  68  72
ATOM     72  S   UNL A   1      45.126  24.226  36.256  1.00  0.00     0.124 S 
ATOM     73  O   UNL A   1      46.498  23.726  36.303  1.00  0.00    -0.237 OA
ATOM     74  O   UNL A   1      44.590  24.738  37.511  1.00  0.00    -0.237 OA
ATOM     75  O   UNL A   1      44.203  23.415  35.465  1.00  0.00    -0.744 OA
ENDBRANCH  68  72
ENDBRANCH  51  65
BRANCH  52  76
ATOM     76  C   UNL A   1      36.320  31.188  29.111  1.00  0.00     0.023 A 
ATOM     77  C   UNL A   1      35.923  32.531  29.224  1.00  0.00     0.031 A 
ATOM     78  C   UNL A   1      35.485  30.317  28.387  1.00  0.00     0.131 A 
ATOM     79  C   UNL A   1      34.704  32.951  28.669  1.00  0.00     0.055 A 
ATOM     80  C   UNL A   1      34.306  30.754  27.781  1.00  0.00     0.041 A 
ATOM     81  F   UNL A   1      35.807  29.020  28.257  1.00  0.00    -0.206 F 
ATOM     82  C   UNL A   1      33.901  32.076  27.933  1.00  0.00     0.022 A 
BRANCH  79  83
ATOM     83  S   UNL A   1      34.125  34.635  29.014  1.00  0.00     0.124 S 
ATOM     84  O   UNL A   1      34.472  34.784  30.422  1.00  0.00    -0.237 OA
ATOM     85  O   UNL A   1      34.911  35.425  28.072  1.00  0.00    -0.237 OA
ATOM     86  O   UNL A   1      32.694  34.570  28.728  1.00  0.00    -0.744 OA
ENDBRANCH  79  83
ENDBRANCH  52  76
BRANCH  64  87
ATOM     87  C   UNL A   1      38.648  31.766  35.675  1.00  0.00     0.023 A 
ATOM     88  C   UNL A   1      38.044  31.129  36.773  1.00  0.00     0.031 A 
ATOM     89  C   UNL A   1      38.776  33.167  35.716  1.00  0.00     0.131 A 
ATOM     90  C   UNL A   1      37.540  31.895  37.837  1.00  0.00     0.055 A 
ATOM     91  C   UNL A   1      38.336  33.918  36.807  1.00  0.00     0.041 A 
ATOM     92  F   UNL A   1      39.340  33.832  34.694  1.00  0.00    -0.206 F 
ATOM     93  C   UNL A   1      37.700  33.283  37.870  1.00  0.00     0.022 A 
BRANCH  90  94
ATOM     94  S   UNL A   1      36.577  31.066  39.131  1.00  0.00     0.124 S 
ATOM     95  O   UNL A   1      37.517  31.056  40.247  1.00  0.00    -0.237 OA
ATOM     96  O   UNL A   1      35.424  31.949  39.276  1.00  0.00    -0.237 OA
ATOM     97  O   UNL A   1      36.284  29.755  38.555  1.00  0.00    -0.744 OA
ENDBRANCH  90  94
ENDBRANCH  64  87
ENDBRANCH  38  39
ENDBRANCH  31  33
ENDBRANCH  30  31
ENDBRANCH  29  30
ENDBRANCH  28  29
ENDBRANCH  27  28
ENDBRANCH  26  27
ENDBRANCH   1  26
TORSDOF 23
ENDMDL
MODEL 3
REMARK VINA RESULT:     -10.1      2.705      9.317
REMARK SMILES C[C@H](C(=O)OCCOCCOCCOC(=O)c1ccc(-c2c3nc(c(-c4cc(S(=O)(=O)[O-])ccc4F)c4ccc([nH]4)c(-c4cc(S(=O)(=O)[O-])ccc4F)c4nc(c(-c5cc(S(=O)(=O)[O-])ccc5F)c5ccc2[nH]5)C=C4)C=C3)cc1)[C@H](C)[NH+]1CCN(c2ccccc2Cl)CC1
REMARK SMILES IDX 9 1 8 2 7 3 6 4 5 5 3 6 4 7 2 8 1 9 80 10 81 11 82 12 83 13
REMARK SMILES IDX 94 14 84 16 93 17 85 18 86 19 87 20 91 21 88 22 90 23 92 24
REMARK SMILES IDX 89 25 10 26 11 27 12 28 13 29 14 30 15 31 16 32 17 33 18 34
REMARK SMILES IDX 79 35 19 36 78 37 20 38 21 39 22 40 72 41 23 42 77 43 71 44
REMARK SMILES IDX 73 45 24 46 76 47 70 48 69 49 25 51 57 52 37 53 56 54 38 55
REMARK SMILES IDX 41 56 55 57 74 58 39 59 40 60 54 62 75 63 42 64 26 65 27 66
REMARK SMILES IDX 35 67 28 68 34 69 36 70 33 71 29 72 30 73 31 74 32 75 58 76
REMARK SMILES IDX 59 77 67 78 60 79 66 80 68 81 65 82 61 83 62 84 63 85 64 86
REMARK SMILES IDX 43 87 44 88 52 89 45 90 51 91 53 92 50 93 46 94 47 95 48 96
REMARK SMILES IDX 49 97
REMARK H PARENT 82 15 73 50 41 61
REMARK Flexibility Score: inf
ROOT
ATOM      1  C   UNL A   1      35.235  29.569  27.765  1.00  0.00     0.188 C 
ENDROOT
BRANCH   1   2
ATOM      2  O   UNL A   1      34.399  28.869  26.879  1.00  0.00    -0.376 OA
BRANCH   2   3
ATOM      3  C   UNL A   1      32.993  28.924  26.970  1.00  0.00     0.202 C 
BRANCH   3   4
ATOM      4  C   UNL A   1      31.957  27.772  26.903  1.00  0.00     0.261 C 
BRANCH   4   5
ATOM      5  O   UNL A   1      32.264  26.438  26.482  1.00  0.00    -0.463 OA
BRANCH   5   6
ATOM      6  C   UNL A   1      32.534  26.332  25.160  1.00  0.00     0.314 C 
ATOM      7  O   UNL A   1      33.667  26.099  24.766  1.00  0.00    -0.252 OA
BRANCH   6   8
ATOM      8  C   UNL A   1      31.332  26.440  24.255  1.00  0.00     0.154 C 
ATOM      9  C   UNL A   1      31.743  26.637  22.795  1.00  0.00     0.026 C 
BRANCH   8  10
ATOM     10  C   UNL A   1      30.315  25.262  24.491  1.00  0.00     0.195 C 
ATOM     11  C   UNL A   1      29.483  25.577  25.759  1.00  0.00     0.076 C 
BRANCH  10  12
ATOM     12  N   UNL A   1      30.706  23.843  24.377  1.00  0.00    -0.329 N 
ATOM     13  C   UNL A   1      31.501  23.371  23.245  1.00  0.00     0.284 C 
ATOM     14  C   UNL A   1      31.028  23.039  25.574  1.00  0.00     0.284 C 
ATOM     15  H   UNL A   1      29.727  23.658  24.157  1.00  0.00     0.348 HD
ATOM     16  C   UNL A   1      33.023  23.219  23.478  1.00  0.00     0.178 C 
ATOM     17  C   UNL A   1      32.525  22.902  25.950  1.00  0.00     0.178 C 
ATOM     18  N   UNL A   1      33.350  22.601  24.770  1.00  0.00    -0.359 N 
BRANCH  18  19
ATOM     19  C   UNL A   1      34.699  22.305  24.961  1.00  0.00     0.056 A 
ATOM     20  C   UNL A   1      35.667  23.319  25.024  1.00  0.00     0.027 A 
ATOM     21  C   UNL A   1      35.148  20.975  24.987  1.00  0.00     0.064 A 
ATOM     22  C   UNL A   1      37.037  23.024  25.021  1.00  0.00     0.002 A 
ATOM     23  C   UNL A   1      36.513  20.674  25.002  1.00  0.00     0.023 A 
ATOM     24  Cl  UNL A   1      34.024  19.660  24.980  1.00  0.00    -0.082 Cl
ATOM     25  C   UNL A   1      37.459  21.699  24.993  1.00  0.00     0.002 A 
ENDBRANCH  18  19
ENDBRANCH  10  12
ENDBRANCH   8  10
ENDBRANCH   6   8
ENDBRANCH   5   6
ENDBRANCH   4   5
ENDBRANCH   3   4
ENDBRANCH   2   3
ENDBRANCH   1   2
BRANCH   1  26
ATOM     26  C   UNL A   1      35.076  31.090  27.663  1.00  0.00     0.188 C 
BRANCH  26  27
ATOM     27  O   UNL A   1      33.996  31.713  28.331  1.00  0.00    -0.376 OA
BRANCH  27  28
ATOM     28  C   UNL A   1      33.169  32.620  27.623  1.00  0.00     0.202 C 
BRANCH  28  29
ATOM     29  C   UNL A   1      33.029  34.123  27.969  1.00  0.00     0.261 C 
BRANCH  29  30
ATOM     30  O   UNL A   1      32.529  34.507  29.259  1.00  0.00    -0.460 OA
BRANCH  30  31
ATOM     31  C   UNL A   1      33.370  35.209  30.059  1.00  0.00     0.338 C 
ATOM     32  O   UNL A   1      33.129  36.274  30.597  1.00  0.00    -0.246 OA
BRANCH  31  33
ATOM     33  C   UNL A   1      34.547  34.352  30.376  1.00  0.00     0.060 A 
ATOM     34  C   UNL A   1      34.402  33.319  31.319  1.00  0.00     0.016 A 
ATOM     35  C   UNL A   1      35.783  34.558  29.761  1.00  0.00     0.016 A 
ATOM     36  C   UNL A   1      35.488  32.512  31.668  1.00  0.00     0.010 A 
ATOM     37  C   UNL A   1      36.883  33.779  30.148  1.00  0.00     0.010 A 
ATOM     38  C   UNL A   1      36.751  32.777  31.130  1.00  0.00    -0.014 A 
BRANCH  38  39
ATOM     39  C   UNL A   1      37.959  32.198  31.777  1.00  0.00     0.031 A 
ATOM     40  C   UNL A   1      38.666  31.074  31.064  1.00  0.00     0.074 A 
ATOM     41  C   UNL A   1      38.447  32.665  32.941  1.00  0.00     0.049 A 
ATOM     42  N   UNL A   1      39.668  30.333  31.458  1.00  0.00    -0.248 NA
ATOM     43  C   UNL A   1      38.160  30.742  29.722  1.00  0.00     0.031 C 
ATOM     44  C   UNL A   1      37.912  33.797  33.692  1.00  0.00     0.029 A 
ATOM     45  N   UNL A   1      39.506  32.225  33.701  1.00  0.00    -0.354 N 
ATOM     46  C   UNL A   1      39.905  29.438  30.419  1.00  0.00     0.074 A 
ATOM     47  C   UNL A   1      38.918  29.707  29.396  1.00  0.00     0.031 C 
ATOM     48  C   UNL A   1      38.632  33.949  34.820  1.00  0.00     0.029 A 
ATOM     49  C   UNL A   1      39.646  32.897  34.894  1.00  0.00     0.049 A 
ATOM     50  H   UNL A   1      40.107  31.499  33.419  1.00  0.00     0.167 HD
ATOM     51  C   UNL A   1      40.863  28.481  30.323  1.00  0.00     0.034 A 
ATOM     52  C   UNL A   1      40.471  32.665  35.939  1.00  0.00     0.034 A 
ATOM     53  C   UNL A   1      41.833  28.212  31.355  1.00  0.00     0.049 A 
ATOM     54  C   UNL A   1      41.455  31.516  35.863  1.00  0.00     0.074 A 
ATOM     55  C   UNL A   1      42.844  27.266  31.361  1.00  0.00     0.029 A 
ATOM     56  N   UNL A   1      41.907  28.876  32.573  1.00  0.00    -0.354 N 
ATOM     57  N   UNL A   1      41.662  30.664  34.884  1.00  0.00    -0.248 NA
ATOM     58  C   UNL A   1      42.318  31.300  37.034  1.00  0.00     0.031 C 
ATOM     59  C   UNL A   1      43.471  27.301  32.609  1.00  0.00     0.029 A 
ATOM     60  C   UNL A   1      42.921  28.336  33.350  1.00  0.00     0.049 A 
ATOM     61  H   UNL A   1      41.325  29.623  32.844  1.00  0.00     0.167 HD
ATOM     62  C   UNL A   1      42.705  29.840  35.308  1.00  0.00     0.074 A 
ATOM     63  C   UNL A   1      43.089  30.304  36.625  1.00  0.00     0.031 C 
ATOM     64  C   UNL A   1      43.296  28.800  34.665  1.00  0.00     0.034 A 
BRANCH  51  65
ATOM     65  C   UNL A   1      40.860  27.620  29.083  1.00  0.00     0.023 A 
ATOM     66  C   UNL A   1      41.779  27.818  28.038  1.00  0.00     0.031 A 
ATOM     67  C   UNL A   1      39.901  26.602  28.931  1.00  0.00     0.131 A 
ATOM     68  C   UNL A   1      41.672  27.063  26.860  1.00  0.00     0.055 A 
ATOM     69  C   UNL A   1      39.856  25.795  27.793  1.00  0.00     0.041 A 
ATOM     70  F   UNL A   1      38.979  26.383  29.883  1.00  0.00    -0.206 F 
ATOM     71  C   UNL A   1      40.735  26.034  26.742  1.00  0.00     0.022 A 
BRANCH  68  72
ATOM     72  S   UNL A   1      42.672  27.548  25.426  1.00  0.00     0.124 S 
ATOM     73  O   UNL A   1      43.934  27.920  26.061  1.00  0.00    -0.237 OA
ATOM     74  O   UNL A   1      42.693  26.329  24.628  1.00  0.00    -0.237 OA
ATOM     75  O   UNL A   1      41.923  28.662  24.848  1.00  0.00    -0.744 OA
ENDBRANCH  68  72
ENDBRANCH  51  65
BRANCH  52  76
ATOM     76  C   UNL A   1      40.375  33.489  37.181  1.00  0.00     0.023 A 
ATOM     77  C   UNL A   1      39.551  33.105  38.251  1.00  0.00     0.031 A 
ATOM     78  C   UNL A   1      41.052  34.719  37.284  1.00  0.00     0.131 A 
ATOM     79  C   UNL A   1      39.384  33.962  39.351  1.00  0.00     0.055 A 
ATOM     80  C   UNL A   1      40.933  35.538  38.408  1.00  0.00     0.041 A 
ATOM     81  F   UNL A   1      41.843  35.144  36.286  1.00  0.00    -0.206 F 
ATOM     82  C   UNL A   1      40.083  35.167  39.445  1.00  0.00     0.022 A 
BRANCH  79  83
ATOM     83  S   UNL A   1      38.152  33.530  40.611  1.00  0.00     0.124 S 
ATOM     84  O   UNL A   1      38.012  34.790  41.331  1.00  0.00    -0.237 OA
ATOM     85  O   UNL A   1      37.012  33.127  39.795  1.00  0.00    -0.237 OA
ATOM     86  O   UNL A   1      38.794  32.451  41.359  1.00  0.00    -0.744 OA
ENDBRANCH  79  83
ENDBRANCH  52  76
BRANCH  64  87
ATOM     87  C   UNL A   1      44.467  28.128  35.349  1.00  0.00     0.023 A 
ATOM     88  C   UNL A   1      44.296  27.065  36.253  1.00  0.00     0.031 A 
ATOM     89  C   UNL A   1      45.779  28.565  35.088  1.00  0.00     0.131 A 
ATOM     90  C   UNL A   1      45.411  26.512  36.904  1.00  0.00     0.055 A 
ATOM     91  C   UNL A   1      46.890  27.966  35.686  1.00  0.00     0.041 A 
ATOM     92  F   UNL A   1      46.006  29.580  34.238  1.00  0.00    -0.206 F 
ATOM     93  C   UNL A   1      46.707  26.942  36.611  1.00  0.00     0.022 A 
BRANCH  90  94
ATOM     94  S   UNL A   1      45.139  25.293  38.219  1.00  0.00     0.124 S 
ATOM     95  O   UNL A   1      46.448  24.655  38.315  1.00  0.00    -0.237 OA
ATOM     96  O   UNL A   1      44.754  26.133  39.349  1.00  0.00    -0.237 OA
ATOM     97  O   UNL A   1      44.074  24.445  37.687  1.00  0.00    -0.744 OA
ENDBRANCH  90  94
ENDBRANCH  64  87
ENDBRANCH  38  39
ENDBRANCH  31  33
ENDBRANCH  30  31
ENDBRANCH  29  30
ENDBRANCH  28  29
ENDBRANCH  27  28
ENDBRANCH  26  27
ENDBRANCH   1  26
TORSDOF 23
ENDMDL
