MODEL 1
REMARK VINA RESULT:      -8.8      0.000      0.000
REMARK SMILES COc1cc(NC(=O)c2ccc([N+](=O)[O-])cc2)c(C(=O)OCCOCCOCCOC(=O)c2ccc(-c3c4nc(c(-c5cc(S(=O)(=O)[O-])ccc5F)c5ccc([nH]5)c(-c5cc(S(=O)(=O)[O-])ccc5F)c5nc(c(-c6cc(S(=O)(=O)[O-])ccc6F)c6ccc3[nH]6)C=C5)C=C4)cc2)cc1OC
REMARK SMILES IDX 25 1 24 2 23 3 22 4 21 5 19 6 20 7 18 8 3 9 4 10 97 11 5 12
REMARK SMILES IDX 96 13 2 14 1 15 98 16 99 17 6 18 7 19 8 21 9 22 10 23 17 24
REMARK SMILES IDX 11 25 16 26 12 27 13 28 14 29 15 30 26 31 27 32 28 33 29 34
REMARK SMILES IDX 30 35 31 36 32 37 33 38 34 39 95 40 35 41 94 42 36 43 37 44
REMARK SMILES IDX 38 45 88 46 39 47 93 48 87 49 89 50 40 51 92 52 86 53 85 54
REMARK SMILES IDX 41 56 73 57 53 58 72 59 54 60 57 61 71 62 90 63 55 64 56 65
REMARK SMILES IDX 70 67 91 68 58 69 42 70 43 71 51 72 44 73 50 74 52 75 49 76
REMARK SMILES IDX 45 77 46 78 47 79 48 80 74 81 75 82 83 83 76 84 82 85 84 86
REMARK SMILES IDX 81 87 77 88 78 89 79 90 80 91 59 92 60 93 68 94 61 95 67 96
REMARK SMILES IDX 69 97 66 98 62 99 63 100 64 101 65 102
REMARK H PARENT 6 20 89 55 57 66
REMARK Flexibility Score: inf
ROOT
ATOM      1  C   UNL A   1      40.863  22.943  26.477  1.00  0.00     0.188 C 
ENDROOT
BRANCH   1   2
ATOM      2  O   UNL A   1      39.522  22.636  26.817  1.00  0.00    -0.376 OA
BRANCH   2   3
ATOM      3  C   UNL A   1      38.478  23.534  26.474  1.00  0.00     0.202 C 
BRANCH   3   4
ATOM      4  C   UNL A   1      37.416  23.079  25.476  1.00  0.00     0.261 C 
BRANCH   4   5
ATOM      5  O   UNL A   1      36.492  24.128  25.150  1.00  0.00    -0.460 OA
BRANCH   5   6
ATOM      6  C   UNL A   1      35.572  23.809  24.208  1.00  0.00     0.340 C 
ATOM      7  O   UNL A   1      35.793  23.334  23.106  1.00  0.00    -0.246 OA
BRANCH   6   8
ATOM      8  C   UNL A   1      34.204  23.962  24.747  1.00  0.00     0.087 A 
ATOM      9  C   UNL A   1      31.710  24.347  25.912  1.00  0.00     0.162 A 
ATOM     10  C   UNL A   1      32.005  24.914  24.660  1.00  0.00     0.077 A 
ATOM     11  C   UNL A   1      32.625  23.503  26.545  1.00  0.00     0.161 A 
ATOM     12  C   UNL A   1      33.268  24.777  24.079  1.00  0.00     0.060 A 
ATOM     13  C   UNL A   1      33.870  23.308  25.944  1.00  0.00     0.068 A 
BRANCH   9  14
ATOM     14  O   UNL A   1      30.483  24.620  26.458  1.00  0.00    -0.493 OA
ATOM     15  C   UNL A   1      29.951  25.843  25.937  1.00  0.00     0.278 C 
ENDBRANCH   9  14
BRANCH  11  16
ATOM     16  O   UNL A   1      32.483  22.816  27.718  1.00  0.00    -0.493 OA
ATOM     17  C   UNL A   1      33.427  21.800  28.028  1.00  0.00     0.278 C 
ENDBRANCH  11  16
BRANCH  12  18
ATOM     18  N   UNL A   1      33.614  25.353  22.833  1.00  0.00    -0.321 N 
ATOM     19  C   UNL A   1      33.033  26.315  22.040  1.00  0.00     0.255 C 
ATOM     20  H   UNL A   1      34.446  24.987  22.453  1.00  0.00     0.170 HD
ATOM     21  O   UNL A   1      33.354  26.399  20.860  1.00  0.00    -0.269 OA
BRANCH  19  22
ATOM     22  C   UNL A   1      32.098  27.299  22.605  1.00  0.00     0.040 A 
ATOM     23  C   UNL A   1      32.531  28.178  23.605  1.00  0.00     0.021 A 
ATOM     24  C   UNL A   1      30.787  27.356  22.115  1.00  0.00     0.021 A 
ATOM     25  C   UNL A   1      31.680  29.199  24.039  1.00  0.00     0.086 A 
ATOM     26  C   UNL A   1      29.934  28.370  22.547  1.00  0.00     0.086 A 
ATOM     27  C   UNL A   1      30.396  29.307  23.482  1.00  0.00     0.269 A 
BRANCH  27  28
ATOM     28  N   UNL A   1      29.546  30.454  23.819  1.00  0.00     0.062 N 
ATOM     29  O   UNL A   1      28.365  30.435  23.448  1.00  0.00    -0.258 OA
ATOM     30  O   UNL A   1      30.050  31.351  24.515  1.00  0.00    -0.258 OA
ENDBRANCH  27  28
ENDBRANCH  19  22
ENDBRANCH  12  18
ENDBRANCH   6   8
ENDBRANCH   5   6
ENDBRANCH   4   5
ENDBRANCH   3   4
ENDBRANCH   2   3
ENDBRANCH   1   2
BRANCH   1  31
ATOM     31  C   UNL A   1      41.755  21.901  25.768  1.00  0.00     0.188 C 
BRANCH  31  32
ATOM     32  O   UNL A   1      42.906  22.293  25.040  1.00  0.00    -0.376 OA
BRANCH  32  33
ATOM     33  C   UNL A   1      43.998  21.395  24.916  1.00  0.00     0.202 C 
BRANCH  33  34
ATOM     34  C   UNL A   1      45.247  21.592  25.775  1.00  0.00     0.261 C 
BRANCH  34  35
ATOM     35  O   UNL A   1      45.473  22.950  26.170  1.00  0.00    -0.460 OA
BRANCH  35  36
ATOM     36  C   UNL A   1      44.876  23.310  27.333  1.00  0.00     0.338 C 
ATOM     37  O   UNL A   1      44.405  22.567  28.179  1.00  0.00    -0.246 OA
BRANCH  36  38
ATOM     38  C   UNL A   1      45.008  24.764  27.529  1.00  0.00     0.060 A 
ATOM     39  C   UNL A   1      45.479  25.222  28.765  1.00  0.00     0.016 A 
ATOM     40  C   UNL A   1      44.605  25.664  26.541  1.00  0.00     0.016 A 
ATOM     41  C   UNL A   1      45.518  26.589  29.030  1.00  0.00     0.010 A 
ATOM     42  C   UNL A   1      44.625  27.035  26.817  1.00  0.00     0.010 A 
ATOM     43  C   UNL A   1      45.053  27.501  28.072  1.00  0.00    -0.014 A 
BRANCH  43  44
ATOM     44  C   UNL A   1      44.861  28.923  28.450  1.00  0.00     0.031 A 
ATOM     45  C   UNL A   1      46.024  29.867  28.319  1.00  0.00     0.074 A 
ATOM     46  C   UNL A   1      43.668  29.372  28.880  1.00  0.00     0.049 A 
ATOM     47  N   UNL A   1      46.099  31.137  28.618  1.00  0.00    -0.248 NA
ATOM     48  C   UNL A   1      47.270  29.296  27.785  1.00  0.00     0.031 C 
ATOM     49  C   UNL A   1      42.468  28.554  29.012  1.00  0.00     0.029 A 
ATOM     50  N   UNL A   1      43.270  30.623  29.281  1.00  0.00    -0.354 N 
ATOM     51  C   UNL A   1      47.406  31.515  28.331  1.00  0.00     0.074 A 
ATOM     52  C   UNL A   1      48.088  30.336  27.841  1.00  0.00     0.031 C 
ATOM     53  C   UNL A   1      41.459  29.326  29.450  1.00  0.00     0.029 A 
ATOM     54  C   UNL A   1      41.955  30.680  29.683  1.00  0.00     0.049 A 
ATOM     55  H   UNL A   1      43.868  31.404  29.281  1.00  0.00     0.167 HD
ATOM     56  C   UNL A   1      47.983  32.733  28.473  1.00  0.00     0.034 A 
ATOM     57  C   UNL A   1      41.243  31.702  30.201  1.00  0.00     0.034 A 
ATOM     58  C   UNL A   1      47.290  33.896  28.976  1.00  0.00     0.049 A 
ATOM     59  C   UNL A   1      41.925  33.036  30.396  1.00  0.00     0.074 A 
ATOM     60  C   UNL A   1      47.776  35.180  29.142  1.00  0.00     0.029 A 
ATOM     61  N   UNL A   1      45.970  33.911  29.408  1.00  0.00    -0.354 N 
ATOM     62  N   UNL A   1      43.158  33.387  30.105  1.00  0.00    -0.248 NA
ATOM     63  C   UNL A   1      41.122  34.113  30.993  1.00  0.00     0.031 C 
ATOM     64  C   UNL A   1      46.775  35.954  29.741  1.00  0.00     0.029 A 
ATOM     65  C   UNL A   1      45.638  35.174  29.875  1.00  0.00     0.049 A 
ATOM     66  H   UNL A   1      45.360  33.138  29.385  1.00  0.00     0.167 HD
ATOM     67  C   UNL A   1      43.268  34.728  30.465  1.00  0.00     0.074 A 
ATOM     68  C   UNL A   1      41.971  35.129  30.970  1.00  0.00     0.031 C 
ATOM     69  C   UNL A   1      44.342  35.554  30.387  1.00  0.00     0.034 A 
BRANCH  56  70
ATOM     70  C   UNL A   1      49.452  32.843  28.154  1.00  0.00     0.023 A 
ATOM     71  C   UNL A   1      49.917  33.055  26.845  1.00  0.00     0.031 A 
ATOM     72  C   UNL A   1      50.404  32.701  29.179  1.00  0.00     0.131 A 
ATOM     73  C   UNL A   1      51.297  33.057  26.587  1.00  0.00     0.055 A 
ATOM     74  C   UNL A   1      51.775  32.777  28.927  1.00  0.00     0.041 A 
ATOM     75  F   UNL A   1      50.018  32.472  30.444  1.00  0.00    -0.206 F 
ATOM     76  C   UNL A   1      52.229  32.943  27.622  1.00  0.00     0.022 A 
BRANCH  73  77
ATOM     77  S   UNL A   1      51.858  33.082  24.862  1.00  0.00     0.124 S 
ATOM     78  O   UNL A   1      51.115  34.220  24.326  1.00  0.00    -0.237 OA
ATOM     79  O   UNL A   1      53.298  33.267  25.001  1.00  0.00    -0.237 OA
ATOM     80  O   UNL A   1      51.442  31.778  24.347  1.00  0.00    -0.744 OA
ENDBRANCH  73  77
ENDBRANCH  56  70
BRANCH  57  81
ATOM     81  C   UNL A   1      39.826  31.508  30.631  1.00  0.00     0.023 A 
ATOM     82  C   UNL A   1      38.756  31.823  29.777  1.00  0.00     0.031 A 
ATOM     83  C   UNL A   1      39.520  31.079  31.935  1.00  0.00     0.131 A 
ATOM     84  C   UNL A   1      37.436  31.757  30.253  1.00  0.00     0.055 A 
ATOM     85  C   UNL A   1      38.204  30.956  32.384  1.00  0.00     0.041 A 
ATOM     86  F   UNL A   1      40.502  30.775  32.799  1.00  0.00    -0.206 F 
ATOM     87  C   UNL A   1      37.153  31.311  31.546  1.00  0.00     0.022 A 
BRANCH  84  88
ATOM     88  S   UNL A   1      36.096  32.363  29.191  1.00  0.00     0.124 S 
ATOM     89  O   UNL A   1      36.618  33.656  28.762  1.00  0.00    -0.237 OA
ATOM     90  O   UNL A   1      36.027  31.328  28.165  1.00  0.00    -0.237 OA
ATOM     91  O   UNL A   1      34.946  32.423  30.091  1.00  0.00    -0.744 OA
ENDBRANCH  84  88
ENDBRANCH  57  81
BRANCH  69  92
ATOM     92  C   UNL A   1      44.141  36.986  30.824  1.00  0.00     0.023 A 
ATOM     93  C   UNL A   1      43.714  37.981  29.928  1.00  0.00     0.031 A 
ATOM     94  C   UNL A   1      44.387  37.358  32.158  1.00  0.00     0.131 A 
ATOM     95  C   UNL A   1      43.595  39.310  30.364  1.00  0.00     0.055 A 
ATOM     96  C   UNL A   1      44.211  38.669  32.600  1.00  0.00     0.041 A 
ATOM     97  F   UNL A   1      44.798  36.448  33.056  1.00  0.00    -0.206 F 
ATOM     98  C   UNL A   1      43.825  39.657  31.698  1.00  0.00     0.022 A 
BRANCH  95  99
ATOM     99  S   UNL A   1      43.216  40.599  29.145  1.00  0.00     0.124 S 
ATOM    100  O   UNL A   1      44.322  41.533  29.336  1.00  0.00    -0.237 OA
ATOM    101  O   UNL A   1      43.221  39.854  27.891  1.00  0.00    -0.237 OA
ATOM    102  O   UNL A   1      41.907  41.096  29.565  1.00  0.00    -0.744 OA
ENDBRANCH  95  99
ENDBRANCH  69  92
ENDBRANCH  43  44
ENDBRANCH  36  38
ENDBRANCH  35  36
ENDBRANCH  34  35
ENDBRANCH  33  34
ENDBRANCH  32  33
ENDBRANCH  31  32
ENDBRANCH   1  31
TORSDOF 25
ENDMDL
MODEL 2
REMARK VINA RESULT:      -8.4      2.784      8.045
REMARK SMILES COc1cc(NC(=O)c2ccc([N+](=O)[O-])cc2)c(C(=O)OCCOCCOCCOC(=O)c2ccc(-c3c4nc(c(-c5cc(S(=O)(=O)[O-])ccc5F)c5ccc([nH]5)c(-c5cc(S(=O)(=O)[O-])ccc5F)c5nc(c(-c6cc(S(=O)(=O)[O-])ccc6F)c6ccc3[nH]6)C=C5)C=C4)cc2)cc1OC
REMARK SMILES IDX 25 1 24 2 23 3 22 4 21 5 19 6 20 7 18 8 3 9 4 10 97 11 5 12
REMARK SMILES IDX 96 13 2 14 1 15 98 16 99 17 6 18 7 19 8 21 9 22 10 23 17 24
REMARK SMILES IDX 11 25 16 26 12 27 13 28 14 29 15 30 26 31 27 32 28 33 29 34
REMARK SMILES IDX 30 35 31 36 32 37 33 38 34 39 95 40 35 41 94 42 36 43 37 44
REMARK SMILES IDX 38 45 88 46 39 47 93 48 87 49 89 50 40 51 92 52 86 53 85 54
REMARK SMILES IDX 41 56 73 57 53 58 72 59 54 60 57 61 71 62 90 63 55 64 56 65
REMARK SMILES IDX 70 67 91 68 58 69 42 70 43 71 51 72 44 73 50 74 52 75 49 76
REMARK SMILES IDX 45 77 46 78 47 79 48 80 74 81 75 82 83 83 76 84 82 85 84 86
REMARK SMILES IDX 81 87 77 88 78 89 79 90 80 91 59 92 60 93 68 94 61 95 67 96
REMARK SMILES IDX 69 97 66 98 62 99 63 100 64 101 65 102
REMARK H PARENT 6 20 89 55 57 66
REMARK Flexibility Score: inf
ROOT
ATOM      1  C   UNL A   1      37.124  21.855  24.837  1.00  0.00     0.188 C 
ENDROOT
BRANCH   1   2
ATOM      2  O   UNL A   1      37.390  22.693  25.949  1.00  0.00    -0.376 OA
BRANCH   2   3
ATOM      3  C   UNL A   1      36.530  23.784  26.239  1.00  0.00     0.202 C 
BRANCH   3   4
ATOM      4  C   UNL A   1      35.037  23.515  26.408  1.00  0.00     0.261 C 
BRANCH   4   5
ATOM      5  O   UNL A   1      34.757  22.700  27.557  1.00  0.00    -0.460 OA
BRANCH   5   6
ATOM      6  C   UNL A   1      33.482  22.254  27.646  1.00  0.00     0.340 C 
ATOM      7  O   UNL A   1      32.776  22.262  28.642  1.00  0.00    -0.246 OA
BRANCH   6   8
ATOM      8  C   UNL A   1      32.966  21.887  26.310  1.00  0.00     0.087 A 
ATOM      9  C   UNL A   1      31.938  21.026  23.875  1.00  0.00     0.162 A 
ATOM     10  C   UNL A   1      31.395  22.152  24.518  1.00  0.00     0.077 A 
ATOM     11  C   UNL A   1      33.063  20.381  24.397  1.00  0.00     0.161 A 
ATOM     12  C   UNL A   1      31.860  22.572  25.766  1.00  0.00     0.060 A 
ATOM     13  C   UNL A   1      33.577  20.831  25.615  1.00  0.00     0.068 A 
BRANCH   9  14
ATOM     14  O   UNL A   1      31.352  20.618  22.706  1.00  0.00    -0.493 OA
ATOM     15  C   UNL A   1      32.037  21.163  21.572  1.00  0.00     0.278 C 
ENDBRANCH   9  14
BRANCH  11  16
ATOM     16  O   UNL A   1      33.761  19.328  23.877  1.00  0.00    -0.493 OA
ATOM     17  C   UNL A   1      33.779  18.104  24.597  1.00  0.00     0.278 C 
ENDBRANCH  11  16
BRANCH  12  18
ATOM     18  N   UNL A   1      31.324  23.684  26.458  1.00  0.00    -0.321 N 
ATOM     19  C   UNL A   1      31.497  25.043  26.346  1.00  0.00     0.255 C 
ATOM     20  H   UNL A   1      30.693  23.430  27.171  1.00  0.00     0.170 HD
ATOM     21  O   UNL A   1      31.170  25.772  27.276  1.00  0.00    -0.269 OA
BRANCH  19  22
ATOM     22  C   UNL A   1      31.988  25.644  25.097  1.00  0.00     0.040 A 
ATOM     23  C   UNL A   1      33.339  25.990  24.973  1.00  0.00     0.021 A 
ATOM     24  C   UNL A   1      31.094  25.843  24.037  1.00  0.00     0.021 A 
ATOM     25  C   UNL A   1      33.825  26.432  23.739  1.00  0.00     0.086 A 
ATOM     26  C   UNL A   1      31.573  26.286  22.806  1.00  0.00     0.086 A 
ATOM     27  C   UNL A   1      32.943  26.546  22.653  1.00  0.00     0.269 A 
BRANCH  27  28
ATOM     28  N   UNL A   1      33.461  26.869  21.319  1.00  0.00     0.062 N 
ATOM     29  O   UNL A   1      33.275  26.052  20.407  1.00  0.00    -0.258 OA
ATOM     30  O   UNL A   1      34.003  27.976  21.172  1.00  0.00    -0.258 OA
ENDBRANCH  27  28
ENDBRANCH  19  22
ENDBRANCH  12  18
ENDBRANCH   6   8
ENDBRANCH   5   6
ENDBRANCH   4   5
ENDBRANCH   3   4
ENDBRANCH   2   3
ENDBRANCH   1   2
BRANCH   1  31
ATOM     31  C   UNL A   1      36.703  20.384  25.042  1.00  0.00     0.188 C 
BRANCH  31  32
ATOM     32  O   UNL A   1      37.668  19.353  25.162  1.00  0.00    -0.376 OA
BRANCH  32  33
ATOM     33  C   UNL A   1      39.039  19.644  24.936  1.00  0.00     0.202 C 
BRANCH  33  34
ATOM     34  C   UNL A   1      40.041  19.534  26.086  1.00  0.00     0.261 C 
BRANCH  34  35
ATOM     35  O   UNL A   1      40.276  20.770  26.771  1.00  0.00    -0.460 OA
BRANCH  35  36
ATOM     36  C   UNL A   1      41.581  21.129  26.861  1.00  0.00     0.338 C 
ATOM     37  O   UNL A   1      42.548  20.485  26.490  1.00  0.00    -0.246 OA
BRANCH  36  38
ATOM     38  C   UNL A   1      41.679  22.518  27.341  1.00  0.00     0.060 A 
ATOM     39  C   UNL A   1      41.466  23.551  26.419  1.00  0.00     0.016 A 
ATOM     40  C   UNL A   1      42.049  22.803  28.657  1.00  0.00     0.016 A 
ATOM     41  C   UNL A   1      41.655  24.876  26.805  1.00  0.00     0.010 A 
ATOM     42  C   UNL A   1      42.258  24.133  29.036  1.00  0.00     0.010 A 
ATOM     43  C   UNL A   1      42.090  25.172  28.104  1.00  0.00    -0.014 A 
BRANCH  43  44
ATOM     44  C   UNL A   1      42.530  26.551  28.431  1.00  0.00     0.031 A 
ATOM     45  C   UNL A   1      41.511  27.529  28.946  1.00  0.00     0.074 A 
ATOM     46  C   UNL A   1      43.816  26.920  28.294  1.00  0.00     0.049 A 
ATOM     47  N   UNL A   1      41.656  28.788  29.265  1.00  0.00    -0.248 NA
ATOM     48  C   UNL A   1      40.143  27.015  29.117  1.00  0.00     0.031 C 
ATOM     49  C   UNL A   1      44.891  26.046  27.838  1.00  0.00     0.029 A 
ATOM     50  N   UNL A   1      44.435  28.123  28.529  1.00  0.00    -0.354 N 
ATOM     51  C   UNL A   1      40.395  29.227  29.653  1.00  0.00     0.074 A 
ATOM     52  C   UNL A   1      39.497  28.098  29.522  1.00  0.00     0.031 C 
ATOM     53  C   UNL A   1      46.045  26.736  27.837  1.00  0.00     0.029 A 
ATOM     54  C   UNL A   1      45.781  28.115  28.241  1.00  0.00     0.049 A 
ATOM     55  H   UNL A   1      43.962  28.915  28.871  1.00  0.00     0.167 HD
ATOM     56  C   UNL A   1      40.023  30.461  30.071  1.00  0.00     0.034 A 
ATOM     57  C   UNL A   1      46.688  29.113  28.275  1.00  0.00     0.034 A 
ATOM     58  C   UNL A   1      40.929  31.578  30.184  1.00  0.00     0.049 A 
ATOM     59  C   UNL A   1      46.234  30.492  28.696  1.00  0.00     0.074 A 
ATOM     60  C   UNL A   1      40.658  32.864  30.614  1.00  0.00     0.029 A 
ATOM     61  N   UNL A   1      42.277  31.546  29.849  1.00  0.00    -0.354 N 
ATOM     62  N   UNL A   1      45.042  30.891  29.077  1.00  0.00    -0.248 NA
ATOM     63  C   UNL A   1      47.248  31.556  28.689  1.00  0.00     0.031 C 
ATOM     64  C   UNL A   1      41.822  33.629  30.471  1.00  0.00     0.029 A 
ATOM     65  C   UNL A   1      42.841  32.800  30.028  1.00  0.00     0.049 A 
ATOM     66  H   UNL A   1      42.761  30.749  29.532  1.00  0.00     0.167 HD
ATOM     67  C   UNL A   1      45.170  32.246  29.374  1.00  0.00     0.074 A 
ATOM     68  C   UNL A   1      46.560  32.588  29.152  1.00  0.00     0.031 C 
ATOM     69  C   UNL A   1      44.227  33.128  29.790  1.00  0.00     0.034 A 
BRANCH  56  70
ATOM     70  C   UNL A   1      38.559  30.679  30.358  1.00  0.00     0.023 A 
ATOM     71  C   UNL A   1      37.695  31.269  29.420  1.00  0.00     0.031 A 
ATOM     72  C   UNL A   1      38.028  30.316  31.609  1.00  0.00     0.131 A 
ATOM     73  C   UNL A   1      36.362  31.535  29.770  1.00  0.00     0.055 A 
ATOM     74  C   UNL A   1      36.683  30.516  31.925  1.00  0.00     0.041 A 
ATOM     75  F   UNL A   1      38.813  29.772  32.552  1.00  0.00    -0.206 F 
ATOM     76  C   UNL A   1      35.844  31.141  31.008  1.00  0.00     0.022 A 
BRANCH  73  77
ATOM     77  S   UNL A   1      35.344  32.518  28.635  1.00  0.00     0.124 S 
ATOM     78  O   UNL A   1      34.333  31.546  28.227  1.00  0.00    -0.237 OA
ATOM     79  O   UNL A   1      34.879  33.605  29.489  1.00  0.00    -0.237 OA
ATOM     80  O   UNL A   1      36.283  32.908  27.584  1.00  0.00    -0.744 OA
ENDBRANCH  73  77
ENDBRANCH  56  70
BRANCH  57  81
ATOM     81  C   UNL A   1      48.100  28.879  27.849  1.00  0.00     0.023 A 
ATOM     82  C   UNL A   1      48.431  28.676  26.499  1.00  0.00     0.031 A 
ATOM     83  C   UNL A   1      49.132  28.777  28.800  1.00  0.00     0.131 A 
ATOM     84  C   UNL A   1      49.744  28.328  26.143  1.00  0.00     0.055 A 
ATOM     85  C   UNL A   1      50.449  28.491  28.434  1.00  0.00     0.041 A 
ATOM     86  F   UNL A   1      48.874  28.951  30.106  1.00  0.00    -0.206 F 
ATOM     87  C   UNL A   1      50.758  28.249  27.100  1.00  0.00     0.022 A 
BRANCH  84  88
ATOM     88  S   UNL A   1      50.087  27.875  24.421  1.00  0.00     0.124 S 
ATOM     89  O   UNL A   1      48.750  27.880  23.838  1.00  0.00    -0.237 OA
ATOM     90  O   UNL A   1      50.977  28.951  23.994  1.00  0.00    -0.237 OA
ATOM     91  O   UNL A   1      50.714  26.559  24.531  1.00  0.00    -0.744 OA
ENDBRANCH  84  88
ENDBRANCH  57  81
BRANCH  69  92
ATOM     92  C   UNL A   1      44.683  34.541  30.070  1.00  0.00     0.023 A 
ATOM     93  C   UNL A   1      45.136  34.935  31.341  1.00  0.00     0.031 A 
ATOM     94  C   UNL A   1      44.657  35.507  29.047  1.00  0.00     0.131 A 
ATOM     95  C   UNL A   1      45.497  36.272  31.571  1.00  0.00     0.055 A 
ATOM     96  C   UNL A   1      45.072  36.820  29.267  1.00  0.00     0.041 A 
ATOM     97  F   UNL A   1      44.232  35.184  27.816  1.00  0.00    -0.206 F 
ATOM     98  C   UNL A   1      45.483  37.213  30.537  1.00  0.00     0.022 A 
BRANCH  95  99
ATOM     99  S   UNL A   1      45.905  36.789  33.260  1.00  0.00     0.124 S 
ATOM    100  O   UNL A   1      47.255  37.322  33.098  1.00  0.00    -0.237 OA
ATOM    101  O   UNL A   1      44.864  37.770  33.547  1.00  0.00    -0.237 OA
ATOM    102  O   UNL A   1      45.817  35.550  34.031  1.00  0.00    -0.744 OA
ENDBRANCH  95  99
ENDBRANCH  69  92
ENDBRANCH  43  44
ENDBRANCH  36  38
ENDBRANCH  35  36
ENDBRANCH  34  35
ENDBRANCH  33  34
ENDBRANCH  32  33
ENDBRANCH  31  32
ENDBRANCH   1  31
TORSDOF 25
ENDMDL
MODEL 3
REMARK VINA RESULT:      -8.4      2.159      3.372
REMARK SMILES COc1cc(NC(=O)c2ccc([N+](=O)[O-])cc2)c(C(=O)OCCOCCOCCOC(=O)c2ccc(-c3c4nc(c(-c5cc(S(=O)(=O)[O-])ccc5F)c5ccc([nH]5)c(-c5cc(S(=O)(=O)[O-])ccc5F)c5nc(c(-c6cc(S(=O)(=O)[O-])ccc6F)c6ccc3[nH]6)C=C5)C=C4)cc2)cc1OC
REMARK SMILES IDX 25 1 24 2 23 3 22 4 21 5 19 6 20 7 18 8 3 9 4 10 97 11 5 12
REMARK SMILES IDX 96 13 2 14 1 15 98 16 99 17 6 18 7 19 8 21 9 22 10 23 17 24
REMARK SMILES IDX 11 25 16 26 12 27 13 28 14 29 15 30 26 31 27 32 28 33 29 34
REMARK SMILES IDX 30 35 31 36 32 37 33 38 34 39 95 40 35 41 94 42 36 43 37 44
REMARK SMILES IDX 38 45 88 46 39 47 93 48 87 49 89 50 40 51 92 52 86 53 85 54
REMARK SMILES IDX 41 56 73 57 53 58 72 59 54 60 57 61 71 62 90 63 55 64 56 65
REMARK SMILES IDX 70 67 91 68 58 69 42 70 43 71 51 72 44 73 50 74 52 75 49 76
REMARK SMILES IDX 45 77 46 78 47 79 48 80 74 81 75 82 83 83 76 84 82 85 84 86
REMARK SMILES IDX 81 87 77 88 78 89 79 90 80 91 59 92 60 93 68 94 61 95 67 96
REMARK SMILES IDX 69 97 66 98 62 99 63 100 64 101 65 102
REMARK H PARENT 6 20 89 55 57 66
REMARK Flexibility Score: inf
ROOT
ATOM      1  C   UNL A   1      38.487  22.280  25.329  1.00  0.00     0.188 C 
ENDROOT
BRANCH   1   2
ATOM      2  O   UNL A   1      38.106  23.516  25.910  1.00  0.00    -0.376 OA
BRANCH   2   3
ATOM      3  C   UNL A   1      36.733  23.823  26.091  1.00  0.00     0.202 C 
BRANCH   3   4
ATOM      4  C   UNL A   1      35.893  22.922  26.993  1.00  0.00     0.261 C 
BRANCH   4   5
ATOM      5  O   UNL A   1      34.484  23.128  26.806  1.00  0.00    -0.460 OA
BRANCH   5   6
ATOM      6  C   UNL A   1      33.699  22.090  27.180  1.00  0.00     0.340 C 
ATOM      7  O   UNL A   1      33.062  21.994  28.217  1.00  0.00    -0.246 OA
BRANCH   6   8
ATOM      8  C   UNL A   1      33.570  21.114  26.077  1.00  0.00     0.087 A 
ATOM      9  C   UNL A   1      33.352  19.137  24.135  1.00  0.00     0.162 A 
ATOM     10  C   UNL A   1      32.265  19.985  24.411  1.00  0.00     0.077 A 
ATOM     11  C   UNL A   1      34.586  19.334  24.759  1.00  0.00     0.161 A 
ATOM     12  C   UNL A   1      32.335  20.951  25.418  1.00  0.00     0.060 A 
ATOM     13  C   UNL A   1      34.686  20.339  25.724  1.00  0.00     0.068 A 
BRANCH   9  14
ATOM     14  O   UNL A   1      33.164  18.146  23.207  1.00  0.00    -0.493 OA
ATOM     15  C   UNL A   1      31.769  17.918  22.977  1.00  0.00     0.278 C 
ENDBRANCH   9  14
BRANCH  11  16
ATOM     16  O   UNL A   1      35.759  18.660  24.565  1.00  0.00    -0.493 OA
ATOM     17  C   UNL A   1      36.976  19.299  24.921  1.00  0.00     0.278 C 
ENDBRANCH  11  16
BRANCH  12  18
ATOM     18  N   UNL A   1      31.256  21.808  25.744  1.00  0.00    -0.321 N 
ATOM     19  C   UNL A   1      31.022  23.150  25.558  1.00  0.00     0.255 C 
ATOM     20  H   UNL A   1      30.517  21.345  26.201  1.00  0.00     0.170 HD
ATOM     21  O   UNL A   1      30.157  23.709  26.221  1.00  0.00    -0.269 OA
BRANCH  19  22
ATOM     22  C   UNL A   1      31.734  23.906  24.517  1.00  0.00     0.040 A 
ATOM     23  C   UNL A   1      31.676  23.481  23.185  1.00  0.00     0.021 A 
ATOM     24  C   UNL A   1      32.446  25.059  24.875  1.00  0.00     0.021 A 
ATOM     25  C   UNL A   1      32.239  24.278  22.184  1.00  0.00     0.086 A 
ATOM     26  C   UNL A   1      33.011  25.856  23.881  1.00  0.00     0.086 A 
ATOM     27  C   UNL A   1      32.876  25.479  22.537  1.00  0.00     0.269 A 
BRANCH  27  28
ATOM     28  N   UNL A   1      33.343  26.395  21.491  1.00  0.00     0.062 N 
ATOM     29  O   UNL A   1      33.236  26.038  20.311  1.00  0.00    -0.258 OA
ATOM     30  O   UNL A   1      33.763  27.506  21.854  1.00  0.00    -0.258 OA
ENDBRANCH  27  28
ENDBRANCH  19  22
ENDBRANCH  12  18
ENDBRANCH   6   8
ENDBRANCH   5   6
ENDBRANCH   4   5
ENDBRANCH   3   4
ENDBRANCH   2   3
ENDBRANCH   1   2
BRANCH   1  31
ATOM     31  C   UNL A   1      39.254  21.225  26.155  1.00  0.00     0.188 C 
BRANCH  31  32
ATOM     32  O   UNL A   1      40.278  21.602  27.059  1.00  0.00    -0.376 OA
BRANCH  32  33
ATOM     33  C   UNL A   1      41.598  21.804  26.582  1.00  0.00     0.202 C 
BRANCH  33  34
ATOM     34  C   UNL A   1      42.392  23.030  27.032  1.00  0.00     0.261 C 
BRANCH  34  35
ATOM     35  O   UNL A   1      41.992  24.250  26.395  1.00  0.00    -0.460 OA
BRANCH  35  36
ATOM     36  C   UNL A   1      42.971  24.870  25.692  1.00  0.00     0.338 C 
ATOM     37  O   UNL A   1      43.480  24.493  24.650  1.00  0.00    -0.246 OA
BRANCH  36  38
ATOM     38  C   UNL A   1      43.246  26.189  26.286  1.00  0.00     0.060 A 
ATOM     39  C   UNL A   1      43.900  26.230  27.524  1.00  0.00     0.016 A 
ATOM     40  C   UNL A   1      42.804  27.363  25.674  1.00  0.00     0.016 A 
ATOM     41  C   UNL A   1      44.084  27.450  28.171  1.00  0.00     0.010 A 
ATOM     42  C   UNL A   1      42.972  28.584  26.336  1.00  0.00     0.010 A 
ATOM     43  C   UNL A   1      43.586  28.629  27.599  1.00  0.00    -0.014 A 
BRANCH  43  44
ATOM     44  C   UNL A   1      43.560  29.877  28.402  1.00  0.00     0.031 A 
ATOM     45  C   UNL A   1      44.778  30.758  28.404  1.00  0.00     0.074 A 
ATOM     46  C   UNL A   1      42.466  30.231  29.099  1.00  0.00     0.049 A 
ATOM     47  N   UNL A   1      44.996  31.872  29.052  1.00  0.00    -0.248 NA
ATOM     48  C   UNL A   1      45.903  30.316  27.566  1.00  0.00     0.031 C 
ATOM     49  C   UNL A   1      41.221  29.472  29.140  1.00  0.00     0.029 A 
ATOM     50  N   UNL A   1      42.224  31.319  29.900  1.00  0.00    -0.354 N 
ATOM     51  C   UNL A   1      46.290  32.255  28.719  1.00  0.00     0.074 A 
ATOM     52  C   UNL A   1      46.809  31.249  27.818  1.00  0.00     0.031 C 
ATOM     53  C   UNL A   1      40.337  30.123  29.916  1.00  0.00     0.029 A 
ATOM     54  C   UNL A   1      40.971  31.316  30.470  1.00  0.00     0.049 A 
ATOM     55  H   UNL A   1      42.883  32.034  30.052  1.00  0.00     0.167 HD
ATOM     56  C   UNL A   1      46.982  33.343  29.137  1.00  0.00     0.034 A 
ATOM     57  C   UNL A   1      40.412  32.166  31.357  1.00  0.00     0.034 A 
ATOM     58  C   UNL A   1      46.453  34.330  30.047  1.00  0.00     0.049 A 
ATOM     59  C   UNL A   1      41.225  33.343  31.845  1.00  0.00     0.074 A 
ATOM     60  C   UNL A   1      47.063  35.478  30.520  1.00  0.00     0.029 A 
ATOM     61  N   UNL A   1      45.195  34.278  30.635  1.00  0.00    -0.354 N 
ATOM     62  N   UNL A   1      42.443  33.705  31.510  1.00  0.00    -0.248 NA
ATOM     63  C   UNL A   1      40.588  34.226  32.833  1.00  0.00     0.031 C 
ATOM     64  C   UNL A   1      46.205  36.081  31.446  1.00  0.00     0.029 A 
ATOM     65  C   UNL A   1      45.026  35.354  31.493  1.00  0.00     0.049 A 
ATOM     66  H   UNL A   1      44.522  33.579  30.466  1.00  0.00     0.167 HD
ATOM     67  C   UNL A   1      42.707  34.866  32.232  1.00  0.00     0.074 A 
ATOM     68  C   UNL A   1      41.514  35.158  33.000  1.00  0.00     0.031 C 
ATOM     69  C   UNL A   1      43.833  35.624  32.261  1.00  0.00     0.034 A 
BRANCH  56  70
ATOM     70  C   UNL A   1      48.410  33.472  28.674  1.00  0.00     0.023 A 
ATOM     71  C   UNL A   1      48.744  34.054  27.438  1.00  0.00     0.031 A 
ATOM     72  C   UNL A   1      49.454  32.975  29.474  1.00  0.00     0.131 A 
ATOM     73  C   UNL A   1      50.081  34.067  27.012  1.00  0.00     0.055 A 
ATOM     74  C   UNL A   1      50.790  33.056  29.076  1.00  0.00     0.041 A 
ATOM     75  F   UNL A   1      49.192  32.386  30.651  1.00  0.00    -0.206 F 
ATOM     76  C   UNL A   1      51.109  33.594  27.833  1.00  0.00     0.022 A 
BRANCH  73  77
ATOM     77  S   UNL A   1      50.448  34.595  25.315  1.00  0.00     0.124 S 
ATOM     78  O   UNL A   1      49.119  34.950  24.823  1.00  0.00    -0.237 OA
ATOM     79  O   UNL A   1      51.370  35.705  25.523  1.00  0.00    -0.237 OA
ATOM     80  O   UNL A   1      51.032  33.402  24.705  1.00  0.00    -0.744 OA
ENDBRANCH  73  77
ENDBRANCH  56  70
BRANCH  57  81
ATOM     81  C   UNL A   1      39.040  31.920  31.893  1.00  0.00     0.023 A 
ATOM     82  C   UNL A   1      37.897  32.304  31.173  1.00  0.00     0.031 A 
ATOM     83  C   UNL A   1      38.855  31.369  33.174  1.00  0.00     0.131 A 
ATOM     84  C   UNL A   1      36.626  32.181  31.758  1.00  0.00     0.055 A 
ATOM     85  C   UNL A   1      37.585  31.193  33.726  1.00  0.00     0.041 A 
ATOM     86  F   UNL A   1      39.911  30.994  33.913  1.00  0.00    -0.206 F 
ATOM     87  C   UNL A   1      36.462  31.615  33.024  1.00  0.00     0.022 A 
BRANCH  84  88
ATOM     88  S   UNL A   1      35.195  32.872  30.883  1.00  0.00     0.124 S 
ATOM     89  O   UNL A   1      34.179  32.877  31.930  1.00  0.00    -0.237 OA
ATOM     90  O   UNL A   1      35.693  34.179  30.467  1.00  0.00    -0.237 OA
ATOM     91  O   UNL A   1      34.965  31.921  29.797  1.00  0.00    -0.744 OA
ENDBRANCH  84  88
ENDBRANCH  57  81
BRANCH  69  92
ATOM     92  C   UNL A   1      43.806  36.863  33.123  1.00  0.00     0.023 A 
ATOM     93  C   UNL A   1      43.588  38.140  32.579  1.00  0.00     0.031 A 
ATOM     94  C   UNL A   1      44.008  36.761  34.512  1.00  0.00     0.131 A 
ATOM     95  C   UNL A   1      43.627  39.271  33.410  1.00  0.00     0.055 A 
ATOM     96  C   UNL A   1      43.988  37.883  35.341  1.00  0.00     0.041 A 
ATOM     97  F   UNL A   1      44.221  35.566  35.085  1.00  0.00    -0.206 F 
ATOM     98  C   UNL A   1      43.810  39.148  34.790  1.00  0.00     0.022 A 
BRANCH  95  99
ATOM     99  S   UNL A   1      43.522  40.916  32.653  1.00  0.00     0.124 S 
ATOM    100  O   UNL A   1      42.080  41.094  32.510  1.00  0.00    -0.237 OA
ATOM    101  O   UNL A   1      44.172  41.761  33.650  1.00  0.00    -0.237 OA
ATOM    102  O   UNL A   1      44.255  40.765  31.397  1.00  0.00    -0.744 OA
ENDBRANCH  95  99
ENDBRANCH  69  92
ENDBRANCH  43  44
ENDBRANCH  36  38
ENDBRANCH  35  36
ENDBRANCH  34  35
ENDBRANCH  33  34
ENDBRANCH  32  33
ENDBRANCH  31  32
ENDBRANCH   1  31
TORSDOF 25
ENDMDL
