MODEL 1
REMARK VINA RESULT:      -9.3      0.000      0.000
REMARK SMILES CN(CC(N)=O)C(=O)Cn1cccc1C(=O)OCCOCCOCCOC(=O)c1ccc(-c2c3nc(c(-c4cc(S(=O)(=O)[O-])ccc4F)c4ccc([nH]4)c(-c4cc(S(=O)(=O)[O-])ccc4F)c4nc(c(-c5cc(S(=O)(=O)[O-])ccc5F)c5ccc2[nH]5)C=C4)C=C3)cc1
REMARK SMILES IDX 21 1 20 2 19 3 18 4 17 5 15 6 16 7 14 8 10 9 11 10 12 11
REMARK SMILES IDX 13 12 9 13 7 14 8 15 2 16 1 17 3 18 4 19 5 20 6 21 22 24
REMARK SMILES IDX 23 25 24 26 25 27 26 28 27 29 28 30 29 31 30 32 91 33 31 34
REMARK SMILES IDX 90 35 32 36 33 37 34 38 84 39 35 40 89 41 83 42 85 43 36 44
REMARK SMILES IDX 88 45 82 46 81 47 37 49 69 50 49 51 68 52 50 53 53 54 67 55
REMARK SMILES IDX 86 56 51 57 52 58 66 60 87 61 54 62 38 63 39 64 47 65 40 66
REMARK SMILES IDX 46 67 48 68 45 69 41 70 42 71 43 72 44 73 70 74 71 75 79 76
REMARK SMILES IDX 72 77 78 78 80 79 77 80 73 81 74 82 75 83 76 84 55 85 56 86
REMARK SMILES IDX 64 87 57 88 63 89 65 90 62 91 58 92 59 93 60 94 61 95
REMARK H PARENT 5 22 5 23 85 48 53 59
REMARK Flexibility Score: inf
ROOT
ATOM      1  C   UNL A   1      31.824  29.466  25.622  1.00  0.00     0.188 C 
ENDROOT
BRANCH   1   2
ATOM      2  O   UNL A   1      31.388  28.139  25.896  1.00  0.00    -0.376 OA
BRANCH   2   3
ATOM      3  C   UNL A   1      32.273  27.205  26.492  1.00  0.00     0.202 C 
BRANCH   3   4
ATOM      4  C   UNL A   1      31.851  25.727  26.575  1.00  0.00     0.261 C 
BRANCH   4   5
ATOM      5  O   UNL A   1      31.910  25.008  25.333  1.00  0.00    -0.459 OA
BRANCH   5   6
ATOM      6  C   UNL A   1      32.967  24.166  25.168  1.00  0.00     0.355 C 
ATOM      7  O   UNL A   1      33.859  23.989  25.974  1.00  0.00    -0.244 OA
BRANCH   6   8
ATOM      8  C   UNL A   1      32.826  23.410  23.930  1.00  0.00     0.128 A 
ATOM      9  N   UNL A   1      32.443  22.090  23.745  1.00  0.00    -0.333 N 
ATOM     10  C   UNL A   1      32.601  21.746  22.420  1.00  0.00     0.087 A 
ATOM     11  C   UNL A   1      32.990  22.864  21.724  1.00  0.00     0.020 A 
ATOM     12  C   UNL A   1      33.108  23.911  22.663  1.00  0.00     0.035 A 
BRANCH   9  13
ATOM     13  C   UNL A   1      31.931  21.175  24.760  1.00  0.00     0.222 C 
BRANCH  13  14
ATOM     14  C   UNL A   1      33.023  20.477  25.562  1.00  0.00     0.242 C 
ATOM     15  O   UNL A   1      33.323  20.909  26.680  1.00  0.00    -0.273 OA
BRANCH  14  16
ATOM     16  N   UNL A   1      33.631  19.331  25.052  1.00  0.00    -0.335 N 
ATOM     17  C   UNL A   1      35.033  19.438  24.688  1.00  0.00     0.147 C 
BRANCH  16  18
ATOM     18  C   UNL A   1      32.961  18.049  24.811  1.00  0.00     0.218 C 
BRANCH  18  19
ATOM     19  C   UNL A   1      32.924  17.657  23.333  1.00  0.00     0.237 C 
ATOM     20  N   UNL A   1      31.989  18.310  22.583  1.00  0.00    -0.368 N 
ATOM     21  O   UNL A   1      33.669  16.829  22.820  1.00  0.00    -0.273 OA
ATOM     22  H   UNL A   1      31.396  18.973  23.003  1.00  0.00     0.159 HD
ATOM     23  H   UNL A   1      31.910  18.118  21.620  1.00  0.00     0.159 HD
ENDBRANCH  18  19
ENDBRANCH  16  18
ENDBRANCH  14  16
ENDBRANCH  13  14
ENDBRANCH   9  13
ENDBRANCH   6   8
ENDBRANCH   5   6
ENDBRANCH   4   5
ENDBRANCH   3   4
ENDBRANCH   2   3
ENDBRANCH   1   2
BRANCH   1  24
ATOM     24  C   UNL A   1      33.132  30.039  26.219  1.00  0.00     0.188 C 
BRANCH  24  25
ATOM     25  O   UNL A   1      32.999  30.735  27.450  1.00  0.00    -0.376 OA
BRANCH  25  26
ATOM     26  C   UNL A   1      33.279  32.131  27.443  1.00  0.00     0.202 C 
BRANCH  26  27
ATOM     27  C   UNL A   1      34.220  32.637  28.543  1.00  0.00     0.261 C 
BRANCH  27  28
ATOM     28  O   UNL A   1      35.503  32.026  28.535  1.00  0.00    -0.460 OA
BRANCH  28  29
ATOM     29  C   UNL A   1      35.744  31.322  29.654  1.00  0.00     0.338 C 
ATOM     30  O   UNL A   1      35.489  31.636  30.805  1.00  0.00    -0.246 OA
BRANCH  29  31
ATOM     31  C   UNL A   1      36.410  30.077  29.302  1.00  0.00     0.060 A 
ATOM     32  C   UNL A   1      36.835  29.313  30.394  1.00  0.00     0.016 A 
ATOM     33  C   UNL A   1      37.078  30.128  28.078  1.00  0.00     0.016 A 
ATOM     34  C   UNL A   1      38.121  28.845  30.362  1.00  0.00     0.010 A 
ATOM     35  C   UNL A   1      38.384  29.724  28.075  1.00  0.00     0.010 A 
ATOM     36  C   UNL A   1      38.904  29.153  29.244  1.00  0.00    -0.014 A 
BRANCH  36  37
ATOM     37  C   UNL A   1      40.301  28.746  29.276  1.00  0.00     0.031 A 
ATOM     38  C   UNL A   1      41.164  29.977  29.620  1.00  0.00     0.074 A 
ATOM     39  C   UNL A   1      40.508  27.429  28.946  1.00  0.00     0.049 A 
ATOM     40  N   UNL A   1      42.398  30.242  29.336  1.00  0.00    -0.248 NA
ATOM     41  C   UNL A   1      40.525  31.151  30.301  1.00  0.00     0.031 C 
ATOM     42  C   UNL A   1      39.453  26.421  28.628  1.00  0.00     0.029 A 
ATOM     43  N   UNL A   1      41.635  26.662  28.792  1.00  0.00    -0.354 N 
ATOM     44  C   UNL A   1      42.743  31.431  30.022  1.00  0.00     0.074 A 
ATOM     45  C   UNL A   1      41.522  32.017  30.468  1.00  0.00     0.031 C 
ATOM     46  C   UNL A   1      39.995  25.243  28.230  1.00  0.00     0.029 A 
ATOM     47  C   UNL A   1      41.440  25.346  28.275  1.00  0.00     0.049 A 
ATOM     48  H   UNL A   1      42.530  27.001  29.025  1.00  0.00     0.167 HD
ATOM     49  C   UNL A   1      44.030  31.778  30.302  1.00  0.00     0.034 A 
ATOM     50  C   UNL A   1      42.397  24.447  27.870  1.00  0.00     0.034 A 
ATOM     51  C   UNL A   1      44.912  30.824  29.719  1.00  0.00     0.049 A 
ATOM     52  C   UNL A   1      43.652  25.126  28.233  1.00  0.00     0.074 A 
ATOM     53  C   UNL A   1      45.291  30.603  28.424  1.00  0.00     0.029 A 
ATOM     54  N   UNL A   1      45.248  29.730  30.482  1.00  0.00    -0.354 N 
ATOM     55  N   UNL A   1      44.095  25.279  29.443  1.00  0.00    -0.248 NA
ATOM     56  C   UNL A   1      44.411  25.797  27.170  1.00  0.00     0.031 C 
ATOM     57  C   UNL A   1      45.379  29.199  28.353  1.00  0.00     0.029 A 
ATOM     58  C   UNL A   1      45.267  28.647  29.638  1.00  0.00     0.049 A 
ATOM     59  H   UNL A   1      45.437  29.725  31.448  1.00  0.00     0.167 HD
ATOM     60  C   UNL A   1      44.999  26.301  29.312  1.00  0.00     0.074 A 
ATOM     61  C   UNL A   1      45.372  26.335  27.913  1.00  0.00     0.031 C 
ATOM     62  C   UNL A   1      44.998  27.336  30.193  1.00  0.00     0.034 A 
BRANCH  49  63
ATOM     63  C   UNL A   1      44.639  32.803  31.216  1.00  0.00     0.023 A 
ATOM     64  C   UNL A   1      45.593  33.663  30.622  1.00  0.00     0.031 A 
ATOM     65  C   UNL A   1      44.593  32.796  32.615  1.00  0.00     0.131 A 
ATOM     66  C   UNL A   1      46.546  34.342  31.385  1.00  0.00     0.055 A 
ATOM     67  C   UNL A   1      45.502  33.541  33.385  1.00  0.00     0.041 A 
ATOM     68  F   UNL A   1      43.739  32.016  33.291  1.00  0.00    -0.206 F 
ATOM     69  C   UNL A   1      46.511  34.285  32.772  1.00  0.00     0.022 A 
BRANCH  66  70
ATOM     70  S   UNL A   1      47.927  35.128  30.507  1.00  0.00     0.124 S 
ATOM     71  O   UNL A   1      49.082  34.653  31.259  1.00  0.00    -0.237 OA
ATOM     72  O   UNL A   1      47.777  34.586  29.160  1.00  0.00    -0.237 OA
ATOM     73  O   UNL A   1      47.641  36.554  30.638  1.00  0.00    -0.744 OA
ENDBRANCH  66  70
ENDBRANCH  49  63
BRANCH  50  74
ATOM     74  C   UNL A   1      42.557  23.126  27.122  1.00  0.00     0.023 A 
ATOM     75  C   UNL A   1      43.581  22.758  26.229  1.00  0.00     0.031 A 
ATOM     76  C   UNL A   1      41.611  22.079  27.389  1.00  0.00     0.131 A 
ATOM     77  C   UNL A   1      43.663  21.414  25.744  1.00  0.00     0.055 A 
ATOM     78  C   UNL A   1      41.754  20.750  26.996  1.00  0.00     0.041 A 
ATOM     79  F   UNL A   1      40.475  22.297  28.064  1.00  0.00    -0.206 F 
ATOM     80  C   UNL A   1      42.799  20.404  26.179  1.00  0.00     0.022 A 
BRANCH  77  81
ATOM     81  S   UNL A   1      44.908  20.904  24.515  1.00  0.00     0.124 S 
ATOM     82  O   UNL A   1      45.120  22.141  23.771  1.00  0.00    -0.237 OA
ATOM     83  O   UNL A   1      46.020  20.452  25.344  1.00  0.00    -0.237 OA
ATOM     84  O   UNL A   1      44.230  19.843  23.770  1.00  0.00    -0.744 OA
ENDBRANCH  77  81
ENDBRANCH  50  74
BRANCH  62  85
ATOM     85  C   UNL A   1      44.332  27.031  31.538  1.00  0.00     0.023 A 
ATOM     86  C   UNL A   1      43.174  27.728  31.929  1.00  0.00     0.031 A 
ATOM     87  C   UNL A   1      44.865  26.153  32.501  1.00  0.00     0.131 A 
ATOM     88  C   UNL A   1      42.622  27.558  33.217  1.00  0.00     0.055 A 
ATOM     89  C   UNL A   1      44.322  25.981  33.782  1.00  0.00     0.041 A 
ATOM     90  F   UNL A   1      45.942  25.418  32.238  1.00  0.00    -0.206 F 
ATOM     91  C   UNL A   1      43.193  26.690  34.148  1.00  0.00     0.022 A 
BRANCH  88  92
ATOM     92  S   UNL A   1      41.113  28.459  33.662  1.00  0.00     0.124 S 
ATOM     93  O   UNL A   1      40.123  27.893  32.754  1.00  0.00    -0.237 OA
ATOM     94  O   UNL A   1      40.953  28.125  35.075  1.00  0.00    -0.237 OA
ATOM     95  O   UNL A   1      41.461  29.857  33.402  1.00  0.00    -0.744 OA
ENDBRANCH  88  92
ENDBRANCH  62  85
ENDBRANCH  36  37
ENDBRANCH  29  31
ENDBRANCH  28  29
ENDBRANCH  27  28
ENDBRANCH  26  27
ENDBRANCH  25  26
ENDBRANCH  24  25
ENDBRANCH   1  24
TORSDOF 25
ENDMDL
MODEL 2
REMARK VINA RESULT:      -9.1      1.769      2.025
REMARK SMILES CN(CC(N)=O)C(=O)Cn1cccc1C(=O)OCCOCCOCCOC(=O)c1ccc(-c2c3nc(c(-c4cc(S(=O)(=O)[O-])ccc4F)c4ccc([nH]4)c(-c4cc(S(=O)(=O)[O-])ccc4F)c4nc(c(-c5cc(S(=O)(=O)[O-])ccc5F)c5ccc2[nH]5)C=C4)C=C3)cc1
REMARK SMILES IDX 21 1 20 2 19 3 18 4 17 5 15 6 16 7 14 8 10 9 11 10 12 11
REMARK SMILES IDX 13 12 9 13 7 14 8 15 2 16 1 17 3 18 4 19 5 20 6 21 22 24
REMARK SMILES IDX 23 25 24 26 25 27 26 28 27 29 28 30 29 31 30 32 91 33 31 34
REMARK SMILES IDX 90 35 32 36 33 37 34 38 84 39 35 40 89 41 83 42 85 43 36 44
REMARK SMILES IDX 88 45 82 46 81 47 37 49 69 50 49 51 68 52 50 53 53 54 67 55
REMARK SMILES IDX 86 56 51 57 52 58 66 60 87 61 54 62 38 63 39 64 47 65 40 66
REMARK SMILES IDX 46 67 48 68 45 69 41 70 42 71 43 72 44 73 70 74 71 75 79 76
REMARK SMILES IDX 72 77 78 78 80 79 77 80 73 81 74 82 75 83 76 84 55 85 56 86
REMARK SMILES IDX 64 87 57 88 63 89 65 90 62 91 58 92 59 93 60 94 61 95
REMARK H PARENT 5 22 5 23 85 48 53 59
REMARK Flexibility Score: inf
ROOT
ATOM      1  C   UNL A   1      31.828  29.541  26.120  1.00  0.00     0.188 C 
ENDROOT
BRANCH   1   2
ATOM      2  O   UNL A   1      31.415  28.180  26.173  1.00  0.00    -0.376 OA
BRANCH   2   3
ATOM      3  C   UNL A   1      32.228  27.211  26.813  1.00  0.00     0.202 C 
BRANCH   3   4
ATOM      4  C   UNL A   1      31.856  25.723  26.682  1.00  0.00     0.261 C 
BRANCH   4   5
ATOM      5  O   UNL A   1      32.032  25.166  25.369  1.00  0.00    -0.459 OA
BRANCH   5   6
ATOM      6  C   UNL A   1      32.960  24.177  25.249  1.00  0.00     0.355 C 
ATOM      7  O   UNL A   1      33.709  23.803  26.130  1.00  0.00    -0.244 OA
BRANCH   6   8
ATOM      8  C   UNL A   1      32.857  23.541  23.941  1.00  0.00     0.128 A 
ATOM      9  N   UNL A   1      32.555  22.226  23.625  1.00  0.00    -0.333 N 
ATOM     10  C   UNL A   1      32.725  22.027  22.272  1.00  0.00     0.087 A 
ATOM     11  C   UNL A   1      33.041  23.231  21.692  1.00  0.00     0.020 A 
ATOM     12  C   UNL A   1      33.101  24.183  22.731  1.00  0.00     0.035 A 
BRANCH   9  13
ATOM     13  C   UNL A   1      32.106  21.183  24.543  1.00  0.00     0.222 C 
BRANCH  13  14
ATOM     14  C   UNL A   1      33.104  20.045  24.712  1.00  0.00     0.242 C 
ATOM     15  O   UNL A   1      34.195  20.269  25.249  1.00  0.00    -0.273 OA
BRANCH  14  16
ATOM     16  N   UNL A   1      32.758  18.755  24.311  1.00  0.00    -0.335 N 
ATOM     17  C   UNL A   1      32.181  18.612  22.986  1.00  0.00     0.147 C 
BRANCH  16  18
ATOM     18  C   UNL A   1      32.884  17.548  25.133  1.00  0.00     0.218 C 
BRANCH  18  19
ATOM     19  C   UNL A   1      34.033  16.638  24.696  1.00  0.00     0.237 C 
ATOM     20  N   UNL A   1      35.172  16.743  25.442  1.00  0.00    -0.368 N 
ATOM     21  O   UNL A   1      33.972  15.850  23.759  1.00  0.00    -0.273 OA
ATOM     22  H   UNL A   1      35.213  17.377  26.193  1.00  0.00     0.159 HD
ATOM     23  H   UNL A   1      35.953  16.183  25.228  1.00  0.00     0.159 HD
ENDBRANCH  18  19
ENDBRANCH  16  18
ENDBRANCH  14  16
ENDBRANCH  13  14
ENDBRANCH   9  13
ENDBRANCH   6   8
ENDBRANCH   5   6
ENDBRANCH   4   5
ENDBRANCH   3   4
ENDBRANCH   2   3
ENDBRANCH   1   2
BRANCH   1  24
ATOM     24  C   UNL A   1      33.209  29.999  26.651  1.00  0.00     0.188 C 
BRANCH  24  25
ATOM     25  O   UNL A   1      33.183  30.906  27.744  1.00  0.00    -0.376 OA
BRANCH  25  26
ATOM     26  C   UNL A   1      33.737  32.200  27.531  1.00  0.00     0.202 C 
BRANCH  26  27
ATOM     27  C   UNL A   1      34.396  32.863  28.747  1.00  0.00     0.261 C 
BRANCH  27  28
ATOM     28  O   UNL A   1      35.694  32.368  29.043  1.00  0.00    -0.460 OA
BRANCH  28  29
ATOM     29  C   UNL A   1      35.685  31.462  30.037  1.00  0.00     0.338 C 
ATOM     30  O   UNL A   1      35.208  31.581  31.153  1.00  0.00    -0.246 OA
BRANCH  29  31
ATOM     31  C   UNL A   1      36.381  30.262  29.596  1.00  0.00     0.060 A 
ATOM     32  C   UNL A   1      36.780  29.407  30.629  1.00  0.00     0.016 A 
ATOM     33  C   UNL A   1      37.088  30.432  28.406  1.00  0.00     0.016 A 
ATOM     34  C   UNL A   1      38.073  28.959  30.598  1.00  0.00     0.010 A 
ATOM     35  C   UNL A   1      38.399  30.045  28.411  1.00  0.00     0.010 A 
ATOM     36  C   UNL A   1      38.888  29.376  29.540  1.00  0.00    -0.014 A 
BRANCH  36  37
ATOM     37  C   UNL A   1      40.289  28.984  29.583  1.00  0.00     0.031 A 
ATOM     38  C   UNL A   1      41.125  30.195  30.046  1.00  0.00     0.074 A 
ATOM     39  C   UNL A   1      40.524  27.699  29.159  1.00  0.00     0.049 A 
ATOM     40  N   UNL A   1      42.363  30.496  29.822  1.00  0.00    -0.248 NA
ATOM     41  C   UNL A   1      40.450  31.305  30.797  1.00  0.00     0.031 C 
ATOM     42  C   UNL A   1      39.493  26.707  28.732  1.00  0.00     0.029 A 
ATOM     43  N   UNL A   1      41.665  26.960  28.981  1.00  0.00    -0.354 N 
ATOM     44  C   UNL A   1      42.671  31.632  30.607  1.00  0.00     0.074 A 
ATOM     45  C   UNL A   1      41.430  32.167  31.060  1.00  0.00     0.031 C 
ATOM     46  C   UNL A   1      40.063  25.570  28.261  1.00  0.00     0.029 A 
ATOM     47  C   UNL A   1      41.504  25.685  28.358  1.00  0.00     0.049 A 
ATOM     48  H   UNL A   1      42.548  27.290  29.266  1.00  0.00     0.167 HD
ATOM     49  C   UNL A   1      43.945  31.971  30.951  1.00  0.00     0.034 A 
ATOM     50  C   UNL A   1      42.484  24.831  27.914  1.00  0.00     0.034 A 
ATOM     51  C   UNL A   1      44.857  31.075  30.324  1.00  0.00     0.049 A 
ATOM     52  C   UNL A   1      43.719  25.495  28.366  1.00  0.00     0.074 A 
ATOM     53  C   UNL A   1      45.276  30.959  29.027  1.00  0.00     0.029 A 
ATOM     54  N   UNL A   1      45.185  29.929  31.010  1.00  0.00    -0.354 N 
ATOM     55  N   UNL A   1      44.124  25.559  29.597  1.00  0.00    -0.248 NA
ATOM     56  C   UNL A   1      44.500  26.255  27.381  1.00  0.00     0.031 C 
ATOM     57  C   UNL A   1      45.386  29.566  28.851  1.00  0.00     0.029 A 
ATOM     58  C   UNL A   1      45.243  28.915  30.086  1.00  0.00     0.049 A 
ATOM     59  H   UNL A   1      45.346  29.851  31.978  1.00  0.00     0.167 HD
ATOM     60  C   UNL A   1      45.017  26.598  29.572  1.00  0.00     0.074 A 
ATOM     61  C   UNL A   1      45.431  26.745  28.192  1.00  0.00     0.031 C 
ATOM     62  C   UNL A   1      44.977  27.562  30.530  1.00  0.00     0.034 A 
BRANCH  49  63
ATOM     63  C   UNL A   1      44.512  32.928  31.960  1.00  0.00     0.023 A 
ATOM     64  C   UNL A   1      44.426  32.515  33.311  1.00  0.00     0.031 A 
ATOM     65  C   UNL A   1      44.826  34.275  31.739  1.00  0.00     0.131 A 
ATOM     66  C   UNL A   1      44.486  33.432  34.364  1.00  0.00     0.055 A 
ATOM     67  C   UNL A   1      44.964  35.182  32.803  1.00  0.00     0.041 A 
ATOM     68  F   UNL A   1      44.926  34.784  30.504  1.00  0.00    -0.206 F 
ATOM     69  C   UNL A   1      44.753  34.772  34.120  1.00  0.00     0.022 A 
BRANCH  66  70
ATOM     70  S   UNL A   1      44.015  32.849  36.018  1.00  0.00     0.124 S 
ATOM     71  O   UNL A   1      44.926  31.729  36.222  1.00  0.00    -0.237 OA
ATOM     72  O   UNL A   1      44.265  34.031  36.838  1.00  0.00    -0.237 OA
ATOM     73  O   UNL A   1      42.608  32.489  35.860  1.00  0.00    -0.744 OA
ENDBRANCH  66  70
ENDBRANCH  49  63
BRANCH  50  74
ATOM     74  C   UNL A   1      42.685  23.574  27.071  1.00  0.00     0.023 A 
ATOM     75  C   UNL A   1      43.718  23.305  26.155  1.00  0.00     0.031 A 
ATOM     76  C   UNL A   1      41.773  22.482  27.262  1.00  0.00     0.131 A 
ATOM     77  C   UNL A   1      43.841  22.003  25.573  1.00  0.00     0.055 A 
ATOM     78  C   UNL A   1      41.957  21.190  26.773  1.00  0.00     0.041 A 
ATOM     79  F   UNL A   1      40.632  22.613  27.950  1.00  0.00    -0.206 F 
ATOM     80  C   UNL A   1      43.011  20.937  25.933  1.00  0.00     0.022 A 
BRANCH  77  81
ATOM     81  S   UNL A   1      45.099  21.624  24.311  1.00  0.00     0.124 S 
ATOM     82  O   UNL A   1      44.463  20.544  23.565  1.00  0.00    -0.237 OA
ATOM     83  O   UNL A   1      45.248  22.892  23.606  1.00  0.00    -0.237 OA
ATOM     84  O   UNL A   1      46.262  21.225  25.105  1.00  0.00    -0.744 OA
ENDBRANCH  77  81
ENDBRANCH  50  74
BRANCH  62  85
ATOM     85  C   UNL A   1      44.276  27.146  31.827  1.00  0.00     0.023 A 
ATOM     86  C   UNL A   1      43.151  27.857  32.283  1.00  0.00     0.031 A 
ATOM     87  C   UNL A   1      44.747  26.138  32.690  1.00  0.00     0.131 A 
ATOM     88  C   UNL A   1      42.572  27.576  33.540  1.00  0.00     0.055 A 
ATOM     89  C   UNL A   1      44.178  25.855  33.939  1.00  0.00     0.041 A 
ATOM     90  F   UNL A   1      45.787  25.380  32.355  1.00  0.00    -0.206 F 
ATOM     91  C   UNL A   1      43.082  26.580  34.373  1.00  0.00     0.022 A 
BRANCH  88  92
ATOM     92  S   UNL A   1      41.108  28.503  34.070  1.00  0.00     0.124 S 
ATOM     93  O   UNL A   1      40.035  27.865  33.316  1.00  0.00    -0.237 OA
ATOM     94  O   UNL A   1      41.098  28.278  35.513  1.00  0.00    -0.237 OA
ATOM     95  O   UNL A   1      41.410  29.878  33.670  1.00  0.00    -0.744 OA
ENDBRANCH  88  92
ENDBRANCH  62  85
ENDBRANCH  36  37
ENDBRANCH  29  31
ENDBRANCH  28  29
ENDBRANCH  27  28
ENDBRANCH  26  27
ENDBRANCH  25  26
ENDBRANCH  24  25
ENDBRANCH   1  24
TORSDOF 25
ENDMDL
MODEL 3
REMARK VINA RESULT:      -8.9      5.232     10.256
REMARK SMILES CN(CC(N)=O)C(=O)Cn1cccc1C(=O)OCCOCCOCCOC(=O)c1ccc(-c2c3nc(c(-c4cc(S(=O)(=O)[O-])ccc4F)c4ccc([nH]4)c(-c4cc(S(=O)(=O)[O-])ccc4F)c4nc(c(-c5cc(S(=O)(=O)[O-])ccc5F)c5ccc2[nH]5)C=C4)C=C3)cc1
REMARK SMILES IDX 21 1 20 2 19 3 18 4 17 5 15 6 16 7 14 8 10 9 11 10 12 11
REMARK SMILES IDX 13 12 9 13 7 14 8 15 2 16 1 17 3 18 4 19 5 20 6 21 22 24
REMARK SMILES IDX 23 25 24 26 25 27 26 28 27 29 28 30 29 31 30 32 91 33 31 34
REMARK SMILES IDX 90 35 32 36 33 37 34 38 84 39 35 40 89 41 83 42 85 43 36 44
REMARK SMILES IDX 88 45 82 46 81 47 37 49 69 50 49 51 68 52 50 53 53 54 67 55
REMARK SMILES IDX 86 56 51 57 52 58 66 60 87 61 54 62 38 63 39 64 47 65 40 66
REMARK SMILES IDX 46 67 48 68 45 69 41 70 42 71 43 72 44 73 70 74 71 75 79 76
REMARK SMILES IDX 72 77 78 78 80 79 77 80 73 81 74 82 75 83 76 84 55 85 56 86
REMARK SMILES IDX 64 87 57 88 63 89 65 90 62 91 58 92 59 93 60 94 61 95
REMARK H PARENT 5 22 5 23 85 48 53 59
REMARK Flexibility Score: inf
ROOT
ATOM      1  C   UNL A   1      42.833  33.591  35.170  1.00  0.00     0.188 C 
ENDROOT
BRANCH   1   2
ATOM      2  O   UNL A   1      42.199  34.268  36.249  1.00  0.00    -0.376 OA
BRANCH   2   3
ATOM      3  C   UNL A   1      40.800  34.144  36.448  1.00  0.00     0.202 C 
BRANCH   3   4
ATOM      4  C   UNL A   1      39.863  35.190  35.818  1.00  0.00     0.261 C 
BRANCH   4   5
ATOM      5  O   UNL A   1      38.892  34.662  34.900  1.00  0.00    -0.459 OA
BRANCH   5   6
ATOM      6  C   UNL A   1      37.927  33.861  35.431  1.00  0.00     0.355 C 
ATOM      7  O   UNL A   1      37.490  33.941  36.562  1.00  0.00    -0.244 OA
BRANCH   6   8
ATOM      8  C   UNL A   1      37.400  32.959  34.415  1.00  0.00     0.128 A 
ATOM      9  N   UNL A   1      36.430  33.190  33.451  1.00  0.00    -0.333 N 
ATOM     10  C   UNL A   1      36.131  32.009  32.807  1.00  0.00     0.087 A 
ATOM     11  C   UNL A   1      36.971  31.032  33.279  1.00  0.00     0.020 A 
ATOM     12  C   UNL A   1      37.782  31.629  34.267  1.00  0.00     0.035 A 
BRANCH   9  13
ATOM     13  C   UNL A   1      35.808  34.469  33.123  1.00  0.00     0.222 C 
BRANCH  13  14
ATOM     14  C   UNL A   1      34.292  34.394  32.986  1.00  0.00     0.242 C 
ATOM     15  O   UNL A   1      33.725  33.304  33.114  1.00  0.00    -0.273 OA
BRANCH  14  16
ATOM     16  N   UNL A   1      33.558  35.560  32.773  1.00  0.00    -0.335 N 
ATOM     17  C   UNL A   1      33.874  36.699  33.618  1.00  0.00     0.147 C 
BRANCH  16  18
ATOM     18  C   UNL A   1      32.467  35.712  31.805  1.00  0.00     0.218 C 
BRANCH  18  19
ATOM     19  C   UNL A   1      32.937  36.218  30.441  1.00  0.00     0.237 C 
ATOM     20  N   UNL A   1      33.084  35.255  29.484  1.00  0.00    -0.368 N 
ATOM     21  O   UNL A   1      33.164  37.394  30.182  1.00  0.00    -0.273 OA
ATOM     22  H   UNL A   1      32.899  34.313  29.700  1.00  0.00     0.159 HD
ATOM     23  H   UNL A   1      33.375  35.503  28.577  1.00  0.00     0.159 HD
ENDBRANCH  18  19
ENDBRANCH  16  18
ENDBRANCH  14  16
ENDBRANCH  13  14
ENDBRANCH   9  13
ENDBRANCH   6   8
ENDBRANCH   5   6
ENDBRANCH   4   5
ENDBRANCH   3   4
ENDBRANCH   2   3
ENDBRANCH   1   2
BRANCH   1  24
ATOM     24  C   UNL A   1      42.254  32.288  34.567  1.00  0.00     0.188 C 
BRANCH  24  25
ATOM     25  O   UNL A   1      42.910  31.085  34.944  1.00  0.00    -0.376 OA
BRANCH  25  26
ATOM     26  C   UNL A   1      42.824  30.696  36.310  1.00  0.00     0.202 C 
BRANCH  26  27
ATOM     27  C   UNL A   1      44.143  30.301  36.986  1.00  0.00     0.261 C 
BRANCH  27  28
ATOM     28  O   UNL A   1      44.831  29.240  36.337  1.00  0.00    -0.460 OA
BRANCH  28  29
ATOM     29  C   UNL A   1      44.316  28.035  36.636  1.00  0.00     0.338 C 
ATOM     30  O   UNL A   1      43.814  27.676  37.687  1.00  0.00    -0.246 OA
BRANCH  29  31
ATOM     31  C   UNL A   1      44.467  27.152  35.489  1.00  0.00     0.060 A 
ATOM     32  C   UNL A   1      45.290  27.650  34.473  1.00  0.00     0.016 A 
ATOM     33  C   UNL A   1      43.360  26.333  35.265  1.00  0.00     0.016 A 
ATOM     34  C   UNL A   1      44.806  27.587  33.194  1.00  0.00     0.010 A 
ATOM     35  C   UNL A   1      42.843  26.333  33.999  1.00  0.00     0.010 A 
ATOM     36  C   UNL A   1      43.541  27.022  32.998  1.00  0.00    -0.014 A 
BRANCH  36  37
ATOM     37  C   UNL A   1      42.993  27.064  31.651  1.00  0.00     0.031 A 
ATOM     38  C   UNL A   1      41.850  28.099  31.617  1.00  0.00     0.074 A 
ATOM     39  C   UNL A   1      43.566  26.165  30.785  1.00  0.00     0.049 A 
ATOM     40  N   UNL A   1      40.812  28.178  30.848  1.00  0.00    -0.248 NA
ATOM     41  C   UNL A   1      41.795  29.163  32.673  1.00  0.00     0.031 C 
ATOM     42  C   UNL A   1      44.690  25.232  31.096  1.00  0.00     0.029 A 
ATOM     43  N   UNL A   1      43.322  25.829  29.478  1.00  0.00    -0.354 N 
ATOM     44  C   UNL A   1      40.167  29.405  31.134  1.00  0.00     0.074 A 
ATOM     45  C   UNL A   1      40.724  29.887  32.354  1.00  0.00     0.031 C 
ATOM     46  C   UNL A   1      44.941  24.394  30.059  1.00  0.00     0.029 A 
ATOM     47  C   UNL A   1      44.042  24.707  28.966  1.00  0.00     0.049 A 
ATOM     48  H   UNL A   1      42.684  26.334  28.922  1.00  0.00     0.167 HD
ATOM     49  C   UNL A   1      39.315  30.014  30.263  1.00  0.00     0.034 A 
ATOM     50  C   UNL A   1      43.864  24.065  27.765  1.00  0.00     0.034 A 
ATOM     51  C   UNL A   1      39.131  29.181  29.123  1.00  0.00     0.049 A 
ATOM     52  C   UNL A   1      42.855  24.904  27.097  1.00  0.00     0.074 A 
ATOM     53  C   UNL A   1      38.429  28.021  28.943  1.00  0.00     0.029 A 
ATOM     54  N   UNL A   1      40.008  29.346  28.076  1.00  0.00    -0.354 N 
ATOM     55  N   UNL A   1      43.075  26.084  26.603  1.00  0.00    -0.248 NA
ATOM     56  C   UNL A   1      41.461  24.442  27.089  1.00  0.00     0.031 C 
ATOM     57  C   UNL A   1      39.253  27.282  28.072  1.00  0.00     0.029 A 
ATOM     58  C   UNL A   1      40.293  28.092  27.594  1.00  0.00     0.049 A 
ATOM     59  H   UNL A   1      40.363  30.200  27.738  1.00  0.00     0.167 HD
ATOM     60  C   UNL A   1      41.815  26.615  26.507  1.00  0.00     0.074 A 
ATOM     61  C   UNL A   1      40.901  25.492  26.499  1.00  0.00     0.031 C 
ATOM     62  C   UNL A   1      41.568  27.879  26.939  1.00  0.00     0.034 A 
BRANCH  49  63
ATOM     63  C   UNL A   1      38.730  31.396  30.201  1.00  0.00     0.023 A 
ATOM     64  C   UNL A   1      37.392  31.474  29.743  1.00  0.00     0.031 A 
ATOM     65  C   UNL A   1      39.442  32.600  30.251  1.00  0.00     0.131 A 
ATOM     66  C   UNL A   1      36.865  32.656  29.215  1.00  0.00     0.055 A 
ATOM     67  C   UNL A   1      38.884  33.805  29.793  1.00  0.00     0.041 A 
ATOM     68  F   UNL A   1      40.717  32.651  30.659  1.00  0.00    -0.206 F 
ATOM     69  C   UNL A   1      37.606  33.830  29.232  1.00  0.00     0.022 A 
BRANCH  66  70
ATOM     70  S   UNL A   1      35.278  32.554  28.340  1.00  0.00     0.124 S 
ATOM     71  O   UNL A   1      34.323  32.474  29.440  1.00  0.00    -0.237 OA
ATOM     72  O   UNL A   1      35.271  33.800  27.579  1.00  0.00    -0.237 OA
ATOM     73  O   UNL A   1      35.411  31.339  27.540  1.00  0.00    -0.744 OA
ENDBRANCH  66  70
ENDBRANCH  49  63
BRANCH  50  74
ATOM     74  C   UNL A   1      44.266  22.797  27.015  1.00  0.00     0.023 A 
ATOM     75  C   UNL A   1      43.499  21.634  26.812  1.00  0.00     0.031 A 
ATOM     76  C   UNL A   1      45.543  22.777  26.360  1.00  0.00     0.131 A 
ATOM     77  C   UNL A   1      43.975  20.604  25.940  1.00  0.00     0.055 A 
ATOM     78  C   UNL A   1      45.954  21.819  25.435  1.00  0.00     0.041 A 
ATOM     79  F   UNL A   1      46.479  23.708  26.586  1.00  0.00    -0.206 F 
ATOM     80  C   UNL A   1      45.157  20.727  25.205  1.00  0.00     0.022 A 
BRANCH  77  81
ATOM     81  S   UNL A   1      43.071  19.037  25.713  1.00  0.00     0.124 S 
ATOM     82  O   UNL A   1      41.818  19.495  25.123  1.00  0.00    -0.237 OA
ATOM     83  O   UNL A   1      43.954  18.274  24.839  1.00  0.00    -0.237 OA
ATOM     84  O   UNL A   1      42.958  18.515  27.076  1.00  0.00    -0.744 OA
ENDBRANCH  77  81
ENDBRANCH  50  74
BRANCH  62  85
ATOM     85  C   UNL A   1      42.804  28.778  27.031  1.00  0.00     0.023 A 
ATOM     86  C   UNL A   1      43.723  28.613  28.084  1.00  0.00     0.031 A 
ATOM     87  C   UNL A   1      43.053  29.869  26.176  1.00  0.00     0.131 A 
ATOM     88  C   UNL A   1      44.796  29.514  28.263  1.00  0.00     0.055 A 
ATOM     89  C   UNL A   1      44.115  30.767  26.348  1.00  0.00     0.041 A 
ATOM     90  F   UNL A   1      42.269  30.111  25.129  1.00  0.00    -0.206 F 
ATOM     91  C   UNL A   1      44.995  30.593  27.402  1.00  0.00     0.022 A 
BRANCH  88  92
ATOM     92  S   UNL A   1      45.967  29.241  29.619  1.00  0.00     0.124 S 
ATOM     93  O   UNL A   1      45.244  29.757  30.775  1.00  0.00    -0.237 OA
ATOM     94  O   UNL A   1      46.163  27.794  29.579  1.00  0.00    -0.237 OA
ATOM     95  O   UNL A   1      47.138  30.025  29.223  1.00  0.00    -0.744 OA
ENDBRANCH  88  92
ENDBRANCH  62  85
ENDBRANCH  36  37
ENDBRANCH  29  31
ENDBRANCH  28  29
ENDBRANCH  27  28
ENDBRANCH  26  27
ENDBRANCH  25  26
ENDBRANCH  24  25
ENDBRANCH   1  24
TORSDOF 25
ENDMDL
