MODEL 1
REMARK VINA RESULT:      -9.7      0.000      0.000
REMARK SMILES C[C@@H]1CSCCN1c1ccc(C(F)(F)F)cc1C(=O)OCCOCCOCCOC(=O)c1ccc(-c2c3nc(c(-c4cc(S(=O)(=O)[O-])ccc4F)c4ccc([nH]4)c(-c4cc(S(=O)(=O)[O-])ccc4F)c4nc(c(-c5cc(S(=O)(=O)[O-])ccc5F)c5ccc2[nH]5)C=C4)C=C3)cc1
REMARK SMILES IDX 25 1 24 2 23 3 22 4 21 5 20 6 18 7 19 8 17 9 8 10 9 11 10 12
REMARK SMILES IDX 16 13 11 14 7 15 1 16 2 17 3 18 4 19 6 20 5 21 12 22 13 23
REMARK SMILES IDX 14 24 15 25 26 26 27 27 28 28 29 29 30 30 31 31 32 32 33 33
REMARK SMILES IDX 94 34 34 35 93 36 35 37 36 38 37 39 87 40 38 41 92 42 86 43
REMARK SMILES IDX 88 44 39 45 91 46 85 47 84 48 40 50 72 51 52 52 71 53 53 54
REMARK SMILES IDX 56 55 70 56 89 57 54 58 55 59 69 61 90 62 57 63 41 64 42 65
REMARK SMILES IDX 50 66 43 67 49 68 51 69 48 70 44 71 45 72 46 73 47 74 73 75
REMARK SMILES IDX 74 76 82 77 75 78 81 79 83 80 80 81 76 82 77 83 78 84 79 85
REMARK SMILES IDX 58 86 59 87 67 88 60 89 66 90 68 91 65 92 61 93 62 94 63 95
REMARK SMILES IDX 64 96
REMARK H PARENT 88 49 56 60
REMARK Flexibility Score: inf
ROOT
ATOM      1  C   UNL A   1      34.538  23.480  23.540  1.00  0.00     0.188 C 
ENDROOT
BRANCH   1   2
ATOM      2  C   UNL A   1      33.429  24.173  22.717  1.00  0.00     0.188 C 
BRANCH   2   3
ATOM      3  O   UNL A   1      32.328  23.415  22.225  1.00  0.00    -0.376 OA
BRANCH   3   4
ATOM      4  C   UNL A   1      31.279  23.077  23.126  1.00  0.00     0.202 C 
BRANCH   4   5
ATOM      5  C   UNL A   1      31.123  24.013  24.317  1.00  0.00     0.261 C 
BRANCH   5   6
ATOM      6  O   UNL A   1      30.319  25.121  23.895  1.00  0.00    -0.460 OA
BRANCH   6   7
ATOM      7  C   UNL A   1      29.874  25.927  24.872  1.00  0.00     0.340 C 
ATOM      8  O   UNL A   1      29.571  25.592  26.006  1.00  0.00    -0.246 OA
BRANCH   7   9
ATOM      9  C   UNL A   1      30.007  27.328  24.426  1.00  0.00     0.084 A 
ATOM     10  C   UNL A   1      31.076  28.207  24.723  1.00  0.00     0.052 A 
ATOM     11  C   UNL A   1      31.003  29.455  24.058  1.00  0.00     0.027 A 
ATOM     12  C   UNL A   1      29.895  29.877  23.309  1.00  0.00     0.015 A 
ATOM     13  C   UNL A   1      28.877  27.755  23.684  1.00  0.00     0.031 A 
ATOM     14  C   UNL A   1      28.786  29.050  23.169  1.00  0.00     0.057 A 
BRANCH  10  15
ATOM     15  N   UNL A   1      32.136  27.989  25.604  1.00  0.00    -0.366 N 
ATOM     16  C   UNL A   1      33.719  26.100  25.987  1.00  0.00     0.032 C 
ATOM     17  C   UNL A   1      33.453  27.417  25.242  1.00  0.00     0.089 C 
ATOM     18  C   UNL A   1      34.572  28.447  25.508  1.00  0.00     0.094 C 
ATOM     19  S   UNL A   1      34.673  29.051  27.235  1.00  0.00    -0.158 SA
ATOM     20  C   UNL A   1      31.972  28.309  27.045  1.00  0.00     0.128 C 
ATOM     21  C   UNL A   1      32.904  29.448  27.472  1.00  0.00     0.091 C 
ENDBRANCH  10  15
BRANCH  14  22
ATOM     22  C   UNL A   1      27.542  29.534  22.464  1.00  0.00     0.416 C 
ATOM     23  F   UNL A   1      26.483  28.700  22.655  1.00  0.00    -0.166 F 
ATOM     24  F   UNL A   1      27.147  30.759  22.898  1.00  0.00    -0.166 F 
ATOM     25  F   UNL A   1      27.707  29.629  21.117  1.00  0.00    -0.166 F 
ENDBRANCH  14  22
ENDBRANCH   7   9
ENDBRANCH   6   7
ENDBRANCH   5   6
ENDBRANCH   4   5
ENDBRANCH   3   4
ENDBRANCH   2   3
ENDBRANCH   1   2
BRANCH   1  26
ATOM     26  O   UNL A   1      35.780  23.116  22.953  1.00  0.00    -0.376 OA
BRANCH  26  27
ATOM     27  C   UNL A   1      36.907  22.884  23.781  1.00  0.00     0.202 C 
BRANCH  27  28
ATOM     28  C   UNL A   1      37.056  23.744  25.034  1.00  0.00     0.261 C 
BRANCH  28  29
ATOM     29  O   UNL A   1      37.501  22.988  26.168  1.00  0.00    -0.460 OA
BRANCH  29  30
ATOM     30  C   UNL A   1      38.835  22.753  26.210  1.00  0.00     0.338 C 
ATOM     31  O   UNL A   1      39.420  21.773  25.779  1.00  0.00    -0.246 OA
BRANCH  30  32
ATOM     32  C   UNL A   1      39.534  23.958  26.699  1.00  0.00     0.060 A 
ATOM     33  C   UNL A   1      39.473  24.228  28.072  1.00  0.00     0.016 A 
ATOM     34  C   UNL A   1      40.208  24.825  25.832  1.00  0.00     0.016 A 
ATOM     35  C   UNL A   1      40.044  25.392  28.577  1.00  0.00     0.010 A 
ATOM     36  C   UNL A   1      40.767  26.001  26.340  1.00  0.00     0.010 A 
ATOM     37  C   UNL A   1      40.656  26.305  27.708  1.00  0.00    -0.014 A 
BRANCH  37  38
ATOM     38  C   UNL A   1      41.001  27.654  28.214  1.00  0.00     0.031 A 
ATOM     39  C   UNL A   1      42.454  28.036  28.295  1.00  0.00     0.074 A 
ATOM     40  C   UNL A   1      40.041  28.537  28.539  1.00  0.00     0.049 A 
ATOM     41  N   UNL A   1      42.998  29.161  28.682  1.00  0.00    -0.248 NA
ATOM     42  C   UNL A   1      43.421  27.009  27.878  1.00  0.00     0.031 C 
ATOM     43  C   UNL A   1      38.604  28.288  28.460  1.00  0.00     0.029 A 
ATOM     44  N   UNL A   1      40.136  29.825  29.001  1.00  0.00    -0.354 N 
ATOM     45  C   UNL A   1      44.370  28.985  28.533  1.00  0.00     0.074 A 
ATOM     46  C   UNL A   1      44.574  27.629  28.071  1.00  0.00     0.031 C 
ATOM     47  C   UNL A   1      37.948  29.385  28.878  1.00  0.00     0.029 A 
ATOM     48  C   UNL A   1      38.919  30.404  29.274  1.00  0.00     0.049 A 
ATOM     49  H   UNL A   1      40.995  30.290  29.125  1.00  0.00     0.167 HD
ATOM     50  C   UNL A   1      45.365  29.880  28.746  1.00  0.00     0.034 A 
ATOM     51  C   UNL A   1      38.629  31.610  29.801  1.00  0.00     0.034 A 
ATOM     52  C   UNL A   1      45.150  31.214  29.247  1.00  0.00     0.049 A 
ATOM     53  C   UNL A   1      39.761  32.558  30.121  1.00  0.00     0.074 A 
ATOM     54  C   UNL A   1      46.086  32.192  29.535  1.00  0.00     0.029 A 
ATOM     55  N   UNL A   1      43.906  31.754  29.550  1.00  0.00    -0.354 N 
ATOM     56  N   UNL A   1      41.055  32.383  29.971  1.00  0.00    -0.248 NA
ATOM     57  C   UNL A   1      39.392  33.871  30.664  1.00  0.00     0.031 C 
ATOM     58  C   UNL A   1      45.413  33.300  30.066  1.00  0.00     0.029 A 
ATOM     59  C   UNL A   1      44.052  33.041  30.043  1.00  0.00     0.049 A 
ATOM     60  H   UNL A   1      43.047  31.289  29.433  1.00  0.00     0.167 HD
ATOM     61  C   UNL A   1      41.649  33.575  30.378  1.00  0.00     0.074 A 
ATOM     62  C   UNL A   1      40.572  34.466  30.757  1.00  0.00     0.031 C 
ATOM     63  C   UNL A   1      42.965  33.909  30.431  1.00  0.00     0.034 A 
BRANCH  50  64
ATOM     64  C   UNL A   1      46.775  29.411  28.477  1.00  0.00     0.023 A 
ATOM     65  C   UNL A   1      47.557  28.822  29.486  1.00  0.00     0.031 A 
ATOM     66  C   UNL A   1      47.360  29.596  27.212  1.00  0.00     0.131 A 
ATOM     67  C   UNL A   1      48.898  28.499  29.234  1.00  0.00     0.055 A 
ATOM     68  C   UNL A   1      48.673  29.205  26.946  1.00  0.00     0.041 A 
ATOM     69  F   UNL A   1      46.669  30.178  26.218  1.00  0.00    -0.206 F 
ATOM     70  C   UNL A   1      49.455  28.665  27.963  1.00  0.00     0.022 A 
BRANCH  67  71
ATOM     71  S   UNL A   1      49.945  27.982  30.622  1.00  0.00     0.124 S 
ATOM     72  O   UNL A   1      50.477  29.262  31.082  1.00  0.00    -0.237 OA
ATOM     73  O   UNL A   1      48.991  27.329  31.511  1.00  0.00    -0.237 OA
ATOM     74  O   UNL A   1      50.926  27.094  29.999  1.00  0.00    -0.744 OA
ENDBRANCH  67  71
ENDBRANCH  50  64
BRANCH  51  75
ATOM     75  C   UNL A   1      37.218  31.982  30.111  1.00  0.00     0.023 A 
ATOM     76  C   UNL A   1      36.411  32.647  29.174  1.00  0.00     0.031 A 
ATOM     77  C   UNL A   1      36.679  31.736  31.386  1.00  0.00     0.131 A 
ATOM     78  C   UNL A   1      35.132  33.092  29.543  1.00  0.00     0.055 A 
ATOM     79  C   UNL A   1      35.386  32.132  31.732  1.00  0.00     0.041 A 
ATOM     80  F   UNL A   1      37.407  31.104  32.321  1.00  0.00    -0.206 F 
ATOM     81  C   UNL A   1      34.610  32.829  30.811  1.00  0.00     0.022 A 
BRANCH  78  82
ATOM     82  S   UNL A   1      34.194  34.111  28.371  1.00  0.00     0.124 S 
ATOM     83  O   UNL A   1      35.172  34.325  27.311  1.00  0.00    -0.237 OA
ATOM     84  O   UNL A   1      33.072  33.239  28.042  1.00  0.00    -0.237 OA
ATOM     85  O   UNL A   1      33.850  35.298  29.152  1.00  0.00    -0.744 OA
ENDBRANCH  78  82
ENDBRANCH  51  75
BRANCH  63  86
ATOM     86  C   UNL A   1      43.297  35.312  30.881  1.00  0.00     0.023 A 
ATOM     87  C   UNL A   1      43.476  36.361  29.962  1.00  0.00     0.031 A 
ATOM     88  C   UNL A   1      43.456  35.596  32.249  1.00  0.00     0.131 A 
ATOM     89  C   UNL A   1      43.864  37.630  30.416  1.00  0.00     0.055 A 
ATOM     90  C   UNL A   1      43.785  36.876  32.700  1.00  0.00     0.041 A 
ATOM     91  F   UNL A   1      43.296  34.633  33.170  1.00  0.00    -0.206 F 
ATOM     92  C   UNL A   1      44.006  37.897  31.780  1.00  0.00     0.022 A 
BRANCH  89  93
ATOM     93  S   UNL A   1      44.279  38.904  29.194  1.00  0.00     0.124 S 
ATOM     94  O   UNL A   1      45.394  39.590  29.836  1.00  0.00    -0.237 OA
ATOM     95  O   UNL A   1      44.612  38.108  28.017  1.00  0.00    -0.237 OA
ATOM     96  O   UNL A   1      43.049  39.687  29.083  1.00  0.00    -0.744 OA
ENDBRANCH  89  93
ENDBRANCH  63  86
ENDBRANCH  37  38
ENDBRANCH  30  32
ENDBRANCH  29  30
ENDBRANCH  28  29
ENDBRANCH  27  28
ENDBRANCH  26  27
ENDBRANCH   1  26
TORSDOF 22
ENDMDL
MODEL 2
REMARK VINA RESULT:      -9.7      5.104     10.038
REMARK SMILES C[C@@H]1CSCCN1c1ccc(C(F)(F)F)cc1C(=O)OCCOCCOCCOC(=O)c1ccc(-c2c3nc(c(-c4cc(S(=O)(=O)[O-])ccc4F)c4ccc([nH]4)c(-c4cc(S(=O)(=O)[O-])ccc4F)c4nc(c(-c5cc(S(=O)(=O)[O-])ccc5F)c5ccc2[nH]5)C=C4)C=C3)cc1
REMARK SMILES IDX 25 1 24 2 23 3 22 4 21 5 20 6 18 7 19 8 17 9 8 10 9 11 10 12
REMARK SMILES IDX 16 13 11 14 7 15 1 16 2 17 3 18 4 19 6 20 5 21 12 22 13 23
REMARK SMILES IDX 14 24 15 25 26 26 27 27 28 28 29 29 30 30 31 31 32 32 33 33
REMARK SMILES IDX 94 34 34 35 93 36 35 37 36 38 37 39 87 40 38 41 92 42 86 43
REMARK SMILES IDX 88 44 39 45 91 46 85 47 84 48 40 50 72 51 52 52 71 53 53 54
REMARK SMILES IDX 56 55 70 56 89 57 54 58 55 59 69 61 90 62 57 63 41 64 42 65
REMARK SMILES IDX 50 66 43 67 49 68 51 69 48 70 44 71 45 72 46 73 47 74 73 75
REMARK SMILES IDX 74 76 82 77 75 78 81 79 83 80 80 81 76 82 77 83 78 84 79 85
REMARK SMILES IDX 58 86 59 87 67 88 60 89 66 90 68 91 65 92 61 93 62 94 63 95
REMARK SMILES IDX 64 96
REMARK H PARENT 88 49 56 60
REMARK Flexibility Score: inf
ROOT
ATOM      1  C   UNL A   1      40.703  21.389  27.494  1.00  0.00     0.188 C 
ENDROOT
BRANCH   1   2
ATOM      2  C   UNL A   1      39.918  22.164  26.411  1.00  0.00     0.188 C 
BRANCH   2   3
ATOM      3  O   UNL A   1      38.644  21.694  25.983  1.00  0.00    -0.376 OA
BRANCH   3   4
ATOM      4  C   UNL A   1      37.779  22.599  25.304  1.00  0.00     0.202 C 
BRANCH   4   5
ATOM      5  C   UNL A   1      36.908  21.973  24.224  1.00  0.00     0.261 C 
BRANCH   5   6
ATOM      6  O   UNL A   1      35.540  22.194  24.587  1.00  0.00    -0.460 OA
BRANCH   6   7
ATOM      7  C   UNL A   1      35.011  21.308  25.445  1.00  0.00     0.340 C 
ATOM      8  O   UNL A   1      35.165  21.291  26.655  1.00  0.00    -0.246 OA
BRANCH   7   9
ATOM      9  C   UNL A   1      34.035  20.471  24.718  1.00  0.00     0.084 A 
ATOM     10  C   UNL A   1      32.778  20.888  24.219  1.00  0.00     0.052 A 
ATOM     11  C   UNL A   1      32.104  19.906  23.452  1.00  0.00     0.027 A 
ATOM     12  C   UNL A   1      32.536  18.577  23.333  1.00  0.00     0.015 A 
ATOM     13  C   UNL A   1      34.468  19.124  24.616  1.00  0.00     0.031 A 
ATOM     14  C   UNL A   1      33.696  18.155  23.972  1.00  0.00     0.057 A 
BRANCH  10  15
ATOM     15  N   UNL A   1      32.142  22.112  24.430  1.00  0.00    -0.366 N 
ATOM     16  C   UNL A   1      30.430  22.923  26.051  1.00  0.00     0.032 C 
ATOM     17  C   UNL A   1      31.926  22.752  25.747  1.00  0.00     0.089 C 
ATOM     18  C   UNL A   1      32.668  24.105  25.811  1.00  0.00     0.094 C 
ATOM     19  S   UNL A   1      32.196  25.308  24.511  1.00  0.00    -0.158 SA
ATOM     20  C   UNL A   1      31.588  22.862  23.275  1.00  0.00     0.128 C 
ATOM     21  C   UNL A   1      32.323  24.191  23.070  1.00  0.00     0.091 C 
ENDBRANCH  10  15
BRANCH  14  22
ATOM     22  C   UNL A   1      34.111  16.704  23.948  1.00  0.00     0.416 C 
ATOM     23  F   UNL A   1      33.118  15.876  24.376  1.00  0.00    -0.166 F 
ATOM     24  F   UNL A   1      34.447  16.285  22.701  1.00  0.00    -0.166 F 
ATOM     25  F   UNL A   1      35.181  16.452  24.748  1.00  0.00    -0.166 F 
ENDBRANCH  14  22
ENDBRANCH   7   9
ENDBRANCH   6   7
ENDBRANCH   5   6
ENDBRANCH   4   5
ENDBRANCH   3   4
ENDBRANCH   2   3
ENDBRANCH   1   2
BRANCH   1  26
ATOM     26  O   UNL A   1      41.995  20.856  27.234  1.00  0.00    -0.376 OA
BRANCH  26  27
ATOM     27  C   UNL A   1      42.130  19.497  26.853  1.00  0.00     0.202 C 
BRANCH  27  28
ATOM     28  C   UNL A   1      43.139  19.165  25.757  1.00  0.00     0.261 C 
BRANCH  28  29
ATOM     29  O   UNL A   1      43.590  20.331  25.055  1.00  0.00    -0.460 OA
BRANCH  29  30
ATOM     30  C   UNL A   1      44.908  20.334  24.742  1.00  0.00     0.338 C 
ATOM     31  O   UNL A   1      45.528  19.451  24.173  1.00  0.00    -0.246 OA
BRANCH  30  32
ATOM     32  C   UNL A   1      45.482  21.665  25.027  1.00  0.00     0.060 A 
ATOM     33  C   UNL A   1      45.549  22.066  26.366  1.00  0.00     0.016 A 
ATOM     34  C   UNL A   1      45.913  22.518  24.005  1.00  0.00     0.016 A 
ATOM     35  C   UNL A   1      46.004  23.342  26.687  1.00  0.00     0.010 A 
ATOM     36  C   UNL A   1      46.354  23.804  24.328  1.00  0.00     0.010 A 
ATOM     37  C   UNL A   1      46.368  24.232  25.668  1.00  0.00    -0.014 A 
BRANCH  37  38
ATOM     38  C   UNL A   1      46.575  25.660  26.004  1.00  0.00     0.031 A 
ATOM     39  C   UNL A   1      45.378  26.482  26.394  1.00  0.00     0.074 A 
ATOM     40  C   UNL A   1      47.808  26.196  26.017  1.00  0.00     0.049 A 
ATOM     41  N   UNL A   1      45.311  27.739  26.749  1.00  0.00    -0.248 NA
ATOM     42  C   UNL A   1      44.080  25.788  26.385  1.00  0.00     0.031 C 
ATOM     43  C   UNL A   1      49.042  25.482  25.696  1.00  0.00     0.029 A 
ATOM     44  N   UNL A   1      48.221  27.469  26.313  1.00  0.00    -0.354 N 
ATOM     45  C   UNL A   1      43.970  27.980  27.029  1.00  0.00     0.074 A 
ATOM     46  C   UNL A   1      43.254  26.754  26.751  1.00  0.00     0.031 C 
ATOM     47  C   UNL A   1      50.076  26.335  25.796  1.00  0.00     0.029 A 
ATOM     48  C   UNL A   1      49.576  27.657  26.166  1.00  0.00     0.049 A 
ATOM     49  H   UNL A   1      47.607  28.181  26.604  1.00  0.00     0.167 HD
ATOM     50  C   UNL A   1      43.393  29.116  27.492  1.00  0.00     0.034 A 
ATOM     51  C   UNL A   1      50.318  28.775  26.297  1.00  0.00     0.034 A 
ATOM     52  C   UNL A   1      44.113  30.343  27.724  1.00  0.00     0.049 A 
ATOM     53  C   UNL A   1      49.638  30.056  26.722  1.00  0.00     0.074 A 
ATOM     54  C   UNL A   1      43.626  31.564  28.157  1.00  0.00     0.029 A 
ATOM     55  N   UNL A   1      45.478  30.509  27.527  1.00  0.00    -0.354 N 
ATOM     56  N   UNL A   1      48.369  30.271  26.989  1.00  0.00    -0.248 NA
ATOM     57  C   UNL A   1      50.493  31.239  26.881  1.00  0.00     0.031 C 
ATOM     58  C   UNL A   1      44.684  32.481  28.165  1.00  0.00     0.029 A 
ATOM     59  C   UNL A   1      45.846  31.816  27.806  1.00  0.00     0.049 A 
ATOM     60  H   UNL A   1      46.095  29.801  27.231  1.00  0.00     0.167 HD
ATOM     61  C   UNL A   1      48.283  31.608  27.372  1.00  0.00     0.074 A 
ATOM     62  C   UNL A   1      49.628  32.140  27.322  1.00  0.00     0.031 C 
ATOM     63  C   UNL A   1      47.193  32.332  27.736  1.00  0.00     0.034 A 
BRANCH  50  64
ATOM     64  C   UNL A   1      41.903  29.079  27.727  1.00  0.00     0.023 A 
ATOM     65  C   UNL A   1      41.368  28.965  29.023  1.00  0.00     0.031 A 
ATOM     66  C   UNL A   1      41.007  29.112  26.644  1.00  0.00     0.131 A 
ATOM     67  C   UNL A   1      39.983  28.822  29.199  1.00  0.00     0.055 A 
ATOM     68  C   UNL A   1      39.626  29.044  26.831  1.00  0.00     0.041 A 
ATOM     69  F   UNL A   1      41.463  29.194  25.384  1.00  0.00    -0.206 F 
ATOM     70  C   UNL A   1      39.107  28.884  28.113  1.00  0.00     0.022 A 
BRANCH  67  71
ATOM     71  S   UNL A   1      39.353  28.422  30.851  1.00  0.00     0.124 S 
ATOM     72  O   UNL A   1      40.575  28.467  31.652  1.00  0.00    -0.237 OA
ATOM     73  O   UNL A   1      38.391  29.491  31.091  1.00  0.00    -0.237 OA
ATOM     74  O   UNL A   1      38.775  27.089  30.685  1.00  0.00    -0.744 OA
ENDBRANCH  67  71
ENDBRANCH  50  64
BRANCH  51  75
ATOM     75  C   UNL A   1      51.774  28.760  25.978  1.00  0.00     0.023 A 
ATOM     76  C   UNL A   1      52.243  28.979  24.672  1.00  0.00     0.031 A 
ATOM     77  C   UNL A   1      52.719  28.452  26.973  1.00  0.00     0.131 A 
ATOM     78  C   UNL A   1      53.610  28.834  24.386  1.00  0.00     0.055 A 
ATOM     79  C   UNL A   1      54.084  28.361  26.695  1.00  0.00     0.041 A 
ATOM     80  F   UNL A   1      52.325  28.231  28.238  1.00  0.00    -0.206 F 
ATOM     81  C   UNL A   1      54.534  28.539  25.391  1.00  0.00     0.022 A 
BRANCH  78  82
ATOM     82  S   UNL A   1      54.153  28.939  22.658  1.00  0.00     0.124 S 
ATOM     83  O   UNL A   1      55.557  29.304  22.809  1.00  0.00    -0.237 OA
ATOM     84  O   UNL A   1      53.890  27.587  22.176  1.00  0.00    -0.237 OA
ATOM     85  O   UNL A   1      53.295  29.978  22.094  1.00  0.00    -0.744 OA
ENDBRANCH  78  82
ENDBRANCH  51  75
BRANCH  63  86
ATOM     86  C   UNL A   1      47.430  33.766  28.144  1.00  0.00     0.023 A 
ATOM     87  C   UNL A   1      47.690  34.122  29.480  1.00  0.00     0.031 A 
ATOM     88  C   UNL A   1      47.374  34.793  27.185  1.00  0.00     0.131 A 
ATOM     89  C   UNL A   1      47.823  35.473  29.830  1.00  0.00     0.055 A 
ATOM     90  C   UNL A   1      47.566  36.132  27.530  1.00  0.00     0.041 A 
ATOM     91  F   UNL A   1      47.130  34.511  25.895  1.00  0.00    -0.206 F 
ATOM     92  C   UNL A   1      47.776  36.479  28.861  1.00  0.00     0.022 A 
BRANCH  89  93
ATOM     93  S   UNL A   1      47.959  35.910  31.585  1.00  0.00     0.124 S 
ATOM     94  O   UNL A   1      46.647  36.487  31.858  1.00  0.00    -0.237 OA
ATOM     95  O   UNL A   1      48.229  34.617  32.206  1.00  0.00    -0.237 OA
ATOM     96  O   UNL A   1      49.072  36.857  31.619  1.00  0.00    -0.744 OA
ENDBRANCH  89  93
ENDBRANCH  63  86
ENDBRANCH  37  38
ENDBRANCH  30  32
ENDBRANCH  29  30
ENDBRANCH  28  29
ENDBRANCH  27  28
ENDBRANCH  26  27
ENDBRANCH   1  26
TORSDOF 22
ENDMDL
MODEL 3
REMARK VINA RESULT:      -9.5      3.155      4.727
REMARK SMILES C[C@@H]1CSCCN1c1ccc(C(F)(F)F)cc1C(=O)OCCOCCOCCOC(=O)c1ccc(-c2c3nc(c(-c4cc(S(=O)(=O)[O-])ccc4F)c4ccc([nH]4)c(-c4cc(S(=O)(=O)[O-])ccc4F)c4nc(c(-c5cc(S(=O)(=O)[O-])ccc5F)c5ccc2[nH]5)C=C4)C=C3)cc1
REMARK SMILES IDX 25 1 24 2 23 3 22 4 21 5 20 6 18 7 19 8 17 9 8 10 9 11 10 12
REMARK SMILES IDX 16 13 11 14 7 15 1 16 2 17 3 18 4 19 6 20 5 21 12 22 13 23
REMARK SMILES IDX 14 24 15 25 26 26 27 27 28 28 29 29 30 30 31 31 32 32 33 33
REMARK SMILES IDX 94 34 34 35 93 36 35 37 36 38 37 39 87 40 38 41 92 42 86 43
REMARK SMILES IDX 88 44 39 45 91 46 85 47 84 48 40 50 72 51 52 52 71 53 53 54
REMARK SMILES IDX 56 55 70 56 89 57 54 58 55 59 69 61 90 62 57 63 41 64 42 65
REMARK SMILES IDX 50 66 43 67 49 68 51 69 48 70 44 71 45 72 46 73 47 74 73 75
REMARK SMILES IDX 74 76 82 77 75 78 81 79 83 80 80 81 76 82 77 83 78 84 79 85
REMARK SMILES IDX 58 86 59 87 67 88 60 89 66 90 68 91 65 92 61 93 62 94 63 95
REMARK SMILES IDX 64 96
REMARK H PARENT 88 49 56 60
REMARK Flexibility Score: inf
ROOT
ATOM      1  C   UNL A   1      40.460  19.904  26.196  1.00  0.00     0.188 C 
ENDROOT
BRANCH   1   2
ATOM      2  C   UNL A   1      39.744  21.271  26.274  1.00  0.00     0.188 C 
BRANCH   2   3
ATOM      3  O   UNL A   1      38.392  21.392  25.844  1.00  0.00    -0.376 OA
BRANCH   3   4
ATOM      4  C   UNL A   1      37.888  22.690  25.545  1.00  0.00     0.202 C 
BRANCH   4   5
ATOM      5  C   UNL A   1      36.866  22.742  24.418  1.00  0.00     0.261 C 
BRANCH   5   6
ATOM      6  O   UNL A   1      35.713  23.436  24.909  1.00  0.00    -0.460 OA
BRANCH   6   7
ATOM      7  C   UNL A   1      34.840  22.697  25.612  1.00  0.00     0.340 C 
ATOM      8  O   UNL A   1      34.746  22.651  26.828  1.00  0.00    -0.246 OA
BRANCH   7   9
ATOM      9  C   UNL A   1      33.864  22.103  24.679  1.00  0.00     0.084 A 
ATOM     10  C   UNL A   1      32.913  22.803  23.899  1.00  0.00     0.052 A 
ATOM     11  C   UNL A   1      32.188  21.986  22.996  1.00  0.00     0.027 A 
ATOM     12  C   UNL A   1      32.258  20.586  22.982  1.00  0.00     0.015 A 
ATOM     13  C   UNL A   1      33.927  20.686  24.681  1.00  0.00     0.031 A 
ATOM     14  C   UNL A   1      33.086  19.915  23.875  1.00  0.00     0.057 A 
BRANCH  10  15
ATOM     15  N   UNL A   1      32.602  24.162  23.955  1.00  0.00    -0.366 N 
ATOM     16  C   UNL A   1      33.947  26.244  24.228  1.00  0.00     0.032 C 
ATOM     17  C   UNL A   1      33.325  25.241  23.245  1.00  0.00     0.089 C 
ATOM     18  C   UNL A   1      32.383  25.947  22.246  1.00  0.00     0.094 C 
ATOM     19  S   UNL A   1      30.872  26.672  22.988  1.00  0.00    -0.158 SA
ATOM     20  C   UNL A   1      31.479  24.625  24.811  1.00  0.00     0.128 C 
ATOM     21  C   UNL A   1      30.347  25.221  23.969  1.00  0.00     0.091 C 
ENDBRANCH  10  15
BRANCH  14  22
ATOM     22  C   UNL A   1      33.086  18.407  23.950  1.00  0.00     0.416 C 
ATOM     23  F   UNL A   1      33.082  17.830  22.717  1.00  0.00    -0.166 F 
ATOM     24  F   UNL A   1      34.179  17.924  24.595  1.00  0.00    -0.166 F 
ATOM     25  F   UNL A   1      31.998  17.915  24.599  1.00  0.00    -0.166 F 
ENDBRANCH  14  22
ENDBRANCH   7   9
ENDBRANCH   6   7
ENDBRANCH   5   6
ENDBRANCH   4   5
ENDBRANCH   3   4
ENDBRANCH   2   3
ENDBRANCH   1   2
BRANCH   1  26
ATOM     26  O   UNL A   1      41.732  19.698  26.795  1.00  0.00    -0.376 OA
BRANCH  26  27
ATOM     27  C   UNL A   1      42.836  19.321  25.989  1.00  0.00     0.202 C 
BRANCH  27  28
ATOM     28  C   UNL A   1      43.696  20.435  25.398  1.00  0.00     0.261 C 
BRANCH  28  29
ATOM     29  O   UNL A   1      43.459  21.702  26.025  1.00  0.00    -0.460 OA
BRANCH  29  30
ATOM     30  C   UNL A   1      43.331  22.747  25.171  1.00  0.00     0.338 C 
ATOM     31  O   UNL A   1      43.291  22.696  23.953  1.00  0.00    -0.246 OA
BRANCH  30  32
ATOM     32  C   UNL A   1      43.058  23.980  25.936  1.00  0.00     0.060 A 
ATOM     33  C   UNL A   1      42.881  25.164  25.209  1.00  0.00     0.016 A 
ATOM     34  C   UNL A   1      43.011  23.988  27.333  1.00  0.00     0.016 A 
ATOM     35  C   UNL A   1      42.703  26.371  25.881  1.00  0.00     0.010 A 
ATOM     36  C   UNL A   1      42.847  25.203  28.006  1.00  0.00     0.010 A 
ATOM     37  C   UNL A   1      42.728  26.402  27.281  1.00  0.00    -0.014 A 
BRANCH  37  38
ATOM     38  C   UNL A   1      42.822  27.712  27.966  1.00  0.00     0.031 A 
ATOM     39  C   UNL A   1      44.184  28.318  28.166  1.00  0.00     0.074 A 
ATOM     40  C   UNL A   1      41.715  28.374  28.349  1.00  0.00     0.049 A 
ATOM     41  N   UNL A   1      44.516  29.457  28.716  1.00  0.00    -0.248 NA
ATOM     42  C   UNL A   1      45.325  27.528  27.676  1.00  0.00     0.031 C 
ATOM     43  C   UNL A   1      40.345  27.901  28.167  1.00  0.00     0.029 A 
ATOM     44  N   UNL A   1      41.575  29.588  28.970  1.00  0.00    -0.354 N 
ATOM     45  C   UNL A   1      45.901  29.533  28.616  1.00  0.00     0.074 A 
ATOM     46  C   UNL A   1      46.348  28.302  28.001  1.00  0.00     0.031 C 
ATOM     47  C   UNL A   1      39.499  28.810  28.684  1.00  0.00     0.029 A 
ATOM     48  C   UNL A   1      40.269  29.916  29.250  1.00  0.00     0.049 A 
ATOM     49  H   UNL A   1      42.336  30.170  29.194  1.00  0.00     0.167 HD
ATOM     50  C   UNL A   1      46.722  30.546  28.987  1.00  0.00     0.034 A 
ATOM     51  C   UNL A   1      39.761  30.978  29.907  1.00  0.00     0.034 A 
ATOM     52  C   UNL A   1      46.267  31.749  29.637  1.00  0.00     0.049 A 
ATOM     53  C   UNL A   1      40.704  32.052  30.398  1.00  0.00     0.074 A 
ATOM     54  C   UNL A   1      47.012  32.824  30.090  1.00  0.00     0.029 A 
ATOM     55  N   UNL A   1      44.940  32.030  29.942  1.00  0.00    -0.354 N 
ATOM     56  N   UNL A   1      42.013  32.116  30.293  1.00  0.00    -0.248 NA
ATOM     57  C   UNL A   1      40.100  33.203  31.079  1.00  0.00     0.031 C 
ATOM     58  C   UNL A   1      46.144  33.726  30.719  1.00  0.00     0.029 A 
ATOM     59  C   UNL A   1      44.849  33.249  30.597  1.00  0.00     0.049 A 
ATOM     60  H   UNL A   1      44.177  31.448  29.725  1.00  0.00     0.167 HD
ATOM     61  C   UNL A   1      42.382  33.327  30.872  1.00  0.00     0.074 A 
ATOM     62  C   UNL A   1      41.157  33.969  31.304  1.00  0.00     0.031 C 
ATOM     63  C   UNL A   1      43.618  33.865  31.032  1.00  0.00     0.034 A 
BRANCH  50  64
ATOM     64  C   UNL A   1      48.198  30.358  28.734  1.00  0.00     0.023 A 
ATOM     65  C   UNL A   1      49.017  29.670  29.648  1.00  0.00     0.031 A 
ATOM     66  C   UNL A   1      48.803  30.909  27.591  1.00  0.00     0.131 A 
ATOM     67  C   UNL A   1      50.403  29.609  29.437  1.00  0.00     0.055 A 
ATOM     68  C   UNL A   1      50.172  30.780  27.350  1.00  0.00     0.041 A 
ATOM     69  F   UNL A   1      48.074  31.598  26.698  1.00  0.00    -0.206 F 
ATOM     70  C   UNL A   1      50.982  30.139  28.282  1.00  0.00     0.022 A 
BRANCH  67  71
ATOM     71  S   UNL A   1      51.454  28.942  30.756  1.00  0.00     0.124 S 
ATOM     72  O   UNL A   1      51.587  30.098  31.640  1.00  0.00    -0.237 OA
ATOM     73  O   UNL A   1      50.656  27.834  31.268  1.00  0.00    -0.237 OA
ATOM     74  O   UNL A   1      52.679  28.557  30.057  1.00  0.00    -0.744 OA
ENDBRANCH  67  71
ENDBRANCH  50  64
BRANCH  51  75
ATOM     75  C   UNL A   1      38.299  31.067  30.188  1.00  0.00     0.023 A 
ATOM     76  C   UNL A   1      37.392  31.530  29.222  1.00  0.00     0.031 A 
ATOM     77  C   UNL A   1      37.798  30.752  31.464  1.00  0.00     0.131 A 
ATOM     78  C   UNL A   1      36.043  31.718  29.562  1.00  0.00     0.055 A 
ATOM     79  C   UNL A   1      36.445  30.889  31.783  1.00  0.00     0.041 A 
ATOM     80  F   UNL A   1      38.622  30.306  32.426  1.00  0.00    -0.206 F 
ATOM     81  C   UNL A   1      35.562  31.389  30.832  1.00  0.00     0.022 A 
BRANCH  78  82
ATOM     82  S   UNL A   1      34.939  32.494  28.349  1.00  0.00     0.124 S 
ATOM     83  O   UNL A   1      34.442  31.336  27.614  1.00  0.00    -0.237 OA
ATOM     84  O   UNL A   1      33.974  33.171  29.208  1.00  0.00    -0.237 OA
ATOM     85  O   UNL A   1      35.828  33.377  27.597  1.00  0.00    -0.744 OA
ENDBRANCH  78  82
ENDBRANCH  51  75
BRANCH  63  86
ATOM     86  C   UNL A   1      43.691  35.233  31.668  1.00  0.00     0.023 A 
ATOM     87  C   UNL A   1      43.717  36.408  30.895  1.00  0.00     0.031 A 
ATOM     88  C   UNL A   1      43.758  35.360  33.067  1.00  0.00     0.131 A 
ATOM     89  C   UNL A   1      43.868  37.654  31.521  1.00  0.00     0.055 A 
ATOM     90  C   UNL A   1      43.849  36.607  33.688  1.00  0.00     0.041 A 
ATOM     91  F   UNL A   1      43.737  34.273  33.854  1.00  0.00    -0.206 F 
ATOM     92  C   UNL A   1      43.920  37.761  32.914  1.00  0.00     0.022 A 
BRANCH  89  93
ATOM     93  S   UNL A   1      44.096  39.127  30.488  1.00  0.00     0.124 S 
ATOM     94  O   UNL A   1      43.477  38.718  29.233  1.00  0.00    -0.237 OA
ATOM     95  O   UNL A   1      43.386  40.151  31.246  1.00  0.00    -0.237 OA
ATOM     96  O   UNL A   1      45.549  39.290  30.438  1.00  0.00    -0.744 OA
ENDBRANCH  89  93
ENDBRANCH  63  86
ENDBRANCH  37  38
ENDBRANCH  30  32
ENDBRANCH  29  30
ENDBRANCH  28  29
ENDBRANCH  27  28
ENDBRANCH  26  27
ENDBRANCH   1  26
TORSDOF 22
ENDMDL
