MODEL 1
REMARK VINA RESULT:     -11.1      0.000      0.000
REMARK SMILES Cc1nn(Cc2nc(C(C)(C)C)cs2)c(C)c1C(=O)OCCOCCOCCOC(=O)c1ccc(-c2c3nc(c(-c4cc(S(=O)(=O)[O-])ccc4F)c4ccc([nH]4)c(-c4cc(S(=O)(=O)[O-])ccc4F)c4nc(c(-c5cc(S(=O)(=O)[O-])ccc5F)c5ccc2[nH]5)C=C4)C=C3)cc1
REMARK SMILES IDX 24 1 23 2 22 3 21 4 20 5 18 6 19 7 17 8 1 9 2 10 3 11 4 12
REMARK SMILES IDX 15 13 16 14 5 15 6 16 7 17 14 18 8 19 13 20 9 21 10 22 11 23
REMARK SMILES IDX 12 24 25 25 26 26 27 27 28 28 29 29 30 30 31 31 32 32 33 33
REMARK SMILES IDX 94 34 34 35 93 36 35 37 36 38 37 39 87 40 38 41 92 42 86 43
REMARK SMILES IDX 88 44 39 45 91 46 85 47 84 48 40 50 72 51 52 52 71 53 53 54
REMARK SMILES IDX 56 55 70 56 89 57 54 58 55 59 69 61 90 62 57 63 41 64 42 65
REMARK SMILES IDX 50 66 43 67 49 68 51 69 48 70 44 71 45 72 46 73 47 74 73 75
REMARK SMILES IDX 74 76 82 77 75 78 81 79 83 80 80 81 76 82 77 83 78 84 79 85
REMARK SMILES IDX 58 86 59 87 67 88 60 89 66 90 68 91 65 92 61 93 62 94 63 95
REMARK SMILES IDX 64 96
REMARK H PARENT 88 49 56 60
REMARK Flexibility Score: inf
ROOT
ATOM      1  C   UNL A   1      33.632  32.866  28.006  1.00  0.00     0.188 C 
ENDROOT
BRANCH   1   2
ATOM      2  O   UNL A   1      33.915  31.544  27.601  1.00  0.00    -0.376 OA
BRANCH   2   3
ATOM      3  C   UNL A   1      32.883  30.620  27.308  1.00  0.00     0.202 C 
BRANCH   3   4
ATOM      4  C   UNL A   1      32.586  30.026  25.915  1.00  0.00     0.261 C 
BRANCH   4   5
ATOM      5  O   UNL A   1      31.493  29.112  25.818  1.00  0.00    -0.460 OA
BRANCH   5   6
ATOM      6  C   UNL A   1      30.938  28.966  24.579  1.00  0.00     0.341 C 
ATOM      7  O   UNL A   1      30.372  29.854  23.970  1.00  0.00    -0.246 OA
BRANCH   6   8
ATOM      8  C   UNL A   1      31.230  27.664  23.990  1.00  0.00     0.103 A 
ATOM      9  C   UNL A   1      33.702  27.837  23.100  1.00  0.00     0.070 C 
ATOM     10  C   UNL A   1      32.412  27.158  23.387  1.00  0.00     0.074 A 
ATOM     11  N   UNL A   1      32.274  25.873  23.038  1.00  0.00    -0.177 NA
ATOM     12  N   UNL A   1      30.979  25.585  23.276  1.00  0.00    -0.262 N 
ATOM     13  C   UNL A   1      30.286  26.661  23.782  1.00  0.00     0.051 A 
ATOM     14  C   UNL A   1      28.809  26.669  23.964  1.00  0.00     0.067 C 
BRANCH  12  15
ATOM     15  C   UNL A   1      30.519  24.198  23.210  1.00  0.00     0.212 C 
BRANCH  15  16
ATOM     16  C   UNL A   1      31.177  23.294  24.200  1.00  0.00     0.114 A 
ATOM     17  N   UNL A   1      31.824  22.190  23.885  1.00  0.00    -0.244 NA
ATOM     18  S   UNL A   1      31.298  23.750  25.854  1.00  0.00    -0.125 S 
ATOM     19  C   UNL A   1      32.406  21.612  25.007  1.00  0.00     0.057 A 
ATOM     20  C   UNL A   1      32.256  22.361  26.160  1.00  0.00     0.091 A 
BRANCH  19  21
ATOM     21  C   UNL A   1      33.097  20.269  24.828  1.00  0.00     0.005 C 
ATOM     22  C   UNL A   1      32.781  19.374  26.045  1.00  0.00     0.017 C 
ATOM     23  C   UNL A   1      32.580  19.574  23.551  1.00  0.00     0.017 C 
ATOM     24  C   UNL A   1      34.628  20.398  24.710  1.00  0.00     0.017 C 
ENDBRANCH  19  21
ENDBRANCH  15  16
ENDBRANCH  12  15
ENDBRANCH   6   8
ENDBRANCH   5   6
ENDBRANCH   4   5
ENDBRANCH   3   4
ENDBRANCH   2   3
ENDBRANCH   1   2
BRANCH   1  25
ATOM     25  C   UNL A   1      34.336  33.480  29.234  1.00  0.00     0.188 C 
BRANCH  25  26
ATOM     26  O   UNL A   1      35.611  34.062  29.078  1.00  0.00    -0.376 OA
BRANCH  26  27
ATOM     27  C   UNL A   1      36.806  33.335  29.301  1.00  0.00     0.202 C 
BRANCH  27  28
ATOM     28  C   UNL A   1      36.919  31.996  30.024  1.00  0.00     0.261 C 
BRANCH  28  29
ATOM     29  O   UNL A   1      36.682  30.840  29.253  1.00  0.00    -0.460 OA
BRANCH  29  30
ATOM     30  C   UNL A   1      36.791  29.697  29.966  1.00  0.00     0.338 C 
ATOM     31  O   UNL A   1      36.239  29.436  31.021  1.00  0.00    -0.246 OA
BRANCH  30  32
ATOM     32  C   UNL A   1      37.784  28.835  29.328  1.00  0.00     0.060 A 
ATOM     33  C   UNL A   1      38.440  27.922  30.154  1.00  0.00     0.016 A 
ATOM     34  C   UNL A   1      38.266  29.188  28.060  1.00  0.00     0.016 A 
ATOM     35  C   UNL A   1      39.714  27.544  29.805  1.00  0.00     0.010 A 
ATOM     36  C   UNL A   1      39.546  28.828  27.725  1.00  0.00     0.010 A 
ATOM     37  C   UNL A   1      40.281  28.090  28.648  1.00  0.00    -0.014 A 
BRANCH  37  38
ATOM     38  C   UNL A   1      41.673  27.814  28.386  1.00  0.00     0.031 A 
ATOM     39  C   UNL A   1      41.882  26.520  27.718  1.00  0.00     0.074 A 
ATOM     40  C   UNL A   1      42.660  28.685  28.661  1.00  0.00     0.049 A 
ATOM     41  N   UNL A   1      42.366  25.446  28.239  1.00  0.00    -0.248 NA
ATOM     42  C   UNL A   1      41.305  26.337  26.378  1.00  0.00     0.031 C 
ATOM     43  C   UNL A   1      42.554  30.082  29.085  1.00  0.00     0.029 A 
ATOM     44  N   UNL A   1      43.999  28.506  28.516  1.00  0.00    -0.354 N 
ATOM     45  C   UNL A   1      42.384  24.515  27.212  1.00  0.00     0.074 A 
ATOM     46  C   UNL A   1      41.526  25.038  26.183  1.00  0.00     0.031 C 
ATOM     47  C   UNL A   1      43.762  30.679  28.941  1.00  0.00     0.029 A 
ATOM     48  C   UNL A   1      44.742  29.680  28.543  1.00  0.00     0.049 A 
ATOM     49  H   UNL A   1      44.409  27.618  28.402  1.00  0.00     0.167 HD
ATOM     50  C   UNL A   1      43.310  23.521  27.191  1.00  0.00     0.034 A 
ATOM     51  C   UNL A   1      46.048  29.815  28.188  1.00  0.00     0.034 A 
ATOM     52  C   UNL A   1      43.917  23.344  28.492  1.00  0.00     0.049 A 
ATOM     53  C   UNL A   1      46.668  28.468  28.305  1.00  0.00     0.074 A 
ATOM     54  C   UNL A   1      43.423  23.063  29.753  1.00  0.00     0.029 A 
ATOM     55  N   UNL A   1      45.180  23.855  28.699  1.00  0.00    -0.354 N 
ATOM     56  N   UNL A   1      46.822  27.851  29.445  1.00  0.00    -0.248 NA
ATOM     57  C   UNL A   1      46.658  27.600  27.134  1.00  0.00     0.031 C 
ATOM     58  C   UNL A   1      44.186  23.877  30.640  1.00  0.00     0.029 A 
ATOM     59  C   UNL A   1      45.154  24.547  29.888  1.00  0.00     0.049 A 
ATOM     60  H   UNL A   1      45.957  23.747  28.105  1.00  0.00     0.167 HD
ATOM     61  C   UNL A   1      46.482  26.531  29.190  1.00  0.00     0.074 A 
ATOM     62  C   UNL A   1      46.490  26.415  27.732  1.00  0.00     0.031 C 
ATOM     63  C   UNL A   1      45.948  25.731  30.162  1.00  0.00     0.034 A 
BRANCH  50  64
ATOM     64  C   UNL A   1      43.918  22.966  25.927  1.00  0.00     0.023 A 
ATOM     65  C   UNL A   1      43.876  21.573  25.753  1.00  0.00     0.031 A 
ATOM     66  C   UNL A   1      44.768  23.674  25.044  1.00  0.00     0.131 A 
ATOM     67  C   UNL A   1      44.706  20.940  24.815  1.00  0.00     0.055 A 
ATOM     68  C   UNL A   1      45.536  23.046  24.061  1.00  0.00     0.041 A 
ATOM     69  F   UNL A   1      44.985  24.989  25.138  1.00  0.00    -0.206 F 
ATOM     70  C   UNL A   1      45.533  21.666  23.963  1.00  0.00     0.022 A 
BRANCH  67  71
ATOM     71  S   UNL A   1      44.823  19.135  24.861  1.00  0.00     0.124 S 
ATOM     72  O   UNL A   1      43.607  18.781  25.583  1.00  0.00    -0.237 OA
ATOM     73  O   UNL A   1      44.850  18.803  23.439  1.00  0.00    -0.237 OA
ATOM     74  O   UNL A   1      46.071  18.896  25.581  1.00  0.00    -0.744 OA
ENDBRANCH  67  71
ENDBRANCH  50  64
BRANCH  51  75
ATOM     75  C   UNL A   1      46.667  30.948  27.445  1.00  0.00     0.023 A 
ATOM     76  C   UNL A   1      45.911  32.009  26.900  1.00  0.00     0.031 A 
ATOM     77  C   UNL A   1      48.069  31.124  27.473  1.00  0.00     0.131 A 
ATOM     78  C   UNL A   1      46.557  33.173  26.417  1.00  0.00     0.055 A 
ATOM     79  C   UNL A   1      48.702  32.272  26.991  1.00  0.00     0.041 A 
ATOM     80  F   UNL A   1      48.873  30.221  28.055  1.00  0.00    -0.206 F 
ATOM     81  C   UNL A   1      47.947  33.307  26.470  1.00  0.00     0.022 A 
BRANCH  78  82
ATOM     82  S   UNL A   1      45.585  34.587  25.801  1.00  0.00     0.124 S 
ATOM     83  O   UNL A   1      44.373  34.505  26.606  1.00  0.00    -0.237 OA
ATOM     84  O   UNL A   1      46.468  35.717  26.070  1.00  0.00    -0.237 OA
ATOM     85  O   UNL A   1      45.402  34.281  24.381  1.00  0.00    -0.744 OA
ENDBRANCH  78  82
ENDBRANCH  51  75
BRANCH  63  86
ATOM     86  C   UNL A   1      45.994  26.214  31.602  1.00  0.00     0.023 A 
ATOM     87  C   UNL A   1      44.912  26.806  32.295  1.00  0.00     0.031 A 
ATOM     88  C   UNL A   1      47.164  25.945  32.336  1.00  0.00     0.131 A 
ATOM     89  C   UNL A   1      45.035  27.120  33.664  1.00  0.00     0.055 A 
ATOM     90  C   UNL A   1      47.273  26.235  33.696  1.00  0.00     0.041 A 
ATOM     91  F   UNL A   1      48.219  25.361  31.746  1.00  0.00    -0.206 F 
ATOM     92  C   UNL A   1      46.210  26.829  34.364  1.00  0.00     0.022 A 
BRANCH  89  93
ATOM     93  S   UNL A   1      43.672  27.931  34.562  1.00  0.00     0.124 S 
ATOM     94  O   UNL A   1      44.242  29.212  34.964  1.00  0.00    -0.237 OA
ATOM     95  O   UNL A   1      42.618  27.987  33.552  1.00  0.00    -0.237 OA
ATOM     96  O   UNL A   1      43.400  27.012  35.669  1.00  0.00    -0.744 OA
ENDBRANCH  89  93
ENDBRANCH  63  86
ENDBRANCH  37  38
ENDBRANCH  30  32
ENDBRANCH  29  30
ENDBRANCH  28  29
ENDBRANCH  27  28
ENDBRANCH  26  27
ENDBRANCH  25  26
ENDBRANCH   1  25
TORSDOF 23
ENDMDL
MODEL 2
REMARK VINA RESULT:     -10.9      1.560      2.000
REMARK SMILES Cc1nn(Cc2nc(C(C)(C)C)cs2)c(C)c1C(=O)OCCOCCOCCOC(=O)c1ccc(-c2c3nc(c(-c4cc(S(=O)(=O)[O-])ccc4F)c4ccc([nH]4)c(-c4cc(S(=O)(=O)[O-])ccc4F)c4nc(c(-c5cc(S(=O)(=O)[O-])ccc5F)c5ccc2[nH]5)C=C4)C=C3)cc1
REMARK SMILES IDX 24 1 23 2 22 3 21 4 20 5 18 6 19 7 17 8 1 9 2 10 3 11 4 12
REMARK SMILES IDX 15 13 16 14 5 15 6 16 7 17 14 18 8 19 13 20 9 21 10 22 11 23
REMARK SMILES IDX 12 24 25 25 26 26 27 27 28 28 29 29 30 30 31 31 32 32 33 33
REMARK SMILES IDX 94 34 34 35 93 36 35 37 36 38 37 39 87 40 38 41 92 42 86 43
REMARK SMILES IDX 88 44 39 45 91 46 85 47 84 48 40 50 72 51 52 52 71 53 53 54
REMARK SMILES IDX 56 55 70 56 89 57 54 58 55 59 69 61 90 62 57 63 41 64 42 65
REMARK SMILES IDX 50 66 43 67 49 68 51 69 48 70 44 71 45 72 46 73 47 74 73 75
REMARK SMILES IDX 74 76 82 77 75 78 81 79 83 80 80 81 76 82 77 83 78 84 79 85
REMARK SMILES IDX 58 86 59 87 67 88 60 89 66 90 68 91 65 92 61 93 62 94 63 95
REMARK SMILES IDX 64 96
REMARK H PARENT 88 49 56 60
REMARK Flexibility Score: inf
ROOT
ATOM      1  C   UNL A   1      33.987  31.830  27.571  1.00  0.00     0.188 C 
ENDROOT
BRANCH   1   2
ATOM      2  O   UNL A   1      33.382  30.559  27.672  1.00  0.00    -0.376 OA
BRANCH   2   3
ATOM      3  C   UNL A   1      32.373  30.142  26.770  1.00  0.00     0.202 C 
BRANCH   3   4
ATOM      4  C   UNL A   1      32.611  29.681  25.317  1.00  0.00     0.261 C 
BRANCH   4   5
ATOM      5  O   UNL A   1      32.479  28.284  25.050  1.00  0.00    -0.460 OA
BRANCH   5   6
ATOM      6  C   UNL A   1      31.688  27.947  23.988  1.00  0.00     0.341 C 
ATOM      7  O   UNL A   1      31.223  28.744  23.196  1.00  0.00    -0.246 OA
BRANCH   6   8
ATOM      8  C   UNL A   1      31.582  26.503  23.811  1.00  0.00     0.103 A 
ATOM      9  C   UNL A   1      32.008  26.079  21.247  1.00  0.00     0.070 C 
ATOM     10  C   UNL A   1      31.749  25.691  22.658  1.00  0.00     0.074 A 
ATOM     11  N   UNL A   1      31.632  24.390  22.953  1.00  0.00    -0.177 NA
ATOM     12  N   UNL A   1      31.254  24.358  24.246  1.00  0.00    -0.262 N 
ATOM     13  C   UNL A   1      31.136  25.618  24.789  1.00  0.00     0.051 A 
ATOM     14  C   UNL A   1      30.563  25.875  26.139  1.00  0.00     0.067 C 
BRANCH  12  15
ATOM     15  C   UNL A   1      31.239  23.087  24.968  1.00  0.00     0.212 C 
BRANCH  15  16
ATOM     16  C   UNL A   1      32.495  22.291  24.820  1.00  0.00     0.114 A 
ATOM     17  N   UNL A   1      33.709  22.798  24.885  1.00  0.00    -0.244 NA
ATOM     18  S   UNL A   1      32.435  20.574  24.739  1.00  0.00    -0.125 S 
ATOM     19  C   UNL A   1      34.674  21.800  24.804  1.00  0.00     0.057 A 
ATOM     20  C   UNL A   1      34.149  20.520  24.768  1.00  0.00     0.091 A 
BRANCH  19  21
ATOM     21  C   UNL A   1      36.131  22.233  24.753  1.00  0.00     0.005 C 
ATOM     22  C   UNL A   1      37.030  21.005  25.009  1.00  0.00     0.017 C 
ATOM     23  C   UNL A   1      36.462  22.812  23.362  1.00  0.00     0.017 C 
ATOM     24  C   UNL A   1      36.470  23.306  25.806  1.00  0.00     0.017 C 
ENDBRANCH  19  21
ENDBRANCH  15  16
ENDBRANCH  12  15
ENDBRANCH   6   8
ENDBRANCH   5   6
ENDBRANCH   4   5
ENDBRANCH   3   4
ENDBRANCH   2   3
ENDBRANCH   1   2
BRANCH   1  25
ATOM     25  C   UNL A   1      34.013  32.787  28.781  1.00  0.00     0.188 C 
BRANCH  25  26
ATOM     26  O   UNL A   1      35.079  33.701  28.915  1.00  0.00    -0.376 OA
BRANCH  26  27
ATOM     27  C   UNL A   1      36.319  33.335  29.495  1.00  0.00     0.202 C 
BRANCH  27  28
ATOM     28  C   UNL A   1      36.642  31.995  30.150  1.00  0.00     0.261 C 
BRANCH  28  29
ATOM     29  O   UNL A   1      36.840  30.901  29.283  1.00  0.00    -0.460 OA
BRANCH  29  30
ATOM     30  C   UNL A   1      36.892  29.716  29.932  1.00  0.00     0.338 C 
ATOM     31  O   UNL A   1      36.299  29.413  30.953  1.00  0.00    -0.246 OA
BRANCH  30  32
ATOM     32  C   UNL A   1      37.877  28.860  29.274  1.00  0.00     0.060 A 
ATOM     33  C   UNL A   1      38.493  27.893  30.069  1.00  0.00     0.016 A 
ATOM     34  C   UNL A   1      38.395  29.260  28.034  1.00  0.00     0.016 A 
ATOM     35  C   UNL A   1      39.765  27.500  29.729  1.00  0.00     0.010 A 
ATOM     36  C   UNL A   1      39.673  28.883  27.709  1.00  0.00     0.010 A 
ATOM     37  C   UNL A   1      40.369  28.085  28.611  1.00  0.00    -0.014 A 
BRANCH  37  38
ATOM     38  C   UNL A   1      41.760  27.787  28.365  1.00  0.00     0.031 A 
ATOM     39  C   UNL A   1      41.955  26.495  27.686  1.00  0.00     0.074 A 
ATOM     40  C   UNL A   1      42.758  28.636  28.662  1.00  0.00     0.049 A 
ATOM     41  N   UNL A   1      42.412  25.407  28.203  1.00  0.00    -0.248 NA
ATOM     42  C   UNL A   1      41.392  26.337  26.337  1.00  0.00     0.031 C 
ATOM     43  C   UNL A   1      42.672  30.030  29.099  1.00  0.00     0.029 A 
ATOM     44  N   UNL A   1      44.096  28.435  28.534  1.00  0.00    -0.354 N 
ATOM     45  C   UNL A   1      42.427  24.487  27.167  1.00  0.00     0.074 A 
ATOM     46  C   UNL A   1      41.593  25.036  26.132  1.00  0.00     0.031 C 
ATOM     47  C   UNL A   1      43.892  30.607  28.978  1.00  0.00     0.029 A 
ATOM     48  C   UNL A   1      44.859  29.594  28.583  1.00  0.00     0.049 A 
ATOM     49  H   UNL A   1      44.491  27.541  28.416  1.00  0.00     0.167 HD
ATOM     50  C   UNL A   1      43.335  23.476  27.148  1.00  0.00     0.034 A 
ATOM     51  C   UNL A   1      46.172  29.709  28.247  1.00  0.00     0.034 A 
ATOM     52  C   UNL A   1      43.922  23.275  28.455  1.00  0.00     0.049 A 
ATOM     53  C   UNL A   1      46.766  28.350  28.358  1.00  0.00     0.074 A 
ATOM     54  C   UNL A   1      43.405  22.990  29.707  1.00  0.00     0.029 A 
ATOM     55  N   UNL A   1      45.191  23.762  28.685  1.00  0.00    -0.354 N 
ATOM     56  N   UNL A   1      46.894  27.719  29.494  1.00  0.00    -0.248 NA
ATOM     57  C   UNL A   1      46.757  27.494  27.178  1.00  0.00     0.031 C 
ATOM     58  C   UNL A   1      44.171  23.782  30.612  1.00  0.00     0.029 A 
ATOM     59  C   UNL A   1      45.161  24.442  29.880  1.00  0.00     0.049 A 
ATOM     60  H   UNL A   1      45.973  23.645  28.100  1.00  0.00     0.167 HD
ATOM     61  C   UNL A   1      46.534  26.408  29.220  1.00  0.00     0.074 A 
ATOM     62  C   UNL A   1      46.559  26.307  27.761  1.00  0.00     0.031 C 
ATOM     63  C   UNL A   1      45.972  25.608  30.177  1.00  0.00     0.034 A 
BRANCH  50  64
ATOM     64  C   UNL A   1      43.951  22.923  25.887  1.00  0.00     0.023 A 
ATOM     65  C   UNL A   1      43.982  21.526  25.748  1.00  0.00     0.031 A 
ATOM     66  C   UNL A   1      44.744  23.654  24.970  1.00  0.00     0.131 A 
ATOM     67  C   UNL A   1      44.830  20.916  24.811  1.00  0.00     0.055 A 
ATOM     68  C   UNL A   1      45.528  23.043  23.989  1.00  0.00     0.041 A 
ATOM     69  F   UNL A   1      44.890  24.981  25.028  1.00  0.00    -0.206 F 
ATOM     70  C   UNL A   1      45.600  21.664  23.925  1.00  0.00     0.022 A 
BRANCH  67  71
ATOM     71  S   UNL A   1      45.046  19.122  24.898  1.00  0.00     0.124 S 
ATOM     72  O   UNL A   1      46.404  19.015  25.420  1.00  0.00    -0.237 OA
ATOM     73  O   UNL A   1      43.972  18.736  25.808  1.00  0.00    -0.237 OA
ATOM     74  O   UNL A   1      44.874  18.693  23.512  1.00  0.00    -0.744 OA
ENDBRANCH  67  71
ENDBRANCH  50  64
BRANCH  51  75
ATOM     75  C   UNL A   1      46.822  30.838  27.524  1.00  0.00     0.023 A 
ATOM     76  C   UNL A   1      46.089  31.900  26.948  1.00  0.00     0.031 A 
ATOM     77  C   UNL A   1      48.222  31.011  27.604  1.00  0.00     0.131 A 
ATOM     78  C   UNL A   1      46.757  33.061  26.486  1.00  0.00     0.055 A 
ATOM     79  C   UNL A   1      48.876  32.155  27.142  1.00  0.00     0.041 A 
ATOM     80  F   UNL A   1      49.002  30.108  28.218  1.00  0.00    -0.206 F 
ATOM     81  C   UNL A   1      48.144  33.191  26.590  1.00  0.00     0.022 A 
BRANCH  78  82
ATOM     82  S   UNL A   1      45.812  34.475  25.830  1.00  0.00     0.124 S 
ATOM     83  O   UNL A   1      46.858  35.462  25.589  1.00  0.00    -0.237 OA
ATOM     84  O   UNL A   1      45.172  33.906  24.650  1.00  0.00    -0.237 OA
ATOM     85  O   UNL A   1      44.894  34.806  26.921  1.00  0.00    -0.744 OA
ENDBRANCH  78  82
ENDBRANCH  51  75
BRANCH  63  86
ATOM     86  C   UNL A   1      46.007  26.075  31.622  1.00  0.00     0.023 A 
ATOM     87  C   UNL A   1      47.100  25.906  32.504  1.00  0.00     0.031 A 
ATOM     88  C   UNL A   1      44.915  26.835  32.082  1.00  0.00     0.131 A 
ATOM     89  C   UNL A   1      47.063  26.473  33.795  1.00  0.00     0.055 A 
ATOM     90  C   UNL A   1      44.893  27.415  33.350  1.00  0.00     0.041 A 
ATOM     91  F   UNL A   1      43.856  27.056  31.287  1.00  0.00    -0.206 F 
ATOM     92  C   UNL A   1      45.964  27.231  34.214  1.00  0.00     0.022 A 
BRANCH  89  93
ATOM     93  S   UNL A   1      48.437  26.223  34.965  1.00  0.00     0.124 S 
ATOM     94  O   UNL A   1      48.555  27.513  35.636  1.00  0.00    -0.237 OA
ATOM     95  O   UNL A   1      47.954  25.116  35.786  1.00  0.00    -0.237 OA
ATOM     96  O   UNL A   1      49.565  25.883  34.096  1.00  0.00    -0.744 OA
ENDBRANCH  89  93
ENDBRANCH  63  86
ENDBRANCH  37  38
ENDBRANCH  30  32
ENDBRANCH  29  30
ENDBRANCH  28  29
ENDBRANCH  27  28
ENDBRANCH  26  27
ENDBRANCH  25  26
ENDBRANCH   1  25
TORSDOF 23
ENDMDL
MODEL 3
REMARK VINA RESULT:     -10.5      2.827      8.414
REMARK SMILES Cc1nn(Cc2nc(C(C)(C)C)cs2)c(C)c1C(=O)OCCOCCOCCOC(=O)c1ccc(-c2c3nc(c(-c4cc(S(=O)(=O)[O-])ccc4F)c4ccc([nH]4)c(-c4cc(S(=O)(=O)[O-])ccc4F)c4nc(c(-c5cc(S(=O)(=O)[O-])ccc5F)c5ccc2[nH]5)C=C4)C=C3)cc1
REMARK SMILES IDX 24 1 23 2 22 3 21 4 20 5 18 6 19 7 17 8 1 9 2 10 3 11 4 12
REMARK SMILES IDX 15 13 16 14 5 15 6 16 7 17 14 18 8 19 13 20 9 21 10 22 11 23
REMARK SMILES IDX 12 24 25 25 26 26 27 27 28 28 29 29 30 30 31 31 32 32 33 33
REMARK SMILES IDX 94 34 34 35 93 36 35 37 36 38 37 39 87 40 38 41 92 42 86 43
REMARK SMILES IDX 88 44 39 45 91 46 85 47 84 48 40 50 72 51 52 52 71 53 53 54
REMARK SMILES IDX 56 55 70 56 89 57 54 58 55 59 69 61 90 62 57 63 41 64 42 65
REMARK SMILES IDX 50 66 43 67 49 68 51 69 48 70 44 71 45 72 46 73 47 74 73 75
REMARK SMILES IDX 74 76 82 77 75 78 81 79 83 80 80 81 76 82 77 83 78 84 79 85
REMARK SMILES IDX 58 86 59 87 67 88 60 89 66 90 68 91 65 92 61 93 62 94 63 95
REMARK SMILES IDX 64 96
REMARK H PARENT 88 49 56 60
REMARK Flexibility Score: inf
ROOT
ATOM      1  C   UNL A   1      38.391  21.757  25.348  1.00  0.00     0.188 C 
ENDROOT
BRANCH   1   2
ATOM      2  O   UNL A   1      37.261  20.991  25.707  1.00  0.00    -0.376 OA
BRANCH   2   3
ATOM      3  C   UNL A   1      35.970  21.291  25.208  1.00  0.00     0.202 C 
BRANCH   3   4
ATOM      4  C   UNL A   1      34.719  20.406  25.380  1.00  0.00     0.261 C 
BRANCH   4   5
ATOM      5  O   UNL A   1      33.467  21.075  25.537  1.00  0.00    -0.460 OA
BRANCH   5   6
ATOM      6  C   UNL A   1      32.654  21.095  24.440  1.00  0.00     0.341 C 
ATOM      7  O   UNL A   1      32.204  20.103  23.899  1.00  0.00    -0.246 OA
BRANCH   6   8
ATOM      8  C   UNL A   1      32.253  22.447  24.070  1.00  0.00     0.103 A 
ATOM      9  C   UNL A   1      34.038  23.250  22.310  1.00  0.00     0.070 C 
ATOM     10  C   UNL A   1      32.811  23.364  23.141  1.00  0.00     0.074 A 
ATOM     11  N   UNL A   1      32.082  24.484  23.056  1.00  0.00    -0.177 NA
ATOM     12  N   UNL A   1      31.145  24.362  24.016  1.00  0.00    -0.262 N 
ATOM     13  C   UNL A   1      31.253  23.178  24.710  1.00  0.00     0.051 A 
ATOM     14  C   UNL A   1      30.462  22.871  25.932  1.00  0.00     0.067 C 
BRANCH  12  15
ATOM     15  C   UNL A   1      30.035  25.312  24.072  1.00  0.00     0.212 C 
BRANCH  15  16
ATOM     16  C   UNL A   1      30.460  26.729  24.278  1.00  0.00     0.114 A 
ATOM     17  N   UNL A   1      31.153  27.155  25.314  1.00  0.00    -0.244 NA
ATOM     18  S   UNL A   1      30.225  27.900  23.040  1.00  0.00    -0.125 S 
ATOM     19  C   UNL A   1      31.476  28.501  25.182  1.00  0.00     0.057 A 
ATOM     20  C   UNL A   1      31.086  29.052  23.974  1.00  0.00     0.091 A 
BRANCH  19  21
ATOM     21  C   UNL A   1      32.182  29.173  26.350  1.00  0.00     0.005 C 
ATOM     22  C   UNL A   1      33.707  29.018  26.174  1.00  0.00     0.017 C 
ATOM     23  C   UNL A   1      31.834  30.675  26.385  1.00  0.00     0.017 C 
ATOM     24  C   UNL A   1      31.791  28.565  27.711  1.00  0.00     0.017 C 
ENDBRANCH  19  21
ENDBRANCH  15  16
ENDBRANCH  12  15
ENDBRANCH   6   8
ENDBRANCH   5   6
ENDBRANCH   4   5
ENDBRANCH   3   4
ENDBRANCH   2   3
ENDBRANCH   1   2
BRANCH   1  25
ATOM     25  C   UNL A   1      39.551  21.962  26.345  1.00  0.00     0.188 C 
BRANCH  25  26
ATOM     26  O   UNL A   1      40.108  20.840  26.994  1.00  0.00    -0.376 OA
BRANCH  26  27
ATOM     27  C   UNL A   1      40.840  19.849  26.295  1.00  0.00     0.202 C 
BRANCH  27  28
ATOM     28  C   UNL A   1      42.319  19.921  25.925  1.00  0.00     0.261 C 
BRANCH  28  29
ATOM     29  O   UNL A   1      42.760  21.114  25.316  1.00  0.00    -0.460 OA
BRANCH  29  30
ATOM     30  C   UNL A   1      44.107  21.204  25.244  1.00  0.00     0.338 C 
ATOM     31  O   UNL A   1      44.894  20.289  25.068  1.00  0.00    -0.246 OA
BRANCH  30  32
ATOM     32  C   UNL A   1      44.504  22.581  25.527  1.00  0.00     0.060 A 
ATOM     33  C   UNL A   1      45.223  22.794  26.703  1.00  0.00     0.016 A 
ATOM     34  C   UNL A   1      43.872  23.621  24.830  1.00  0.00     0.016 A 
ATOM     35  C   UNL A   1      45.104  24.019  27.314  1.00  0.00     0.010 A 
ATOM     36  C   UNL A   1      43.736  24.835  25.452  1.00  0.00     0.010 A 
ATOM     37  C   UNL A   1      44.275  24.981  26.727  1.00  0.00    -0.014 A 
BRANCH  37  38
ATOM     38  C   UNL A   1      44.030  26.198  27.463  1.00  0.00     0.031 A 
ATOM     39  C   UNL A   1      45.107  27.189  27.303  1.00  0.00     0.074 A 
ATOM     40  C   UNL A   1      42.903  26.422  28.160  1.00  0.00     0.049 A 
ATOM     41  N   UNL A   1      45.992  27.522  28.178  1.00  0.00    -0.248 NA
ATOM     42  C   UNL A   1      45.353  27.723  25.956  1.00  0.00     0.031 C 
ATOM     43  C   UNL A   1      41.672  25.629  28.186  1.00  0.00     0.029 A 
ATOM     44  N   UNL A   1      42.595  27.494  28.935  1.00  0.00    -0.354 N 
ATOM     45  C   UNL A   1      46.761  28.500  27.567  1.00  0.00     0.074 A 
ATOM     46  C   UNL A   1      46.473  28.415  26.161  1.00  0.00     0.031 C 
ATOM     47  C   UNL A   1      40.686  26.364  28.753  1.00  0.00     0.029 A 
ATOM     48  C   UNL A   1      41.246  27.616  29.241  1.00  0.00     0.049 A 
ATOM     49  H   UNL A   1      43.274  28.132  29.254  1.00  0.00     0.167 HD
ATOM     50  C   UNL A   1      47.370  29.466  28.304  1.00  0.00     0.034 A 
ATOM     51  C   UNL A   1      40.638  28.703  29.786  1.00  0.00     0.034 A 
ATOM     52  C   UNL A   1      47.445  29.091  29.699  1.00  0.00     0.049 A 
ATOM     53  C   UNL A   1      41.694  29.481  30.487  1.00  0.00     0.074 A 
ATOM     54  C   UNL A   1      47.994  28.017  30.377  1.00  0.00     0.029 A 
ATOM     55  N   UNL A   1      46.552  29.663  30.579  1.00  0.00    -0.354 N 
ATOM     56  N   UNL A   1      42.322  29.039  31.543  1.00  0.00    -0.248 NA
ATOM     57  C   UNL A   1      42.401  30.514  29.741  1.00  0.00     0.031 C 
ATOM     58  C   UNL A   1      47.051  27.706  31.400  1.00  0.00     0.029 A 
ATOM     59  C   UNL A   1      46.023  28.650  31.345  1.00  0.00     0.049 A 
ATOM     60  H   UNL A   1      46.332  30.620  30.645  1.00  0.00     0.167 HD
ATOM     61  C   UNL A   1      43.649  29.390  31.347  1.00  0.00     0.074 A 
ATOM     62  C   UNL A   1      43.621  30.384  30.274  1.00  0.00     0.031 C 
ATOM     63  C   UNL A   1      44.669  28.642  31.866  1.00  0.00     0.034 A 
BRANCH  50  64
ATOM     64  C   UNL A   1      47.563  30.885  27.831  1.00  0.00     0.023 A 
ATOM     65  C   UNL A   1      46.406  31.626  27.537  1.00  0.00     0.031 A 
ATOM     66  C   UNL A   1      48.785  31.447  27.389  1.00  0.00     0.131 A 
ATOM     67  C   UNL A   1      46.480  32.798  26.769  1.00  0.00     0.055 A 
ATOM     68  C   UNL A   1      48.859  32.653  26.691  1.00  0.00     0.041 A 
ATOM     69  F   UNL A   1      49.961  30.823  27.514  1.00  0.00    -0.206 F 
ATOM     70  C   UNL A   1      47.699  33.322  26.347  1.00  0.00     0.022 A 
BRANCH  67  71
ATOM     71  S   UNL A   1      44.934  33.525  26.173  1.00  0.00     0.124 S 
ATOM     72  O   UNL A   1      44.763  32.845  24.894  1.00  0.00    -0.237 OA
ATOM     73  O   UNL A   1      44.001  33.152  27.232  1.00  0.00    -0.237 OA
ATOM     74  O   UNL A   1      45.242  34.950  26.086  1.00  0.00    -0.744 OA
ENDBRANCH  67  71
ENDBRANCH  50  64
BRANCH  51  75
ATOM     75  C   UNL A   1      39.297  29.255  29.440  1.00  0.00     0.023 A 
ATOM     76  C   UNL A   1      38.446  29.850  30.396  1.00  0.00     0.031 A 
ATOM     77  C   UNL A   1      38.935  29.421  28.084  1.00  0.00     0.131 A 
ATOM     78  C   UNL A   1      37.298  30.569  29.981  1.00  0.00     0.055 A 
ATOM     79  C   UNL A   1      37.799  30.126  27.681  1.00  0.00     0.041 A 
ATOM     80  F   UNL A   1      39.723  28.979  27.092  1.00  0.00    -0.206 F 
ATOM     81  C   UNL A   1      36.980  30.712  28.629  1.00  0.00     0.022 A 
BRANCH  78  82
ATOM     82  S   UNL A   1      36.246  31.422  31.202  1.00  0.00     0.124 S 
ATOM     83  O   UNL A   1      37.134  32.464  31.703  1.00  0.00    -0.237 OA
ATOM     84  O   UNL A   1      35.118  31.865  30.390  1.00  0.00    -0.237 OA
ATOM     85  O   UNL A   1      35.925  30.371  32.169  1.00  0.00    -0.744 OA
ENDBRANCH  78  82
ENDBRANCH  51  75
BRANCH  63  86
ATOM     86  C   UNL A   1      44.334  27.581  32.901  1.00  0.00     0.023 A 
ATOM     87  C   UNL A   1      44.358  26.185  32.670  1.00  0.00     0.031 A 
ATOM     88  C   UNL A   1      44.095  28.016  34.218  1.00  0.00     0.131 A 
ATOM     89  C   UNL A   1      44.132  25.288  33.734  1.00  0.00     0.055 A 
ATOM     90  C   UNL A   1      43.896  27.125  35.272  1.00  0.00     0.041 A 
ATOM     91  F   UNL A   1      44.085  29.326  34.511  1.00  0.00    -0.206 F 
ATOM     92  C   UNL A   1      43.908  25.757  35.033  1.00  0.00     0.022 A 
BRANCH  89  93
ATOM     93  S   UNL A   1      44.106  23.488  33.448  1.00  0.00     0.124 S 
ATOM     94  O   UNL A   1      45.394  23.041  33.966  1.00  0.00    -0.237 OA
ATOM     95  O   UNL A   1      42.930  23.065  34.204  1.00  0.00    -0.237 OA
ATOM     96  O   UNL A   1      43.963  23.377  31.995  1.00  0.00    -0.744 OA
ENDBRANCH  89  93
ENDBRANCH  63  86
ENDBRANCH  37  38
ENDBRANCH  30  32
ENDBRANCH  29  30
ENDBRANCH  28  29
ENDBRANCH  27  28
ENDBRANCH  26  27
ENDBRANCH  25  26
ENDBRANCH   1  25
TORSDOF 23
ENDMDL
