MODEL 1
REMARK VINA RESULT:     -10.1      0.000      0.000
REMARK SMILES Cc1ccc(C)c(/C=C2\SC(=S)N(CC(=O)OCCOCCOCCOC(=O)c3ccc(-c4c5nc(c(-c6cc(S(=O)(=O)[O-])ccc6F)c6ccc([nH]6)c(-c6cc(S(=O)(=O)[O-])ccc6F)c6nc(c(-c7cc(S(=O)(=O)[O-])ccc7F)c7ccc4[nH]7)C=C6)C=C5)cc3)C2=O)c1
REMARK SMILES IDX 22 1 21 2 20 3 19 4 18 5 17 6 15 7 16 8 14 9 13 10 8 11 9 12
REMARK SMILES IDX 10 13 92 14 11 15 93 16 12 17 7 18 1 19 2 20 3 21 94 22 4 23
REMARK SMILES IDX 5 24 6 25 23 26 24 27 25 28 26 29 27 30 28 31 29 32 30 33
REMARK SMILES IDX 91 34 31 35 90 36 32 37 33 38 34 39 84 40 35 41 89 42 83 43
REMARK SMILES IDX 85 44 36 45 88 46 82 47 81 48 37 50 69 51 49 52 68 53 50 54
REMARK SMILES IDX 53 55 67 56 86 57 51 58 52 59 66 61 87 62 54 63 38 64 39 65
REMARK SMILES IDX 47 66 40 67 46 68 48 69 45 70 41 71 42 72 43 73 44 74 70 75
REMARK SMILES IDX 71 76 79 77 72 78 78 79 80 80 77 81 73 82 74 83 75 84 76 85
REMARK SMILES IDX 55 86 56 87 64 88 57 89 63 90 65 91 62 92 58 93 59 94 60 95
REMARK SMILES IDX 61 96
REMARK H PARENT 85 49 53 60
REMARK Flexibility Score: inf
ROOT
ATOM      1  C   UNL A   1      29.900  28.706  23.503  1.00  0.00     0.188 C 
ENDROOT
BRANCH   1   2
ATOM      2  C   UNL A   1      30.384  27.241  23.428  1.00  0.00     0.188 C 
BRANCH   2   3
ATOM      3  O   UNL A   1      29.675  26.335  24.264  1.00  0.00    -0.376 OA
BRANCH   3   4
ATOM      4  C   UNL A   1      30.386  25.829  25.405  1.00  0.00     0.202 C 
BRANCH   4   5
ATOM      5  C   UNL A   1      31.602  24.921  25.065  1.00  0.00     0.261 C 
BRANCH   5   6
ATOM      6  O   UNL A   1      31.334  23.970  23.982  1.00  0.00    -0.462 OA
BRANCH   6   7
ATOM      7  C   UNL A   1      32.178  24.009  22.906  1.00  0.00     0.326 C 
ATOM      8  O   UNL A   1      32.319  24.997  22.194  1.00  0.00    -0.250 OA
BRANCH   7   9
ATOM      9  C   UNL A   1      32.911  22.660  22.645  1.00  0.00     0.250 C 
BRANCH   9  10
ATOM     10  N   UNL A   1      33.935  22.134  23.592  1.00  0.00    -0.282 N 
ATOM     11  C   UNL A   1      37.294  22.656  24.852  1.00  0.00     0.029 C 
ATOM     12  C   UNL A   1      36.046  22.159  24.727  1.00  0.00     0.081 C 
ATOM     13  S   UNL A   1      35.246  20.824  25.424  1.00  0.00    -0.054 SA
ATOM     14  C   UNL A   1      35.052  22.891  23.877  1.00  0.00     0.266 C 
ATOM     15  C   UNL A   1      33.736  21.141  24.523  1.00  0.00     0.148 C 
ATOM     16  O   UNL A   1      35.168  24.092  23.676  1.00  0.00    -0.268 OA
ATOM     17  S   UNL A   1      32.319  20.346  24.900  1.00  0.00    -0.052 S 
BRANCH  11  18
ATOM     18  C   UNL A   1      38.532  22.350  25.636  1.00  0.00    -0.021 A 
ATOM     19  C   UNL A   1      40.880  19.395  26.355  1.00  0.00     0.044 C 
ATOM     20  C   UNL A   1      40.244  20.752  26.406  1.00  0.00    -0.051 A 
ATOM     21  C   UNL A   1      40.689  21.655  27.369  1.00  0.00     0.004 A 
ATOM     22  C   UNL A   1      39.168  21.098  25.558  1.00  0.00     0.011 A 
ATOM     23  C   UNL A   1      40.101  22.904  27.456  1.00  0.00     0.004 A 
ATOM     24  C   UNL A   1      39.044  23.270  26.600  1.00  0.00    -0.044 A 
ATOM     25  C   UNL A   1      38.515  24.655  26.853  1.00  0.00     0.045 C 
ENDBRANCH  11  18
ENDBRANCH   9  10
ENDBRANCH   7   9
ENDBRANCH   6   7
ENDBRANCH   5   6
ENDBRANCH   4   5
ENDBRANCH   3   4
ENDBRANCH   2   3
ENDBRANCH   1   2
BRANCH   1  26
ATOM     26  O   UNL A   1      30.966  29.566  23.867  1.00  0.00    -0.376 OA
BRANCH  26  27
ATOM     27  C   UNL A   1      31.452  29.489  25.194  1.00  0.00     0.202 C 
BRANCH  27  28
ATOM     28  C   UNL A   1      32.892  28.994  25.402  1.00  0.00     0.261 C 
BRANCH  28  29
ATOM     29  O   UNL A   1      33.551  29.087  26.687  1.00  0.00    -0.460 OA
BRANCH  29  30
ATOM     30  C   UNL A   1      33.926  30.180  27.387  1.00  0.00     0.338 C 
ATOM     31  O   UNL A   1      33.125  31.021  27.741  1.00  0.00    -0.246 OA
BRANCH  30  32
ATOM     32  C   UNL A   1      35.362  30.367  27.642  1.00  0.00     0.060 A 
ATOM     33  C   UNL A   1      36.075  29.188  27.734  1.00  0.00     0.016 A 
ATOM     34  C   UNL A   1      35.977  31.604  27.884  1.00  0.00     0.016 A 
ATOM     35  C   UNL A   1      37.339  29.241  28.276  1.00  0.00     0.010 A 
ATOM     36  C   UNL A   1      37.292  31.638  28.368  1.00  0.00     0.010 A 
ATOM     37  C   UNL A   1      37.949  30.436  28.614  1.00  0.00    -0.014 A 
BRANCH  37  38
ATOM     38  C   UNL A   1      39.280  30.236  29.195  1.00  0.00     0.031 A 
ATOM     39  C   UNL A   1      39.504  30.809  30.551  1.00  0.00     0.074 A 
ATOM     40  C   UNL A   1      40.289  29.726  28.462  1.00  0.00     0.049 A 
ATOM     41  N   UNL A   1      40.482  31.569  30.940  1.00  0.00    -0.248 NA
ATOM     42  C   UNL A   1      38.474  30.586  31.576  1.00  0.00     0.031 C 
ATOM     43  C   UNL A   1      40.148  29.155  27.122  1.00  0.00     0.029 A 
ATOM     44  N   UNL A   1      41.618  29.531  28.757  1.00  0.00    -0.354 N 
ATOM     45  C   UNL A   1      40.324  31.687  32.316  1.00  0.00     0.074 A 
ATOM     46  C   UNL A   1      39.009  31.197  32.632  1.00  0.00     0.031 C 
ATOM     47  C   UNL A   1      41.266  28.475  26.816  1.00  0.00     0.029 A 
ATOM     48  C   UNL A   1      42.222  28.618  27.903  1.00  0.00     0.049 A 
ATOM     49  H   UNL A   1      42.088  29.988  29.492  1.00  0.00     0.167 HD
ATOM     50  C   UNL A   1      41.392  31.861  33.137  1.00  0.00     0.034 A 
ATOM     51  C   UNL A   1      43.368  27.914  28.077  1.00  0.00     0.034 A 
ATOM     52  C   UNL A   1      42.494  32.536  32.512  1.00  0.00     0.049 A 
ATOM     53  C   UNL A   1      44.277  28.654  28.978  1.00  0.00     0.074 A 
ATOM     54  C   UNL A   1      42.861  33.838  32.262  1.00  0.00     0.029 A 
ATOM     55  N   UNL A   1      43.373  31.731  31.846  1.00  0.00    -0.354 N 
ATOM     56  N   UNL A   1      44.848  29.784  28.659  1.00  0.00    -0.248 NA
ATOM     57  C   UNL A   1      44.361  28.297  30.392  1.00  0.00     0.031 C 
ATOM     58  C   UNL A   1      43.932  33.788  31.321  1.00  0.00     0.029 A 
ATOM     59  C   UNL A   1      44.191  32.455  31.016  1.00  0.00     0.049 A 
ATOM     60  H   UNL A   1      43.416  30.752  31.949  1.00  0.00     0.167 HD
ATOM     61  C   UNL A   1      45.010  30.447  29.857  1.00  0.00     0.074 A 
ATOM     62  C   UNL A   1      44.845  29.439  30.891  1.00  0.00     0.031 C 
ATOM     63  C   UNL A   1      44.900  31.803  29.932  1.00  0.00     0.034 A 
BRANCH  50  64
ATOM     64  C   UNL A   1      41.602  30.982  34.351  1.00  0.00     0.023 A 
ATOM     65  C   UNL A   1      41.940  31.583  35.578  1.00  0.00     0.031 A 
ATOM     66  C   UNL A   1      41.789  29.579  34.275  1.00  0.00     0.131 A 
ATOM     67  C   UNL A   1      42.450  30.809  36.638  1.00  0.00     0.055 A 
ATOM     68  C   UNL A   1      42.234  28.808  35.348  1.00  0.00     0.041 A 
ATOM     69  F   UNL A   1      41.657  28.901  33.127  1.00  0.00    -0.206 F 
ATOM     70  C   UNL A   1      42.583  29.424  36.535  1.00  0.00     0.022 A 
BRANCH  67  71
ATOM     71  S   UNL A   1      43.084  31.649  38.114  1.00  0.00     0.124 S 
ATOM     72  O   UNL A   1      43.648  32.870  37.552  1.00  0.00    -0.237 OA
ATOM     73  O   UNL A   1      41.874  31.805  38.914  1.00  0.00    -0.237 OA
ATOM     74  O   UNL A   1      44.062  30.702  38.648  1.00  0.00    -0.744 OA
ENDBRANCH  67  71
ENDBRANCH  50  64
BRANCH  51  75
ATOM     75  C   UNL A   1      43.599  26.526  27.594  1.00  0.00     0.023 A 
ATOM     76  C   UNL A   1      44.613  26.192  26.678  1.00  0.00     0.031 A 
ATOM     77  C   UNL A   1      42.900  25.444  28.185  1.00  0.00     0.131 A 
ATOM     78  C   UNL A   1      44.860  24.836  26.362  1.00  0.00     0.055 A 
ATOM     79  C   UNL A   1      43.116  24.113  27.836  1.00  0.00     0.041 A 
ATOM     80  F   UNL A   1      42.024  25.638  29.185  1.00  0.00    -0.206 F 
ATOM     81  C   UNL A   1      44.103  23.802  26.920  1.00  0.00     0.022 A 
BRANCH  78  82
ATOM     82  S   UNL A   1      46.262  24.390  25.293  1.00  0.00     0.124 S 
ATOM     83  O   UNL A   1      47.308  24.086  26.262  1.00  0.00    -0.237 OA
ATOM     84  O   UNL A   1      45.726  23.264  24.536  1.00  0.00    -0.237 OA
ATOM     85  O   UNL A   1      46.486  25.602  24.504  1.00  0.00    -0.744 OA
ENDBRANCH  78  82
ENDBRANCH  51  75
BRANCH  63  86
ATOM     86  C   UNL A   1      45.354  32.622  28.758  1.00  0.00     0.023 A 
ATOM     87  C   UNL A   1      44.598  32.831  27.592  1.00  0.00     0.031 A 
ATOM     88  C   UNL A   1      46.605  33.261  28.855  1.00  0.00     0.131 A 
ATOM     89  C   UNL A   1      45.104  33.654  26.570  1.00  0.00     0.055 A 
ATOM     90  C   UNL A   1      47.099  34.086  27.846  1.00  0.00     0.041 A 
ATOM     91  F   UNL A   1      47.365  33.107  29.953  1.00  0.00    -0.206 F 
ATOM     92  C   UNL A   1      46.349  34.283  26.694  1.00  0.00     0.022 A 
BRANCH  89  93
ATOM     93  S   UNL A   1      44.133  33.929  25.061  1.00  0.00     0.124 S 
ATOM     94  O   UNL A   1      43.583  32.612  24.766  1.00  0.00    -0.237 OA
ATOM     95  O   UNL A   1      43.175  34.937  25.505  1.00  0.00    -0.237 OA
ATOM     96  O   UNL A   1      45.125  34.409  24.097  1.00  0.00    -0.744 OA
ENDBRANCH  89  93
ENDBRANCH  63  86
ENDBRANCH  37  38
ENDBRANCH  30  32
ENDBRANCH  29  30
ENDBRANCH  28  29
ENDBRANCH  27  28
ENDBRANCH  26  27
ENDBRANCH   1  26
TORSDOF 22
ENDMDL
MODEL 2
REMARK VINA RESULT:      -9.9      4.535     11.091
REMARK SMILES Cc1ccc(C)c(/C=C2\SC(=S)N(CC(=O)OCCOCCOCCOC(=O)c3ccc(-c4c5nc(c(-c6cc(S(=O)(=O)[O-])ccc6F)c6ccc([nH]6)c(-c6cc(S(=O)(=O)[O-])ccc6F)c6nc(c(-c7cc(S(=O)(=O)[O-])ccc7F)c7ccc4[nH]7)C=C6)C=C5)cc3)C2=O)c1
REMARK SMILES IDX 22 1 21 2 20 3 19 4 18 5 17 6 15 7 16 8 14 9 13 10 8 11 9 12
REMARK SMILES IDX 10 13 92 14 11 15 93 16 12 17 7 18 1 19 2 20 3 21 94 22 4 23
REMARK SMILES IDX 5 24 6 25 23 26 24 27 25 28 26 29 27 30 28 31 29 32 30 33
REMARK SMILES IDX 91 34 31 35 90 36 32 37 33 38 34 39 84 40 35 41 89 42 83 43
REMARK SMILES IDX 85 44 36 45 88 46 82 47 81 48 37 50 69 51 49 52 68 53 50 54
REMARK SMILES IDX 53 55 67 56 86 57 51 58 52 59 66 61 87 62 54 63 38 64 39 65
REMARK SMILES IDX 47 66 40 67 46 68 48 69 45 70 41 71 42 72 43 73 44 74 70 75
REMARK SMILES IDX 71 76 79 77 72 78 78 79 80 80 77 81 73 82 74 83 75 84 76 85
REMARK SMILES IDX 55 86 56 87 64 88 57 89 63 90 65 91 62 92 58 93 59 94 60 95
REMARK SMILES IDX 61 96
REMARK H PARENT 85 49 53 60
REMARK Flexibility Score: inf
ROOT
ATOM      1  C   UNL A   1      45.345  23.757  26.035  1.00  0.00     0.188 C 
ENDROOT
BRANCH   1   2
ATOM      2  C   UNL A   1      46.068  23.447  24.705  1.00  0.00     0.188 C 
BRANCH   2   3
ATOM      3  O   UNL A   1      46.848  24.516  24.187  1.00  0.00    -0.376 OA
BRANCH   3   4
ATOM      4  C   UNL A   1      46.823  25.745  24.929  1.00  0.00     0.202 C 
BRANCH   4   5
ATOM      5  C   UNL A   1      48.177  26.138  25.587  1.00  0.00     0.261 C 
BRANCH   5   6
ATOM      6  O   UNL A   1      48.143  27.442  26.254  1.00  0.00    -0.462 OA
BRANCH   6   7
ATOM      7  C   UNL A   1      48.333  27.446  27.609  1.00  0.00     0.326 C 
ATOM      8  O   UNL A   1      48.753  28.416  28.229  1.00  0.00    -0.250 OA
BRANCH   7   9
ATOM      9  C   UNL A   1      48.007  26.080  28.283  1.00  0.00     0.250 C 
BRANCH   9  10
ATOM     10  N   UNL A   1      47.813  25.966  29.757  1.00  0.00    -0.282 N 
ATOM     11  C   UNL A   1      45.311  25.867  32.378  1.00  0.00     0.029 C 
ATOM     12  C   UNL A   1      46.508  25.793  31.759  1.00  0.00     0.081 C 
ATOM     13  S   UNL A   1      48.111  25.668  32.328  1.00  0.00    -0.054 SA
ATOM     14  C   UNL A   1      46.552  25.734  30.263  1.00  0.00     0.266 C 
ATOM     15  C   UNL A   1      48.796  25.687  30.679  1.00  0.00     0.148 C 
ATOM     16  O   UNL A   1      45.598  25.305  29.627  1.00  0.00    -0.268 OA
ATOM     17  S   UNL A   1      50.399  25.318  30.402  1.00  0.00    -0.052 S 
BRANCH  11  18
ATOM     18  C   UNL A   1      44.789  25.840  33.781  1.00  0.00    -0.021 A 
ATOM     19  C   UNL A   1      41.910  24.292  35.801  1.00  0.00     0.044 C 
ATOM     20  C   UNL A   1      43.108  25.116  35.432  1.00  0.00    -0.051 A 
ATOM     21  C   UNL A   1      43.592  26.034  36.363  1.00  0.00     0.004 A 
ATOM     22  C   UNL A   1      43.699  25.033  34.152  1.00  0.00     0.011 A 
ATOM     23  C   UNL A   1      44.678  26.826  36.038  1.00  0.00     0.004 A 
ATOM     24  C   UNL A   1      45.291  26.735  34.774  1.00  0.00    -0.044 A 
ATOM     25  C   UNL A   1      46.441  27.686  34.592  1.00  0.00     0.045 C 
ENDBRANCH  11  18
ENDBRANCH   9  10
ENDBRANCH   7   9
ENDBRANCH   6   7
ENDBRANCH   5   6
ENDBRANCH   4   5
ENDBRANCH   3   4
ENDBRANCH   2   3
ENDBRANCH   1   2
BRANCH   1  26
ATOM     26  O   UNL A   1      43.944  23.602  25.890  1.00  0.00    -0.376 OA
BRANCH  26  27
ATOM     27  C   UNL A   1      43.478  22.619  24.983  1.00  0.00     0.202 C 
BRANCH  27  28
ATOM     28  C   UNL A   1      43.193  21.213  25.534  1.00  0.00     0.261 C 
BRANCH  28  29
ATOM     29  O   UNL A   1      42.005  20.927  26.309  1.00  0.00    -0.460 OA
BRANCH  29  30
ATOM     30  C   UNL A   1      40.890  21.668  26.484  1.00  0.00     0.338 C 
ATOM     31  O   UNL A   1      39.840  21.386  25.943  1.00  0.00    -0.246 OA
BRANCH  30  32
ATOM     32  C   UNL A   1      41.003  22.891  27.293  1.00  0.00     0.060 A 
ATOM     33  C   UNL A   1      40.323  23.974  26.774  1.00  0.00     0.016 A 
ATOM     34  C   UNL A   1      41.804  23.021  28.438  1.00  0.00     0.016 A 
ATOM     35  C   UNL A   1      40.620  25.221  27.275  1.00  0.00     0.010 A 
ATOM     36  C   UNL A   1      42.036  24.295  28.976  1.00  0.00     0.010 A 
ATOM     37  C   UNL A   1      41.478  25.403  28.346  1.00  0.00    -0.014 A 
BRANCH  37  38
ATOM     38  C   UNL A   1      41.657  26.818  28.681  1.00  0.00     0.031 A 
ATOM     39  C   UNL A   1      43.001  27.399  28.407  1.00  0.00     0.074 A 
ATOM     40  C   UNL A   1      40.715  27.495  29.368  1.00  0.00     0.049 A 
ATOM     41  N   UNL A   1      43.750  28.084  29.217  1.00  0.00    -0.248 NA
ATOM     42  C   UNL A   1      43.628  27.110  27.110  1.00  0.00     0.031 C 
ATOM     43  C   UNL A   1      39.380  26.988  29.682  1.00  0.00     0.029 A 
ATOM     44  N   UNL A   1      40.698  28.778  29.862  1.00  0.00    -0.354 N 
ATOM     45  C   UNL A   1      44.809  28.534  28.437  1.00  0.00     0.074 A 
ATOM     46  C   UNL A   1      44.768  27.794  27.205  1.00  0.00     0.031 C 
ATOM     47  C   UNL A   1      38.609  28.009  30.095  1.00  0.00     0.029 A 
ATOM     48  C   UNL A   1      39.411  29.222  30.138  1.00  0.00     0.049 A 
ATOM     49  H   UNL A   1      41.507  29.321  30.004  1.00  0.00     0.167 HD
ATOM     50  C   UNL A   1      45.438  29.705  28.711  1.00  0.00     0.034 A 
ATOM     51  C   UNL A   1      38.960  30.492  30.288  1.00  0.00     0.034 A 
ATOM     52  C   UNL A   1      45.408  30.065  30.100  1.00  0.00     0.049 A 
ATOM     53  C   UNL A   1      40.058  31.360  30.764  1.00  0.00     0.074 A 
ATOM     54  C   UNL A   1      46.133  29.763  31.231  1.00  0.00     0.029 A 
ATOM     55  N   UNL A   1      44.312  30.777  30.498  1.00  0.00    -0.354 N 
ATOM     56  N   UNL A   1      40.599  31.258  31.948  1.00  0.00    -0.248 NA
ATOM     57  C   UNL A   1      40.792  32.200  29.821  1.00  0.00     0.031 C 
ATOM     58  C   UNL A   1      45.367  30.225  32.342  1.00  0.00     0.029 A 
ATOM     59  C   UNL A   1      44.191  30.794  31.864  1.00  0.00     0.049 A 
ATOM     60  H   UNL A   1      43.687  31.222  29.881  1.00  0.00     0.167 HD
ATOM     61  C   UNL A   1      41.900  31.682  31.779  1.00  0.00     0.074 A 
ATOM     62  C   UNL A   1      41.920  32.392  30.510  1.00  0.00     0.031 C 
ATOM     63  C   UNL A   1      42.922  31.122  32.484  1.00  0.00     0.034 A 
BRANCH  50  64
ATOM     64  C   UNL A   1      45.653  30.752  27.639  1.00  0.00     0.023 A 
ATOM     65  C   UNL A   1      46.933  31.318  27.485  1.00  0.00     0.031 A 
ATOM     66  C   UNL A   1      44.592  31.429  26.987  1.00  0.00     0.131 A 
ATOM     67  C   UNL A   1      47.109  32.498  26.736  1.00  0.00     0.055 A 
ATOM     68  C   UNL A   1      44.781  32.561  26.195  1.00  0.00     0.041 A 
ATOM     69  F   UNL A   1      43.308  31.095  27.173  1.00  0.00    -0.206 F 
ATOM     70  C   UNL A   1      46.043  33.113  26.079  1.00  0.00     0.022 A 
BRANCH  67  71
ATOM     71  S   UNL A   1      48.726  33.316  26.751  1.00  0.00     0.124 S 
ATOM     72  O   UNL A   1      48.875  33.674  28.157  1.00  0.00    -0.237 OA
ATOM     73  O   UNL A   1      49.602  32.258  26.258  1.00  0.00    -0.237 OA
ATOM     74  O   UNL A   1      48.543  34.444  25.840  1.00  0.00    -0.744 OA
ENDBRANCH  67  71
ENDBRANCH  50  64
BRANCH  51  75
ATOM     75  C   UNL A   1      37.621  30.979  29.859  1.00  0.00     0.023 A 
ATOM     76  C   UNL A   1      36.805  31.789  30.667  1.00  0.00     0.031 A 
ATOM     77  C   UNL A   1      37.189  30.778  28.525  1.00  0.00     0.131 A 
ATOM     78  C   UNL A   1      35.603  32.322  30.148  1.00  0.00     0.055 A 
ATOM     79  C   UNL A   1      35.981  31.266  28.032  1.00  0.00     0.041 A 
ATOM     80  F   UNL A   1      37.964  30.154  27.623  1.00  0.00    -0.206 F 
ATOM     81  C   UNL A   1      35.181  32.046  28.844  1.00  0.00     0.022 A 
BRANCH  78  82
ATOM     82  S   UNL A   1      34.619  33.488  31.138  1.00  0.00     0.124 S 
ATOM     83  O   UNL A   1      33.723  34.064  30.142  1.00  0.00    -0.237 OA
ATOM     84  O   UNL A   1      34.011  32.610  32.132  1.00  0.00    -0.237 OA
ATOM     85  O   UNL A   1      35.622  34.410  31.672  1.00  0.00    -0.744 OA
ENDBRANCH  78  82
ENDBRANCH  51  75
BRANCH  63  86
ATOM     86  C   UNL A   1      42.650  30.654  33.885  1.00  0.00     0.023 A 
ATOM     87  C   UNL A   1      42.725  31.471  35.027  1.00  0.00     0.031 A 
ATOM     88  C   UNL A   1      42.247  29.317  34.058  1.00  0.00     0.131 A 
ATOM     89  C   UNL A   1      42.405  30.938  36.289  1.00  0.00     0.055 A 
ATOM     90  C   UNL A   1      41.920  28.794  35.308  1.00  0.00     0.041 A 
ATOM     91  F   UNL A   1      42.146  28.493  33.000  1.00  0.00    -0.206 F 
ATOM     92  C   UNL A   1      42.002  29.606  36.433  1.00  0.00     0.022 A 
BRANCH  89  93
ATOM     93  S   UNL A   1      42.500  31.987  37.767  1.00  0.00     0.124 S 
ATOM     94  O   UNL A   1      43.215  31.157  38.729  1.00  0.00    -0.237 OA
ATOM     95  O   UNL A   1      43.226  33.148  37.260  1.00  0.00    -0.237 OA
ATOM     96  O   UNL A   1      41.097  32.239  38.099  1.00  0.00    -0.744 OA
ENDBRANCH  89  93
ENDBRANCH  63  86
ENDBRANCH  37  38
ENDBRANCH  30  32
ENDBRANCH  29  30
ENDBRANCH  28  29
ENDBRANCH  27  28
ENDBRANCH  26  27
ENDBRANCH   1  26
TORSDOF 22
ENDMDL
MODEL 3
REMARK VINA RESULT:      -9.8      2.863      8.010
REMARK SMILES Cc1ccc(C)c(/C=C2\SC(=S)N(CC(=O)OCCOCCOCCOC(=O)c3ccc(-c4c5nc(c(-c6cc(S(=O)(=O)[O-])ccc6F)c6ccc([nH]6)c(-c6cc(S(=O)(=O)[O-])ccc6F)c6nc(c(-c7cc(S(=O)(=O)[O-])ccc7F)c7ccc4[nH]7)C=C6)C=C5)cc3)C2=O)c1
REMARK SMILES IDX 22 1 21 2 20 3 19 4 18 5 17 6 15 7 16 8 14 9 13 10 8 11 9 12
REMARK SMILES IDX 10 13 92 14 11 15 93 16 12 17 7 18 1 19 2 20 3 21 94 22 4 23
REMARK SMILES IDX 5 24 6 25 23 26 24 27 25 28 26 29 27 30 28 31 29 32 30 33
REMARK SMILES IDX 91 34 31 35 90 36 32 37 33 38 34 39 84 40 35 41 89 42 83 43
REMARK SMILES IDX 85 44 36 45 88 46 82 47 81 48 37 50 69 51 49 52 68 53 50 54
REMARK SMILES IDX 53 55 67 56 86 57 51 58 52 59 66 61 87 62 54 63 38 64 39 65
REMARK SMILES IDX 47 66 40 67 46 68 48 69 45 70 41 71 42 72 43 73 44 74 70 75
REMARK SMILES IDX 71 76 79 77 72 78 78 79 80 80 77 81 73 82 74 83 75 84 76 85
REMARK SMILES IDX 55 86 56 87 64 88 57 89 63 90 65 91 62 92 58 93 59 94 60 95
REMARK SMILES IDX 61 96
REMARK H PARENT 85 49 53 60
REMARK Flexibility Score: inf
ROOT
ATOM      1  C   UNL A   1      33.206  27.915  26.136  1.00  0.00     0.188 C 
ENDROOT
BRANCH   1   2
ATOM      2  C   UNL A   1      33.140  28.390  24.667  1.00  0.00     0.188 C 
BRANCH   2   3
ATOM      3  O   UNL A   1      33.770  27.525  23.732  1.00  0.00    -0.376 OA
BRANCH   3   4
ATOM      4  C   UNL A   1      32.912  26.885  22.774  1.00  0.00     0.202 C 
BRANCH   4   5
ATOM      5  C   UNL A   1      33.425  25.512  22.253  1.00  0.00     0.261 C 
BRANCH   5   6
ATOM      6  O   UNL A   1      32.351  24.554  21.981  1.00  0.00    -0.462 OA
BRANCH   6   7
ATOM      7  C   UNL A   1      32.018  23.698  22.995  1.00  0.00     0.326 C 
ATOM      8  O   UNL A   1      31.071  23.883  23.750  1.00  0.00    -0.250 OA
BRANCH   7   9
ATOM      9  C   UNL A   1      32.987  22.485  23.125  1.00  0.00     0.250 C 
BRANCH   9  10
ATOM     10  N   UNL A   1      33.980  22.399  24.233  1.00  0.00    -0.282 N 
ATOM     11  C   UNL A   1      37.526  22.427  24.991  1.00  0.00     0.029 C 
ATOM     12  C   UNL A   1      36.187  22.436  25.166  1.00  0.00     0.081 C 
ATOM     13  S   UNL A   1      35.188  22.261  26.538  1.00  0.00    -0.054 SA
ATOM     14  C   UNL A   1      35.300  22.715  23.992  1.00  0.00     0.266 C 
ATOM     15  C   UNL A   1      33.689  22.402  25.578  1.00  0.00     0.148 C 
ATOM     16  O   UNL A   1      35.715  23.357  23.036  1.00  0.00    -0.268 OA
ATOM     17  S   UNL A   1      32.204  22.595  26.313  1.00  0.00    -0.052 S 
BRANCH  11  18
ATOM     18  C   UNL A   1      38.750  22.309  25.843  1.00  0.00    -0.021 A 
ATOM     19  C   UNL A   1      41.334  19.668  26.899  1.00  0.00     0.044 C 
ATOM     20  C   UNL A   1      40.570  20.956  26.810  1.00  0.00    -0.051 A 
ATOM     21  C   UNL A   1      40.884  21.974  27.707  1.00  0.00     0.004 A 
ATOM     22  C   UNL A   1      39.505  21.123  25.897  1.00  0.00     0.011 A 
ATOM     23  C   UNL A   1      40.177  23.162  27.665  1.00  0.00     0.004 A 
ATOM     24  C   UNL A   1      39.129  23.351  26.743  1.00  0.00    -0.044 A 
ATOM     25  C   UNL A   1      38.461  24.693  26.856  1.00  0.00     0.045 C 
ENDBRANCH  11  18
ENDBRANCH   9  10
ENDBRANCH   7   9
ENDBRANCH   6   7
ENDBRANCH   5   6
ENDBRANCH   4   5
ENDBRANCH   3   4
ENDBRANCH   2   3
ENDBRANCH   1   2
BRANCH   1  26
ATOM     26  O   UNL A   1      33.751  28.928  26.964  1.00  0.00    -0.376 OA
BRANCH  26  27
ATOM     27  C   UNL A   1      33.136  30.203  26.941  1.00  0.00     0.202 C 
BRANCH  27  28
ATOM     28  C   UNL A   1      33.942  31.397  27.476  1.00  0.00     0.261 C 
BRANCH  28  29
ATOM     29  O   UNL A   1      35.237  31.223  28.097  1.00  0.00    -0.460 OA
BRANCH  29  30
ATOM     30  C   UNL A   1      35.616  31.434  29.377  1.00  0.00     0.338 C 
ATOM     31  O   UNL A   1      35.005  32.184  30.111  1.00  0.00    -0.246 OA
BRANCH  30  32
ATOM     32  C   UNL A   1      36.852  30.784  29.839  1.00  0.00     0.060 A 
ATOM     33  C   UNL A   1      37.986  31.557  29.681  1.00  0.00     0.016 A 
ATOM     34  C   UNL A   1      36.935  29.464  30.305  1.00  0.00     0.016 A 
ATOM     35  C   UNL A   1      39.208  30.934  29.784  1.00  0.00     0.010 A 
ATOM     36  C   UNL A   1      38.195  28.871  30.472  1.00  0.00     0.010 A 
ATOM     37  C   UNL A   1      39.333  29.605  30.153  1.00  0.00    -0.014 A 
BRANCH  37  38
ATOM     38  C   UNL A   1      40.729  29.161  30.168  1.00  0.00     0.031 A 
ATOM     39  C   UNL A   1      41.089  28.072  29.219  1.00  0.00     0.074 A 
ATOM     40  C   UNL A   1      41.584  29.588  31.119  1.00  0.00     0.049 A 
ATOM     41  N   UNL A   1      41.719  26.967  29.480  1.00  0.00    -0.248 NA
ATOM     42  C   UNL A   1      40.615  28.179  27.832  1.00  0.00     0.031 C 
ATOM     43  C   UNL A   1      41.299  30.645  32.090  1.00  0.00     0.029 A 
ATOM     44  N   UNL A   1      42.890  29.250  31.384  1.00  0.00    -0.354 N 
ATOM     45  C   UNL A   1      41.952  26.382  28.241  1.00  0.00     0.074 A 
ATOM     46  C   UNL A   1      41.134  27.079  27.286  1.00  0.00     0.031 C 
ATOM     47  C   UNL A   1      42.448  31.025  32.674  1.00  0.00     0.029 A 
ATOM     48  C   UNL A   1      43.533  30.198  32.170  1.00  0.00     0.049 A 
ATOM     49  H   UNL A   1      43.321  28.429  31.053  1.00  0.00     0.167 HD
ATOM     50  C   UNL A   1      43.039  25.597  28.025  1.00  0.00     0.034 A 
ATOM     51  C   UNL A   1      44.863  30.405  32.341  1.00  0.00     0.034 A 
ATOM     52  C   UNL A   1      43.503  24.919  29.202  1.00  0.00     0.049 A 
ATOM     53  C   UNL A   1      45.598  29.141  32.122  1.00  0.00     0.074 A 
ATOM     54  C   UNL A   1      43.188  23.768  29.887  1.00  0.00     0.029 A 
ATOM     55  N   UNL A   1      44.393  25.618  29.967  1.00  0.00    -0.354 N 
ATOM     56  N   UNL A   1      45.510  28.107  32.914  1.00  0.00    -0.248 NA
ATOM     57  C   UNL A   1      46.250  28.884  30.840  1.00  0.00     0.031 C 
ATOM     58  C   UNL A   1      43.838  23.856  31.154  1.00  0.00     0.029 A 
ATOM     59  C   UNL A   1      44.531  25.061  31.214  1.00  0.00     0.049 A 
ATOM     60  H   UNL A   1      44.876  26.421  29.663  1.00  0.00     0.167 HD
ATOM     61  C   UNL A   1      45.730  27.018  32.096  1.00  0.00     0.074 A 
ATOM     62  C   UNL A   1      46.331  27.551  30.885  1.00  0.00     0.031 C 
ATOM     63  C   UNL A   1      45.084  25.837  32.307  1.00  0.00     0.034 A 
BRANCH  50  64
ATOM     64  C   UNL A   1      43.959  25.835  26.847  1.00  0.00     0.023 A 
ATOM     65  C   UNL A   1      44.376  24.735  26.074  1.00  0.00     0.031 A 
ATOM     66  C   UNL A   1      44.680  27.040  26.652  1.00  0.00     0.131 A 
ATOM     67  C   UNL A   1      45.462  24.855  25.184  1.00  0.00     0.055 A 
ATOM     68  C   UNL A   1      45.713  27.170  25.725  1.00  0.00     0.041 A 
ATOM     69  F   UNL A   1      44.496  28.117  27.427  1.00  0.00    -0.206 F 
ATOM     70  C   UNL A   1      46.121  26.070  24.995  1.00  0.00     0.022 A 
BRANCH  67  71
ATOM     71  S   UNL A   1      46.109  23.365  24.381  1.00  0.00     0.124 S 
ATOM     72  O   UNL A   1      46.431  22.517  25.523  1.00  0.00    -0.237 OA
ATOM     73  O   UNL A   1      44.974  22.947  23.565  1.00  0.00    -0.237 OA
ATOM     74  O   UNL A   1      47.263  23.859  23.631  1.00  0.00    -0.744 OA
ENDBRANCH  67  71
ENDBRANCH  50  64
BRANCH  51  75
ATOM     75  C   UNL A   1      45.502  31.735  32.531  1.00  0.00     0.023 A 
ATOM     76  C   UNL A   1      45.676  32.658  31.485  1.00  0.00     0.031 A 
ATOM     77  C   UNL A   1      45.809  32.194  33.836  1.00  0.00     0.131 A 
ATOM     78  C   UNL A   1      46.172  33.953  31.761  1.00  0.00     0.055 A 
ATOM     79  C   UNL A   1      46.341  33.455  34.097  1.00  0.00     0.041 A 
ATOM     80  F   UNL A   1      45.533  31.453  34.922  1.00  0.00    -0.206 F 
ATOM     81  C   UNL A   1      46.523  34.344  33.056  1.00  0.00     0.022 A 
BRANCH  78  82
ATOM     82  S   UNL A   1      46.261  35.197  30.437  1.00  0.00     0.124 S 
ATOM     83  O   UNL A   1      45.390  36.251  30.941  1.00  0.00    -0.237 OA
ATOM     84  O   UNL A   1      47.689  35.496  30.391  1.00  0.00    -0.237 OA
ATOM     85  O   UNL A   1      45.751  34.483  29.266  1.00  0.00    -0.744 OA
ENDBRANCH  78  82
ENDBRANCH  51  75
BRANCH  63  86
ATOM     86  C   UNL A   1      44.768  25.439  33.719  1.00  0.00     0.023 A 
ATOM     87  C   UNL A   1      43.628  25.854  34.429  1.00  0.00     0.031 A 
ATOM     88  C   UNL A   1      45.654  24.551  34.359  1.00  0.00     0.131 A 
ATOM     89  C   UNL A   1      43.409  25.382  35.737  1.00  0.00     0.055 A 
ATOM     90  C   UNL A   1      45.428  24.076  35.650  1.00  0.00     0.041 A 
ATOM     91  F   UNL A   1      46.754  24.111  33.723  1.00  0.00    -0.206 F 
ATOM     92  C   UNL A   1      44.303  24.495  36.347  1.00  0.00     0.022 A 
BRANCH  89  93
ATOM     93  S   UNL A   1      41.939  25.914  36.658  1.00  0.00     0.124 S 
ATOM     94  O   UNL A   1      41.468  27.073  35.910  1.00  0.00    -0.237 OA
ATOM     95  O   UNL A   1      41.097  24.722  36.586  1.00  0.00    -0.237 OA
ATOM     96  O   UNL A   1      42.460  26.216  37.992  1.00  0.00    -0.744 OA
ENDBRANCH  89  93
ENDBRANCH  63  86
ENDBRANCH  37  38
ENDBRANCH  30  32
ENDBRANCH  29  30
ENDBRANCH  28  29
ENDBRANCH  27  28
ENDBRANCH  26  27
ENDBRANCH   1  26
TORSDOF 22
ENDMDL
