MODEL 1
REMARK VINA RESULT:     -11.3      0.000      0.000
REMARK SMILES O=C(CN1C(=O)/C(=C\c2c(F)cccc2Cl)Oc2ccccc21)OCCOCCOCCOC(=O)c1ccc(-c2c3nc(c(-c4cc(S(=O)(=O)[O-])ccc4F)c4ccc([nH]4)c(-c4cc(S(=O)(=O)[O-])ccc4F)c4nc(c(-c5cc(S(=O)(=O)[O-])ccc5F)c5ccc2[nH]5)C=C4)C=C3)cc1
REMARK SMILES IDX 29 1 28 2 27 3 26 4 25 5 24 6 2 7 1 8 3 9 4 10 5 11 23 12
REMARK SMILES IDX 6 13 7 14 18 15 22 16 8 17 17 18 19 19 21 20 20 21 9 22
REMARK SMILES IDX 10 23 15 24 11 25 12 26 14 27 16 28 13 29 30 30 31 31 32 32
REMARK SMILES IDX 33 33 34 34 35 35 36 36 37 37 98 38 38 39 97 40 39 41 40 42
REMARK SMILES IDX 41 43 91 44 42 45 96 46 90 47 92 48 43 49 95 50 89 51 88 52
REMARK SMILES IDX 44 54 76 55 56 56 75 57 57 58 60 59 74 60 93 61 58 62 59 63
REMARK SMILES IDX 73 65 94 66 61 67 45 68 46 69 54 70 47 71 53 72 55 73 52 74
REMARK SMILES IDX 48 75 49 76 50 77 51 78 77 79 78 80 86 81 79 82 85 83 87 84
REMARK SMILES IDX 84 85 80 86 81 87 82 88 83 89 62 90 63 91 71 92 64 93 70 94
REMARK SMILES IDX 72 95 69 96 65 97 66 98 67 99 68 100
REMARK H PARENT 92 53 60 64
REMARK Flexibility Score: inf
ROOT
ATOM      1  C   UNL A   1      36.739  22.449  25.520  1.00  0.00     0.188 C 
ENDROOT
BRANCH   1   2
ATOM      2  C   UNL A   1      35.322  22.889  25.919  1.00  0.00     0.188 C 
BRANCH   2   3
ATOM      3  O   UNL A   1      34.341  21.881  26.052  1.00  0.00    -0.376 OA
BRANCH   3   4
ATOM      4  C   UNL A   1      33.639  21.740  27.280  1.00  0.00     0.202 C 
BRANCH   4   5
ATOM      5  C   UNL A   1      32.578  22.770  27.629  1.00  0.00     0.261 C 
BRANCH   5   6
ATOM      6  O   UNL A   1      31.440  22.966  26.744  1.00  0.00    -0.462 OA
BRANCH   6   7
ATOM      7  C   UNL A   1      30.444  23.873  26.668  1.00  0.00     0.326 C 
ATOM      8  O   UNL A   1      29.469  23.727  27.407  1.00  0.00    -0.250 OA
BRANCH   7   9
ATOM      9  C   UNL A   1      30.500  25.056  25.702  1.00  0.00     0.248 C 
BRANCH   9  10
ATOM     10  N   UNL A   1      31.760  25.050  24.997  1.00  0.00    -0.291 N 
ATOM     11  C   UNL A   1      32.759  25.868  25.478  1.00  0.00     0.294 C 
ATOM     12  C   UNL A   1      32.101  24.136  23.969  1.00  0.00     0.088 A 
ATOM     13  O   UNL A   1      32.874  26.218  26.644  1.00  0.00    -0.265 OA
ATOM     14  C   UNL A   1      33.607  26.391  24.382  1.00  0.00     0.193 C 
ATOM     15  C   UNL A   1      33.314  24.339  23.279  1.00  0.00     0.151 A 
ATOM     16  C   UNL A   1      31.337  22.999  23.681  1.00  0.00     0.030 A 
ATOM     17  C   UNL A   1      33.692  27.722  24.181  1.00  0.00     0.065 C 
ATOM     18  O   UNL A   1      34.083  25.480  23.450  1.00  0.00    -0.449 OA
ATOM     19  C   UNL A   1      33.762  23.412  22.341  1.00  0.00     0.049 A 
ATOM     20  C   UNL A   1      31.785  22.081  22.728  1.00  0.00     0.002 A 
ATOM     21  C   UNL A   1      32.997  22.280  22.069  1.00  0.00     0.004 A 
BRANCH  17  22
ATOM     22  C   UNL A   1      32.933  28.750  24.936  1.00  0.00     0.033 A 
ATOM     23  C   UNL A   1      31.671  29.180  24.505  1.00  0.00     0.132 A 
ATOM     24  C   UNL A   1      33.467  29.368  26.083  1.00  0.00     0.051 A 
ATOM     25  F   UNL A   1      31.093  28.610  23.437  1.00  0.00    -0.206 F 
ATOM     26  C   UNL A   1      30.983  30.213  25.149  1.00  0.00     0.040 A 
ATOM     27  C   UNL A   1      32.783  30.411  26.729  1.00  0.00     0.021 A 
ATOM     28  Cl  UNL A   1      34.980  28.872  26.761  1.00  0.00    -0.084 Cl
ATOM     29  C   UNL A   1      31.545  30.840  26.256  1.00  0.00     0.005 A 
ENDBRANCH  17  22
ENDBRANCH   9  10
ENDBRANCH   7   9
ENDBRANCH   6   7
ENDBRANCH   5   6
ENDBRANCH   4   5
ENDBRANCH   3   4
ENDBRANCH   2   3
ENDBRANCH   1   2
BRANCH   1  30
ATOM     30  O   UNL A   1      36.892  21.442  24.534  1.00  0.00    -0.376 OA
BRANCH  30  31
ATOM     31  C   UNL A   1      37.125  20.100  24.957  1.00  0.00     0.202 C 
BRANCH  31  32
ATOM     32  C   UNL A   1      38.570  19.587  25.037  1.00  0.00     0.261 C 
BRANCH  32  33
ATOM     33  O   UNL A   1      39.192  19.807  26.320  1.00  0.00    -0.460 OA
BRANCH  33  34
ATOM     34  C   UNL A   1      40.526  20.062  26.308  1.00  0.00     0.338 C 
ATOM     35  O   UNL A   1      41.396  19.343  25.840  1.00  0.00    -0.246 OA
BRANCH  34  36
ATOM     36  C   UNL A   1      40.789  21.442  26.778  1.00  0.00     0.060 A 
ATOM     37  C   UNL A   1      41.603  21.699  27.884  1.00  0.00     0.016 A 
ATOM     38  C   UNL A   1      40.204  22.507  26.075  1.00  0.00     0.016 A 
ATOM     39  C   UNL A   1      41.861  23.025  28.258  1.00  0.00     0.010 A 
ATOM     40  C   UNL A   1      40.430  23.826  26.474  1.00  0.00     0.010 A 
ATOM     41  C   UNL A   1      41.287  24.098  27.552  1.00  0.00    -0.014 A 
BRANCH  41  42
ATOM     42  C   UNL A   1      41.748  25.489  27.796  1.00  0.00     0.031 A 
ATOM     43  C   UNL A   1      40.928  26.494  28.541  1.00  0.00     0.074 A 
ATOM     44  C   UNL A   1      42.952  25.841  27.306  1.00  0.00     0.049 A 
ATOM     45  N   UNL A   1      41.230  27.728  28.855  1.00  0.00    -0.248 NA
ATOM     46  C   UNL A   1      39.601  26.062  28.992  1.00  0.00     0.031 C 
ATOM     47  C   UNL A   1      43.831  24.946  26.556  1.00  0.00     0.029 A 
ATOM     48  N   UNL A   1      43.643  27.025  27.366  1.00  0.00    -0.354 N 
ATOM     49  C   UNL A   1      40.130  28.233  29.536  1.00  0.00     0.074 A 
ATOM     50  C   UNL A   1      39.153  27.165  29.583  1.00  0.00     0.031 C 
ATOM     51  C   UNL A   1      44.953  25.604  26.241  1.00  0.00     0.029 A 
ATOM     52  C   UNL A   1      44.865  26.977  26.741  1.00  0.00     0.049 A 
ATOM     53  H   UNL A   1      43.296  27.831  27.813  1.00  0.00     0.167 HD
ATOM     54  C   UNL A   1      39.961  29.468  30.071  1.00  0.00     0.034 A 
ATOM     55  C   UNL A   1      45.819  27.919  26.590  1.00  0.00     0.034 A 
ATOM     56  C   UNL A   1      40.964  30.508  30.039  1.00  0.00     0.049 A 
ATOM     57  C   UNL A   1      45.630  29.268  27.228  1.00  0.00     0.074 A 
ATOM     58  C   UNL A   1      40.904  31.765  30.617  1.00  0.00     0.029 A 
ATOM     59  N   UNL A   1      42.196  30.424  29.406  1.00  0.00    -0.354 N 
ATOM     60  N   UNL A   1      44.615  29.708  27.932  1.00  0.00    -0.248 NA
ATOM     61  C   UNL A   1      46.716  30.246  27.071  1.00  0.00     0.031 C 
ATOM     62  C   UNL A   1      42.066  32.462  30.281  1.00  0.00     0.029 A 
ATOM     63  C   UNL A   1      42.891  31.614  29.559  1.00  0.00     0.049 A 
ATOM     64  H   UNL A   1      42.528  29.634  28.921  1.00  0.00     0.167 HD
ATOM     65  C   UNL A   1      44.945  31.004  28.318  1.00  0.00     0.074 A 
ATOM     66  C   UNL A   1      46.265  31.270  27.787  1.00  0.00     0.031 C 
ATOM     67  C   UNL A   1      44.212  31.886  29.043  1.00  0.00     0.034 A 
BRANCH  54  68
ATOM     68  C   UNL A   1      38.656  29.800  30.759  1.00  0.00     0.023 A 
ATOM     69  C   UNL A   1      37.717  30.633  30.118  1.00  0.00     0.031 A 
ATOM     70  C   UNL A   1      38.411  29.432  32.094  1.00  0.00     0.131 A 
ATOM     71  C   UNL A   1      36.600  31.099  30.823  1.00  0.00     0.055 A 
ATOM     72  C   UNL A   1      37.275  29.865  32.779  1.00  0.00     0.041 A 
ATOM     73  F   UNL A   1      39.276  28.644  32.752  1.00  0.00    -0.206 F 
ATOM     74  C   UNL A   1      36.371  30.715  32.148  1.00  0.00     0.022 A 
BRANCH  71  75
ATOM     75  S   UNL A   1      35.443  32.283  30.081  1.00  0.00     0.124 S 
ATOM     76  O   UNL A   1      34.456  32.431  31.148  1.00  0.00    -0.237 OA
ATOM     77  O   UNL A   1      36.296  33.447  29.855  1.00  0.00    -0.237 OA
ATOM     78  O   UNL A   1      34.970  31.605  28.880  1.00  0.00    -0.744 OA
ENDBRANCH  71  75
ENDBRANCH  54  68
BRANCH  55  79
ATOM     79  C   UNL A   1      47.068  27.542  25.871  1.00  0.00     0.023 A 
ATOM     80  C   UNL A   1      47.266  27.924  24.531  1.00  0.00     0.031 A 
ATOM     81  C   UNL A   1      47.984  26.651  26.453  1.00  0.00     0.131 A 
ATOM     82  C   UNL A   1      48.300  27.339  23.791  1.00  0.00     0.055 A 
ATOM     83  C   UNL A   1      49.058  26.130  25.731  1.00  0.00     0.041 A 
ATOM     84  F   UNL A   1      47.823  26.248  27.722  1.00  0.00    -0.206 F 
ATOM     85  C   UNL A   1      49.207  26.456  24.386  1.00  0.00     0.022 A 
BRANCH  82  86
ATOM     86  S   UNL A   1      48.400  27.576  21.994  1.00  0.00     0.124 S 
ATOM     87  O   UNL A   1      49.543  28.474  21.868  1.00  0.00    -0.237 OA
ATOM     88  O   UNL A   1      48.617  26.208  21.528  1.00  0.00    -0.237 OA
ATOM     89  O   UNL A   1      47.105  28.152  21.649  1.00  0.00    -0.744 OA
ENDBRANCH  82  86
ENDBRANCH  55  79
BRANCH  67  90
ATOM     90  C   UNL A   1      44.785  33.256  29.328  1.00  0.00     0.023 A 
ATOM     91  C   UNL A   1      44.472  34.340  28.484  1.00  0.00     0.031 A 
ATOM     92  C   UNL A   1      45.772  33.445  30.311  1.00  0.00     0.131 A 
ATOM     93  C   UNL A   1      45.177  35.545  28.604  1.00  0.00     0.055 A 
ATOM     94  C   UNL A   1      46.439  34.662  30.457  1.00  0.00     0.041 A 
ATOM     95  F   UNL A   1      46.115  32.440  31.133  1.00  0.00    -0.206 F 
ATOM     96  C   UNL A   1      46.154  35.714  29.590  1.00  0.00     0.022 A 
BRANCH  93  97
ATOM     97  S   UNL A   1      44.920  36.903  27.428  1.00  0.00     0.124 S 
ATOM     98  O   UNL A   1      44.858  38.063  28.314  1.00  0.00    -0.237 OA
ATOM     99  O   UNL A   1      46.117  36.819  26.594  1.00  0.00    -0.237 OA
ATOM    100  O   UNL A   1      43.666  36.563  26.764  1.00  0.00    -0.744 OA
ENDBRANCH  93  97
ENDBRANCH  67  90
ENDBRANCH  41  42
ENDBRANCH  34  36
ENDBRANCH  33  34
ENDBRANCH  32  33
ENDBRANCH  31  32
ENDBRANCH  30  31
ENDBRANCH   1  30
TORSDOF 22
ENDMDL
MODEL 2
REMARK VINA RESULT:     -11.3      0.340      7.133
REMARK SMILES O=C(CN1C(=O)/C(=C\c2c(F)cccc2Cl)Oc2ccccc21)OCCOCCOCCOC(=O)c1ccc(-c2c3nc(c(-c4cc(S(=O)(=O)[O-])ccc4F)c4ccc([nH]4)c(-c4cc(S(=O)(=O)[O-])ccc4F)c4nc(c(-c5cc(S(=O)(=O)[O-])ccc5F)c5ccc2[nH]5)C=C4)C=C3)cc1
REMARK SMILES IDX 29 1 28 2 27 3 26 4 25 5 24 6 2 7 1 8 3 9 4 10 5 11 23 12
REMARK SMILES IDX 6 13 7 14 18 15 22 16 8 17 17 18 19 19 21 20 20 21 9 22
REMARK SMILES IDX 10 23 15 24 11 25 12 26 14 27 16 28 13 29 30 30 31 31 32 32
REMARK SMILES IDX 33 33 34 34 35 35 36 36 37 37 98 38 38 39 97 40 39 41 40 42
REMARK SMILES IDX 41 43 91 44 42 45 96 46 90 47 92 48 43 49 95 50 89 51 88 52
REMARK SMILES IDX 44 54 76 55 56 56 75 57 57 58 60 59 74 60 93 61 58 62 59 63
REMARK SMILES IDX 73 65 94 66 61 67 45 68 46 69 54 70 47 71 53 72 55 73 52 74
REMARK SMILES IDX 48 75 49 76 50 77 51 78 77 79 78 80 86 81 79 82 85 83 87 84
REMARK SMILES IDX 84 85 80 86 81 87 82 88 83 89 62 90 63 91 71 92 64 93 70 94
REMARK SMILES IDX 72 95 69 96 65 97 66 98 67 99 68 100
REMARK H PARENT 92 53 60 64
REMARK Flexibility Score: inf
ROOT
ATOM      1  C   UNL A   1      36.616  22.935  25.721  1.00  0.00     0.188 C 
ENDROOT
BRANCH   1   2
ATOM      2  C   UNL A   1      35.186  23.313  26.133  1.00  0.00     0.188 C 
BRANCH   2   3
ATOM      3  O   UNL A   1      34.178  22.339  25.956  1.00  0.00    -0.376 OA
BRANCH   3   4
ATOM      4  C   UNL A   1      33.389  21.933  27.066  1.00  0.00     0.202 C 
BRANCH   4   5
ATOM      5  C   UNL A   1      32.268  22.848  27.531  1.00  0.00     0.261 C 
BRANCH   5   6
ATOM      6  O   UNL A   1      31.144  23.123  26.649  1.00  0.00    -0.462 OA
BRANCH   6   7
ATOM      7  C   UNL A   1      30.226  24.107  26.563  1.00  0.00     0.326 C 
ATOM      8  O   UNL A   1      29.253  24.060  27.318  1.00  0.00    -0.250 OA
BRANCH   7   9
ATOM      9  C   UNL A   1      30.365  25.258  25.567  1.00  0.00     0.248 C 
BRANCH   9  10
ATOM     10  N   UNL A   1      31.676  25.222  24.963  1.00  0.00    -0.291 N 
ATOM     11  C   UNL A   1      32.660  25.995  25.540  1.00  0.00     0.294 C 
ATOM     12  C   UNL A   1      32.066  24.320  23.942  1.00  0.00     0.088 A 
ATOM     13  O   UNL A   1      32.695  26.315  26.720  1.00  0.00    -0.265 OA
ATOM     14  C   UNL A   1      33.609  26.511  24.526  1.00  0.00     0.193 C 
ATOM     15  C   UNL A   1      33.335  24.495  23.354  1.00  0.00     0.151 A 
ATOM     16  C   UNL A   1      31.289  23.218  23.568  1.00  0.00     0.030 A 
ATOM     17  C   UNL A   1      33.754  27.843  24.365  1.00  0.00     0.065 C 
ATOM     18  O   UNL A   1      34.127  25.604  23.613  1.00  0.00    -0.449 OA
ATOM     19  C   UNL A   1      33.825  23.574  22.431  1.00  0.00     0.049 A 
ATOM     20  C   UNL A   1      31.781  22.305  22.631  1.00  0.00     0.002 A 
ATOM     21  C   UNL A   1      33.047  22.475  22.073  1.00  0.00     0.004 A 
BRANCH  17  22
ATOM     22  C   UNL A   1      32.972  28.880  25.083  1.00  0.00     0.033 A 
ATOM     23  C   UNL A   1      31.740  29.329  24.591  1.00  0.00     0.132 A 
ATOM     24  C   UNL A   1      33.457  29.488  26.257  1.00  0.00     0.051 A 
ATOM     25  F   UNL A   1      31.209  28.769  23.493  1.00  0.00    -0.206 F 
ATOM     26  C   UNL A   1      31.035  30.371  25.201  1.00  0.00     0.040 A 
ATOM     27  C   UNL A   1      32.756  30.539  26.871  1.00  0.00     0.021 A 
ATOM     28  Cl  UNL A   1      34.926  28.970  27.010  1.00  0.00    -0.084 Cl
ATOM     29  C   UNL A   1      31.549  30.988  26.337  1.00  0.00     0.005 A 
ENDBRANCH  17  22
ENDBRANCH   9  10
ENDBRANCH   7   9
ENDBRANCH   6   7
ENDBRANCH   5   6
ENDBRANCH   4   5
ENDBRANCH   3   4
ENDBRANCH   2   3
ENDBRANCH   1   2
BRANCH   1  30
ATOM     30  O   UNL A   1      36.803  22.053  24.625  1.00  0.00    -0.376 OA
BRANCH  30  31
ATOM     31  C   UNL A   1      36.798  20.649  24.871  1.00  0.00     0.202 C 
BRANCH  31  32
ATOM     32  C   UNL A   1      38.140  19.910  24.988  1.00  0.00     0.261 C 
BRANCH  32  33
ATOM     33  O   UNL A   1      38.782  20.078  26.269  1.00  0.00    -0.460 OA
BRANCH  33  34
ATOM     34  C   UNL A   1      40.129  20.248  26.250  1.00  0.00     0.338 C 
ATOM     35  O   UNL A   1      40.948  19.487  25.760  1.00  0.00    -0.246 OA
BRANCH  34  36
ATOM     36  C   UNL A   1      40.483  21.599  26.746  1.00  0.00     0.060 A 
ATOM     37  C   UNL A   1      41.247  21.781  27.901  1.00  0.00     0.016 A 
ATOM     38  C   UNL A   1      40.037  22.713  26.017  1.00  0.00     0.016 A 
ATOM     39  C   UNL A   1      41.597  23.078  28.301  1.00  0.00     0.010 A 
ATOM     40  C   UNL A   1      40.353  24.007  26.441  1.00  0.00     0.010 A 
ATOM     41  C   UNL A   1      41.163  24.199  27.570  1.00  0.00    -0.014 A 
BRANCH  41  42
ATOM     42  C   UNL A   1      41.728  25.544  27.853  1.00  0.00     0.031 A 
ATOM     43  C   UNL A   1      43.083  25.968  27.383  1.00  0.00     0.074 A 
ATOM     44  C   UNL A   1      40.975  26.396  28.575  1.00  0.00     0.049 A 
ATOM     45  N   UNL A   1      43.677  27.124  27.530  1.00  0.00    -0.248 NA
ATOM     46  C   UNL A   1      43.874  24.969  26.656  1.00  0.00     0.031 C 
ATOM     47  C   UNL A   1      39.644  26.085  29.093  1.00  0.00     0.029 A 
ATOM     48  N   UNL A   1      41.210  27.682  28.991  1.00  0.00    -0.354 N 
ATOM     49  C   UNL A   1      44.920  27.000  26.922  1.00  0.00     0.074 A 
ATOM     50  C   UNL A   1      44.990  25.647  26.408  1.00  0.00     0.031 C 
ATOM     51  C   UNL A   1      39.170  27.155  29.741  1.00  0.00     0.029 A 
ATOM     52  C   UNL A   1      40.172  28.222  29.711  1.00  0.00     0.049 A 
ATOM     53  H   UNL A   1      42.041  28.170  28.793  1.00  0.00     0.167 HD
ATOM     54  C   UNL A   1      45.900  27.930  26.804  1.00  0.00     0.034 A 
ATOM     55  C   UNL A   1      40.027  29.438  30.277  1.00  0.00     0.034 A 
ATOM     56  C   UNL A   1      45.795  29.284  27.297  1.00  0.00     0.049 A 
ATOM     57  C   UNL A   1      41.108  30.468  30.098  1.00  0.00     0.074 A 
ATOM     58  C   UNL A   1      46.711  30.314  27.160  1.00  0.00     0.029 A 
ATOM     59  N   UNL A   1      44.725  29.802  28.014  1.00  0.00    -0.354 N 
ATOM     60  N   UNL A   1      42.247  30.359  29.458  1.00  0.00    -0.248 NA
ATOM     61  C   UNL A   1      40.884  31.791  30.698  1.00  0.00     0.031 C 
ATOM     62  C   UNL A   1      46.228  31.429  27.845  1.00  0.00     0.029 A 
ATOM     63  C   UNL A   1      44.972  31.126  28.346  1.00  0.00     0.049 A 
ATOM     64  H   UNL A   1      43.910  29.303  28.251  1.00  0.00     0.167 HD
ATOM     65  C   UNL A   1      42.868  31.601  29.561  1.00  0.00     0.074 A 
ATOM     66  C   UNL A   1      41.966  32.454  30.307  1.00  0.00     0.031 C 
ATOM     67  C   UNL A   1      44.076  31.988  29.080  1.00  0.00     0.034 A 
BRANCH  54  68
ATOM     68  C   UNL A   1      47.189  27.556  26.108  1.00  0.00     0.023 A 
ATOM     69  C   UNL A   1      47.349  27.828  24.733  1.00  0.00     0.031 A 
ATOM     70  C   UNL A   1      48.182  26.797  26.752  1.00  0.00     0.131 A 
ATOM     71  C   UNL A   1      48.454  27.313  24.044  1.00  0.00     0.055 A 
ATOM     72  C   UNL A   1      49.303  26.323  26.069  1.00  0.00     0.041 A 
ATOM     73  F   UNL A   1      48.076  26.506  28.058  1.00  0.00    -0.206 F 
ATOM     74  C   UNL A   1      49.434  26.567  24.705  1.00  0.00     0.022 A 
BRANCH  71  75
ATOM     75  S   UNL A   1      48.625  27.521  22.250  1.00  0.00     0.124 S 
ATOM     76  O   UNL A   1      49.834  28.338  22.166  1.00  0.00    -0.237 OA
ATOM     77  O   UNL A   1      48.772  26.142  21.793  1.00  0.00    -0.237 OA
ATOM     78  O   UNL A   1      47.390  28.188  21.855  1.00  0.00    -0.744 OA
ENDBRANCH  71  75
ENDBRANCH  54  68
BRANCH  55  79
ATOM     79  C   UNL A   1      38.748  29.734  30.981  1.00  0.00     0.023 A 
ATOM     80  C   UNL A   1      37.749  30.504  30.358  1.00  0.00     0.031 A 
ATOM     81  C   UNL A   1      38.588  29.407  32.338  1.00  0.00     0.131 A 
ATOM     82  C   UNL A   1      36.683  31.002  31.118  1.00  0.00     0.055 A 
ATOM     83  C   UNL A   1      37.485  29.843  33.071  1.00  0.00     0.041 A 
ATOM     84  F   UNL A   1      39.525  28.689  32.975  1.00  0.00    -0.206 F 
ATOM     85  C   UNL A   1      36.537  30.664  32.467  1.00  0.00     0.022 A 
BRANCH  82  86
ATOM     86  S   UNL A   1      35.549  32.236  30.423  1.00  0.00     0.124 S 
ATOM     87  O   UNL A   1      34.537  32.344  31.469  1.00  0.00    -0.237 OA
ATOM     88  O   UNL A   1      36.429  33.394  30.274  1.00  0.00    -0.237 OA
ATOM     89  O   UNL A   1      35.102  31.631  29.173  1.00  0.00    -0.744 OA
ENDBRANCH  82  86
ENDBRANCH  55  79
BRANCH  67  90
ATOM     90  C   UNL A   1      44.547  33.403  29.332  1.00  0.00     0.023 A 
ATOM     91  C   UNL A   1      44.402  34.382  28.328  1.00  0.00     0.031 A 
ATOM     92  C   UNL A   1      45.294  33.732  30.476  1.00  0.00     0.131 A 
ATOM     93  C   UNL A   1      45.041  35.621  28.465  1.00  0.00     0.055 A 
ATOM     94  C   UNL A   1      45.889  34.985  30.628  1.00  0.00     0.041 A 
ATOM     95  F   UNL A   1      45.469  32.831  31.456  1.00  0.00    -0.206 F 
ATOM     96  C   UNL A   1      45.778  35.931  29.612  1.00  0.00     0.022 A 
BRANCH  93  97
ATOM     97  S   UNL A   1      45.018  36.842  27.121  1.00  0.00     0.124 S 
ATOM     98  O   UNL A   1      45.898  36.221  26.133  1.00  0.00    -0.237 OA
ATOM     99  O   UNL A   1      43.603  36.877  26.762  1.00  0.00    -0.237 OA
ATOM    100  O   UNL A   1      45.540  38.056  27.739  1.00  0.00    -0.744 OA
ENDBRANCH  93  97
ENDBRANCH  67  90
ENDBRANCH  41  42
ENDBRANCH  34  36
ENDBRANCH  33  34
ENDBRANCH  32  33
ENDBRANCH  31  32
ENDBRANCH  30  31
ENDBRANCH   1  30
TORSDOF 22
ENDMDL
MODEL 3
REMARK VINA RESULT:     -10.9      5.463     10.635
REMARK SMILES O=C(CN1C(=O)/C(=C\c2c(F)cccc2Cl)Oc2ccccc21)OCCOCCOCCOC(=O)c1ccc(-c2c3nc(c(-c4cc(S(=O)(=O)[O-])ccc4F)c4ccc([nH]4)c(-c4cc(S(=O)(=O)[O-])ccc4F)c4nc(c(-c5cc(S(=O)(=O)[O-])ccc5F)c5ccc2[nH]5)C=C4)C=C3)cc1
REMARK SMILES IDX 29 1 28 2 27 3 26 4 25 5 24 6 2 7 1 8 3 9 4 10 5 11 23 12
REMARK SMILES IDX 6 13 7 14 18 15 22 16 8 17 17 18 19 19 21 20 20 21 9 22
REMARK SMILES IDX 10 23 15 24 11 25 12 26 14 27 16 28 13 29 30 30 31 31 32 32
REMARK SMILES IDX 33 33 34 34 35 35 36 36 37 37 98 38 38 39 97 40 39 41 40 42
REMARK SMILES IDX 41 43 91 44 42 45 96 46 90 47 92 48 43 49 95 50 89 51 88 52
REMARK SMILES IDX 44 54 76 55 56 56 75 57 57 58 60 59 74 60 93 61 58 62 59 63
REMARK SMILES IDX 73 65 94 66 61 67 45 68 46 69 54 70 47 71 53 72 55 73 52 74
REMARK SMILES IDX 48 75 49 76 50 77 51 78 77 79 78 80 86 81 79 82 85 83 87 84
REMARK SMILES IDX 84 85 80 86 81 87 82 88 83 89 62 90 63 91 71 92 64 93 70 94
REMARK SMILES IDX 72 95 69 96 65 97 66 98 67 99 68 100
REMARK H PARENT 92 53 60 64
REMARK Flexibility Score: inf
ROOT
ATOM      1  C   UNL A   1      32.054  29.572  25.179  1.00  0.00     0.188 C 
ENDROOT
BRANCH   1   2
ATOM      2  C   UNL A   1      32.533  28.572  24.117  1.00  0.00     0.188 C 
BRANCH   2   3
ATOM      3  O   UNL A   1      33.481  29.027  23.173  1.00  0.00    -0.376 OA
BRANCH   3   4
ATOM      4  C   UNL A   1      33.896  28.167  22.121  1.00  0.00     0.202 C 
BRANCH   4   5
ATOM      5  C   UNL A   1      33.085  26.910  21.852  1.00  0.00     0.261 C 
BRANCH   5   6
ATOM      6  O   UNL A   1      33.764  25.636  21.664  1.00  0.00    -0.462 OA
BRANCH   6   7
ATOM      7  C   UNL A   1      33.360  24.379  21.388  1.00  0.00     0.326 C 
ATOM      8  O   UNL A   1      33.178  24.074  20.208  1.00  0.00    -0.250 OA
BRANCH   7   9
ATOM      9  C   UNL A   1      33.126  23.346  22.489  1.00  0.00     0.248 C 
BRANCH   9  10
ATOM     10  N   UNL A   1      33.066  24.006  23.771  1.00  0.00    -0.291 N 
ATOM     11  C   UNL A   1      34.254  24.196  24.442  1.00  0.00     0.294 C 
ATOM     12  C   UNL A   1      31.908  24.630  24.300  1.00  0.00     0.088 A 
ATOM     13  O   UNL A   1      35.348  24.307  23.907  1.00  0.00    -0.265 OA
ATOM     14  C   UNL A   1      34.068  24.112  25.909  1.00  0.00     0.193 C 
ATOM     15  C   UNL A   1      31.964  25.113  25.624  1.00  0.00     0.151 A 
ATOM     16  C   UNL A   1      30.760  24.868  23.537  1.00  0.00     0.030 A 
ATOM     17  C   UNL A   1      34.729  23.169  26.613  1.00  0.00     0.065 C 
ATOM     18  O   UNL A   1      33.032  24.847  26.467  1.00  0.00    -0.449 OA
ATOM     19  C   UNL A   1      30.904  25.840  26.161  1.00  0.00     0.049 A 
ATOM     20  C   UNL A   1      29.694  25.585  24.087  1.00  0.00     0.002 A 
ATOM     21  C   UNL A   1      29.769  26.078  25.389  1.00  0.00     0.004 A 
BRANCH  17  22
ATOM     22  C   UNL A   1      35.602  22.122  26.027  1.00  0.00     0.033 A 
ATOM     23  C   UNL A   1      36.982  22.323  25.890  1.00  0.00     0.132 A 
ATOM     24  C   UNL A   1      35.076  20.910  25.541  1.00  0.00     0.051 A 
ATOM     25  F   UNL A   1      37.550  23.444  26.359  1.00  0.00    -0.206 F 
ATOM     26  C   UNL A   1      37.805  21.388  25.254  1.00  0.00     0.040 A 
ATOM     27  C   UNL A   1      35.897  19.971  24.896  1.00  0.00     0.021 A 
ATOM     28  Cl  UNL A   1      33.402  20.508  25.721  1.00  0.00    -0.084 Cl
ATOM     29  C   UNL A   1      37.261  20.214  24.744  1.00  0.00     0.005 A 
ENDBRANCH  17  22
ENDBRANCH   9  10
ENDBRANCH   7   9
ENDBRANCH   6   7
ENDBRANCH   5   6
ENDBRANCH   4   5
ENDBRANCH   3   4
ENDBRANCH   2   3
ENDBRANCH   1   2
BRANCH   1  30
ATOM     30  O   UNL A   1      33.017  30.348  25.874  1.00  0.00    -0.376 OA
BRANCH  30  31
ATOM     31  C   UNL A   1      32.718  30.782  27.198  1.00  0.00     0.202 C 
BRANCH  31  32
ATOM     32  C   UNL A   1      33.493  31.973  27.783  1.00  0.00     0.261 C 
BRANCH  32  33
ATOM     33  O   UNL A   1      32.782  33.225  27.698  1.00  0.00    -0.460 OA
BRANCH  33  34
ATOM     34  C   UNL A   1      33.262  34.244  28.456  1.00  0.00     0.338 C 
ATOM     35  O   UNL A   1      32.776  35.359  28.560  1.00  0.00    -0.246 OA
BRANCH  34  36
ATOM     36  C   UNL A   1      34.374  33.768  29.311  1.00  0.00     0.060 A 
ATOM     37  C   UNL A   1      34.143  33.047  30.484  1.00  0.00     0.016 A 
ATOM     38  C   UNL A   1      35.690  34.053  28.910  1.00  0.00     0.016 A 
ATOM     39  C   UNL A   1      35.231  32.576  31.232  1.00  0.00     0.010 A 
ATOM     40  C   UNL A   1      36.772  33.618  29.680  1.00  0.00     0.010 A 
ATOM     41  C   UNL A   1      36.552  32.848  30.832  1.00  0.00    -0.014 A 
BRANCH  41  42
ATOM     42  C   UNL A   1      37.692  32.154  31.484  1.00  0.00     0.031 A 
ATOM     43  C   UNL A   1      38.451  31.047  30.823  1.00  0.00     0.074 A 
ATOM     44  C   UNL A   1      38.030  32.545  32.727  1.00  0.00     0.049 A 
ATOM     45  N   UNL A   1      39.488  30.384  31.268  1.00  0.00    -0.248 NA
ATOM     46  C   UNL A   1      37.989  30.628  29.495  1.00  0.00     0.031 C 
ATOM     47  C   UNL A   1      37.353  33.606  33.470  1.00  0.00     0.029 A 
ATOM     48  N   UNL A   1      39.017  32.111  33.576  1.00  0.00    -0.354 N 
ATOM     49  C   UNL A   1      39.807  29.460  30.281  1.00  0.00     0.074 A 
ATOM     50  C   UNL A   1      38.844  29.650  29.216  1.00  0.00     0.031 C 
ATOM     51  C   UNL A   1      37.954  33.755  34.657  1.00  0.00     0.029 A 
ATOM     52  C   UNL A   1      39.042  32.784  34.774  1.00  0.00     0.049 A 
ATOM     53  H   UNL A   1      39.645  31.388  33.350  1.00  0.00     0.167 HD
ATOM     54  C   UNL A   1      40.811  28.547  30.271  1.00  0.00     0.034 A 
ATOM     55  C   UNL A   1      39.851  32.651  35.846  1.00  0.00     0.034 A 
ATOM     56  C   UNL A   1      41.779  28.397  31.333  1.00  0.00     0.049 A 
ATOM     57  C   UNL A   1      40.984  31.662  35.796  1.00  0.00     0.074 A 
ATOM     58  C   UNL A   1      42.871  27.546  31.375  1.00  0.00     0.029 A 
ATOM     59  N   UNL A   1      41.783  29.101  32.529  1.00  0.00    -0.354 N 
ATOM     60  N   UNL A   1      41.318  30.845  34.827  1.00  0.00    -0.248 NA
ATOM     61  C   UNL A   1      41.862  31.585  36.973  1.00  0.00     0.031 C 
ATOM     62  C   UNL A   1      43.494  27.688  32.616  1.00  0.00     0.029 A 
ATOM     63  C   UNL A   1      42.842  28.685  33.322  1.00  0.00     0.049 A 
ATOM     64  H   UNL A   1      41.130  29.796  32.777  1.00  0.00     0.167 HD
ATOM     65  C   UNL A   1      42.454  30.170  35.266  1.00  0.00     0.074 A 
ATOM     66  C   UNL A   1      42.762  30.690  36.581  1.00  0.00     0.031 C 
ATOM     67  C   UNL A   1      43.165  29.205  34.630  1.00  0.00     0.034 A 
BRANCH  54  68
ATOM     68  C   UNL A   1      40.954  27.624  29.082  1.00  0.00     0.023 A 
ATOM     69  C   UNL A   1      41.915  27.904  28.089  1.00  0.00     0.031 A 
ATOM     70  C   UNL A   1      40.047  26.575  28.850  1.00  0.00     0.131 A 
ATOM     71  C   UNL A   1      41.921  27.168  26.897  1.00  0.00     0.055 A 
ATOM     72  C   UNL A   1      40.085  25.817  27.678  1.00  0.00     0.041 A 
ATOM     73  F   UNL A   1      39.110  26.271  29.761  1.00  0.00    -0.206 F 
ATOM     74  C   UNL A   1      41.015  26.123  26.689  1.00  0.00     0.022 A 
BRANCH  71  75
ATOM     75  S   UNL A   1      43.047  27.586  25.537  1.00  0.00     0.124 S 
ATOM     76  O   UNL A   1      42.170  28.361  24.662  1.00  0.00    -0.237 OA
ATOM     77  O   UNL A   1      44.083  28.354  26.221  1.00  0.00    -0.237 OA
ATOM     78  O   UNL A   1      43.463  26.288  25.016  1.00  0.00    -0.744 OA
ENDBRANCH  71  75
ENDBRANCH  54  68
BRANCH  55  79
ATOM     79  C   UNL A   1      39.637  33.565  37.002  1.00  0.00     0.023 A 
ATOM     80  C   UNL A   1      40.444  34.705  37.173  1.00  0.00     0.031 A 
ATOM     81  C   UNL A   1      38.752  33.214  38.035  1.00  0.00     0.131 A 
ATOM     82  C   UNL A   1      40.418  35.395  38.391  1.00  0.00     0.055 A 
ATOM     83  C   UNL A   1      38.677  33.951  39.217  1.00  0.00     0.041 A 
ATOM     84  F   UNL A   1      37.977  32.125  37.920  1.00  0.00    -0.206 F 
ATOM     85  C   UNL A   1      39.529  35.034  39.408  1.00  0.00     0.022 A 
BRANCH  82  86
ATOM     86  S   UNL A   1      41.652  36.675  38.756  1.00  0.00     0.124 S 
ATOM     87  O   UNL A   1      42.239  36.916  37.442  1.00  0.00    -0.237 OA
ATOM     88  O   UNL A   1      40.814  37.751  39.281  1.00  0.00    -0.237 OA
ATOM     89  O   UNL A   1      42.530  36.039  39.732  1.00  0.00    -0.744 OA
ENDBRANCH  82  86
ENDBRANCH  55  79
BRANCH  67  90
ATOM     90  C   UNL A   1      44.369  28.606  35.322  1.00  0.00     0.023 A 
ATOM     91  C   UNL A   1      44.193  27.629  36.322  1.00  0.00     0.031 A 
ATOM     92  C   UNL A   1      45.659  29.128  35.124  1.00  0.00     0.131 A 
ATOM     93  C   UNL A   1      45.278  27.245  37.122  1.00  0.00     0.055 A 
ATOM     94  C   UNL A   1      46.746  28.707  35.893  1.00  0.00     0.041 A 
ATOM     95  F   UNL A   1      45.877  30.068  34.191  1.00  0.00    -0.206 F 
ATOM     96  C   UNL A   1      46.554  27.774  36.908  1.00  0.00     0.022 A 
BRANCH  93  97
ATOM     97  S   UNL A   1      45.055  26.118  38.527  1.00  0.00     0.124 S 
ATOM     98  O   UNL A   1      43.720  26.482  38.998  1.00  0.00    -0.237 OA
ATOM     99  O   UNL A   1      45.155  24.808  37.889  1.00  0.00    -0.237 OA
ATOM    100  O   UNL A   1      46.146  26.462  39.432  1.00  0.00    -0.744 OA
ENDBRANCH  93  97
ENDBRANCH  67  90
ENDBRANCH  41  42
ENDBRANCH  34  36
ENDBRANCH  33  34
ENDBRANCH  32  33
ENDBRANCH  31  32
ENDBRANCH  30  31
ENDBRANCH   1  30
TORSDOF 22
ENDMDL
