MODEL 1
REMARK VINA RESULT:      -8.5      0.000      0.000
REMARK SMILES COCCCN(C)C(=O)N1CCC(CC(=O)OCCOCCOCCOC(=O)c2ccc(-c3c4nc(c(-c5cc(S(=O)(=O)[O-])ccc5F)c5ccc([nH]5)c(-c5cc(S(=O)(=O)[O-])ccc5F)c5nc(c(-c6cc(S(=O)(=O)[O-])ccc6F)c6ccc3[nH]6)C=C5)C=C4)cc2)CC1
REMARK SMILES IDX 20 1 19 2 18 3 17 4 15 5 16 6 14 7 13 8 8 9 9 10 10 11 11 12
REMARK SMILES IDX 93 13 12 14 92 15 6 16 7 17 5 18 4 19 3 20 2 21 1 22 21 23
REMARK SMILES IDX 22 24 23 25 24 26 25 27 26 28 27 29 28 30 29 31 30 32 91 33
REMARK SMILES IDX 31 34 90 35 32 36 33 37 34 38 84 39 35 40 89 41 83 42 85 43
REMARK SMILES IDX 36 44 88 45 82 46 81 47 37 49 69 50 49 51 68 52 50 53 53 54
REMARK SMILES IDX 67 55 86 56 51 57 52 58 66 60 87 61 54 62 38 63 39 64 47 65
REMARK SMILES IDX 40 66 46 67 48 68 45 69 41 70 42 71 43 72 44 73 70 74 71 75
REMARK SMILES IDX 79 76 72 77 78 78 80 79 77 80 73 81 74 82 75 83 76 84 55 85
REMARK SMILES IDX 56 86 64 87 57 88 63 89 65 90 62 91 58 92 59 93 60 94 61 95
REMARK H PARENT 85 48 53 59
REMARK Flexibility Score: inf
ROOT
ATOM      1  O   UNL A   1      40.196  22.229  25.972  1.00  0.00    -0.376 OA
ENDROOT
BRANCH   1   2
ATOM      2  C   UNL A   1      38.809  22.076  26.271  1.00  0.00     0.202 C 
BRANCH   2   3
ATOM      3  C   UNL A   1      37.963  21.374  25.200  1.00  0.00     0.261 C 
BRANCH   3   4
ATOM      4  O   UNL A   1      36.564  21.726  25.252  1.00  0.00    -0.463 OA
BRANCH   4   5
ATOM      5  C   UNL A   1      36.244  22.941  24.742  1.00  0.00     0.306 C 
ATOM      6  O   UNL A   1      36.458  24.009  25.309  1.00  0.00    -0.252 OA
BRANCH   5   7
ATOM      7  C   UNL A   1      35.649  22.908  23.345  1.00  0.00     0.126 C 
BRANCH   7   8
ATOM      8  C   UNL A   1      34.187  23.317  23.082  1.00  0.00     0.003 C 
ATOM      9  C   UNL A   1      31.892  25.688  25.067  1.00  0.00     0.319 C 
ATOM     10  O   UNL A   1      32.504  25.285  26.053  1.00  0.00    -0.248 OA
ATOM     11  N   UNL A   1      31.907  24.960  23.894  1.00  0.00    -0.325 N 
ATOM     12  C   UNL A   1      31.847  23.514  24.016  1.00  0.00     0.121 C 
ATOM     13  C   UNL A   1      32.722  25.428  22.782  1.00  0.00     0.121 C 
ATOM     14  C   UNL A   1      33.236  22.909  24.216  1.00  0.00     0.026 C 
ATOM     15  C   UNL A   1      34.143  24.858  22.879  1.00  0.00     0.026 C 
BRANCH   9  16
ATOM     16  N   UNL A   1      31.122  26.835  25.089  1.00  0.00    -0.328 N 
ATOM     17  C   UNL A   1      31.601  28.133  25.544  1.00  0.00     0.148 C 
BRANCH  16  18
ATOM     18  C   UNL A   1      29.709  26.744  24.706  1.00  0.00     0.123 C 
BRANCH  18  19
ATOM     19  C   UNL A   1      29.397  27.170  23.260  1.00  0.00     0.050 C 
BRANCH  19  20
ATOM     20  C   UNL A   1      29.836  28.571  22.813  1.00  0.00     0.161 C 
BRANCH  20  21
ATOM     21  O   UNL A   1      29.014  29.627  23.314  1.00  0.00    -0.385 OA
ATOM     22  C   UNL A   1      27.764  29.766  22.654  1.00  0.00     0.194 C 
ENDBRANCH  20  21
ENDBRANCH  19  20
ENDBRANCH  18  19
ENDBRANCH  16  18
ENDBRANCH   9  16
ENDBRANCH   7   8
ENDBRANCH   5   7
ENDBRANCH   4   5
ENDBRANCH   3   4
ENDBRANCH   2   3
ENDBRANCH   1   2
BRANCH   1  23
ATOM     23  C   UNL A   1      41.111  21.610  26.871  1.00  0.00     0.188 C 
BRANCH  23  24
ATOM     24  C   UNL A   1      41.905  20.428  26.310  1.00  0.00     0.188 C 
BRANCH  24  25
ATOM     25  O   UNL A   1      42.436  19.524  27.273  1.00  0.00    -0.376 OA
BRANCH  25  26
ATOM     26  C   UNL A   1      42.935  18.286  26.753  1.00  0.00     0.202 C 
BRANCH  26  27
ATOM     27  C   UNL A   1      43.528  18.322  25.329  1.00  0.00     0.261 C 
BRANCH  27  28
ATOM     28  O   UNL A   1      44.781  19.026  25.198  1.00  0.00    -0.460 OA
BRANCH  28  29
ATOM     29  C   UNL A   1      44.903  19.924  24.190  1.00  0.00     0.338 C 
ATOM     30  O   UNL A   1      44.809  19.684  22.997  1.00  0.00    -0.246 OA
BRANCH  29  31
ATOM     31  C   UNL A   1      44.877  21.291  24.779  1.00  0.00     0.060 A 
ATOM     32  C   UNL A   1      44.264  22.319  24.047  1.00  0.00     0.016 A 
ATOM     33  C   UNL A   1      45.369  21.552  26.062  1.00  0.00     0.016 A 
ATOM     34  C   UNL A   1      44.175  23.610  24.577  1.00  0.00     0.010 A 
ATOM     35  C   UNL A   1      45.291  22.847  26.587  1.00  0.00     0.010 A 
ATOM     36  C   UNL A   1      44.722  23.892  25.836  1.00  0.00    -0.014 A 
BRANCH  36  37
ATOM     37  C   UNL A   1      44.910  25.301  26.272  1.00  0.00     0.031 A 
ATOM     38  C   UNL A   1      46.282  25.906  26.120  1.00  0.00     0.074 A 
ATOM     39  C   UNL A   1      43.906  26.038  26.781  1.00  0.00     0.049 A 
ATOM     40  N   UNL A   1      46.724  27.078  26.491  1.00  0.00    -0.248 NA
ATOM     41  C   UNL A   1      47.290  25.062  25.459  1.00  0.00     0.031 C 
ATOM     42  C   UNL A   1      42.520  25.599  26.929  1.00  0.00     0.029 A 
ATOM     43  N   UNL A   1      43.906  27.321  27.277  1.00  0.00    -0.354 N 
ATOM     44  C   UNL A   1      48.063  27.111  26.119  1.00  0.00     0.074 A 
ATOM     45  C   UNL A   1      48.367  25.828  25.521  1.00  0.00     0.031 C 
ATOM     46  C   UNL A   1      41.806  26.594  27.489  1.00  0.00     0.029 A 
ATOM     47  C   UNL A   1      42.690  27.724  27.779  1.00  0.00     0.049 A 
ATOM     48  H   UNL A   1      44.704  27.899  27.272  1.00  0.00     0.167 HD
ATOM     49  C   UNL A   1      48.960  28.118  26.258  1.00  0.00     0.034 A 
ATOM     50  C   UNL A   1      42.340  28.858  28.424  1.00  0.00     0.034 A 
ATOM     51  C   UNL A   1      48.655  29.389  26.865  1.00  0.00     0.049 A 
ATOM     52  C   UNL A   1      43.387  29.925  28.668  1.00  0.00     0.074 A 
ATOM     53  C   UNL A   1      49.488  30.480  27.038  1.00  0.00     0.029 A 
ATOM     54  N   UNL A   1      47.429  29.735  27.416  1.00  0.00    -0.354 N 
ATOM     55  N   UNL A   1      44.649  29.948  28.306  1.00  0.00    -0.248 NA
ATOM     56  C   UNL A   1      42.959  31.120  29.411  1.00  0.00     0.031 C 
ATOM     57  C   UNL A   1      48.792  31.453  27.762  1.00  0.00     0.029 A 
ATOM     58  C   UNL A   1      47.496  31.006  27.965  1.00  0.00     0.049 A 
ATOM     59  H   UNL A   1      46.628  29.162  27.417  1.00  0.00     0.167 HD
ATOM     60  C   UNL A   1      45.149  31.175  28.741  1.00  0.00     0.074 A 
ATOM     61  C   UNL A   1      44.054  31.865  29.387  1.00  0.00     0.031 C 
ATOM     62  C   UNL A   1      46.399  31.689  28.610  1.00  0.00     0.034 A 
BRANCH  49  63
ATOM     63  C   UNL A   1      50.372  27.852  25.799  1.00  0.00     0.023 A 
ATOM     64  C   UNL A   1      50.738  27.924  24.444  1.00  0.00     0.031 A 
ATOM     65  C   UNL A   1      51.359  27.490  26.732  1.00  0.00     0.131 A 
ATOM     66  C   UNL A   1      52.037  27.570  24.053  1.00  0.00     0.055 A 
ATOM     67  C   UNL A   1      52.671  27.217  26.345  1.00  0.00     0.041 A 
ATOM     68  F   UNL A   1      51.060  27.378  28.036  1.00  0.00    -0.206 F 
ATOM     69  C   UNL A   1      53.014  27.243  24.996  1.00  0.00     0.022 A 
BRANCH  66  70
ATOM     70  S   UNL A   1      52.393  27.402  22.282  1.00  0.00     0.124 S 
ATOM     71  O   UNL A   1      53.063  26.104  22.237  1.00  0.00    -0.237 OA
ATOM     72  O   UNL A   1      51.063  27.453  21.686  1.00  0.00    -0.237 OA
ATOM     73  O   UNL A   1      53.252  28.548  21.994  1.00  0.00    -0.744 OA
ENDBRANCH  66  70
ENDBRANCH  49  63
BRANCH  50  74
ATOM     74  C   UNL A   1      40.952  29.045  28.946  1.00  0.00     0.023 A 
ATOM     75  C   UNL A   1      40.680  28.994  30.324  1.00  0.00     0.031 A 
ATOM     76  C   UNL A   1      39.863  29.188  28.067  1.00  0.00     0.131 A 
ATOM     77  C   UNL A   1      39.351  29.030  30.778  1.00  0.00     0.055 A 
ATOM     78  C   UNL A   1      38.548  29.283  28.527  1.00  0.00     0.041 A 
ATOM     79  F   UNL A   1      40.063  29.230  26.740  1.00  0.00    -0.206 F 
ATOM     80  C   UNL A   1      38.285  29.189  29.889  1.00  0.00     0.022 A 
BRANCH  77  81
ATOM     81  S   UNL A   1      39.027  28.763  32.543  1.00  0.00     0.124 S 
ATOM     82  O   UNL A   1      38.199  29.919  32.870  1.00  0.00    -0.237 OA
ATOM     83  O   UNL A   1      38.349  27.470  32.534  1.00  0.00    -0.237 OA
ATOM     84  O   UNL A   1      40.361  28.761  33.138  1.00  0.00    -0.744 OA
ENDBRANCH  77  81
ENDBRANCH  50  74
BRANCH  62  85
ATOM     85  C   UNL A   1      46.636  33.093  29.117  1.00  0.00     0.023 A 
ATOM     86  C   UNL A   1      47.096  33.348  30.420  1.00  0.00     0.031 A 
ATOM     87  C   UNL A   1      46.410  34.193  28.269  1.00  0.00     0.131 A 
ATOM     88  C   UNL A   1      47.272  34.673  30.852  1.00  0.00     0.055 A 
ATOM     89  C   UNL A   1      46.643  35.504  28.685  1.00  0.00     0.041 A 
ATOM     90  F   UNL A   1      45.971  34.008  27.014  1.00  0.00    -0.206 F 
ATOM     91  C   UNL A   1      47.066  35.752  29.987  1.00  0.00     0.022 A 
BRANCH  88  92
ATOM     92  S   UNL A   1      47.706  34.979  32.587  1.00  0.00     0.124 S 
ATOM     93  O   UNL A   1      46.394  35.176  33.198  1.00  0.00    -0.237 OA
ATOM     94  O   UNL A   1      48.402  33.751  32.957  1.00  0.00    -0.237 OA
ATOM     95  O   UNL A   1      48.547  36.173  32.527  1.00  0.00    -0.744 OA
ENDBRANCH  88  92
ENDBRANCH  62  85
ENDBRANCH  36  37
ENDBRANCH  29  31
ENDBRANCH  28  29
ENDBRANCH  27  28
ENDBRANCH  26  27
ENDBRANCH  25  26
ENDBRANCH  24  25
ENDBRANCH  23  24
ENDBRANCH   1  23
TORSDOF 26
ENDMDL
MODEL 2
REMARK VINA RESULT:      -8.1      5.656     11.264
REMARK SMILES COCCCN(C)C(=O)N1CCC(CC(=O)OCCOCCOCCOC(=O)c2ccc(-c3c4nc(c(-c5cc(S(=O)(=O)[O-])ccc5F)c5ccc([nH]5)c(-c5cc(S(=O)(=O)[O-])ccc5F)c5nc(c(-c6cc(S(=O)(=O)[O-])ccc6F)c6ccc3[nH]6)C=C5)C=C4)cc2)CC1
REMARK SMILES IDX 20 1 19 2 18 3 17 4 15 5 16 6 14 7 13 8 8 9 9 10 10 11 11 12
REMARK SMILES IDX 93 13 12 14 92 15 6 16 7 17 5 18 4 19 3 20 2 21 1 22 21 23
REMARK SMILES IDX 22 24 23 25 24 26 25 27 26 28 27 29 28 30 29 31 30 32 91 33
REMARK SMILES IDX 31 34 90 35 32 36 33 37 34 38 84 39 35 40 89 41 83 42 85 43
REMARK SMILES IDX 36 44 88 45 82 46 81 47 37 49 69 50 49 51 68 52 50 53 53 54
REMARK SMILES IDX 67 55 86 56 51 57 52 58 66 60 87 61 54 62 38 63 39 64 47 65
REMARK SMILES IDX 40 66 46 67 48 68 45 69 41 70 42 71 43 72 44 73 70 74 71 75
REMARK SMILES IDX 79 76 72 77 78 78 80 79 77 80 73 81 74 82 75 83 76 84 55 85
REMARK SMILES IDX 56 86 64 87 57 88 63 89 65 90 62 91 58 92 59 93 60 94 61 95
REMARK H PARENT 85 48 53 59
REMARK Flexibility Score: inf
ROOT
ATOM      1  O   UNL A   1      34.351  34.437  28.565  1.00  0.00    -0.376 OA
ENDROOT
BRANCH   1   2
ATOM      2  C   UNL A   1      33.918  33.390  27.698  1.00  0.00     0.202 C 
BRANCH   2   3
ATOM      3  C   UNL A   1      34.615  32.034  27.880  1.00  0.00     0.261 C 
BRANCH   3   4
ATOM      4  O   UNL A   1      33.696  30.928  28.003  1.00  0.00    -0.463 OA
BRANCH   4   5
ATOM      5  C   UNL A   1      33.759  29.998  27.019  1.00  0.00     0.306 C 
ATOM      6  O   UNL A   1      34.504  29.022  27.034  1.00  0.00    -0.252 OA
BRANCH   5   7
ATOM      7  C   UNL A   1      32.768  30.202  25.887  1.00  0.00     0.126 C 
BRANCH   7   8
ATOM      8  C   UNL A   1      32.067  29.011  25.204  1.00  0.00     0.003 C 
ATOM      9  C   UNL A   1      32.776  25.237  25.490  1.00  0.00     0.319 C 
ATOM     10  O   UNL A   1      33.949  25.574  25.631  1.00  0.00    -0.248 OA
ATOM     11  N   UNL A   1      31.865  26.107  24.923  1.00  0.00    -0.325 N 
ATOM     12  C   UNL A   1      32.334  26.918  23.814  1.00  0.00     0.121 C 
ATOM     13  C   UNL A   1      30.899  26.777  25.781  1.00  0.00     0.121 C 
ATOM     14  C   UNL A   1      33.007  28.201  24.299  1.00  0.00     0.026 C 
ATOM     15  C   UNL A   1      31.475  28.096  26.312  1.00  0.00     0.026 C 
BRANCH   9  16
ATOM     16  N   UNL A   1      32.320  23.977  25.826  1.00  0.00    -0.328 N 
ATOM     17  C   UNL A   1      31.791  23.622  27.136  1.00  0.00     0.148 C 
BRANCH  16  18
ATOM     18  C   UNL A   1      32.439  22.897  24.842  1.00  0.00     0.123 C 
BRANCH  18  19
ATOM     19  C   UNL A   1      32.017  21.505  25.347  1.00  0.00     0.050 C 
BRANCH  19  20
ATOM     20  C   UNL A   1      32.912  20.310  24.994  1.00  0.00     0.161 C 
BRANCH  20  21
ATOM     21  O   UNL A   1      32.197  19.094  24.764  1.00  0.00    -0.385 OA
ATOM     22  C   UNL A   1      32.693  17.972  25.481  1.00  0.00     0.194 C 
ENDBRANCH  20  21
ENDBRANCH  19  20
ENDBRANCH  18  19
ENDBRANCH  16  18
ENDBRANCH   9  16
ENDBRANCH   7   8
ENDBRANCH   5   7
ENDBRANCH   4   5
ENDBRANCH   3   4
ENDBRANCH   2   3
ENDBRANCH   1   2
BRANCH   1  23
ATOM     23  C   UNL A   1      34.109  34.250  29.956  1.00  0.00     0.188 C 
BRANCH  23  24
ATOM     24  C   UNL A   1      33.214  35.294  30.626  1.00  0.00     0.188 C 
BRANCH  24  25
ATOM     25  O   UNL A   1      32.983  35.112  32.019  1.00  0.00    -0.376 OA
BRANCH  25  26
ATOM     26  C   UNL A   1      34.013  34.417  32.733  1.00  0.00     0.202 C 
BRANCH  26  27
ATOM     27  C   UNL A   1      34.886  35.262  33.684  1.00  0.00     0.261 C 
BRANCH  27  28
ATOM     28  O   UNL A   1      36.243  34.800  33.855  1.00  0.00    -0.460 OA
BRANCH  28  29
ATOM     29  C   UNL A   1      36.481  33.871  34.812  1.00  0.00     0.338 C 
ATOM     30  O   UNL A   1      35.768  33.625  35.771  1.00  0.00    -0.246 OA
BRANCH  29  31
ATOM     31  C   UNL A   1      37.599  33.003  34.349  1.00  0.00     0.060 A 
ATOM     32  C   UNL A   1      37.619  31.665  34.770  1.00  0.00     0.016 A 
ATOM     33  C   UNL A   1      38.567  33.462  33.450  1.00  0.00     0.016 A 
ATOM     34  C   UNL A   1      38.624  30.799  34.326  1.00  0.00     0.010 A 
ATOM     35  C   UNL A   1      39.578  32.598  33.015  1.00  0.00     0.010 A 
ATOM     36  C   UNL A   1      39.632  31.269  33.475  1.00  0.00    -0.014 A 
BRANCH  36  37
ATOM     37  C   UNL A   1      40.858  30.459  33.248  1.00  0.00     0.031 A 
ATOM     38  C   UNL A   1      41.976  30.580  34.251  1.00  0.00     0.074 A 
ATOM     39  C   UNL A   1      40.990  29.630  32.195  1.00  0.00     0.049 A 
ATOM     40  N   UNL A   1      43.168  30.045  34.242  1.00  0.00    -0.248 NA
ATOM     41  C   UNL A   1      41.703  31.428  35.422  1.00  0.00     0.031 C 
ATOM     42  C   UNL A   1      39.968  29.373  31.183  1.00  0.00     0.029 A 
ATOM     43  N   UNL A   1      42.055  28.854  31.802  1.00  0.00    -0.354 N 
ATOM     44  C   UNL A   1      43.793  30.498  35.398  1.00  0.00     0.074 A 
ATOM     45  C   UNL A   1      42.857  31.376  36.068  1.00  0.00     0.031 C 
ATOM     46  C   UNL A   1      40.460  28.505  30.279  1.00  0.00     0.029 A 
ATOM     47  C   UNL A   1      41.845  28.179  30.620  1.00  0.00     0.049 A 
ATOM     48  H   UNL A   1      42.891  28.785  32.318  1.00  0.00     0.167 HD
ATOM     49  C   UNL A   1      45.032  30.208  35.865  1.00  0.00     0.034 A 
ATOM     50  C   UNL A   1      42.683  27.414  29.887  1.00  0.00     0.034 A 
ATOM     51  C   UNL A   1      45.965  29.343  35.188  1.00  0.00     0.049 A 
ATOM     52  C   UNL A   1      44.101  27.194  30.371  1.00  0.00     0.074 A 
ATOM     53  C   UNL A   1      47.237  28.972  35.586  1.00  0.00     0.029 A 
ATOM     54  N   UNL A   1      45.737  28.728  33.965  1.00  0.00    -0.354 N 
ATOM     55  N   UNL A   1      44.679  27.622  31.470  1.00  0.00    -0.248 NA
ATOM     56  C   UNL A   1      44.980  26.386  29.512  1.00  0.00     0.031 C 
ATOM     57  C   UNL A   1      47.807  28.200  34.569  1.00  0.00     0.029 A 
ATOM     58  C   UNL A   1      46.860  28.015  33.575  1.00  0.00     0.049 A 
ATOM     59  H   UNL A   1      44.900  28.789  33.449  1.00  0.00     0.167 HD
ATOM     60  C   UNL A   1      45.972  27.100  31.451  1.00  0.00     0.074 A 
ATOM     61  C   UNL A   1      46.088  26.323  30.236  1.00  0.00     0.031 C 
ATOM     62  C   UNL A   1      46.970  27.242  32.360  1.00  0.00     0.034 A 
BRANCH  49  63
ATOM     63  C   UNL A   1      45.466  30.888  37.139  1.00  0.00     0.023 A 
ATOM     64  C   UNL A   1      45.197  30.337  38.404  1.00  0.00     0.031 A 
ATOM     65  C   UNL A   1      46.131  32.125  37.086  1.00  0.00     0.131 A 
ATOM     66  C   UNL A   1      45.529  31.054  39.563  1.00  0.00     0.055 A 
ATOM     67  C   UNL A   1      46.531  32.795  38.242  1.00  0.00     0.041 A 
ATOM     68  F   UNL A   1      46.390  32.712  35.907  1.00  0.00    -0.206 F 
ATOM     69  C   UNL A   1      46.218  32.267  39.491  1.00  0.00     0.022 A 
BRANCH  66  70
ATOM     70  S   UNL A   1      44.918  30.449  41.160  1.00  0.00     0.124 S 
ATOM     71  O   UNL A   1      45.956  30.925  42.073  1.00  0.00    -0.237 OA
ATOM     72  O   UNL A   1      43.621  31.107  41.271  1.00  0.00    -0.237 OA
ATOM     73  O   UNL A   1      44.872  28.999  40.983  1.00  0.00    -0.744 OA
ENDBRANCH  66  70
ENDBRANCH  49  63
BRANCH  50  74
ATOM     74  C   UNL A   1      42.244  26.832  28.582  1.00  0.00     0.023 A 
ATOM     75  C   UNL A   1      41.736  25.524  28.504  1.00  0.00     0.031 A 
ATOM     76  C   UNL A   1      42.411  27.545  27.381  1.00  0.00     0.131 A 
ATOM     77  C   UNL A   1      41.465  24.952  27.250  1.00  0.00     0.055 A 
ATOM     78  C   UNL A   1      42.084  26.992  26.141  1.00  0.00     0.041 A 
ATOM     79  F   UNL A   1      42.903  28.794  27.396  1.00  0.00    -0.206 F 
ATOM     80  C   UNL A   1      41.622  25.683  26.069  1.00  0.00     0.022 A 
BRANCH  77  81
ATOM     81  S   UNL A   1      41.002  23.199  27.175  1.00  0.00     0.124 S 
ATOM     82  O   UNL A   1      39.547  23.281  27.107  1.00  0.00    -0.237 OA
ATOM     83  O   UNL A   1      41.676  22.759  25.957  1.00  0.00    -0.237 OA
ATOM     84  O   UNL A   1      41.540  22.651  28.417  1.00  0.00    -0.744 OA
ENDBRANCH  77  81
ENDBRANCH  50  74
BRANCH  62  85
ATOM     85  C   UNL A   1      48.257  26.490  32.111  1.00  0.00     0.023 A 
ATOM     86  C   UNL A   1      48.583  25.315  32.809  1.00  0.00     0.031 A 
ATOM     87  C   UNL A   1      49.165  26.957  31.143  1.00  0.00     0.131 A 
ATOM     88  C   UNL A   1      49.806  24.670  32.560  1.00  0.00     0.055 A 
ATOM     89  C   UNL A   1      50.352  26.279  30.858  1.00  0.00     0.041 A 
ATOM     90  F   UNL A   1      48.906  28.074  30.445  1.00  0.00    -0.206 F 
ATOM     91  C   UNL A   1      50.684  25.135  31.576  1.00  0.00     0.022 A 
BRANCH  88  92
ATOM     92  S   UNL A   1      50.275  23.253  33.591  1.00  0.00     0.124 S 
ATOM     93  O   UNL A   1      51.245  23.849  34.504  1.00  0.00    -0.237 OA
ATOM     94  O   UNL A   1      49.000  22.860  34.183  1.00  0.00    -0.237 OA
ATOM     95  O   UNL A   1      50.831  22.299  32.632  1.00  0.00    -0.744 OA
ENDBRANCH  88  92
ENDBRANCH  62  85
ENDBRANCH  36  37
ENDBRANCH  29  31
ENDBRANCH  28  29
ENDBRANCH  27  28
ENDBRANCH  26  27
ENDBRANCH  25  26
ENDBRANCH  24  25
ENDBRANCH  23  24
ENDBRANCH   1  23
TORSDOF 26
ENDMDL
MODEL 3
REMARK VINA RESULT:      -7.9      4.623      9.995
REMARK SMILES COCCCN(C)C(=O)N1CCC(CC(=O)OCCOCCOCCOC(=O)c2ccc(-c3c4nc(c(-c5cc(S(=O)(=O)[O-])ccc5F)c5ccc([nH]5)c(-c5cc(S(=O)(=O)[O-])ccc5F)c5nc(c(-c6cc(S(=O)(=O)[O-])ccc6F)c6ccc3[nH]6)C=C5)C=C4)cc2)CC1
REMARK SMILES IDX 20 1 19 2 18 3 17 4 15 5 16 6 14 7 13 8 8 9 9 10 10 11 11 12
REMARK SMILES IDX 93 13 12 14 92 15 6 16 7 17 5 18 4 19 3 20 2 21 1 22 21 23
REMARK SMILES IDX 22 24 23 25 24 26 25 27 26 28 27 29 28 30 29 31 30 32 91 33
REMARK SMILES IDX 31 34 90 35 32 36 33 37 34 38 84 39 35 40 89 41 83 42 85 43
REMARK SMILES IDX 36 44 88 45 82 46 81 47 37 49 69 50 49 51 68 52 50 53 53 54
REMARK SMILES IDX 67 55 86 56 51 57 52 58 66 60 87 61 54 62 38 63 39 64 47 65
REMARK SMILES IDX 40 66 46 67 48 68 45 69 41 70 42 71 43 72 44 73 70 74 71 75
REMARK SMILES IDX 79 76 72 77 78 78 80 79 77 80 73 81 74 82 75 83 76 84 55 85
REMARK SMILES IDX 56 86 64 87 57 88 63 89 65 90 62 91 58 92 59 93 60 94 61 95
REMARK H PARENT 85 48 53 59
REMARK Flexibility Score: inf
ROOT
ATOM      1  O   UNL A   1      47.778  26.773  23.684  1.00  0.00    -0.376 OA
ENDROOT
BRANCH   1   2
ATOM      2  C   UNL A   1      46.810  27.630  24.288  1.00  0.00     0.202 C 
BRANCH   2   3
ATOM      3  C   UNL A   1      46.500  27.359  25.767  1.00  0.00     0.261 C 
BRANCH   3   4
ATOM      4  O   UNL A   1      46.252  25.966  26.055  1.00  0.00    -0.463 OA
BRANCH   4   5
ATOM      5  C   UNL A   1      45.644  25.710  27.240  1.00  0.00     0.306 C 
ATOM      6  O   UNL A   1      46.168  25.106  28.171  1.00  0.00    -0.252 OA
BRANCH   5   7
ATOM      7  C   UNL A   1      44.251  26.299  27.380  1.00  0.00     0.126 C 
BRANCH   7   8
ATOM      8  C   UNL A   1      43.020  25.406  27.628  1.00  0.00     0.003 C 
ATOM      9  C   UNL A   1      42.044  22.046  26.020  1.00  0.00     0.319 C 
ATOM     10  O   UNL A   1      42.593  22.488  25.013  1.00  0.00    -0.248 OA
ATOM     11  N   UNL A   1      41.633  22.903  27.021  1.00  0.00    -0.325 N 
ATOM     12  C   UNL A   1      41.065  24.173  26.607  1.00  0.00     0.121 C 
ATOM     13  C   UNL A   1      42.405  22.972  28.253  1.00  0.00     0.121 C 
ATOM     14  C   UNL A   1      42.147  25.226  26.376  1.00  0.00     0.026 C 
ATOM     15  C   UNL A   1      43.517  24.022  28.133  1.00  0.00     0.026 C 
BRANCH   9  16
ATOM     16  N   UNL A   1      41.759  20.703  26.181  1.00  0.00    -0.328 N 
ATOM     17  C   UNL A   1      42.727  19.633  25.984  1.00  0.00     0.148 C 
BRANCH  16  18
ATOM     18  C   UNL A   1      40.382  20.308  26.493  1.00  0.00     0.123 C 
BRANCH  18  19
ATOM     19  C   UNL A   1      39.344  20.652  25.410  1.00  0.00     0.050 C 
BRANCH  19  20
ATOM     20  C   UNL A   1      38.282  21.709  25.741  1.00  0.00     0.161 C 
BRANCH  20  21
ATOM     21  O   UNL A   1      37.179  21.733  24.832  1.00  0.00    -0.385 OA
ATOM     22  C   UNL A   1      36.244  20.679  25.011  1.00  0.00     0.194 C 
ENDBRANCH  20  21
ENDBRANCH  19  20
ENDBRANCH  18  19
ENDBRANCH  16  18
ENDBRANCH   9  16
ENDBRANCH   7   8
ENDBRANCH   5   7
ENDBRANCH   4   5
ENDBRANCH   3   4
ENDBRANCH   2   3
ENDBRANCH   1   2
BRANCH   1  23
ATOM     23  C   UNL A   1      48.617  27.362  22.696  1.00  0.00     0.188 C 
BRANCH  23  24
ATOM     24  C   UNL A   1      50.123  27.230  22.932  1.00  0.00     0.188 C 
BRANCH  24  25
ATOM     25  O   UNL A   1      50.535  27.178  24.294  1.00  0.00    -0.376 OA
BRANCH  25  26
ATOM     26  C   UNL A   1      51.709  26.401  24.559  1.00  0.00     0.202 C 
BRANCH  26  27
ATOM     27  C   UNL A   1      52.928  27.160  25.124  1.00  0.00     0.261 C 
BRANCH  27  28
ATOM     28  O   UNL A   1      52.779  27.655  26.471  1.00  0.00    -0.460 OA
BRANCH  28  29
ATOM     29  C   UNL A   1      52.597  26.750  27.463  1.00  0.00     0.338 C 
ATOM     30  O   UNL A   1      53.431  25.964  27.884  1.00  0.00    -0.246 OA
BRANCH  29  31
ATOM     31  C   UNL A   1      51.317  27.068  28.154  1.00  0.00     0.060 A 
ATOM     32  C   UNL A   1      50.149  26.426  27.716  1.00  0.00     0.016 A 
ATOM     33  C   UNL A   1      51.267  27.916  29.265  1.00  0.00     0.016 A 
ATOM     34  C   UNL A   1      48.929  26.658  28.361  1.00  0.00     0.010 A 
ATOM     35  C   UNL A   1      50.045  28.157  29.902  1.00  0.00     0.010 A 
ATOM     36  C   UNL A   1      48.862  27.554  29.435  1.00  0.00    -0.014 A 
BRANCH  36  37
ATOM     37  C   UNL A   1      47.544  28.040  29.923  1.00  0.00     0.031 A 
ATOM     38  C   UNL A   1      46.852  27.238  30.994  1.00  0.00     0.074 A 
ATOM     39  C   UNL A   1      46.967  29.159  29.447  1.00  0.00     0.049 A 
ATOM     40  N   UNL A   1      45.672  27.402  31.530  1.00  0.00    -0.248 NA
ATOM     41  C   UNL A   1      47.602  26.089  31.527  1.00  0.00     0.031 C 
ATOM     42  C   UNL A   1      47.550  30.060  28.455  1.00  0.00     0.029 A 
ATOM     43  N   UNL A   1      45.748  29.725  29.738  1.00  0.00    -0.354 N 
ATOM     44  C   UNL A   1      45.531  26.374  32.456  1.00  0.00     0.074 A 
ATOM     45  C   UNL A   1      46.736  25.575  32.385  1.00  0.00     0.031 C 
ATOM     46  C   UNL A   1      46.683  31.060  28.212  1.00  0.00     0.029 A 
ATOM     47  C   UNL A   1      45.465  30.850  28.996  1.00  0.00     0.049 A 
ATOM     48  H   UNL A   1      45.133  29.359  30.414  1.00  0.00     0.167 HD
ATOM     49  C   UNL A   1      44.497  26.119  33.293  1.00  0.00     0.034 A 
ATOM     50  C   UNL A   1      44.345  31.602  28.937  1.00  0.00     0.034 A 
ATOM     51  C   UNL A   1      43.294  26.912  33.352  1.00  0.00     0.049 A 
ATOM     52  C   UNL A   1      43.157  31.232  29.801  1.00  0.00     0.074 A 
ATOM     53  C   UNL A   1      42.195  26.747  34.176  1.00  0.00     0.029 A 
ATOM     54  N   UNL A   1      43.022  28.006  32.543  1.00  0.00    -0.354 N 
ATOM     55  N   UNL A   1      43.038  30.262  30.677  1.00  0.00    -0.248 NA
ATOM     56  C   UNL A   1      41.950  32.062  29.664  1.00  0.00     0.031 C 
ATOM     57  C   UNL A   1      41.228  27.690  33.813  1.00  0.00     0.029 A 
ATOM     58  C   UNL A   1      41.757  28.499  32.821  1.00  0.00     0.049 A 
ATOM     59  H   UNL A   1      43.637  28.378  31.869  1.00  0.00     0.167 HD
ATOM     60  C   UNL A   1      41.762  30.394  31.223  1.00  0.00     0.074 A 
ATOM     61  C   UNL A   1      41.151  31.538  30.582  1.00  0.00     0.031 C 
ATOM     62  C   UNL A   1      41.152  29.642  32.176  1.00  0.00     0.034 A 
BRANCH  49  63
ATOM     63  C   UNL A   1      44.601  24.894  34.166  1.00  0.00     0.023 A 
ATOM     64  C   UNL A   1      45.087  24.960  35.484  1.00  0.00     0.031 A 
ATOM     65  C   UNL A   1      44.239  23.634  33.658  1.00  0.00     0.131 A 
ATOM     66  C   UNL A   1      45.262  23.781  36.222  1.00  0.00     0.055 A 
ATOM     67  C   UNL A   1      44.340  22.474  34.427  1.00  0.00     0.041 A 
ATOM     68  F   UNL A   1      43.795  23.508  32.397  1.00  0.00    -0.206 F 
ATOM     69  C   UNL A   1      44.867  22.542  35.713  1.00  0.00     0.022 A 
BRANCH  66  70
ATOM     70  S   UNL A   1      46.149  23.873  37.802  1.00  0.00     0.124 S 
ATOM     71  O   UNL A   1      45.553  25.063  38.407  1.00  0.00    -0.237 OA
ATOM     72  O   UNL A   1      45.810  22.601  38.430  1.00  0.00    -0.237 OA
ATOM     73  O   UNL A   1      47.547  24.020  37.402  1.00  0.00    -0.744 OA
ENDBRANCH  66  70
ENDBRANCH  49  63
BRANCH  50  74
ATOM     74  C   UNL A   1      44.246  32.755  27.991  1.00  0.00     0.023 A 
ATOM     75  C   UNL A   1      44.374  34.079  28.444  1.00  0.00     0.031 A 
ATOM     76  C   UNL A   1      43.932  32.552  26.635  1.00  0.00     0.131 A 
ATOM     77  C   UNL A   1      44.136  35.147  27.562  1.00  0.00     0.055 A 
ATOM     78  C   UNL A   1      43.754  33.617  25.749  1.00  0.00     0.041 A 
ATOM     79  F   UNL A   1      43.785  31.309  26.151  1.00  0.00    -0.206 F 
ATOM     80  C   UNL A   1      43.842  34.924  26.215  1.00  0.00     0.022 A 
BRANCH  77  81
ATOM     81  S   UNL A   1      44.116  36.836  28.226  1.00  0.00     0.124 S 
ATOM     82  O   UNL A   1      44.343  37.629  27.023  1.00  0.00    -0.237 OA
ATOM     83  O   UNL A   1      42.778  36.918  28.805  1.00  0.00    -0.237 OA
ATOM     84  O   UNL A   1      45.212  36.836  29.192  1.00  0.00    -0.744 OA
ENDBRANCH  77  81
ENDBRANCH  50  74
BRANCH  62  85
ATOM     85  C   UNL A   1      39.777  30.070  32.632  1.00  0.00     0.023 A 
ATOM     86  C   UNL A   1      39.587  30.932  33.726  1.00  0.00     0.031 A 
ATOM     87  C   UNL A   1      38.637  29.614  31.945  1.00  0.00     0.131 A 
ATOM     88  C   UNL A   1      38.285  31.276  34.127  1.00  0.00     0.055 A 
ATOM     89  C   UNL A   1      37.349  30.006  32.313  1.00  0.00     0.041 A 
ATOM     90  F   UNL A   1      38.758  28.789  30.893  1.00  0.00    -0.206 F 
ATOM     91  C   UNL A   1      37.166  30.833  33.416  1.00  0.00     0.022 A 
BRANCH  88  92
ATOM     92  S   UNL A   1      38.065  32.254  35.640  1.00  0.00     0.124 S 
ATOM     93  O   UNL A   1      39.368  32.897  35.778  1.00  0.00    -0.237 OA
ATOM     94  O   UNL A   1      36.955  33.133  35.285  1.00  0.00    -0.237 OA
ATOM     95  O   UNL A   1      37.758  31.250  36.657  1.00  0.00    -0.744 OA
ENDBRANCH  88  92
ENDBRANCH  62  85
ENDBRANCH  36  37
ENDBRANCH  29  31
ENDBRANCH  28  29
ENDBRANCH  27  28
ENDBRANCH  26  27
ENDBRANCH  25  26
ENDBRANCH  24  25
ENDBRANCH  23  24
ENDBRANCH   1  23
TORSDOF 26
ENDMDL
