MODEL 1
REMARK VINA RESULT:     -10.5      0.000      0.000
REMARK SMILES C[C@@H]1Cc2ccccc2N1S(=O)(=O)c1cccc(C(=O)OCCOCCOCCOC(=O)c2ccc(-c3c4nc(c(-c5cc(S(=O)(=O)[O-])ccc5F)c5ccc([nH]5)c(-c5cc(S(=O)(=O)[O-])ccc5F)c5nc(c(-c6cc(S(=O)(=O)[O-])ccc6F)c6ccc3[nH]6)C=C5)C=C4)cc2)c1
REMARK SMILES IDX 26 1 25 2 24 3 23 4 22 5 21 6 19 7 20 8 18 9 14 10 15 11
REMARK SMILES IDX 96 12 16 13 17 14 11 15 12 16 13 17 10 18 1 19 2 20 3 21
REMARK SMILES IDX 4 22 9 23 5 24 8 25 6 26 7 27 27 28 28 29 29 30 30 31 31 32
REMARK SMILES IDX 32 33 33 34 34 35 95 36 35 37 94 38 36 39 37 40 38 41 88 42
REMARK SMILES IDX 39 43 93 44 87 45 89 46 40 47 92 48 86 49 85 50 41 52 73 53
REMARK SMILES IDX 53 54 72 55 54 56 57 57 71 58 90 59 55 60 56 61 70 63 91 64
REMARK SMILES IDX 58 65 42 66 43 67 51 68 44 69 50 70 52 71 49 72 45 73 46 74
REMARK SMILES IDX 47 75 48 76 74 77 75 78 83 79 76 80 82 81 84 82 81 83 77 84
REMARK SMILES IDX 78 85 79 86 80 87 59 88 60 89 68 90 61 91 67 92 69 93 66 94
REMARK SMILES IDX 62 95 63 96 64 97 65 98
REMARK H PARENT 89 51 57 62
REMARK Flexibility Score: inf
ROOT
ATOM      1  C   UNL A   1      44.125  41.112  27.300  1.00  0.00     0.188 C 
ENDROOT
BRANCH   1   2
ATOM      2  C   UNL A   1      44.252  40.850  25.785  1.00  0.00     0.188 C 
BRANCH   2   3
ATOM      3  O   UNL A   1      43.868  41.863  24.884  1.00  0.00    -0.376 OA
BRANCH   3   4
ATOM      4  C   UNL A   1      42.599  41.834  24.252  1.00  0.00     0.202 C 
BRANCH   4   5
ATOM      5  C   UNL A   1      42.120  42.833  23.186  1.00  0.00     0.261 C 
BRANCH   5   6
ATOM      6  O   UNL A   1      41.953  42.329  21.857  1.00  0.00    -0.460 OA
BRANCH   6   7
ATOM      7  C   UNL A   1      42.991  42.589  21.021  1.00  0.00     0.338 C 
ATOM      8  O   UNL A   1      44.056  41.993  20.978  1.00  0.00    -0.246 OA
BRANCH   7   9
ATOM      9  C   UNL A   1      42.603  43.585  19.997  1.00  0.00     0.061 A 
ATOM     10  C   UNL A   1      43.062  45.277  18.344  1.00  0.00     0.088 A 
ATOM     11  C   UNL A   1      41.691  45.358  18.049  1.00  0.00     0.022 A 
ATOM     12  C   UNL A   1      43.533  44.377  19.309  1.00  0.00     0.038 A 
ATOM     13  C   UNL A   1      40.772  44.602  18.769  1.00  0.00     0.002 A 
ATOM     14  C   UNL A   1      41.228  43.713  19.737  1.00  0.00     0.016 A 
BRANCH  10  15
ATOM     15  S   UNL A   1      44.182  46.206  17.322  1.00  0.00     0.264 S 
ATOM     16  O   UNL A   1      43.367  47.122  16.546  1.00  0.00    -0.201 OA
ATOM     17  O   UNL A   1      45.018  45.244  16.627  1.00  0.00    -0.201 OA
BRANCH  15  18
ATOM     18  N   UNL A   1      45.220  47.135  18.324  1.00  0.00    -0.263 N 
ATOM     19  C   UNL A   1      44.398  49.507  18.275  1.00  0.00     0.032 C 
ATOM     20  C   UNL A   1      44.433  48.213  19.073  1.00  0.00     0.101 C 
ATOM     21  C   UNL A   1      45.103  48.384  20.450  1.00  0.00     0.063 C 
ATOM     22  C   UNL A   1      45.987  47.188  20.534  1.00  0.00    -0.021 A 
ATOM     23  C   UNL A   1      46.057  46.512  19.317  1.00  0.00     0.055 A 
ATOM     24  C   UNL A   1      46.760  46.815  21.627  1.00  0.00     0.006 A 
ATOM     25  C   UNL A   1      47.012  45.527  19.144  1.00  0.00     0.027 A 
ATOM     26  C   UNL A   1      47.650  45.755  21.479  1.00  0.00     0.000 A 
ATOM     27  C   UNL A   1      47.785  45.123  20.239  1.00  0.00     0.002 A 
ENDBRANCH  15  18
ENDBRANCH  10  15
ENDBRANCH   7   9
ENDBRANCH   6   7
ENDBRANCH   5   6
ENDBRANCH   4   5
ENDBRANCH   3   4
ENDBRANCH   2   3
ENDBRANCH   1   2
BRANCH   1  28
ATOM     28  O   UNL A   1      44.584  40.165  28.245  1.00  0.00    -0.376 OA
BRANCH  28  29
ATOM     29  C   UNL A   1      45.976  40.030  28.486  1.00  0.00     0.202 C 
BRANCH  29  30
ATOM     30  C   UNL A   1      46.864  39.056  27.698  1.00  0.00     0.261 C 
BRANCH  30  31
ATOM     31  O   UNL A   1      46.427  37.694  27.677  1.00  0.00    -0.460 OA
BRANCH  31  32
ATOM     32  C   UNL A   1      46.932  36.910  28.663  1.00  0.00     0.338 C 
ATOM     33  O   UNL A   1      47.727  37.232  29.530  1.00  0.00    -0.246 OA
BRANCH  32  34
ATOM     34  C   UNL A   1      46.207  35.627  28.657  1.00  0.00     0.060 A 
ATOM     35  C   UNL A   1      45.184  35.394  27.740  1.00  0.00     0.016 A 
ATOM     36  C   UNL A   1      46.567  34.646  29.592  1.00  0.00     0.016 A 
ATOM     37  C   UNL A   1      44.524  34.163  27.755  1.00  0.00     0.010 A 
ATOM     38  C   UNL A   1      45.899  33.422  29.612  1.00  0.00     0.010 A 
ATOM     39  C   UNL A   1      44.881  33.167  28.683  1.00  0.00    -0.014 A 
BRANCH  39  40
ATOM     40  C   UNL A   1      44.310  31.806  28.556  1.00  0.00     0.031 A 
ATOM     41  C   UNL A   1      43.016  31.420  29.201  1.00  0.00     0.074 A 
ATOM     42  C   UNL A   1      45.008  30.897  27.849  1.00  0.00     0.049 A 
ATOM     43  N   UNL A   1      42.346  30.303  29.078  1.00  0.00    -0.248 NA
ATOM     44  C   UNL A   1      42.399  32.399  30.107  1.00  0.00     0.031 C 
ATOM     45  C   UNL A   1      46.311  31.152  27.235  1.00  0.00     0.029 A 
ATOM     46  N   UNL A   1      44.731  29.593  27.526  1.00  0.00    -0.354 N 
ATOM     47  C   UNL A   1      41.218  30.444  29.877  1.00  0.00     0.074 A 
ATOM     48  C   UNL A   1      41.321  31.739  30.518  1.00  0.00     0.031 C 
ATOM     49  C   UNL A   1      46.711  30.048  26.590  1.00  0.00     0.029 A 
ATOM     50  C   UNL A   1      45.709  28.998  26.766  1.00  0.00     0.049 A 
ATOM     51  H   UNL A   1      43.912  29.129  27.812  1.00  0.00     0.167 HD
ATOM     52  C   UNL A   1      40.191  29.574  30.036  1.00  0.00     0.034 A 
ATOM     53  C   UNL A   1      45.795  27.752  26.256  1.00  0.00     0.034 A 
ATOM     54  C   UNL A   1      40.118  28.286  29.387  1.00  0.00     0.049 A 
ATOM     55  C   UNL A   1      44.637  26.806  26.440  1.00  0.00     0.074 A 
ATOM     56  C   UNL A   1      39.073  27.378  29.415  1.00  0.00     0.029 A 
ATOM     57  N   UNL A   1      41.121  27.711  28.618  1.00  0.00    -0.354 N 
ATOM     58  N   UNL A   1      43.505  27.008  27.071  1.00  0.00    -0.248 NA
ATOM     59  C   UNL A   1      44.752  25.476  25.828  1.00  0.00     0.031 C 
ATOM     60  C   UNL A   1      39.478  26.223  28.747  1.00  0.00     0.029 A 
ATOM     61  C   UNL A   1      40.738  26.441  28.212  1.00  0.00     0.049 A 
ATOM     62  H   UNL A   1      41.978  28.141  28.395  1.00  0.00     0.167 HD
ATOM     63  C   UNL A   1      42.764  25.840  26.916  1.00  0.00     0.074 A 
ATOM     64  C   UNL A   1      43.567  24.946  26.108  1.00  0.00     0.031 C 
ATOM     65  C   UNL A   1      41.533  25.543  27.404  1.00  0.00     0.034 A 
BRANCH  52  66
ATOM     66  C   UNL A   1      39.032  29.963  30.926  1.00  0.00     0.023 A 
ATOM     67  C   UNL A   1      38.128  30.958  30.507  1.00  0.00     0.031 A 
ATOM     68  C   UNL A   1      38.926  29.482  32.244  1.00  0.00     0.131 A 
ATOM     69  C   UNL A   1      37.188  31.472  31.409  1.00  0.00     0.055 A 
ATOM     70  C   UNL A   1      37.956  29.964  33.124  1.00  0.00     0.041 A 
ATOM     71  F   UNL A   1      39.771  28.543  32.697  1.00  0.00    -0.206 F 
ATOM     72  C   UNL A   1      37.091  30.975  32.713  1.00  0.00     0.022 A 
BRANCH  69  73
ATOM     73  S   UNL A   1      36.116  32.863  30.956  1.00  0.00     0.124 S 
ATOM     74  O   UNL A   1      36.999  33.656  30.104  1.00  0.00    -0.237 OA
ATOM     75  O   UNL A   1      35.020  32.190  30.262  1.00  0.00    -0.237 OA
ATOM     76  O   UNL A   1      35.773  33.474  32.235  1.00  0.00    -0.744 OA
ENDBRANCH  69  73
ENDBRANCH  52  66
BRANCH  53  77
ATOM     77  C   UNL A   1      47.005  27.392  25.464  1.00  0.00     0.023 A 
ATOM     78  C   UNL A   1      47.169  27.878  24.153  1.00  0.00     0.031 A 
ATOM     79  C   UNL A   1      47.923  26.441  25.937  1.00  0.00     0.131 A 
ATOM     80  C   UNL A   1      48.169  27.344  23.334  1.00  0.00     0.055 A 
ATOM     81  C   UNL A   1      48.969  25.971  25.142  1.00  0.00     0.041 A 
ATOM     82  F   UNL A   1      47.796  25.935  27.174  1.00  0.00    -0.206 F 
ATOM     83  C   UNL A   1      49.083  26.407  23.825  1.00  0.00     0.022 A 
BRANCH  80  84
ATOM     84  S   UNL A   1      48.214  27.727  21.560  1.00  0.00     0.124 S 
ATOM     85  O   UNL A   1      46.885  28.287  21.334  1.00  0.00    -0.237 OA
ATOM     86  O   UNL A   1      49.321  28.677  21.490  1.00  0.00    -0.237 OA
ATOM     87  O   UNL A   1      48.467  26.434  20.934  1.00  0.00    -0.744 OA
ENDBRANCH  80  84
ENDBRANCH  53  77
BRANCH  65  88
ATOM     88  C   UNL A   1      40.937  24.185  27.103  1.00  0.00     0.023 A 
ATOM     89  C   UNL A   1      39.734  24.089  26.375  1.00  0.00     0.031 A 
ATOM     90  C   UNL A   1      41.458  23.010  27.673  1.00  0.00     0.131 A 
ATOM     91  C   UNL A   1      39.066  22.860  26.284  1.00  0.00     0.055 A 
ATOM     92  C   UNL A   1      40.819  21.777  27.531  1.00  0.00     0.041 A 
ATOM     93  F   UNL A   1      42.596  23.046  28.386  1.00  0.00    -0.206 F 
ATOM     94  C   UNL A   1      39.608  21.702  26.849  1.00  0.00     0.022 A 
BRANCH  91  95
ATOM     95  S   UNL A   1      37.425  22.740  25.519  1.00  0.00     0.124 S 
ATOM     96  O   UNL A   1      36.590  23.452  26.484  1.00  0.00    -0.237 OA
ATOM     97  O   UNL A   1      37.629  23.428  24.245  1.00  0.00    -0.237 OA
ATOM     98  O   UNL A   1      37.183  21.305  25.426  1.00  0.00    -0.744 OA
ENDBRANCH  91  95
ENDBRANCH  65  88
ENDBRANCH  39  40
ENDBRANCH  32  34
ENDBRANCH  31  32
ENDBRANCH  30  31
ENDBRANCH  29  30
ENDBRANCH  28  29
ENDBRANCH   1  28
TORSDOF 22
ENDMDL
MODEL 2
REMARK VINA RESULT:     -10.3      1.216      2.193
REMARK SMILES C[C@@H]1Cc2ccccc2N1S(=O)(=O)c1cccc(C(=O)OCCOCCOCCOC(=O)c2ccc(-c3c4nc(c(-c5cc(S(=O)(=O)[O-])ccc5F)c5ccc([nH]5)c(-c5cc(S(=O)(=O)[O-])ccc5F)c5nc(c(-c6cc(S(=O)(=O)[O-])ccc6F)c6ccc3[nH]6)C=C5)C=C4)cc2)c1
REMARK SMILES IDX 26 1 25 2 24 3 23 4 22 5 21 6 19 7 20 8 18 9 14 10 15 11
REMARK SMILES IDX 96 12 16 13 17 14 11 15 12 16 13 17 10 18 1 19 2 20 3 21
REMARK SMILES IDX 4 22 9 23 5 24 8 25 6 26 7 27 27 28 28 29 29 30 30 31 31 32
REMARK SMILES IDX 32 33 33 34 34 35 95 36 35 37 94 38 36 39 37 40 38 41 88 42
REMARK SMILES IDX 39 43 93 44 87 45 89 46 40 47 92 48 86 49 85 50 41 52 73 53
REMARK SMILES IDX 53 54 72 55 54 56 57 57 71 58 90 59 55 60 56 61 70 63 91 64
REMARK SMILES IDX 58 65 42 66 43 67 51 68 44 69 50 70 52 71 49 72 45 73 46 74
REMARK SMILES IDX 47 75 48 76 74 77 75 78 83 79 76 80 82 81 84 82 81 83 77 84
REMARK SMILES IDX 78 85 79 86 80 87 59 88 60 89 68 90 61 91 67 92 69 93 66 94
REMARK SMILES IDX 62 95 63 96 64 97 65 98
REMARK H PARENT 89 51 57 62
REMARK Flexibility Score: inf
ROOT
ATOM      1  C   UNL A   1      45.774  40.593  25.625  1.00  0.00     0.188 C 
ENDROOT
BRANCH   1   2
ATOM      2  C   UNL A   1      44.342  41.024  26.002  1.00  0.00     0.188 C 
BRANCH   2   3
ATOM      3  O   UNL A   1      43.444  41.375  24.974  1.00  0.00    -0.376 OA
BRANCH   3   4
ATOM      4  C   UNL A   1      43.688  42.502  24.147  1.00  0.00     0.202 C 
BRANCH   4   5
ATOM      5  C   UNL A   1      44.203  43.865  24.640  1.00  0.00     0.261 C 
BRANCH   5   6
ATOM      6  O   UNL A   1      44.276  44.916  23.671  1.00  0.00    -0.460 OA
BRANCH   6   7
ATOM      7  C   UNL A   1      45.534  45.207  23.250  1.00  0.00     0.338 C 
ATOM      8  O   UNL A   1      46.479  45.527  23.953  1.00  0.00    -0.246 OA
BRANCH   7   9
ATOM      9  C   UNL A   1      45.690  44.895  21.811  1.00  0.00     0.061 A 
ATOM     10  C   UNL A   1      44.867  44.546  19.573  1.00  0.00     0.088 A 
ATOM     11  C   UNL A   1      46.184  44.365  19.119  1.00  0.00     0.022 A 
ATOM     12  C   UNL A   1      44.609  44.831  20.921  1.00  0.00     0.038 A 
ATOM     13  C   UNL A   1      47.245  44.386  20.018  1.00  0.00     0.002 A 
ATOM     14  C   UNL A   1      46.999  44.656  21.361  1.00  0.00     0.016 A 
BRANCH  10  15
ATOM     15  S   UNL A   1      43.574  44.596  18.355  1.00  0.00     0.264 S 
ATOM     16  O   UNL A   1      42.326  44.409  19.072  1.00  0.00    -0.201 OA
ATOM     17  O   UNL A   1      43.937  43.652  17.313  1.00  0.00    -0.201 OA
BRANCH  15  18
ATOM     18  N   UNL A   1      43.543  46.150  17.628  1.00  0.00    -0.263 N 
ATOM     19  C   UNL A   1      41.635  46.186  15.996  1.00  0.00     0.032 C 
ATOM     20  C   UNL A   1      42.102  46.606  17.380  1.00  0.00     0.101 C 
ATOM     21  C   UNL A   1      42.075  48.134  17.577  1.00  0.00     0.063 C 
ATOM     22  C   UNL A   1      43.380  48.402  18.243  1.00  0.00    -0.021 A 
ATOM     23  C   UNL A   1      44.200  47.276  18.240  1.00  0.00     0.055 A 
ATOM     24  C   UNL A   1      43.819  49.631  18.720  1.00  0.00     0.006 A 
ATOM     25  C   UNL A   1      45.531  47.407  18.597  1.00  0.00     0.027 A 
ATOM     26  C   UNL A   1      45.131  49.735  19.173  1.00  0.00     0.000 A 
ATOM     27  C   UNL A   1      45.987  48.632  19.099  1.00  0.00     0.002 A 
ENDBRANCH  15  18
ENDBRANCH  10  15
ENDBRANCH   7   9
ENDBRANCH   6   7
ENDBRANCH   5   6
ENDBRANCH   4   5
ENDBRANCH   3   4
ENDBRANCH   2   3
ENDBRANCH   1   2
BRANCH   1  28
ATOM     28  O   UNL A   1      46.241  39.288  25.907  1.00  0.00    -0.376 OA
BRANCH  28  29
ATOM     29  C   UNL A   1      47.124  39.077  26.998  1.00  0.00     0.202 C 
BRANCH  29  30
ATOM     30  C   UNL A   1      47.472  37.678  27.525  1.00  0.00     0.261 C 
BRANCH  30  31
ATOM     31  O   UNL A   1      47.171  37.440  28.903  1.00  0.00    -0.460 OA
BRANCH  31  32
ATOM     32  C   UNL A   1      45.852  37.293  29.190  1.00  0.00     0.338 C 
ATOM     33  O   UNL A   1      45.043  38.176  29.423  1.00  0.00    -0.246 OA
BRANCH  32  34
ATOM     34  C   UNL A   1      45.482  35.882  28.979  1.00  0.00     0.060 A 
ATOM     35  C   UNL A   1      45.987  34.883  29.809  1.00  0.00     0.016 A 
ATOM     36  C   UNL A   1      44.612  35.566  27.925  1.00  0.00     0.016 A 
ATOM     37  C   UNL A   1      45.608  33.558  29.587  1.00  0.00     0.010 A 
ATOM     38  C   UNL A   1      44.245  34.240  27.698  1.00  0.00     0.010 A 
ATOM     39  C   UNL A   1      44.729  33.227  28.538  1.00  0.00    -0.014 A 
BRANCH  39  40
ATOM     40  C   UNL A   1      44.186  31.852  28.440  1.00  0.00     0.031 A 
ATOM     41  C   UNL A   1      42.901  31.453  29.095  1.00  0.00     0.074 A 
ATOM     42  C   UNL A   1      44.902  30.943  27.752  1.00  0.00     0.049 A 
ATOM     43  N   UNL A   1      42.254  30.320  28.996  1.00  0.00    -0.248 NA
ATOM     44  C   UNL A   1      42.264  32.438  29.980  1.00  0.00     0.031 C 
ATOM     45  C   UNL A   1      46.200  31.213  27.132  1.00  0.00     0.029 A 
ATOM     46  N   UNL A   1      44.653  29.628  27.457  1.00  0.00    -0.354 N 
ATOM     47  C   UNL A   1      41.124  30.454  29.792  1.00  0.00     0.074 A 
ATOM     48  C   UNL A   1      41.200  31.764  30.406  1.00  0.00     0.031 C 
ATOM     49  C   UNL A   1      46.622  30.104  26.510  1.00  0.00     0.029 A 
ATOM     50  C   UNL A   1      45.643  29.037  26.709  1.00  0.00     0.049 A 
ATOM     51  H   UNL A   1      43.844  29.153  27.753  1.00  0.00     0.167 HD
ATOM     52  C   UNL A   1      40.115  29.567  29.972  1.00  0.00     0.034 A 
ATOM     53  C   UNL A   1      45.755  27.782  26.226  1.00  0.00     0.034 A 
ATOM     54  C   UNL A   1      40.069  28.264  29.349  1.00  0.00     0.049 A 
ATOM     55  C   UNL A   1      44.617  26.817  26.431  1.00  0.00     0.074 A 
ATOM     56  C   UNL A   1      39.044  27.335  29.398  1.00  0.00     0.029 A 
ATOM     57  N   UNL A   1      41.084  27.694  28.592  1.00  0.00    -0.354 N 
ATOM     58  N   UNL A   1      43.481  27.008  27.058  1.00  0.00    -0.248 NA
ATOM     59  C   UNL A   1      44.759  25.477  25.847  1.00  0.00     0.031 C 
ATOM     60  C   UNL A   1      39.473  26.175  28.753  1.00  0.00     0.029 A 
ATOM     61  C   UNL A   1      40.727  26.408  28.213  1.00  0.00     0.049 A 
ATOM     62  H   UNL A   1      41.931  28.137  28.359  1.00  0.00     0.167 HD
ATOM     63  C   UNL A   1      42.765  25.822  26.928  1.00  0.00     0.074 A 
ATOM     64  C   UNL A   1      43.586  24.929  26.138  1.00  0.00     0.031 C 
ATOM     65  C   UNL A   1      41.541  25.509  27.424  1.00  0.00     0.034 A 
BRANCH  52  66
ATOM     66  C   UNL A   1      38.949  29.950  30.853  1.00  0.00     0.023 A 
ATOM     67  C   UNL A   1      38.042  30.940  30.428  1.00  0.00     0.031 A 
ATOM     68  C   UNL A   1      38.837  29.470  32.171  1.00  0.00     0.131 A 
ATOM     69  C   UNL A   1      37.094  31.450  31.324  1.00  0.00     0.055 A 
ATOM     70  C   UNL A   1      37.859  29.947  33.045  1.00  0.00     0.041 A 
ATOM     71  F   UNL A   1      39.685  28.535  32.631  1.00  0.00    -0.206 F 
ATOM     72  C   UNL A   1      36.992  30.953  32.628  1.00  0.00     0.022 A 
BRANCH  69  73
ATOM     73  S   UNL A   1      36.017  32.834  30.863  1.00  0.00     0.124 S 
ATOM     74  O   UNL A   1      36.338  33.818  31.894  1.00  0.00    -0.237 OA
ATOM     75  O   UNL A   1      36.494  33.159  29.521  1.00  0.00    -0.237 OA
ATOM     76  O   UNL A   1      34.673  32.274  30.936  1.00  0.00    -0.744 OA
ENDBRANCH  69  73
ENDBRANCH  52  66
BRANCH  53  77
ATOM     77  C   UNL A   1      46.971  27.431  25.440  1.00  0.00     0.023 A 
ATOM     78  C   UNL A   1      47.141  27.923  24.132  1.00  0.00     0.031 A 
ATOM     79  C   UNL A   1      47.891  26.484  25.916  1.00  0.00     0.131 A 
ATOM     80  C   UNL A   1      48.149  27.397  23.317  1.00  0.00     0.055 A 
ATOM     81  C   UNL A   1      48.945  26.021  25.126  1.00  0.00     0.041 A 
ATOM     82  F   UNL A   1      47.758  25.972  27.150  1.00  0.00    -0.206 F 
ATOM     83  C   UNL A   1      49.065  26.462  23.811  1.00  0.00     0.022 A 
BRANCH  80  84
ATOM     84  S   UNL A   1      48.204  27.786  21.545  1.00  0.00     0.124 S 
ATOM     85  O   UNL A   1      49.281  28.769  21.481  1.00  0.00    -0.237 OA
ATOM     86  O   UNL A   1      48.504  26.480  20.964  1.00  0.00    -0.237 OA
ATOM     87  O   UNL A   1      46.867  28.297  21.262  1.00  0.00    -0.744 OA
ENDBRANCH  80  84
ENDBRANCH  53  77
BRANCH  65  88
ATOM     88  C   UNL A   1      40.973  24.133  27.152  1.00  0.00     0.023 A 
ATOM     89  C   UNL A   1      39.829  23.990  26.341  1.00  0.00     0.031 A 
ATOM     90  C   UNL A   1      41.452  22.995  27.822  1.00  0.00     0.131 A 
ATOM     91  C   UNL A   1      39.174  22.754  26.265  1.00  0.00     0.055 A 
ATOM     92  C   UNL A   1      40.829  21.751  27.699  1.00  0.00     0.041 A 
ATOM     93  F   UNL A   1      42.532  23.077  28.617  1.00  0.00    -0.206 F 
ATOM     94  C   UNL A   1      39.674  21.632  26.932  1.00  0.00     0.022 A 
BRANCH  91  95
ATOM     95  S   UNL A   1      37.596  22.582  25.385  1.00  0.00     0.124 S 
ATOM     96  O   UNL A   1      36.638  22.546  26.488  1.00  0.00    -0.237 OA
ATOM     97  O   UNL A   1      37.565  23.796  24.571  1.00  0.00    -0.237 OA
ATOM     98  O   UNL A   1      37.740  21.333  24.645  1.00  0.00    -0.744 OA
ENDBRANCH  91  95
ENDBRANCH  65  88
ENDBRANCH  39  40
ENDBRANCH  32  34
ENDBRANCH  31  32
ENDBRANCH  30  31
ENDBRANCH  29  30
ENDBRANCH  28  29
ENDBRANCH   1  28
TORSDOF 22
ENDMDL
MODEL 3
REMARK VINA RESULT:     -10.0      7.251     13.974
REMARK SMILES C[C@@H]1Cc2ccccc2N1S(=O)(=O)c1cccc(C(=O)OCCOCCOCCOC(=O)c2ccc(-c3c4nc(c(-c5cc(S(=O)(=O)[O-])ccc5F)c5ccc([nH]5)c(-c5cc(S(=O)(=O)[O-])ccc5F)c5nc(c(-c6cc(S(=O)(=O)[O-])ccc6F)c6ccc3[nH]6)C=C5)C=C4)cc2)c1
REMARK SMILES IDX 26 1 25 2 24 3 23 4 22 5 21 6 19 7 20 8 18 9 14 10 15 11
REMARK SMILES IDX 96 12 16 13 17 14 11 15 12 16 13 17 10 18 1 19 2 20 3 21
REMARK SMILES IDX 4 22 9 23 5 24 8 25 6 26 7 27 27 28 28 29 29 30 30 31 31 32
REMARK SMILES IDX 32 33 33 34 34 35 95 36 35 37 94 38 36 39 37 40 38 41 88 42
REMARK SMILES IDX 39 43 93 44 87 45 89 46 40 47 92 48 86 49 85 50 41 52 73 53
REMARK SMILES IDX 53 54 72 55 54 56 57 57 71 58 90 59 55 60 56 61 70 63 91 64
REMARK SMILES IDX 58 65 42 66 43 67 51 68 44 69 50 70 52 71 49 72 45 73 46 74
REMARK SMILES IDX 47 75 48 76 74 77 75 78 83 79 76 80 82 81 84 82 81 83 77 84
REMARK SMILES IDX 78 85 79 86 80 87 59 88 60 89 68 90 61 91 67 92 69 93 66 94
REMARK SMILES IDX 62 95 63 96 64 97 65 98
REMARK H PARENT 89 51 57 62
REMARK Flexibility Score: inf
ROOT
ATOM      1  C   UNL A   1      49.776  26.693  23.951  1.00  0.00     0.188 C 
ENDROOT
BRANCH   1   2
ATOM      2  C   UNL A   1      48.271  26.599  24.275  1.00  0.00     0.188 C 
BRANCH   2   3
ATOM      3  O   UNL A   1      47.536  25.501  23.786  1.00  0.00    -0.376 OA
BRANCH   3   4
ATOM      4  C   UNL A   1      47.140  24.447  24.648  1.00  0.00     0.202 C 
BRANCH   4   5
ATOM      5  C   UNL A   1      46.370  23.190  24.210  1.00  0.00     0.261 C 
BRANCH   5   6
ATOM      6  O   UNL A   1      46.042  22.245  25.234  1.00  0.00    -0.460 OA
BRANCH   6   7
ATOM      7  C   UNL A   1      44.764  21.788  25.193  1.00  0.00     0.338 C 
ATOM      8  O   UNL A   1      44.388  20.724  24.726  1.00  0.00    -0.246 OA
BRANCH   7   9
ATOM      9  C   UNL A   1      43.868  22.665  25.979  1.00  0.00     0.061 A 
ATOM     10  C   UNL A   1      43.408  24.438  27.546  1.00  0.00     0.088 A 
ATOM     11  C   UNL A   1      42.030  24.275  27.321  1.00  0.00     0.022 A 
ATOM     12  C   UNL A   1      44.340  23.646  26.863  1.00  0.00     0.038 A 
ATOM     13  C   UNL A   1      41.571  23.270  26.477  1.00  0.00     0.002 A 
ATOM     14  C   UNL A   1      42.488  22.470  25.803  1.00  0.00     0.016 A 
BRANCH  10  15
ATOM     15  S   UNL A   1      43.922  25.799  28.565  1.00  0.00     0.264 S 
ATOM     16  O   UNL A   1      45.370  25.729  28.645  1.00  0.00    -0.201 OA
ATOM     17  O   UNL A   1      43.144  25.731  29.789  1.00  0.00    -0.201 OA
BRANCH  15  18
ATOM     18  N   UNL A   1      43.503  27.273  27.793  1.00  0.00    -0.263 N 
ATOM     19  C   UNL A   1      45.273  27.763  26.081  1.00  0.00     0.032 C 
ATOM     20  C   UNL A   1      43.867  27.232  26.307  1.00  0.00     0.101 C 
ATOM     21  C   UNL A   1      42.797  28.050  25.559  1.00  0.00     0.063 C 
ATOM     22  C   UNL A   1      41.731  28.212  26.587  1.00  0.00    -0.021 A 
ATOM     23  C   UNL A   1      42.159  27.789  27.844  1.00  0.00     0.055 A 
ATOM     24  C   UNL A   1      40.492  28.811  26.395  1.00  0.00     0.006 A 
ATOM     25  C   UNL A   1      41.392  28.088  28.955  1.00  0.00     0.027 A 
ATOM     26  C   UNL A   1      39.677  29.019  27.505  1.00  0.00     0.000 A 
ATOM     27  C   UNL A   1      40.132  28.672  28.781  1.00  0.00     0.002 A 
ENDBRANCH  15  18
ENDBRANCH  10  15
ENDBRANCH   7   9
ENDBRANCH   6   7
ENDBRANCH   5   6
ENDBRANCH   4   5
ENDBRANCH   3   4
ENDBRANCH   2   3
ENDBRANCH   1   2
BRANCH   1  28
ATOM     28  O   UNL A   1      50.751  26.565  24.968  1.00  0.00    -0.376 OA
BRANCH  28  29
ATOM     29  C   UNL A   1      52.126  26.704  24.647  1.00  0.00     0.202 C 
BRANCH  29  30
ATOM     30  C   UNL A   1      53.235  26.652  25.707  1.00  0.00     0.261 C 
BRANCH  30  31
ATOM     31  O   UNL A   1      53.049  27.501  26.844  1.00  0.00    -0.460 OA
BRANCH  31  32
ATOM     32  C   UNL A   1      53.029  26.866  28.044  1.00  0.00     0.338 C 
ATOM     33  O   UNL A   1      53.972  26.358  28.626  1.00  0.00    -0.246 OA
BRANCH  32  34
ATOM     34  C   UNL A   1      51.702  27.060  28.653  1.00  0.00     0.060 A 
ATOM     35  C   UNL A   1      51.516  27.997  29.668  1.00  0.00     0.016 A 
ATOM     36  C   UNL A   1      50.629  26.284  28.191  1.00  0.00     0.016 A 
ATOM     37  C   UNL A   1      50.242  28.163  30.216  1.00  0.00     0.010 A 
ATOM     38  C   UNL A   1      49.361  26.443  28.748  1.00  0.00     0.010 A 
ATOM     39  C   UNL A   1      49.156  27.396  29.756  1.00  0.00    -0.014 A 
BRANCH  39  40
ATOM     40  C   UNL A   1      47.783  27.721  30.207  1.00  0.00     0.031 A 
ATOM     41  C   UNL A   1      47.071  26.913  31.247  1.00  0.00     0.074 A 
ATOM     42  C   UNL A   1      47.167  28.771  29.632  1.00  0.00     0.049 A 
ATOM     43  N   UNL A   1      45.918  27.153  31.816  1.00  0.00    -0.248 NA
ATOM     44  C   UNL A   1      47.724  25.678  31.700  1.00  0.00     0.031 C 
ATOM     45  C   UNL A   1      47.746  29.584  28.562  1.00  0.00     0.029 A 
ATOM     46  N   UNL A   1      45.937  29.335  29.856  1.00  0.00    -0.354 N 
ATOM     47  C   UNL A   1      45.707  26.108  32.707  1.00  0.00     0.074 A 
ATOM     48  C   UNL A   1      46.833  25.208  32.567  1.00  0.00     0.031 C 
ATOM     49  C   UNL A   1      46.883  30.556  28.239  1.00  0.00     0.029 A 
ATOM     50  C   UNL A   1      45.678  30.422  29.056  1.00  0.00     0.049 A 
ATOM     51  H   UNL A   1      45.301  28.994  30.525  1.00  0.00     0.167 HD
ATOM     52  C   UNL A   1      44.675  25.939  33.569  1.00  0.00     0.034 A 
ATOM     53  C   UNL A   1      44.600  31.230  28.985  1.00  0.00     0.034 A 
ATOM     54  C   UNL A   1      43.562  26.853  33.684  1.00  0.00     0.049 A 
ATOM     55  C   UNL A   1      43.470  31.026  29.959  1.00  0.00     0.074 A 
ATOM     56  C   UNL A   1      42.520  26.812  34.593  1.00  0.00     0.029 A 
ATOM     57  N   UNL A   1      43.329  27.948  32.863  1.00  0.00    -0.354 N 
ATOM     58  N   UNL A   1      43.354  30.123  30.904  1.00  0.00    -0.248 NA
ATOM     59  C   UNL A   1      42.338  31.958  29.880  1.00  0.00     0.031 C 
ATOM     60  C   UNL A   1      41.613  27.820  34.266  1.00  0.00     0.029 A 
ATOM     61  C   UNL A   1      42.133  28.557  33.214  1.00  0.00     0.049 A 
ATOM     62  H   UNL A   1      43.924  28.247  32.138  1.00  0.00     0.167 HD
ATOM     63  C   UNL A   1      42.146  30.389  31.544  1.00  0.00     0.074 A 
ATOM     64  C   UNL A   1      41.584  31.555  30.895  1.00  0.00     0.031 C 
ATOM     65  C   UNL A   1      41.565  29.722  32.572  1.00  0.00     0.034 A 
BRANCH  52  66
ATOM     66  C   UNL A   1      44.679  24.741  34.490  1.00  0.00     0.023 A 
ATOM     67  C   UNL A   1      45.266  24.838  35.767  1.00  0.00     0.031 A 
ATOM     68  C   UNL A   1      44.266  23.472  34.045  1.00  0.00     0.131 A 
ATOM     69  C   UNL A   1      45.465  23.683  36.534  1.00  0.00     0.055 A 
ATOM     70  C   UNL A   1      44.423  22.330  34.833  1.00  0.00     0.041 A 
ATOM     71  F   UNL A   1      43.713  23.322  32.831  1.00  0.00    -0.206 F 
ATOM     72  C   UNL A   1      45.040  22.431  36.078  1.00  0.00     0.022 A 
BRANCH  69  73
ATOM     73  S   UNL A   1      46.360  23.746  38.110  1.00  0.00     0.124 S 
ATOM     74  O   UNL A   1      45.402  23.126  39.023  1.00  0.00    -0.237 OA
ATOM     75  O   UNL A   1      47.549  22.948  37.818  1.00  0.00    -0.237 OA
ATOM     76  O   UNL A   1      46.592  25.169  38.327  1.00  0.00    -0.744 OA
ENDBRANCH  69  73
ENDBRANCH  52  66
BRANCH  53  77
ATOM     77  C   UNL A   1      44.611  32.341  27.992  1.00  0.00     0.023 A 
ATOM     78  C   UNL A   1      44.971  33.644  28.386  1.00  0.00     0.031 A 
ATOM     79  C   UNL A   1      44.115  32.155  26.692  1.00  0.00     0.131 A 
ATOM     80  C   UNL A   1      44.742  34.719  27.520  1.00  0.00     0.055 A 
ATOM     81  C   UNL A   1      43.965  33.220  25.803  1.00  0.00     0.041 A 
ATOM     82  F   UNL A   1      43.742  30.934  26.279  1.00  0.00    -0.206 F 
ATOM     83  C   UNL A   1      44.258  34.515  26.224  1.00  0.00     0.022 A 
BRANCH  80  84
ATOM     84  S   UNL A   1      44.909  36.429  28.105  1.00  0.00     0.124 S 
ATOM     85  O   UNL A   1      46.342  36.663  27.959  1.00  0.00    -0.237 OA
ATOM     86  O   UNL A   1      44.051  37.148  27.167  1.00  0.00    -0.237 OA
ATOM     87  O   UNL A   1      44.417  36.375  29.477  1.00  0.00    -0.744 OA
ENDBRANCH  80  84
ENDBRANCH  53  77
BRANCH  65  88
ATOM     88  C   UNL A   1      40.228  30.205  33.093  1.00  0.00     0.023 A 
ATOM     89  C   UNL A   1      40.178  31.107  34.175  1.00  0.00     0.031 A 
ATOM     90  C   UNL A   1      39.019  29.652  32.639  1.00  0.00     0.131 A 
ATOM     91  C   UNL A   1      38.954  31.385  34.799  1.00  0.00     0.055 A 
ATOM     92  C   UNL A   1      37.794  29.976  33.227  1.00  0.00     0.041 A 
ATOM     93  F   UNL A   1      39.010  28.779  31.618  1.00  0.00    -0.206 F 
ATOM     94  C   UNL A   1      37.761  30.832  34.324  1.00  0.00     0.022 A 
BRANCH  91  95
ATOM     95  S   UNL A   1      38.879  32.390  36.308  1.00  0.00     0.124 S 
ATOM     96  O   UNL A   1      39.016  33.744  35.776  1.00  0.00    -0.237 OA
ATOM     97  O   UNL A   1      37.556  32.057  36.833  1.00  0.00    -0.237 OA
ATOM     98  O   UNL A   1      40.007  31.918  37.103  1.00  0.00    -0.744 OA
ENDBRANCH  91  95
ENDBRANCH  65  88
ENDBRANCH  39  40
ENDBRANCH  32  34
ENDBRANCH  31  32
ENDBRANCH  30  31
ENDBRANCH  29  30
ENDBRANCH  28  29
ENDBRANCH   1  28
TORSDOF 22
ENDMDL
