MODEL 1
REMARK VINA RESULT:      -9.5      0.000      0.000
REMARK SMILES Cc1ccccc1C(=O)Nc1cc(C(=O)OCCOCCOCCOC(=O)c2ccc(-c3c4nc(c(-c5cc(S(=O)(=O)[O-])ccc5F)c5ccc([nH]5)c(-c5cc(S(=O)(=O)[O-])ccc5F)c5nc(c(-c6cc(S(=O)(=O)[O-])ccc6F)c6ccc3[nH]6)C=C5)C=C4)cc2)ccc1N1CC[NH+](CC(=O)Nc2ccc(F)cc2)CC1
REMARK SMILES IDX 20 1 19 2 18 3 17 4 16 5 14 6 15 7 13 8 11 9 12 10 93 11
REMARK SMILES IDX 92 12 91 13 10 14 8 15 9 16 7 18 1 19 2 20 3 21 4 22 6 23
REMARK SMILES IDX 5 24 94 25 95 26 110 27 96 28 109 29 97 30 98 32 99 33
REMARK SMILES IDX 100 34 101 35 102 37 103 38 108 39 104 40 107 41 105 42
REMARK SMILES IDX 106 43 21 44 22 45 23 46 24 47 25 48 26 49 27 50 28 51 29 52
REMARK SMILES IDX 90 53 30 54 89 55 31 56 32 57 33 58 83 59 34 60 88 61 82 62
REMARK SMILES IDX 84 63 35 64 87 65 81 66 80 67 36 69 68 70 48 71 67 72 49 73
REMARK SMILES IDX 52 74 66 75 85 76 50 77 51 78 65 80 86 81 53 82 37 83 38 84
REMARK SMILES IDX 46 85 39 86 45 87 47 88 44 89 40 90 41 91 42 92 43 93 69 94
REMARK SMILES IDX 70 95 78 96 71 97 77 98 79 99 76 100 72 101 73 102 74 103
REMARK SMILES IDX 75 104 54 105 55 106 63 107 56 108 62 109 64 110 61 111
REMARK SMILES IDX 57 112 58 113 59 114 60 115
REMARK H PARENT 10 17 97 31 101 36 84 68 52 79
REMARK Flexibility Score: inf
ROOT
ATOM      1  C   UNL A   1      40.255  34.303  30.487  1.00  0.00     0.188 C 
ENDROOT
BRANCH   1   2
ATOM      2  O   UNL A   1      41.019  33.166  30.114  1.00  0.00    -0.376 OA
BRANCH   2   3
ATOM      3  C   UNL A   1      42.367  33.566  29.947  1.00  0.00     0.202 C 
BRANCH   3   4
ATOM      4  C   UNL A   1      42.622  35.084  29.815  1.00  0.00     0.261 C 
BRANCH   4   5
ATOM      5  O   UNL A   1      42.771  35.857  28.423  1.00  0.00    -0.460 OA
BRANCH   5   6
ATOM      6  C   UNL A   1      42.716  37.041  27.621  1.00  0.00     0.338 C 
ATOM      7  O   UNL A   1      42.814  36.761  26.414  1.00  0.00    -0.246 OA
BRANCH   6   8
ATOM      8  C   UNL A   1      42.600  38.733  27.805  1.00  0.00     0.062 A 
ATOM      9  C   UNL A   1      43.523  41.148  27.681  1.00  0.00     0.065 A 
ATOM     10  C   UNL A   1      43.055  39.916  27.087  1.00  0.00     0.044 A 
ATOM     11  C   UNL A   1      43.386  41.275  29.100  1.00  0.00     0.061 A 
ATOM     12  C   UNL A   1      42.594  40.277  29.716  1.00  0.00     0.029 A 
ATOM     13  C   UNL A   1      42.232  39.060  29.108  1.00  0.00     0.018 A 
BRANCH   9  14
ATOM     14  N   UNL A   1      44.348  42.126  26.995  1.00  0.00    -0.320 N 
ATOM     15  C   UNL A   1      44.888  42.643  25.799  1.00  0.00     0.255 C 
ATOM     16  O   UNL A   1      45.524  43.702  25.978  1.00  0.00    -0.269 OA
ATOM     17  H   UNL A   1      44.700  42.707  27.708  1.00  0.00     0.170 HD
BRANCH  15  18
ATOM     18  C   UNL A   1      44.916  42.180  24.338  1.00  0.00     0.043 A 
ATOM     19  C   UNL A   1      46.897  40.207  24.738  1.00  0.00     0.045 C 
ATOM     20  C   UNL A   1      46.411  41.282  23.804  1.00  0.00    -0.038 A 
ATOM     21  C   UNL A   1      47.270  41.739  22.192  1.00  0.00     0.004 A 
ATOM     22  C   UNL A   1      46.584  43.093  21.103  1.00  0.00     0.000 A 
ATOM     23  C   UNL A   1      44.152  43.448  23.204  1.00  0.00     0.014 A 
ATOM     24  C   UNL A   1      45.023  43.971  21.606  1.00  0.00     0.001 A 
ENDBRANCH  15  18
ENDBRANCH   9  14
BRANCH  11  25
ATOM     25  N   UNL A   1      43.995  42.249  29.922  1.00  0.00    -0.359 N 
ATOM     26  C   UNL A   1      45.456  42.121  30.249  1.00  0.00     0.178 C 
ATOM     27  C   UNL A   1      43.286  42.995  30.961  1.00  0.00     0.178 C 
ATOM     28  C   UNL A   1      46.110  43.350  30.971  1.00  0.00     0.284 C 
ATOM     29  C   UNL A   1      43.970  44.361  31.142  1.00  0.00     0.284 C 
ATOM     30  N   UNL A   1      45.275  44.249  31.786  1.00  0.00    -0.324 N 
ATOM     31  H   UNL A   1      45.735  45.160  31.793  1.00  0.00     0.348 HD
BRANCH  30  32
ATOM     32  C   UNL A   1      45.239  44.012  33.245  1.00  0.00     0.364 C 
BRANCH  32  33
ATOM     33  C   UNL A   1      43.880  43.893  33.928  1.00  0.00     0.279 C 
ATOM     34  O   UNL A   1      43.222  44.926  34.126  1.00  0.00    -0.268 OA
ATOM     35  N   UNL A   1      43.296  42.722  34.331  1.00  0.00    -0.321 N 
ATOM     36  H   UNL A   1      42.342  42.849  34.543  1.00  0.00     0.170 HD
BRANCH  35  37
ATOM     37  C   UNL A   1      43.693  41.378  34.523  1.00  0.00     0.041 A 
ATOM     38  C   UNL A   1      43.235  40.459  33.560  1.00  0.00     0.029 A 
ATOM     39  C   UNL A   1      44.394  40.871  35.615  1.00  0.00     0.029 A 
ATOM     40  C   UNL A   1      43.405  39.078  33.726  1.00  0.00     0.041 A 
ATOM     41  C   UNL A   1      44.520  39.487  35.813  1.00  0.00     0.041 A 
ATOM     42  C   UNL A   1      44.023  38.602  34.869  1.00  0.00     0.123 A 
ATOM     43  F   UNL A   1      44.161  37.283  35.055  1.00  0.00    -0.207 F 
ENDBRANCH  35  37
ENDBRANCH  32  33
ENDBRANCH  30  32
ENDBRANCH  11  25
ENDBRANCH   6   8
ENDBRANCH   5   6
ENDBRANCH   4   5
ENDBRANCH   3   4
ENDBRANCH   2   3
ENDBRANCH   1   2
BRANCH   1  44
ATOM     44  C   UNL A   1      39.096  34.545  29.520  1.00  0.00     0.188 C 
BRANCH  44  45
ATOM     45  O   UNL A   1      37.987  33.664  29.718  1.00  0.00    -0.376 OA
BRANCH  45  46
ATOM     46  C   UNL A   1      36.728  34.152  29.274  1.00  0.00     0.202 C 
BRANCH  46  47
ATOM     47  C   UNL A   1      35.721  33.004  29.342  1.00  0.00     0.261 C 
BRANCH  47  48
ATOM     48  O   UNL A   1      35.345  32.556  28.020  1.00  0.00    -0.460 OA
BRANCH  48  49
ATOM     49  C   UNL A   1      34.801  31.307  27.976  1.00  0.00     0.338 C 
ATOM     50  O   UNL A   1      33.614  31.069  27.836  1.00  0.00    -0.246 OA
BRANCH  49  51
ATOM     51  C   UNL A   1      35.870  30.298  28.231  1.00  0.00     0.060 A 
ATOM     52  C   UNL A   1      35.983  29.718  29.480  1.00  0.00     0.016 A 
ATOM     53  C   UNL A   1      36.906  30.107  27.318  1.00  0.00     0.016 A 
ATOM     54  C   UNL A   1      37.210  29.152  29.849  1.00  0.00     0.010 A 
ATOM     55  C   UNL A   1      38.162  29.708  27.773  1.00  0.00     0.010 A 
ATOM     56  C   UNL A   1      38.384  29.372  29.115  1.00  0.00    -0.014 A 
BRANCH  56  57
ATOM     57  C   UNL A   1      39.858  29.256  29.486  1.00  0.00     0.031 A 
ATOM     58  C   UNL A   1      40.488  28.094  28.817  1.00  0.00     0.074 A 
ATOM     59  C   UNL A   1      40.726  29.716  30.504  1.00  0.00     0.049 A 
ATOM     60  N   UNL A   1      41.563  27.660  29.327  1.00  0.00    -0.248 NA
ATOM     61  C   UNL A   1      39.932  27.274  27.791  1.00  0.00     0.031 C 
ATOM     62  C   UNL A   1      42.182  29.978  30.343  1.00  0.00     0.029 A 
ATOM     63  N   UNL A   1      40.595  30.251  31.794  1.00  0.00    -0.354 N 
ATOM     64  C   UNL A   1      42.165  26.462  28.845  1.00  0.00     0.074 A 
ATOM     65  C   UNL A   1      40.928  26.395  27.650  1.00  0.00     0.031 C 
ATOM     66  C   UNL A   1      42.762  30.307  31.518  1.00  0.00     0.029 A 
ATOM     67  C   UNL A   1      41.741  30.423  32.524  1.00  0.00     0.049 A 
ATOM     68  H   UNL A   1      39.714  30.492  32.160  1.00  0.00     0.167 HD
ATOM     69  C   UNL A   1      43.659  25.483  29.398  1.00  0.00     0.034 A 
ATOM     70  C   UNL A   1      41.842  30.604  33.863  1.00  0.00     0.034 A 
ATOM     71  C   UNL A   1      44.832  25.830  30.652  1.00  0.00     0.049 A 
ATOM     72  C   UNL A   1      42.892  29.650  34.429  1.00  0.00     0.074 A 
ATOM     73  C   UNL A   1      45.912  26.759  30.660  1.00  0.00     0.029 A 
ATOM     74  N   UNL A   1      44.688  25.530  32.012  1.00  0.00    -0.354 N 
ATOM     75  N   UNL A   1      43.577  28.776  33.726  1.00  0.00    -0.248 NA
ATOM     76  C   UNL A   1      43.180  29.560  35.859  1.00  0.00     0.031 C 
ATOM     77  C   UNL A   1      46.037  27.304  31.957  1.00  0.00     0.029 A 
ATOM     78  C   UNL A   1      45.168  26.616  32.774  1.00  0.00     0.049 A 
ATOM     79  H   UNL A   1      44.314  24.697  32.377  1.00  0.00     0.167 HD
ATOM     80  C   UNL A   1      44.255  27.934  34.589  1.00  0.00     0.074 A 
ATOM     81  C   UNL A   1      44.026  28.518  35.902  1.00  0.00     0.031 C 
ATOM     82  C   UNL A   1      44.919  26.793  34.197  1.00  0.00     0.034 A 
BRANCH  69  83
ATOM     83  C   UNL A   1      44.762  24.306  28.547  1.00  0.00     0.023 A 
ATOM     84  C   UNL A   1      46.017  24.850  28.149  1.00  0.00     0.031 A 
ATOM     85  C   UNL A   1      44.470  23.098  27.864  1.00  0.00     0.131 A 
ATOM     86  C   UNL A   1      46.764  24.422  27.044  1.00  0.00     0.055 A 
ATOM     87  C   UNL A   1      45.182  22.693  26.706  1.00  0.00     0.041 A 
ATOM     88  F   UNL A   1      43.457  22.294  28.223  1.00  0.00    -0.206 F 
ATOM     89  C   UNL A   1      46.307  23.384  26.260  1.00  0.00     0.022 A 
BRANCH  86  90
ATOM     90  S   UNL A   1      48.264  25.359  26.624  1.00  0.00     0.124 S 
ATOM     91  O   UNL A   1      49.309  24.606  27.314  1.00  0.00    -0.237 OA
ATOM     92  O   UNL A   1      48.277  25.283  25.167  1.00  0.00    -0.237 OA
ATOM     93  O   UNL A   1      47.998  26.687  27.173  1.00  0.00    -0.744 OA
ENDBRANCH  86  90
ENDBRANCH  69  83
BRANCH  70  94
ATOM     94  C   UNL A   1      40.635  31.158  34.598  1.00  0.00     0.023 A 
ATOM     95  C   UNL A   1      40.129  32.458  34.289  1.00  0.00     0.031 A 
ATOM     96  C   UNL A   1      39.854  30.388  35.472  1.00  0.00     0.131 A 
ATOM     97  C   UNL A   1      38.876  32.902  34.786  1.00  0.00     0.055 A 
ATOM     98  C   UNL A   1      38.607  30.830  35.958  1.00  0.00     0.041 A 
ATOM     99  F   UNL A   1      40.246  29.155  35.822  1.00  0.00    -0.206 F 
ATOM    100  C   UNL A   1      38.101  32.074  35.594  1.00  0.00     0.022 A 
BRANCH  97 101
ATOM    101  S   UNL A   1      38.184  34.554  34.415  1.00  0.00     0.124 S 
ATOM    102  O   UNL A   1      37.047  34.637  35.327  1.00  0.00    -0.237 OA
ATOM    103  O   UNL A   1      39.292  35.456  34.716  1.00  0.00    -0.237 OA
ATOM    104  O   UNL A   1      37.826  34.457  33.003  1.00  0.00    -0.744 OA
ENDBRANCH  97 101
ENDBRANCH  70  94
BRANCH  82 105
ATOM    105  C   UNL A   1      45.556  25.803  35.135  1.00  0.00     0.023 A 
ATOM    106  C   UNL A   1      46.848  25.948  35.649  1.00  0.00     0.031 A 
ATOM    107  C   UNL A   1      44.822  24.678  35.591  1.00  0.00     0.131 A 
ATOM    108  C   UNL A   1      47.399  24.956  36.478  1.00  0.00     0.055 A 
ATOM    109  C   UNL A   1      45.335  23.754  36.496  1.00  0.00     0.041 A 
ATOM    110  F   UNL A   1      43.574  24.425  35.170  1.00  0.00    -0.206 F 
ATOM    111  C   UNL A   1      46.642  23.877  36.930  1.00  0.00     0.022 A 
BRANCH 108 112
ATOM    112  S   UNL A   1      49.161  25.052  36.873  1.00  0.00     0.124 S 
ATOM    113  O   UNL A   1      49.142  25.839  38.104  1.00  0.00    -0.237 OA
ATOM    114  O   UNL A   1      49.524  23.646  37.022  1.00  0.00    -0.237 OA
ATOM    115  O   UNL A   1      49.735  25.723  35.711  1.00  0.00    -0.744 OA
ENDBRANCH 108 112
ENDBRANCH  82 105
ENDBRANCH  56  57
ENDBRANCH  49  51
ENDBRANCH  48  49
ENDBRANCH  47  48
ENDBRANCH  46  47
ENDBRANCH  45  46
ENDBRANCH  44  45
ENDBRANCH   1  44
TORSDOF 26
ENDMDL
MODEL 2
REMARK VINA RESULT:      -9.5      1.687      2.099
REMARK SMILES Cc1ccccc1C(=O)Nc1cc(C(=O)OCCOCCOCCOC(=O)c2ccc(-c3c4nc(c(-c5cc(S(=O)(=O)[O-])ccc5F)c5ccc([nH]5)c(-c5cc(S(=O)(=O)[O-])ccc5F)c5nc(c(-c6cc(S(=O)(=O)[O-])ccc6F)c6ccc3[nH]6)C=C5)C=C4)cc2)ccc1N1CC[NH+](CC(=O)Nc2ccc(F)cc2)CC1
REMARK SMILES IDX 20 1 19 2 18 3 17 4 16 5 14 6 15 7 13 8 11 9 12 10 93 11
REMARK SMILES IDX 92 12 91 13 10 14 8 15 9 16 7 18 1 19 2 20 3 21 4 22 6 23
REMARK SMILES IDX 5 24 94 25 95 26 110 27 96 28 109 29 97 30 98 32 99 33
REMARK SMILES IDX 100 34 101 35 102 37 103 38 108 39 104 40 107 41 105 42
REMARK SMILES IDX 106 43 21 44 22 45 23 46 24 47 25 48 26 49 27 50 28 51 29 52
REMARK SMILES IDX 90 53 30 54 89 55 31 56 32 57 33 58 83 59 34 60 88 61 82 62
REMARK SMILES IDX 84 63 35 64 87 65 81 66 80 67 36 69 68 70 48 71 67 72 49 73
REMARK SMILES IDX 52 74 66 75 85 76 50 77 51 78 65 80 86 81 53 82 37 83 38 84
REMARK SMILES IDX 46 85 39 86 45 87 47 88 44 89 40 90 41 91 42 92 43 93 69 94
REMARK SMILES IDX 70 95 78 96 71 97 77 98 79 99 76 100 72 101 73 102 74 103
REMARK SMILES IDX 75 104 54 105 55 106 63 107 56 108 62 109 64 110 61 111
REMARK SMILES IDX 57 112 58 113 59 114 60 115
REMARK H PARENT 10 17 97 31 101 36 84 68 52 79
REMARK Flexibility Score: inf
ROOT
ATOM      1  C   UNL A   1      41.209  34.108  30.542  1.00  0.00     0.188 C 
ENDROOT
BRANCH   1   2
ATOM      2  O   UNL A   1      41.824  32.911  30.089  1.00  0.00    -0.376 OA
BRANCH   2   3
ATOM      3  C   UNL A   1      43.115  33.226  29.601  1.00  0.00     0.202 C 
BRANCH   3   4
ATOM      4  C   UNL A   1      43.438  34.728  29.434  1.00  0.00     0.261 C 
BRANCH   4   5
ATOM      5  O   UNL A   1      43.205  35.557  28.086  1.00  0.00    -0.460 OA
BRANCH   5   6
ATOM      6  C   UNL A   1      42.942  36.772  27.378  1.00  0.00     0.338 C 
ATOM      7  O   UNL A   1      42.943  36.577  26.150  1.00  0.00    -0.246 OA
BRANCH   6   8
ATOM      8  C   UNL A   1      42.669  38.427  27.691  1.00  0.00     0.062 A 
ATOM      9  C   UNL A   1      43.264  40.943  27.554  1.00  0.00     0.065 A 
ATOM     10  C   UNL A   1      42.835  39.687  26.979  1.00  0.00     0.044 A 
ATOM     11  C   UNL A   1      43.391  40.992  28.978  1.00  0.00     0.061 A 
ATOM     12  C   UNL A   1      42.854  39.877  29.666  1.00  0.00     0.029 A 
ATOM     13  C   UNL A   1      42.525  38.650  29.058  1.00  0.00     0.018 A 
BRANCH   9  14
ATOM     14  N   UNL A   1      43.821  42.045  26.791  1.00  0.00    -0.320 N 
ATOM     15  C   UNL A   1      44.085  42.659  25.549  1.00  0.00     0.255 C 
ATOM     16  O   UNL A   1      44.583  43.797  25.673  1.00  0.00    -0.269 OA
ATOM     17  H   UNL A   1      44.194  42.659  27.465  1.00  0.00     0.170 HD
BRANCH  15  18
ATOM     18  C   UNL A   1      43.949  42.232  24.083  1.00  0.00     0.043 A 
ATOM     19  C   UNL A   1      46.714  42.362  23.525  1.00  0.00     0.045 C 
ATOM     20  C   UNL A   1      45.341  42.658  22.984  1.00  0.00    -0.038 A 
ATOM     21  C   UNL A   1      45.021  43.448  21.306  1.00  0.00     0.004 A 
ATOM     22  C   UNL A   1      43.274  43.775  20.730  1.00  0.00     0.000 A 
ATOM     23  C   UNL A   1      42.199  42.440  23.471  1.00  0.00     0.014 A 
ATOM     24  C   UNL A   1      41.845  43.284  21.814  1.00  0.00     0.001 A 
ENDBRANCH  15  18
ENDBRANCH   9  14
BRANCH  11  25
ATOM     25  N   UNL A   1      44.030  42.000  29.734  1.00  0.00    -0.359 N 
ATOM     26  C   UNL A   1      45.525  41.964  29.884  1.00  0.00     0.178 C 
ATOM     27  C   UNL A   1      43.404  42.695  30.857  1.00  0.00     0.178 C 
ATOM     28  C   UNL A   1      46.181  43.230  30.538  1.00  0.00     0.284 C 
ATOM     29  C   UNL A   1      44.017  44.101  30.973  1.00  0.00     0.284 C 
ATOM     30  N   UNL A   1      45.394  44.071  31.456  1.00  0.00    -0.324 N 
ATOM     31  H   UNL A   1      45.793  45.009  31.419  1.00  0.00     0.348 HD
BRANCH  30  32
ATOM     32  C   UNL A   1      45.546  43.826  32.907  1.00  0.00     0.364 C 
BRANCH  32  33
ATOM     33  C   UNL A   1      44.308  43.924  33.794  1.00  0.00     0.279 C 
ATOM     34  O   UNL A   1      43.828  45.045  34.021  1.00  0.00    -0.268 OA
ATOM     35  N   UNL A   1      43.650  42.862  34.354  1.00  0.00    -0.321 N 
ATOM     36  H   UNL A   1      42.767  43.128  34.700  1.00  0.00     0.170 HD
BRANCH  35  37
ATOM     37  C   UNL A   1      43.897  41.486  34.571  1.00  0.00     0.041 A 
ATOM     38  C   UNL A   1      43.290  40.603  33.658  1.00  0.00     0.029 A 
ATOM     39  C   UNL A   1      44.586  40.929  35.645  1.00  0.00     0.029 A 
ATOM     40  C   UNL A   1      43.306  39.216  33.859  1.00  0.00     0.041 A 
ATOM     41  C   UNL A   1      44.560  39.545  35.881  1.00  0.00     0.041 A 
ATOM     42  C   UNL A   1      43.918  38.700  34.988  1.00  0.00     0.123 A 
ATOM     43  F   UNL A   1      43.912  37.380  35.209  1.00  0.00    -0.207 F 
ENDBRANCH  35  37
ENDBRANCH  32  33
ENDBRANCH  30  32
ENDBRANCH  11  25
ENDBRANCH   6   8
ENDBRANCH   5   6
ENDBRANCH   4   5
ENDBRANCH   3   4
ENDBRANCH   2   3
ENDBRANCH   1   2
BRANCH   1  44
ATOM     44  C   UNL A   1      39.938  34.422  29.753  1.00  0.00     0.188 C 
BRANCH  44  45
ATOM     45  O   UNL A   1      38.796  33.674  30.179  1.00  0.00    -0.376 OA
BRANCH  45  46
ATOM     46  C   UNL A   1      37.534  34.228  29.831  1.00  0.00     0.202 C 
BRANCH  46  47
ATOM     47  C   UNL A   1      36.504  33.100  29.823  1.00  0.00     0.261 C 
BRANCH  47  48
ATOM     48  O   UNL A   1      36.365  32.524  28.504  1.00  0.00    -0.460 OA
BRANCH  48  49
ATOM     49  C   UNL A   1      35.813  31.278  28.482  1.00  0.00     0.338 C 
ATOM     50  O   UNL A   1      34.617  31.046  28.496  1.00  0.00    -0.246 OA
BRANCH  49  51
ATOM     51  C   UNL A   1      36.901  30.260  28.544  1.00  0.00     0.060 A 
ATOM     52  C   UNL A   1      37.164  29.608  29.734  1.00  0.00     0.016 A 
ATOM     53  C   UNL A   1      37.819  30.128  27.502  1.00  0.00     0.016 A 
ATOM     54  C   UNL A   1      38.426  29.025  29.917  1.00  0.00     0.010 A 
ATOM     55  C   UNL A   1      39.119  29.707  27.776  1.00  0.00     0.010 A 
ATOM     56  C   UNL A   1      39.502  29.292  29.059  1.00  0.00    -0.014 A 
BRANCH  56  57
ATOM     57  C   UNL A   1      41.010  29.160  29.240  1.00  0.00     0.031 A 
ATOM     58  C   UNL A   1      41.566  28.116  28.350  1.00  0.00     0.074 A 
ATOM     59  C   UNL A   1      41.987  29.496  30.207  1.00  0.00     0.049 A 
ATOM     60  N   UNL A   1      42.695  27.640  28.669  1.00  0.00    -0.248 NA
ATOM     61  C   UNL A   1      40.900  27.431  27.290  1.00  0.00     0.031 C 
ATOM     62  C   UNL A   1      43.412  29.811  29.919  1.00  0.00     0.029 A 
ATOM     63  N   UNL A   1      42.002  29.847  31.565  1.00  0.00    -0.354 N 
ATOM     64  C   UNL A   1      43.245  26.534  27.960  1.00  0.00     0.074 A 
ATOM     65  C   UNL A   1      41.879  26.603  26.916  1.00  0.00     0.031 C 
ATOM     66  C   UNL A   1      44.122  29.989  31.055  1.00  0.00     0.029 A 
ATOM     67  C   UNL A   1      43.224  29.943  32.176  1.00  0.00     0.049 A 
ATOM     68  H   UNL A   1      41.167  30.016  32.059  1.00  0.00     0.167 HD
ATOM     69  C   UNL A   1      44.800  25.522  28.198  1.00  0.00     0.034 A 
ATOM     70  C   UNL A   1      43.478  29.941  33.507  1.00  0.00     0.034 A 
ATOM     71  C   UNL A   1      46.108  25.721  29.346  1.00  0.00     0.049 A 
ATOM     72  C   UNL A   1      44.593  28.943  33.812  1.00  0.00     0.074 A 
ATOM     73  C   UNL A   1      47.175  26.664  29.360  1.00  0.00     0.029 A 
ATOM     74  N   UNL A   1      46.125  25.235  30.659  1.00  0.00    -0.354 N 
ATOM     75  N   UNL A   1      45.197  28.189  32.922  1.00  0.00    -0.248 NA
ATOM     76  C   UNL A   1      45.045  28.665  35.175  1.00  0.00     0.031 C 
ATOM     77  C   UNL A   1      47.446  27.030  30.698  1.00  0.00     0.029 A 
ATOM     78  C   UNL A   1      46.682  26.217  31.505  1.00  0.00     0.049 A 
ATOM     79  H   UNL A   1      45.802  24.351  30.946  1.00  0.00     0.167 HD
ATOM     80  C   UNL A   1      45.977  27.252  33.577  1.00  0.00     0.074 A 
ATOM     81  C   UNL A   1      45.897  27.646  34.976  1.00  0.00     0.031 C 
ATOM     82  C   UNL A   1      46.599  26.191  32.958  1.00  0.00     0.034 A 
BRANCH  69  83
ATOM     83  C   UNL A   1      45.805  24.499  27.072  1.00  0.00     0.023 A 
ATOM     84  C   UNL A   1      46.737  25.228  26.280  1.00  0.00     0.031 A 
ATOM     85  C   UNL A   1      45.572  23.200  26.553  1.00  0.00     0.131 A 
ATOM     86  C   UNL A   1      47.178  24.847  25.005  1.00  0.00     0.055 A 
ATOM     87  C   UNL A   1      45.961  22.830  25.239  1.00  0.00     0.041 A 
ATOM     88  F   UNL A   1      44.906  22.257  27.239  1.00  0.00    -0.206 F 
ATOM     89  C   UNL A   1      46.727  23.674  24.438  1.00  0.00     0.022 A 
BRANCH  86  90
ATOM     90  S   UNL A   1      48.250  26.005  24.103  1.00  0.00     0.124 S 
ATOM     91  O   UNL A   1      48.272  25.432  22.759  1.00  0.00    -0.237 OA
ATOM     92  O   UNL A   1      47.531  27.266  24.248  1.00  0.00    -0.237 OA
ATOM     93  O   UNL A   1      49.518  25.927  24.825  1.00  0.00    -0.744 OA
ENDBRANCH  86  90
ENDBRANCH  69  83
BRANCH  70  94
ATOM     94  C   UNL A   1      42.360  30.362  34.445  1.00  0.00     0.023 A 
ATOM     95  C   UNL A   1      42.127  31.744  34.723  1.00  0.00     0.031 A 
ATOM     96  C   UNL A   1      41.403  29.465  34.941  1.00  0.00     0.131 A 
ATOM     97  C   UNL A   1      40.955  32.174  35.400  1.00  0.00     0.055 A 
ATOM     98  C   UNL A   1      40.238  29.898  35.607  1.00  0.00     0.041 A 
ATOM     99  F   UNL A   1      41.536  28.149  34.732  1.00  0.00    -0.206 F 
ATOM    100  C   UNL A   1      39.997  31.253  35.813  1.00  0.00     0.022 A 
BRANCH  97 101
ATOM    101  S   UNL A   1      40.610  33.931  35.776  1.00  0.00     0.124 S 
ATOM    102  O   UNL A   1      39.933  33.854  37.067  1.00  0.00    -0.237 OA
ATOM    103  O   UNL A   1      41.938  34.535  35.803  1.00  0.00    -0.237 OA
ATOM    104  O   UNL A   1      39.757  34.348  34.666  1.00  0.00    -0.744 OA
ENDBRANCH  97 101
ENDBRANCH  70  94
BRANCH  82 105
ATOM    105  C   UNL A   1      47.347  25.097  33.671  1.00  0.00     0.023 A 
ATOM    106  C   UNL A   1      46.727  23.977  34.233  1.00  0.00     0.031 A 
ATOM    107  C   UNL A   1      48.763  25.137  33.753  1.00  0.00     0.131 A 
ATOM    108  C   UNL A   1      47.483  23.021  34.930  1.00  0.00     0.055 A 
ATOM    109  C   UNL A   1      49.517  24.133  34.353  1.00  0.00     0.041 A 
ATOM    110  F   UNL A   1      49.475  26.159  33.255  1.00  0.00    -0.206 F 
ATOM    111  C   UNL A   1      48.876  23.074  34.968  1.00  0.00     0.022 A 
BRANCH 108 112
ATOM    112  S   UNL A   1      46.602  21.757  35.877  1.00  0.00     0.124 S 
ATOM    113  O   UNL A   1      47.192  20.530  35.347  1.00  0.00    -0.237 OA
ATOM    114  O   UNL A   1      46.958  22.092  37.252  1.00  0.00    -0.237 OA
ATOM    115  O   UNL A   1      45.203  21.980  35.525  1.00  0.00    -0.744 OA
ENDBRANCH 108 112
ENDBRANCH  82 105
ENDBRANCH  56  57
ENDBRANCH  49  51
ENDBRANCH  48  49
ENDBRANCH  47  48
ENDBRANCH  46  47
ENDBRANCH  45  46
ENDBRANCH  44  45
ENDBRANCH   1  44
TORSDOF 26
ENDMDL
MODEL 3
REMARK VINA RESULT:      -9.5      5.868     12.608
REMARK SMILES Cc1ccccc1C(=O)Nc1cc(C(=O)OCCOCCOCCOC(=O)c2ccc(-c3c4nc(c(-c5cc(S(=O)(=O)[O-])ccc5F)c5ccc([nH]5)c(-c5cc(S(=O)(=O)[O-])ccc5F)c5nc(c(-c6cc(S(=O)(=O)[O-])ccc6F)c6ccc3[nH]6)C=C5)C=C4)cc2)ccc1N1CC[NH+](CC(=O)Nc2ccc(F)cc2)CC1
REMARK SMILES IDX 20 1 19 2 18 3 17 4 16 5 14 6 15 7 13 8 11 9 12 10 93 11
REMARK SMILES IDX 92 12 91 13 10 14 8 15 9 16 7 18 1 19 2 20 3 21 4 22 6 23
REMARK SMILES IDX 5 24 94 25 95 26 110 27 96 28 109 29 97 30 98 32 99 33
REMARK SMILES IDX 100 34 101 35 102 37 103 38 108 39 104 40 107 41 105 42
REMARK SMILES IDX 106 43 21 44 22 45 23 46 24 47 25 48 26 49 27 50 28 51 29 52
REMARK SMILES IDX 90 53 30 54 89 55 31 56 32 57 33 58 83 59 34 60 88 61 82 62
REMARK SMILES IDX 84 63 35 64 87 65 81 66 80 67 36 69 68 70 48 71 67 72 49 73
REMARK SMILES IDX 52 74 66 75 85 76 50 77 51 78 65 80 86 81 53 82 37 83 38 84
REMARK SMILES IDX 46 85 39 86 45 87 47 88 44 89 40 90 41 91 42 92 43 93 69 94
REMARK SMILES IDX 70 95 78 96 71 97 77 98 79 99 76 100 72 101 73 102 74 103
REMARK SMILES IDX 75 104 54 105 55 106 63 107 56 108 62 109 64 110 61 111
REMARK SMILES IDX 57 112 58 113 59 114 60 115
REMARK H PARENT 10 17 97 31 101 36 84 68 52 79
REMARK Flexibility Score: inf
ROOT
ATOM      1  C   UNL A   1      38.093  31.660  35.742  1.00  0.00     0.188 C 
ENDROOT
BRANCH   1   2
ATOM      2  O   UNL A   1      37.020  32.324  35.091  1.00  0.00    -0.376 OA
BRANCH   2   3
ATOM      3  C   UNL A   1      37.031  31.959  33.723  1.00  0.00     0.202 C 
BRANCH   3   4
ATOM      4  C   UNL A   1      38.055  30.879  33.308  1.00  0.00     0.261 C 
BRANCH   4   5
ATOM      5  O   UNL A   1      38.928  30.930  31.969  1.00  0.00    -0.460 OA
BRANCH   5   6
ATOM      6  C   UNL A   1      39.990  30.460  31.133  1.00  0.00     0.338 C 
ATOM      7  O   UNL A   1      39.922  30.974  30.002  1.00  0.00    -0.246 OA
BRANCH   6   8
ATOM      8  C   UNL A   1      41.305  29.375  31.186  1.00  0.00     0.062 A 
ATOM      9  C   UNL A   1      43.742  28.657  30.691  1.00  0.00     0.065 A 
ATOM     10  C   UNL A   1      42.748  29.458  31.370  1.00  0.00     0.044 A 
ATOM     11  C   UNL A   1      43.262  27.581  29.878  1.00  0.00     0.061 A 
ATOM     12  C   UNL A   1      41.885  27.288  30.027  1.00  0.00     0.029 A 
ATOM     13  C   UNL A   1      40.949  28.147  30.635  1.00  0.00     0.018 A 
BRANCH   9  14
ATOM     14  N   UNL A   1      45.141  29.025  30.562  1.00  0.00    -0.320 N 
ATOM     15  C   UNL A   1      46.127  29.963  30.192  1.00  0.00     0.255 C 
ATOM     16  O   UNL A   1      47.281  29.587  30.486  1.00  0.00    -0.269 OA
ATOM     17  H   UNL A   1      45.641  28.242  30.889  1.00  0.00     0.170 HD
BRANCH  15  18
ATOM     18  C   UNL A   1      46.115  31.314  29.469  1.00  0.00     0.043 A 
ATOM     19  C   UNL A   1      44.291  32.535  31.246  1.00  0.00     0.045 C 
ATOM     20  C   UNL A   1      44.684  32.395  29.800  1.00  0.00    -0.038 A 
ATOM     21  C   UNL A   1      43.773  33.230  28.380  1.00  0.00     0.004 A 
ATOM     22  C   UNL A   1      44.343  32.989  26.616  1.00  0.00     0.000 A 
ATOM     23  C   UNL A   1      46.768  31.162  27.728  1.00  0.00     0.014 A 
ATOM     24  C   UNL A   1      45.840  31.941  26.272  1.00  0.00     0.001 A 
ENDBRANCH  15  18
ENDBRANCH   9  14
BRANCH  11  25
ATOM     25  N   UNL A   1      44.006  26.842  28.931  1.00  0.00    -0.359 N 
ATOM     26  C   UNL A   1      44.215  27.415  27.558  1.00  0.00     0.178 C 
ATOM     27  C   UNL A   1      44.073  25.382  28.910  1.00  0.00     0.178 C 
ATOM     28  C   UNL A   1      45.233  26.650  26.642  1.00  0.00     0.284 C 
ATOM     29  C   UNL A   1      45.417  24.957  28.295  1.00  0.00     0.284 C 
ATOM     30  N   UNL A   1      45.478  25.214  26.860  1.00  0.00    -0.324 N 
ATOM     31  H   UNL A   1      46.418  25.015  26.513  1.00  0.00     0.348 HD
BRANCH  30  32
ATOM     32  C   UNL A   1      44.729  24.258  26.017  1.00  0.00     0.364 C 
BRANCH  32  33
ATOM     33  C   UNL A   1      44.970  22.765  26.220  1.00  0.00     0.279 C 
ATOM     34  O   UNL A   1      46.121  22.325  26.074  1.00  0.00    -0.268 OA
ATOM     35  N   UNL A   1      44.017  21.850  26.581  1.00  0.00    -0.321 N 
ATOM     36  H   UNL A   1      44.424  21.001  26.867  1.00  0.00     0.170 HD
BRANCH  35  37
ATOM     37  C   UNL A   1      42.606  21.798  26.653  1.00  0.00     0.041 A 
ATOM     38  C   UNL A   1      42.023  20.550  26.360  1.00  0.00     0.029 A 
ATOM     39  C   UNL A   1      41.748  22.871  26.879  1.00  0.00     0.029 A 
ATOM     40  C   UNL A   1      40.637  20.403  26.221  1.00  0.00     0.041 A 
ATOM     41  C   UNL A   1      40.363  22.743  26.689  1.00  0.00     0.041 A 
ATOM     42  C   UNL A   1      39.819  21.511  26.359  1.00  0.00     0.123 A 
ATOM     43  F   UNL A   1      38.496  21.391  26.195  1.00  0.00    -0.207 F 
ENDBRANCH  35  37
ENDBRANCH  32  33
ENDBRANCH  30  32
ENDBRANCH  11  25
ENDBRANCH   6   8
ENDBRANCH   5   6
ENDBRANCH   4   5
ENDBRANCH   3   4
ENDBRANCH   2   3
ENDBRANCH   1   2
BRANCH   1  44
ATOM     44  C   UNL A   1      38.104  31.945  37.244  1.00  0.00     0.188 C 
BRANCH  44  45
ATOM     45  O   UNL A   1      39.403  32.232  37.766  1.00  0.00    -0.376 OA
BRANCH  45  46
ATOM     46  C   UNL A   1      39.647  33.595  38.093  1.00  0.00     0.202 C 
BRANCH  46  47
ATOM     47  C   UNL A   1      40.558  34.187  37.020  1.00  0.00     0.261 C 
BRANCH  47  48
ATOM     48  O   UNL A   1      41.783  33.430  36.894  1.00  0.00    -0.460 OA
BRANCH  48  49
ATOM     49  C   UNL A   1      42.025  32.941  35.646  1.00  0.00     0.338 C 
ATOM     50  O   UNL A   1      41.301  33.110  34.680  1.00  0.00    -0.246 OA
BRANCH  49  51
ATOM     51  C   UNL A   1      43.249  32.089  35.682  1.00  0.00     0.060 A 
ATOM     52  C   UNL A   1      44.318  32.457  36.477  1.00  0.00     0.016 A 
ATOM     53  C   UNL A   1      43.438  31.068  34.751  1.00  0.00     0.016 A 
ATOM     54  C   UNL A   1      45.588  31.947  36.173  1.00  0.00     0.010 A 
ATOM     55  C   UNL A   1      44.731  30.724  34.357  1.00  0.00     0.010 A 
ATOM     56  C   UNL A   1      45.859  31.293  34.963  1.00  0.00    -0.014 A 
BRANCH  56  57
ATOM     57  C   UNL A   1      47.160  31.032  34.212  1.00  0.00     0.031 A 
ATOM     58  C   UNL A   1      47.497  32.165  33.320  1.00  0.00     0.074 A 
ATOM     59  C   UNL A   1      47.971  29.926  33.865  1.00  0.00     0.049 A 
ATOM     60  N   UNL A   1      48.306  31.921  32.375  1.00  0.00    -0.248 NA
ATOM     61  C   UNL A   1      46.873  33.446  33.264  1.00  0.00     0.031 C 
ATOM     62  C   UNL A   1      49.445  29.966  33.667  1.00  0.00     0.029 A 
ATOM     63  N   UNL A   1      47.824  28.533  33.797  1.00  0.00    -0.354 N 
ATOM     64  C   UNL A   1      48.580  32.904  31.381  1.00  0.00     0.074 A 
ATOM     65  C   UNL A   1      47.566  33.984  32.257  1.00  0.00     0.031 C 
ATOM     66  C   UNL A   1      49.923  28.777  33.239  1.00  0.00     0.029 A 
ATOM     67  C   UNL A   1      48.852  27.818  33.241  1.00  0.00     0.049 A 
ATOM     68  H   UNL A   1      47.014  28.087  34.136  1.00  0.00     0.167 HD
ATOM     69  C   UNL A   1      49.612  32.876  29.822  1.00  0.00     0.034 A 
ATOM     70  C   UNL A   1      48.810  26.546  32.778  1.00  0.00     0.034 A 
ATOM     71  C   UNL A   1      50.643  31.615  29.176  1.00  0.00     0.049 A 
ATOM     72  C   UNL A   1      49.429  26.490  31.383  1.00  0.00     0.074 A 
ATOM     73  C   UNL A   1      51.940  31.196  29.589  1.00  0.00     0.029 A 
ATOM     74  N   UNL A   1      50.222  30.540  28.384  1.00  0.00    -0.354 N 
ATOM     75  N   UNL A   1      49.911  27.521  30.728  1.00  0.00    -0.248 NA
ATOM     76  C   UNL A   1      49.469  25.261  30.591  1.00  0.00     0.031 C 
ATOM     77  C   UNL A   1      52.037  29.795  29.441  1.00  0.00     0.029 A 
ATOM     78  C   UNL A   1      50.893  29.372  28.801  1.00  0.00     0.049 A 
ATOM     79  H   UNL A   1      49.565  30.592  27.653  1.00  0.00     0.167 HD
ATOM     80  C   UNL A   1      50.172  27.146  29.422  1.00  0.00     0.074 A 
ATOM     81  C   UNL A   1      49.944  25.708  29.418  1.00  0.00     0.031 C 
ATOM     82  C   UNL A   1      50.508  28.023  28.415  1.00  0.00     0.034 A 
BRANCH  69  83
ATOM     83  C   UNL A   1      50.418  34.183  28.838  1.00  0.00     0.023 A 
ATOM     84  C   UNL A   1      49.615  34.716  27.789  1.00  0.00     0.031 A 
ATOM     85  C   UNL A   1      51.791  34.488  28.659  1.00  0.00     0.131 A 
ATOM     86  C   UNL A   1      50.109  35.243  26.588  1.00  0.00     0.055 A 
ATOM     87  C   UNL A   1      52.306  34.961  27.424  1.00  0.00     0.041 A 
ATOM     88  F   UNL A   1      52.706  34.282  29.618  1.00  0.00    -0.206 F 
ATOM     89  C   UNL A   1      51.468  35.296  26.363  1.00  0.00     0.022 A 
BRANCH  86  90
ATOM     90  S   UNL A   1      48.901  35.727  25.319  1.00  0.00     0.124 S 
ATOM     91  O   UNL A   1      48.016  36.629  26.053  1.00  0.00    -0.237 OA
ATOM     92  O   UNL A   1      49.749  36.347  24.307  1.00  0.00    -0.237 OA
ATOM     93  O   UNL A   1      48.295  34.457  24.927  1.00  0.00    -0.744 OA
ENDBRANCH  86  90
ENDBRANCH  69  83
BRANCH  70  94
ATOM     94  C   UNL A   1      47.734  25.624  33.327  1.00  0.00     0.023 A 
ATOM     95  C   UNL A   1      47.890  25.007  34.606  1.00  0.00     0.031 A 
ATOM     96  C   UNL A   1      46.482  25.466  32.717  1.00  0.00     0.131 A 
ATOM     97  C   UNL A   1      46.810  24.338  35.240  1.00  0.00     0.055 A 
ATOM     98  C   UNL A   1      45.411  24.807  33.354  1.00  0.00     0.041 A 
ATOM     99  F   UNL A   1      46.240  26.008  31.516  1.00  0.00    -0.206 F 
ATOM    100  C   UNL A   1      45.562  24.267  34.627  1.00  0.00     0.022 A 
BRANCH  97 101
ATOM    101  S   UNL A   1      46.958  23.536  36.878  1.00  0.00     0.124 S 
ATOM    102  O   UNL A   1      48.147  22.704  36.719  1.00  0.00    -0.237 OA
ATOM    103  O   UNL A   1      47.103  24.664  37.792  1.00  0.00    -0.237 OA
ATOM    104  O   UNL A   1      45.706  22.792  36.999  1.00  0.00    -0.744 OA
ENDBRANCH  97 101
ENDBRANCH  70  94
BRANCH  82 105
ATOM    105  C   UNL A   1      50.675  27.648  26.967  1.00  0.00     0.023 A 
ATOM    106  C   UNL A   1      49.695  27.868  25.995  1.00  0.00     0.031 A 
ATOM    107  C   UNL A   1      51.896  27.089  26.511  1.00  0.00     0.131 A 
ATOM    108  C   UNL A   1      49.898  27.443  24.672  1.00  0.00     0.055 A 
ATOM    109  C   UNL A   1      52.133  26.767  25.178  1.00  0.00     0.041 A 
ATOM    110  F   UNL A   1      52.913  26.826  27.345  1.00  0.00    -0.206 F 
ATOM    111  C   UNL A   1      51.120  26.923  24.249  1.00  0.00     0.022 A 
BRANCH 108 112
ATOM    112  S   UNL A   1      48.495  27.490  23.532  1.00  0.00     0.124 S 
ATOM    113  O   UNL A   1      49.059  28.225  22.403  1.00  0.00    -0.237 OA
ATOM    114  O   UNL A   1      48.232  26.073  23.302  1.00  0.00    -0.237 OA
ATOM    115  O   UNL A   1      47.466  28.199  24.287  1.00  0.00    -0.744 OA
ENDBRANCH 108 112
ENDBRANCH  82 105
ENDBRANCH  56  57
ENDBRANCH  49  51
ENDBRANCH  48  49
ENDBRANCH  47  48
ENDBRANCH  46  47
ENDBRANCH  45  46
ENDBRANCH  44  45
ENDBRANCH   1  44
TORSDOF 26
ENDMDL
