MODEL 1
REMARK VINA RESULT:      -6.8      0.000      0.000
REMARK SMILES C[C@@H](C(=O)[C@H](C)[C@@H](C)C(=O)OCCOCCOCCOC(=O)c1ccc(-c2c3nc(c(-c4cc(S(=O)(=O)[O-])ccc4F)c4ccc([nH]4)c(-c4cc(S(=O)(=O)[O-])ccc4F)c4nc(c(-c5cc(S(=O)(=O)[O-])ccc5F)c5ccc2[nH]5)C=C4)C=C3)cc1)c1ccccc1
REMARK SMILES IDX 15 1 14 2 13 3 12 4 11 5 9 6 10 7 7 8 8 9 5 10 6 11 3 12
REMARK SMILES IDX 4 13 2 14 1 15 86 16 87 17 91 18 88 19 90 20 89 21 16 22
REMARK SMILES IDX 17 23 18 24 19 25 20 26 21 27 22 28 23 29 24 30 85 31 25 32
REMARK SMILES IDX 84 33 26 34 27 35 28 36 78 37 29 38 83 39 77 40 79 41 30 42
REMARK SMILES IDX 82 43 76 44 75 45 31 47 63 48 43 49 62 50 44 51 47 52 61 53
REMARK SMILES IDX 80 54 45 55 46 56 60 58 81 59 48 60 32 61 33 62 41 63 34 64
REMARK SMILES IDX 40 65 42 66 39 67 35 68 36 69 37 70 38 71 64 72 65 73 73 74
REMARK SMILES IDX 66 75 72 76 74 77 71 78 67 79 68 80 69 81 70 82 49 83 50 84
REMARK SMILES IDX 58 85 51 86 57 87 59 88 56 89 52 90 53 91 54 92 55 93
REMARK H PARENT 79 46 47 57
REMARK Flexibility Score: inf
ROOT
ATOM      1  C   UNL A   1      45.998  25.795  26.822  1.00  0.00     0.188 C 
ENDROOT
BRANCH   1   2
ATOM      2  O   UNL A   1      45.999  25.731  28.245  1.00  0.00    -0.376 OA
BRANCH   2   3
ATOM      3  C   UNL A   1      45.454  26.833  28.951  1.00  0.00     0.202 C 
BRANCH   3   4
ATOM      4  C   UNL A   1      44.371  26.513  29.984  1.00  0.00     0.261 C 
BRANCH   4   5
ATOM      5  O   UNL A   1      44.052  27.560  30.928  1.00  0.00    -0.463 OA
BRANCH   5   6
ATOM      6  C   UNL A   1      42.741  27.920  30.944  1.00  0.00     0.309 C 
ATOM      7  O   UNL A   1      41.926  27.609  30.082  1.00  0.00    -0.252 OA
BRANCH   6   8
ATOM      8  C   UNL A   1      42.402  28.929  32.023  1.00  0.00     0.106 C 
ATOM      9  C   UNL A   1      43.703  29.178  32.803  1.00  0.00     0.021 C 
BRANCH   8  10
ATOM     10  C   UNL A   1      41.210  28.669  32.966  1.00  0.00     0.067 C 
ATOM     11  C   UNL A   1      41.670  28.580  34.427  1.00  0.00     0.017 C 
BRANCH  10  12
ATOM     12  C   UNL A   1      39.912  29.500  32.926  1.00  0.00     0.143 C 
ATOM     13  O   UNL A   1      39.952  30.594  33.508  1.00  0.00    -0.299 OA
BRANCH  12  14
ATOM     14  C   UNL A   1      38.610  29.022  32.250  1.00  0.00     0.083 C 
ATOM     15  C   UNL A   1      38.245  27.555  32.461  1.00  0.00     0.021 C 
BRANCH  14  16
ATOM     16  C   UNL A   1      38.392  29.492  30.787  1.00  0.00    -0.038 A 
ATOM     17  C   UNL A   1      37.185  29.208  30.117  1.00  0.00     0.004 A 
ATOM     18  C   UNL A   1      39.437  30.018  30.000  1.00  0.00     0.004 A 
ATOM     19  C   UNL A   1      37.056  29.367  28.730  1.00  0.00     0.000 A 
ATOM     20  C   UNL A   1      39.314  30.159  28.609  1.00  0.00     0.000 A 
ATOM     21  C   UNL A   1      38.128  29.817  27.973  1.00  0.00     0.000 A 
ENDBRANCH  14  16
ENDBRANCH  12  14
ENDBRANCH  10  12
ENDBRANCH   8  10
ENDBRANCH   6   8
ENDBRANCH   5   6
ENDBRANCH   4   5
ENDBRANCH   3   4
ENDBRANCH   2   3
ENDBRANCH   1   2
BRANCH   1  22
ATOM     22  C   UNL A   1      46.075  27.180  26.170  1.00  0.00     0.188 C 
BRANCH  22  23
ATOM     23  O   UNL A   1      47.359  27.782  26.334  1.00  0.00    -0.376 OA
BRANCH  23  24
ATOM     24  C   UNL A   1      47.308  29.112  26.851  1.00  0.00     0.202 C 
BRANCH  24  25
ATOM     25  C   UNL A   1      46.591  30.064  25.891  1.00  0.00     0.261 C 
BRANCH  25  26
ATOM     26  O   UNL A   1      45.277  30.450  26.342  1.00  0.00    -0.460 OA
BRANCH  26  27
ATOM     27  C   UNL A   1      45.076  31.785  26.433  1.00  0.00     0.338 C 
ATOM     28  O   UNL A   1      45.594  32.635  25.733  1.00  0.00    -0.246 OA
BRANCH  27  29
ATOM     29  C   UNL A   1      44.131  32.095  27.528  1.00  0.00     0.060 A 
ATOM     30  C   UNL A   1      44.030  33.401  27.993  1.00  0.00     0.016 A 
ATOM     31  C   UNL A   1      43.490  31.068  28.219  1.00  0.00     0.016 A 
ATOM     32  C   UNL A   1      43.396  33.668  29.210  1.00  0.00     0.010 A 
ATOM     33  C   UNL A   1      42.801  31.349  29.413  1.00  0.00     0.010 A 
ATOM     34  C   UNL A   1      42.791  32.647  29.954  1.00  0.00    -0.014 A 
BRANCH  34  35
ATOM     35  C   UNL A   1      42.234  32.939  31.314  1.00  0.00     0.031 A 
ATOM     36  C   UNL A   1      43.144  32.999  32.520  1.00  0.00     0.074 A 
ATOM     37  C   UNL A   1      40.933  33.257  31.480  1.00  0.00     0.049 A 
ATOM     38  N   UNL A   1      42.835  33.125  33.788  1.00  0.00    -0.248 NA
ATOM     39  C   UNL A   1      44.590  32.941  32.260  1.00  0.00     0.031 C 
ATOM     40  C   UNL A   1      39.949  33.376  30.406  1.00  0.00     0.029 A 
ATOM     41  N   UNL A   1      40.216  33.551  32.619  1.00  0.00    -0.354 N 
ATOM     42  C   UNL A   1      44.043  33.157  34.480  1.00  0.00     0.074 A 
ATOM     43  C   UNL A   1      45.089  33.020  33.486  1.00  0.00     0.031 C 
ATOM     44  C   UNL A   1      38.765  33.729  30.931  1.00  0.00     0.029 A 
ATOM     45  C   UNL A   1      38.876  33.762  32.388  1.00  0.00     0.049 A 
ATOM     46  H   UNL A   1      40.624  33.605  33.514  1.00  0.00     0.167 HD
ATOM     47  C   UNL A   1      44.262  33.287  35.815  1.00  0.00     0.034 A 
ATOM     48  C   UNL A   1      37.836  33.900  33.238  1.00  0.00     0.034 A 
ATOM     49  C   UNL A   1      43.220  33.395  36.811  1.00  0.00     0.049 A 
ATOM     50  C   UNL A   1      38.084  33.861  34.725  1.00  0.00     0.074 A 
ATOM     51  C   UNL A   1      43.345  33.433  38.191  1.00  0.00     0.029 A 
ATOM     52  N   UNL A   1      41.862  33.486  36.542  1.00  0.00    -0.354 N 
ATOM     53  N   UNL A   1      39.221  33.765  35.373  1.00  0.00    -0.248 NA
ATOM     54  C   UNL A   1      36.902  33.938  35.596  1.00  0.00     0.031 C 
ATOM     55  C   UNL A   1      42.063  33.478  38.754  1.00  0.00     0.029 A 
ATOM     56  C   UNL A   1      41.139  33.548  37.727  1.00  0.00     0.049 A 
ATOM     57  H   UNL A   1      41.467  33.504  35.640  1.00  0.00     0.167 HD
ATOM     58  C   UNL A   1      38.889  33.780  36.726  1.00  0.00     0.074 A 
ATOM     59  C   UNL A   1      37.452  33.933  36.800  1.00  0.00     0.031 C 
ATOM     60  C   UNL A   1      39.702  33.669  37.808  1.00  0.00     0.034 A 
BRANCH  47  61
ATOM     61  C   UNL A   1      45.696  33.235  36.287  1.00  0.00     0.023 A 
ATOM     62  C   UNL A   1      46.470  34.398  36.452  1.00  0.00     0.031 A 
ATOM     63  C   UNL A   1      46.297  31.996  36.574  1.00  0.00     0.131 A 
ATOM     64  C   UNL A   1      47.813  34.291  36.852  1.00  0.00     0.055 A 
ATOM     65  C   UNL A   1      47.612  31.901  37.031  1.00  0.00     0.041 A 
ATOM     66  F   UNL A   1      45.611  30.853  36.414  1.00  0.00    -0.206 F 
ATOM     67  C   UNL A   1      48.381  33.053  37.164  1.00  0.00     0.022 A 
BRANCH  64  68
ATOM     68  S   UNL A   1      48.847  35.783  36.853  1.00  0.00     0.124 S 
ATOM     69  O   UNL A   1      48.306  36.517  37.994  1.00  0.00    -0.237 OA
ATOM     70  O   UNL A   1      50.188  35.235  37.021  1.00  0.00    -0.237 OA
ATOM     71  O   UNL A   1      48.578  36.387  35.550  1.00  0.00    -0.744 OA
ENDBRANCH  64  68
ENDBRANCH  47  61
BRANCH  48  72
ATOM     72  C   UNL A   1      36.438  33.960  32.712  1.00  0.00     0.023 A 
ATOM     73  C   UNL A   1      35.718  35.163  32.656  1.00  0.00     0.031 A 
ATOM     74  C   UNL A   1      35.774  32.778  32.329  1.00  0.00     0.131 A 
ATOM     75  C   UNL A   1      34.367  35.152  32.270  1.00  0.00     0.055 A 
ATOM     76  C   UNL A   1      34.453  32.781  31.881  1.00  0.00     0.041 A 
ATOM     77  F   UNL A   1      36.407  31.594  32.381  1.00  0.00    -0.206 F 
ATOM     78  C   UNL A   1      33.737  33.972  31.865  1.00  0.00     0.022 A 
BRANCH  75  79
ATOM     79  S   UNL A   1      33.406  36.684  32.409  1.00  0.00     0.124 S 
ATOM     80  O   UNL A   1      32.081  36.175  32.743  1.00  0.00    -0.237 OA
ATOM     81  O   UNL A   1      34.110  37.387  33.477  1.00  0.00    -0.237 OA
ATOM     82  O   UNL A   1      33.530  37.284  31.083  1.00  0.00    -0.744 OA
ENDBRANCH  75  79
ENDBRANCH  48  72
BRANCH  60  83
ATOM     83  C   UNL A   1      39.041  33.740  39.167  1.00  0.00     0.023 A 
ATOM     84  C   UNL A   1      38.438  32.611  39.753  1.00  0.00     0.031 A 
ATOM     85  C   UNL A   1      38.958  34.961  39.859  1.00  0.00     0.131 A 
ATOM     86  C   UNL A   1      37.714  32.742  40.949  1.00  0.00     0.055 A 
ATOM     87  C   UNL A   1      38.290  35.072  41.080  1.00  0.00     0.041 A 
ATOM     88  F   UNL A   1      39.511  36.073  39.350  1.00  0.00    -0.206 F 
ATOM     89  C   UNL A   1      37.647  33.964  41.623  1.00  0.00     0.022 A 
BRANCH  86  90
ATOM     90  S   UNL A   1      36.750  31.324  41.547  1.00  0.00     0.124 S 
ATOM     91  O   UNL A   1      37.710  30.232  41.431  1.00  0.00    -0.237 OA
ATOM     92  O   UNL A   1      36.409  31.732  42.906  1.00  0.00    -0.237 OA
ATOM     93  O   UNL A   1      35.623  31.260  40.619  1.00  0.00    -0.744 OA
ENDBRANCH  86  90
ENDBRANCH  60  83
ENDBRANCH  34  35
ENDBRANCH  27  29
ENDBRANCH  26  27
ENDBRANCH  25  26
ENDBRANCH  24  25
ENDBRANCH  23  24
ENDBRANCH  22  23
ENDBRANCH   1  22
TORSDOF 24
ENDMDL
MODEL 2
REMARK VINA RESULT:      -6.5      8.027     12.833
REMARK SMILES C[C@@H](C(=O)[C@H](C)[C@@H](C)C(=O)OCCOCCOCCOC(=O)c1ccc(-c2c3nc(c(-c4cc(S(=O)(=O)[O-])ccc4F)c4ccc([nH]4)c(-c4cc(S(=O)(=O)[O-])ccc4F)c4nc(c(-c5cc(S(=O)(=O)[O-])ccc5F)c5ccc2[nH]5)C=C4)C=C3)cc1)c1ccccc1
REMARK SMILES IDX 15 1 14 2 13 3 12 4 11 5 9 6 10 7 7 8 8 9 5 10 6 11 3 12
REMARK SMILES IDX 4 13 2 14 1 15 86 16 87 17 91 18 88 19 90 20 89 21 16 22
REMARK SMILES IDX 17 23 18 24 19 25 20 26 21 27 22 28 23 29 24 30 85 31 25 32
REMARK SMILES IDX 84 33 26 34 27 35 28 36 78 37 29 38 83 39 77 40 79 41 30 42
REMARK SMILES IDX 82 43 76 44 75 45 31 47 63 48 43 49 62 50 44 51 47 52 61 53
REMARK SMILES IDX 80 54 45 55 46 56 60 58 81 59 48 60 32 61 33 62 41 63 34 64
REMARK SMILES IDX 40 65 42 66 39 67 35 68 36 69 37 70 38 71 64 72 65 73 73 74
REMARK SMILES IDX 66 75 72 76 74 77 71 78 67 79 68 80 69 81 70 82 49 83 50 84
REMARK SMILES IDX 58 85 51 86 57 87 59 88 56 89 52 90 53 91 54 92 55 93
REMARK H PARENT 79 46 47 57
REMARK Flexibility Score: inf
ROOT
ATOM      1  C   UNL A   1      46.912  43.468  26.056  1.00  0.00     0.188 C 
ENDROOT
BRANCH   1   2
ATOM      2  O   UNL A   1      46.539  44.827  25.851  1.00  0.00    -0.376 OA
BRANCH   2   3
ATOM      3  C   UNL A   1      45.309  45.078  25.194  1.00  0.00     0.202 C 
BRANCH   3   4
ATOM      4  C   UNL A   1      44.416  43.863  24.933  1.00  0.00     0.261 C 
BRANCH   4   5
ATOM      5  O   UNL A   1      43.479  43.976  23.838  1.00  0.00    -0.463 OA
BRANCH   5   6
ATOM      6  C   UNL A   1      43.798  43.229  22.748  1.00  0.00     0.309 C 
ATOM      7  O   UNL A   1      44.651  42.348  22.737  1.00  0.00    -0.252 OA
BRANCH   6   8
ATOM      8  C   UNL A   1      43.152  43.717  21.466  1.00  0.00     0.106 C 
ATOM      9  C   UNL A   1      42.705  42.459  20.704  1.00  0.00     0.021 C 
BRANCH   8  10
ATOM     10  C   UNL A   1      43.912  44.700  20.553  1.00  0.00     0.067 C 
ATOM     11  C   UNL A   1      45.191  45.208  21.233  1.00  0.00     0.017 C 
BRANCH  10  12
ATOM     12  C   UNL A   1      44.247  44.388  19.082  1.00  0.00     0.143 C 
ATOM     13  O   UNL A   1      45.373  43.913  18.872  1.00  0.00    -0.299 OA
BRANCH  12  14
ATOM     14  C   UNL A   1      43.287  44.671  17.906  1.00  0.00     0.083 C 
ATOM     15  C   UNL A   1      43.288  43.642  16.779  1.00  0.00     0.021 C 
BRANCH  14  16
ATOM     16  C   UNL A   1      43.264  46.134  17.387  1.00  0.00    -0.038 A 
ATOM     17  C   UNL A   1      44.468  46.826  17.144  1.00  0.00     0.004 A 
ATOM     18  C   UNL A   1      42.081  46.900  17.339  1.00  0.00     0.004 A 
ATOM     19  C   UNL A   1      44.495  48.212  16.944  1.00  0.00     0.000 A 
ATOM     20  C   UNL A   1      42.110  48.290  17.158  1.00  0.00     0.000 A 
ATOM     21  C   UNL A   1      43.319  48.949  16.977  1.00  0.00     0.000 A 
ENDBRANCH  14  16
ENDBRANCH  12  14
ENDBRANCH  10  12
ENDBRANCH   8  10
ENDBRANCH   6   8
ENDBRANCH   5   6
ENDBRANCH   4   5
ENDBRANCH   3   4
ENDBRANCH   2   3
ENDBRANCH   1   2
BRANCH   1  22
ATOM     22  C   UNL A   1      46.948  42.949  27.497  1.00  0.00     0.188 C 
BRANCH  22  23
ATOM     23  O   UNL A   1      45.779  42.201  27.830  1.00  0.00    -0.376 OA
BRANCH  23  24
ATOM     24  C   UNL A   1      45.622  41.008  27.061  1.00  0.00     0.202 C 
BRANCH  24  25
ATOM     25  C   UNL A   1      44.146  40.672  26.836  1.00  0.00     0.261 C 
BRANCH  25  26
ATOM     26  O   UNL A   1      43.929  39.325  26.369  1.00  0.00    -0.460 OA
BRANCH  26  27
ATOM     27  C   UNL A   1      42.742  38.782  26.729  1.00  0.00     0.338 C 
ATOM     28  O   UNL A   1      41.661  39.338  26.688  1.00  0.00    -0.246 OA
BRANCH  27  29
ATOM     29  C   UNL A   1      42.929  37.394  27.204  1.00  0.00     0.060 A 
ATOM     30  C   UNL A   1      41.820  36.648  27.584  1.00  0.00     0.016 A 
ATOM     31  C   UNL A   1      44.209  36.899  27.453  1.00  0.00     0.016 A 
ATOM     32  C   UNL A   1      41.982  35.470  28.320  1.00  0.00     0.010 A 
ATOM     33  C   UNL A   1      44.369  35.682  28.141  1.00  0.00     0.010 A 
ATOM     34  C   UNL A   1      43.256  34.978  28.632  1.00  0.00    -0.014 A 
BRANCH  34  35
ATOM     35  C   UNL A   1      43.400  33.788  29.531  1.00  0.00     0.031 A 
ATOM     36  C   UNL A   1      43.690  32.420  28.955  1.00  0.00     0.074 A 
ATOM     37  C   UNL A   1      43.379  33.922  30.874  1.00  0.00     0.049 A 
ATOM     38  N   UNL A   1      43.735  31.257  29.558  1.00  0.00    -0.248 NA
ATOM     39  C   UNL A   1      43.997  32.361  27.519  1.00  0.00     0.031 C 
ATOM     40  C   UNL A   1      43.245  35.188  31.594  1.00  0.00     0.029 A 
ATOM     41  N   UNL A   1      43.486  32.983  31.875  1.00  0.00    -0.354 N 
ATOM     42  C   UNL A   1      44.073  30.326  28.580  1.00  0.00     0.074 A 
ATOM     43  C   UNL A   1      44.202  31.062  27.339  1.00  0.00     0.031 C 
ATOM     44  C   UNL A   1      43.289  34.949  32.913  1.00  0.00     0.029 A 
ATOM     45  C   UNL A   1      43.351  33.507  33.141  1.00  0.00     0.049 A 
ATOM     46  H   UNL A   1      43.642  32.026  31.702  1.00  0.00     0.167 HD
ATOM     47  C   UNL A   1      44.256  28.985  28.701  1.00  0.00     0.034 A 
ATOM     48  C   UNL A   1      43.223  32.909  34.344  1.00  0.00     0.034 A 
ATOM     49  C   UNL A   1      44.100  28.243  29.932  1.00  0.00     0.049 A 
ATOM     50  C   UNL A   1      43.251  31.404  34.431  1.00  0.00     0.074 A 
ATOM     51  C   UNL A   1      44.171  26.872  30.129  1.00  0.00     0.029 A 
ATOM     52  N   UNL A   1      43.844  28.801  31.176  1.00  0.00    -0.354 N 
ATOM     53  N   UNL A   1      43.446  30.522  33.477  1.00  0.00    -0.248 NA
ATOM     54  C   UNL A   1      43.029  30.812  35.758  1.00  0.00     0.031 C 
ATOM     55  C   UNL A   1      43.891  26.600  31.475  1.00  0.00     0.029 A 
ATOM     56  C   UNL A   1      43.724  27.804  32.137  1.00  0.00     0.049 A 
ATOM     57  H   UNL A   1      43.760  29.766  31.353  1.00  0.00     0.167 HD
ATOM     58  C   UNL A   1      43.379  29.275  34.095  1.00  0.00     0.074 A 
ATOM     59  C   UNL A   1      43.165  29.520  35.505  1.00  0.00     0.031 C 
ATOM     60  C   UNL A   1      43.479  28.039  33.541  1.00  0.00     0.034 A 
BRANCH  47  61
ATOM     61  C   UNL A   1      44.569  28.214  27.440  1.00  0.00     0.023 A 
ATOM     62  C   UNL A   1      45.889  27.949  27.035  1.00  0.00     0.031 A 
ATOM     63  C   UNL A   1      43.521  27.740  26.629  1.00  0.00     0.131 A 
ATOM     64  C   UNL A   1      46.126  27.265  25.830  1.00  0.00     0.055 A 
ATOM     65  C   UNL A   1      43.763  27.007  25.465  1.00  0.00     0.041 A 
ATOM     66  F   UNL A   1      42.242  27.982  26.957  1.00  0.00    -0.206 F 
ATOM     67  C   UNL A   1      45.071  26.774  25.055  1.00  0.00     0.022 A 
BRANCH  64  68
ATOM     68  S   UNL A   1      47.831  27.122  25.226  1.00  0.00     0.124 S 
ATOM     69  O   UNL A   1      47.626  26.547  23.898  1.00  0.00    -0.237 OA
ATOM     70  O   UNL A   1      48.294  28.503  25.261  1.00  0.00    -0.237 OA
ATOM     71  O   UNL A   1      48.463  26.226  26.192  1.00  0.00    -0.744 OA
ENDBRANCH  64  68
ENDBRANCH  47  61
BRANCH  48  72
ATOM     72  C   UNL A   1      42.928  33.725  35.561  1.00  0.00     0.023 A 
ATOM     73  C   UNL A   1      41.650  34.249  35.809  1.00  0.00     0.031 A 
ATOM     74  C   UNL A   1      43.961  34.058  36.459  1.00  0.00     0.131 A 
ATOM     75  C   UNL A   1      41.448  35.112  36.900  1.00  0.00     0.055 A 
ATOM     76  C   UNL A   1      43.740  34.860  37.579  1.00  0.00     0.041 A 
ATOM     77  F   UNL A   1      45.208  33.602  36.260  1.00  0.00    -0.206 F 
ATOM     78  C   UNL A   1      42.480  35.404  37.796  1.00  0.00     0.022 A 
BRANCH  75  79
ATOM     79  S   UNL A   1      39.843  35.939  37.075  1.00  0.00     0.124 S 
ATOM     80  O   UNL A   1      40.159  37.004  38.021  1.00  0.00    -0.237 OA
ATOM     81  O   UNL A   1      39.569  36.360  35.704  1.00  0.00    -0.237 OA
ATOM     82  O   UNL A   1      38.972  34.885  37.588  1.00  0.00    -0.744 OA
ENDBRANCH  75  79
ENDBRANCH  48  72
BRANCH  60  83
ATOM     83  C   UNL A   1      43.383  26.860  34.482  1.00  0.00     0.023 A 
ATOM     84  C   UNL A   1      44.532  26.224  34.989  1.00  0.00     0.031 A 
ATOM     85  C   UNL A   1      42.130  26.324  34.830  1.00  0.00     0.131 A 
ATOM     86  C   UNL A   1      44.409  25.049  35.747  1.00  0.00     0.055 A 
ATOM     87  C   UNL A   1      42.012  25.190  35.638  1.00  0.00     0.041 A 
ATOM     88  F   UNL A   1      40.998  26.883  34.376  1.00  0.00    -0.206 F 
ATOM     89  C   UNL A   1      43.156  24.535  36.086  1.00  0.00     0.022 A 
BRANCH  86  90
ATOM     90  S   UNL A   1      45.912  24.125  36.177  1.00  0.00     0.124 S 
ATOM     91  O   UNL A   1      46.419  23.738  34.864  1.00  0.00    -0.237 OA
ATOM     92  O   UNL A   1      46.697  25.126  36.893  1.00  0.00    -0.237 OA
ATOM     93  O   UNL A   1      45.415  23.024  36.998  1.00  0.00    -0.744 OA
ENDBRANCH  86  90
ENDBRANCH  60  83
ENDBRANCH  34  35
ENDBRANCH  27  29
ENDBRANCH  26  27
ENDBRANCH  25  26
ENDBRANCH  24  25
ENDBRANCH  23  24
ENDBRANCH  22  23
ENDBRANCH   1  22
TORSDOF 24
ENDMDL
MODEL 3
REMARK VINA RESULT:      -6.4      4.894     11.083
REMARK SMILES C[C@@H](C(=O)[C@H](C)[C@@H](C)C(=O)OCCOCCOCCOC(=O)c1ccc(-c2c3nc(c(-c4cc(S(=O)(=O)[O-])ccc4F)c4ccc([nH]4)c(-c4cc(S(=O)(=O)[O-])ccc4F)c4nc(c(-c5cc(S(=O)(=O)[O-])ccc5F)c5ccc2[nH]5)C=C4)C=C3)cc1)c1ccccc1
REMARK SMILES IDX 15 1 14 2 13 3 12 4 11 5 9 6 10 7 7 8 8 9 5 10 6 11 3 12
REMARK SMILES IDX 4 13 2 14 1 15 86 16 87 17 91 18 88 19 90 20 89 21 16 22
REMARK SMILES IDX 17 23 18 24 19 25 20 26 21 27 22 28 23 29 24 30 85 31 25 32
REMARK SMILES IDX 84 33 26 34 27 35 28 36 78 37 29 38 83 39 77 40 79 41 30 42
REMARK SMILES IDX 82 43 76 44 75 45 31 47 63 48 43 49 62 50 44 51 47 52 61 53
REMARK SMILES IDX 80 54 45 55 46 56 60 58 81 59 48 60 32 61 33 62 41 63 34 64
REMARK SMILES IDX 40 65 42 66 39 67 35 68 36 69 37 70 38 71 64 72 65 73 73 74
REMARK SMILES IDX 66 75 72 76 74 77 71 78 67 79 68 80 69 81 70 82 49 83 50 84
REMARK SMILES IDX 58 85 51 86 57 87 59 88 56 89 52 90 53 91 54 92 55 93
REMARK H PARENT 79 46 47 57
REMARK Flexibility Score: inf
ROOT
ATOM      1  C   UNL A   1      38.678  34.538  30.642  1.00  0.00     0.188 C 
ENDROOT
BRANCH   1   2
ATOM      2  O   UNL A   1      39.076  33.262  30.151  1.00  0.00    -0.376 OA
BRANCH   2   3
ATOM      3  C   UNL A   1      38.188  32.176  30.353  1.00  0.00     0.202 C 
BRANCH   3   4
ATOM      4  C   UNL A   1      38.246  31.047  29.321  1.00  0.00     0.261 C 
BRANCH   4   5
ATOM      5  O   UNL A   1      39.178  29.975  29.591  1.00  0.00    -0.463 OA
BRANCH   5   6
ATOM      6  C   UNL A   1      38.591  28.781  29.872  1.00  0.00     0.309 C 
ATOM      7  O   UNL A   1      37.526  28.655  30.466  1.00  0.00    -0.252 OA
BRANCH   6   8
ATOM      8  C   UNL A   1      39.473  27.585  29.571  1.00  0.00     0.106 C 
ATOM      9  C   UNL A   1      40.847  27.901  30.183  1.00  0.00     0.021 C 
BRANCH   8  10
ATOM     10  C   UNL A   1      39.595  27.071  28.123  1.00  0.00     0.067 C 
ATOM     11  C   UNL A   1      40.236  28.128  27.213  1.00  0.00     0.017 C 
BRANCH  10  12
ATOM     12  C   UNL A   1      40.210  25.703  27.769  1.00  0.00     0.143 C 
ATOM     13  O   UNL A   1      39.492  24.714  27.984  1.00  0.00    -0.299 OA
BRANCH  12  14
ATOM     14  C   UNL A   1      41.640  25.524  27.216  1.00  0.00     0.083 C 
ATOM     15  C   UNL A   1      41.745  24.953  25.804  1.00  0.00     0.021 C 
BRANCH  14  16
ATOM     16  C   UNL A   1      42.673  24.904  28.194  1.00  0.00    -0.038 A 
ATOM     17  C   UNL A   1      42.691  23.513  28.428  1.00  0.00     0.004 A 
ATOM     18  C   UNL A   1      43.478  25.693  29.042  1.00  0.00     0.004 A 
ATOM     19  C   UNL A   1      43.410  22.954  29.493  1.00  0.00     0.000 A 
ATOM     20  C   UNL A   1      44.181  25.134  30.120  1.00  0.00     0.000 A 
ATOM     21  C   UNL A   1      44.133  23.767  30.355  1.00  0.00     0.000 A 
ENDBRANCH  14  16
ENDBRANCH  12  14
ENDBRANCH  10  12
ENDBRANCH   8  10
ENDBRANCH   6   8
ENDBRANCH   5   6
ENDBRANCH   4   5
ENDBRANCH   3   4
ENDBRANCH   2   3
ENDBRANCH   1   2
BRANCH   1  22
ATOM     22  C   UNL A   1      37.818  34.578  31.910  1.00  0.00     0.188 C 
BRANCH  22  23
ATOM     23  O   UNL A   1      38.560  34.218  33.075  1.00  0.00    -0.376 OA
BRANCH  23  24
ATOM     24  C   UNL A   1      38.029  34.759  34.285  1.00  0.00     0.202 C 
BRANCH  24  25
ATOM     25  C   UNL A   1      36.690  34.113  34.651  1.00  0.00     0.261 C 
BRANCH  25  26
ATOM     26  O   UNL A   1      36.736  32.672  34.674  1.00  0.00    -0.460 OA
BRANCH  26  27
ATOM     27  C   UNL A   1      37.424  32.141  35.711  1.00  0.00     0.338 C 
ATOM     28  O   UNL A   1      37.178  32.306  36.891  1.00  0.00    -0.246 OA
BRANCH  27  29
ATOM     29  C   UNL A   1      38.553  31.321  35.221  1.00  0.00     0.060 A 
ATOM     30  C   UNL A   1      39.819  31.508  35.762  1.00  0.00     0.016 A 
ATOM     31  C   UNL A   1      38.398  30.506  34.100  1.00  0.00     0.016 A 
ATOM     32  C   UNL A   1      40.945  30.988  35.118  1.00  0.00     0.010 A 
ATOM     33  C   UNL A   1      39.528  29.933  33.488  1.00  0.00     0.010 A 
ATOM     34  C   UNL A   1      40.824  30.211  33.958  1.00  0.00    -0.014 A 
BRANCH  34  35
ATOM     35  C   UNL A   1      42.051  29.775  33.216  1.00  0.00     0.031 A 
ATOM     36  C   UNL A   1      42.815  28.545  33.650  1.00  0.00     0.074 A 
ATOM     37  C   UNL A   1      42.442  30.404  32.088  1.00  0.00     0.049 A 
ATOM     38  N   UNL A   1      43.957  28.077  33.207  1.00  0.00    -0.248 NA
ATOM     39  C   UNL A   1      42.197  27.719  34.698  1.00  0.00     0.031 C 
ATOM     40  C   UNL A   1      41.742  31.522  31.458  1.00  0.00     0.029 A 
ATOM     41  N   UNL A   1      43.521  30.182  31.261  1.00  0.00    -0.354 N 
ATOM     42  C   UNL A   1      44.198  26.906  33.921  1.00  0.00     0.074 A 
ATOM     43  C   UNL A   1      43.089  26.747  34.839  1.00  0.00     0.031 C 
ATOM     44  C   UNL A   1      42.398  31.879  30.343  1.00  0.00     0.029 A 
ATOM     45  C   UNL A   1      43.621  31.087  30.228  1.00  0.00     0.049 A 
ATOM     46  H   UNL A   1      44.161  29.445  31.396  1.00  0.00     0.167 HD
ATOM     47  C   UNL A   1      45.245  26.045  33.824  1.00  0.00     0.034 A 
ATOM     48  C   UNL A   1      44.604  31.310  29.331  1.00  0.00     0.034 A 
ATOM     49  C   UNL A   1      46.368  26.215  32.929  1.00  0.00     0.049 A 
ATOM     50  C   UNL A   1      45.842  30.450  29.359  1.00  0.00     0.074 A 
ATOM     51  C   UNL A   1      47.519  25.447  32.830  1.00  0.00     0.029 A 
ATOM     52  N   UNL A   1      46.488  27.218  31.977  1.00  0.00    -0.354 N 
ATOM     53  N   UNL A   1      46.118  29.419  30.124  1.00  0.00    -0.248 NA
ATOM     54  C   UNL A   1      46.909  30.792  28.407  1.00  0.00     0.031 C 
ATOM     55  C   UNL A   1      48.359  26.024  31.869  1.00  0.00     0.029 A 
ATOM     56  C   UNL A   1      47.703  27.107  31.310  1.00  0.00     0.049 A 
ATOM     57  H   UNL A   1      45.810  27.909  31.799  1.00  0.00     0.167 HD
ATOM     58  C   UNL A   1      47.385  28.987  29.735  1.00  0.00     0.074 A 
ATOM     59  C   UNL A   1      47.801  29.844  28.646  1.00  0.00     0.031 C 
ATOM     60  C   UNL A   1      48.138  27.977  30.243  1.00  0.00     0.034 A 
BRANCH  47  61
ATOM     61  C   UNL A   1      45.265  24.872  34.776  1.00  0.00     0.023 A 
ATOM     62  C   UNL A   1      45.946  24.921  36.005  1.00  0.00     0.031 A 
ATOM     63  C   UNL A   1      44.590  23.684  34.441  1.00  0.00     0.131 A 
ATOM     64  C   UNL A   1      45.971  23.787  36.835  1.00  0.00     0.055 A 
ATOM     65  C   UNL A   1      44.566  22.583  35.298  1.00  0.00     0.041 A 
ATOM     66  F   UNL A   1      43.941  23.575  33.271  1.00  0.00    -0.206 F 
ATOM     67  C   UNL A   1      45.267  22.627  36.499  1.00  0.00     0.022 A 
BRANCH  64  68
ATOM     68  S   UNL A   1      47.028  23.804  38.310  1.00  0.00     0.124 S 
ATOM     69  O   UNL A   1      46.230  23.025  39.254  1.00  0.00    -0.237 OA
ATOM     70  O   UNL A   1      48.249  23.171  37.828  1.00  0.00    -0.237 OA
ATOM     71  O   UNL A   1      47.145  25.225  38.631  1.00  0.00    -0.744 OA
ENDBRANCH  64  68
ENDBRANCH  47  61
BRANCH  48  72
ATOM     72  C   UNL A   1      44.524  32.479  28.404  1.00  0.00     0.023 A 
ATOM     73  C   UNL A   1      44.739  33.793  28.847  1.00  0.00     0.031 A 
ATOM     74  C   UNL A   1      44.145  32.293  27.060  1.00  0.00     0.131 A 
ATOM     75  C   UNL A   1      44.532  34.870  27.969  1.00  0.00     0.055 A 
ATOM     76  C   UNL A   1      44.008  33.361  26.173  1.00  0.00     0.041 A 
ATOM     77  F   UNL A   1      43.906  31.060  26.585  1.00  0.00    -0.206 F 
ATOM     78  C   UNL A   1      44.187  34.661  26.631  1.00  0.00     0.022 A 
BRANCH  75  79
ATOM     79  S   UNL A   1      44.613  36.560  28.624  1.00  0.00     0.124 S 
ATOM     80  O   UNL A   1      45.392  36.370  29.842  1.00  0.00    -0.237 OA
ATOM     81  O   UNL A   1      45.281  37.272  27.540  1.00  0.00    -0.237 OA
ATOM     82  O   UNL A   1      43.210  36.912  28.828  1.00  0.00    -0.744 OA
ENDBRANCH  75  79
ENDBRANCH  48  72
BRANCH  60  83
ATOM     83  C   UNL A   1      49.482  27.735  29.593  1.00  0.00     0.023 A 
ATOM     84  C   UNL A   1      49.606  26.971  28.417  1.00  0.00     0.031 A 
ATOM     85  C   UNL A   1      50.660  28.221  30.187  1.00  0.00     0.131 A 
ATOM     86  C   UNL A   1      50.879  26.649  27.919  1.00  0.00     0.055 A 
ATOM     87  C   UNL A   1      51.921  27.951  29.650  1.00  0.00     0.041 A 
ATOM     88  F   UNL A   1      50.607  28.954  31.310  1.00  0.00    -0.206 F 
ATOM     89  C   UNL A   1      52.037  27.146  28.521  1.00  0.00     0.022 A 
BRANCH  86  90
ATOM     90  S   UNL A   1      51.007  25.466  26.548  1.00  0.00     0.124 S 
ATOM     91  O   UNL A   1      50.693  26.301  25.394  1.00  0.00    -0.237 OA
ATOM     92  O   UNL A   1      52.392  25.018  26.653  1.00  0.00    -0.237 OA
ATOM     93  O   UNL A   1      50.002  24.455  26.873  1.00  0.00    -0.744 OA
ENDBRANCH  86  90
ENDBRANCH  60  83
ENDBRANCH  34  35
ENDBRANCH  27  29
ENDBRANCH  26  27
ENDBRANCH  25  26
ENDBRANCH  24  25
ENDBRANCH  23  24
ENDBRANCH  22  23
ENDBRANCH   1  22
TORSDOF 24
ENDMDL
