MODEL 1
REMARK VINA RESULT:      -9.9      0.000      0.000
REMARK SMILES O=C(CCc1nc(-c2ccccc2)c(-c2ccccc2)o1)OCCOCCOCCOC(=O)c1ccc(-c2c3nc(c(-c4cc(S(=O)(=O)[O-])ccc4F)c4ccc([nH]4)c(-c4cc(S(=O)(=O)[O-])ccc4F)c4nc(c(-c5cc(S(=O)(=O)[O-])ccc5F)c5ccc2[nH]5)C=C4)C=C3)cc1
REMARK SMILES IDX 26 1 25 2 24 3 23 4 22 5 2 6 1 7 3 8 4 9 5 10 6 11 21 12
REMARK SMILES IDX 7 13 14 14 8 15 9 16 13 17 10 18 12 19 11 20 15 21 16 22
REMARK SMILES IDX 20 23 17 24 19 25 18 26 27 27 28 28 29 29 30 30 31 31 32 32
REMARK SMILES IDX 33 33 34 34 35 35 96 36 36 37 95 38 37 39 38 40 39 41 89 42
REMARK SMILES IDX 40 43 94 44 88 45 90 46 41 47 93 48 87 49 86 50 42 52 74 53
REMARK SMILES IDX 54 54 73 55 55 56 58 57 72 58 91 59 56 60 57 61 71 63 92 64
REMARK SMILES IDX 59 65 43 66 44 67 52 68 45 69 51 70 53 71 50 72 46 73 47 74
REMARK SMILES IDX 48 75 49 76 75 77 76 78 84 79 77 80 83 81 85 82 82 83 78 84
REMARK SMILES IDX 79 85 80 86 81 87 60 88 61 89 69 90 62 91 68 92 70 93 67 94
REMARK SMILES IDX 63 95 64 96 65 97 66 98
REMARK H PARENT 90 51 58 62
REMARK Flexibility Score: inf
ROOT
ATOM      1  C   UNL A   1      34.169  33.063  29.110  1.00  0.00     0.188 C 
ENDROOT
BRANCH   1   2
ATOM      2  O   UNL A   1      35.516  32.786  28.770  1.00  0.00    -0.376 OA
BRANCH   2   3
ATOM      3  C   UNL A   1      35.757  31.663  27.927  1.00  0.00     0.202 C 
BRANCH   3   4
ATOM      4  C   UNL A   1      34.724  30.525  27.936  1.00  0.00     0.261 C 
BRANCH   4   5
ATOM      5  O   UNL A   1      33.746  30.425  26.875  1.00  0.00    -0.463 OA
BRANCH   5   6
ATOM      6  C   UNL A   1      33.444  29.439  26.021  1.00  0.00     0.306 C 
ATOM      7  O   UNL A   1      32.803  29.714  25.006  1.00  0.00    -0.252 OA
BRANCH   6   8
ATOM      8  C   UNL A   1      33.858  28.020  26.277  1.00  0.00     0.132 C 
BRANCH   8   9
ATOM      9  C   UNL A   1      32.767  27.020  25.916  1.00  0.00     0.109 C 
BRANCH   9  10
ATOM     10  C   UNL A   1      33.302  25.772  25.304  1.00  0.00     0.196 A 
ATOM     11  N   UNL A   1      32.708  24.962  24.456  1.00  0.00    -0.213 NA
ATOM     12  O   UNL A   1      34.543  25.344  25.701  1.00  0.00    -0.440 OA
ATOM     13  C   UNL A   1      33.499  23.851  24.425  1.00  0.00     0.117 A 
ATOM     14  C   UNL A   1      34.676  24.127  25.083  1.00  0.00     0.162 A 
BRANCH  13  15
ATOM     15  C   UNL A   1      33.058  22.552  23.944  1.00  0.00     0.004 A 
ATOM     16  C   UNL A   1      33.001  21.471  24.841  1.00  0.00     0.010 A 
ATOM     17  C   UNL A   1      32.593  22.369  22.638  1.00  0.00     0.010 A 
ATOM     18  C   UNL A   1      32.531  20.223  24.434  1.00  0.00     0.001 A 
ATOM     19  C   UNL A   1      32.125  21.114  22.229  1.00  0.00     0.001 A 
ATOM     20  C   UNL A   1      32.101  20.042  23.124  1.00  0.00     0.000 A 
ENDBRANCH  13  15
BRANCH  14  21
ATOM     21  C   UNL A   1      35.921  23.411  25.226  1.00  0.00     0.020 A 
ATOM     22  C   UNL A   1      36.191  22.247  24.508  1.00  0.00     0.012 A 
ATOM     23  C   UNL A   1      36.900  23.949  26.076  1.00  0.00     0.012 A 
ATOM     24  C   UNL A   1      37.438  21.634  24.635  1.00  0.00     0.001 A 
ATOM     25  C   UNL A   1      38.140  23.335  26.204  1.00  0.00     0.001 A 
ATOM     26  C   UNL A   1      38.408  22.177  25.481  1.00  0.00     0.000 A 
ENDBRANCH  14  21
ENDBRANCH   9  10
ENDBRANCH   8   9
ENDBRANCH   6   8
ENDBRANCH   5   6
ENDBRANCH   4   5
ENDBRANCH   3   4
ENDBRANCH   2   3
ENDBRANCH   1   2
BRANCH   1  27
ATOM     27  C   UNL A   1      33.333  33.781  28.047  1.00  0.00     0.188 C 
BRANCH  27  28
ATOM     28  O   UNL A   1      32.564  34.842  28.596  1.00  0.00    -0.376 OA
BRANCH  28  29
ATOM     29  C   UNL A   1      33.300  35.920  29.159  1.00  0.00     0.202 C 
BRANCH  29  30
ATOM     30  C   UNL A   1      32.740  36.693  30.376  1.00  0.00     0.261 C 
BRANCH  30  31
ATOM     31  O   UNL A   1      33.354  36.486  31.656  1.00  0.00    -0.460 OA
BRANCH  31  32
ATOM     32  C   UNL A   1      33.127  35.318  32.293  1.00  0.00     0.338 C 
ATOM     33  O   UNL A   1      32.036  34.843  32.570  1.00  0.00    -0.246 OA
BRANCH  32  34
ATOM     34  C   UNL A   1      34.426  34.638  32.494  1.00  0.00     0.060 A 
ATOM     35  C   UNL A   1      34.471  33.428  33.197  1.00  0.00     0.016 A 
ATOM     36  C   UNL A   1      35.604  35.195  31.991  1.00  0.00     0.016 A 
ATOM     37  C   UNL A   1      35.681  32.739  33.346  1.00  0.00     0.010 A 
ATOM     38  C   UNL A   1      36.824  34.534  32.192  1.00  0.00     0.010 A 
ATOM     39  C   UNL A   1      36.872  33.301  32.869  1.00  0.00    -0.014 A 
BRANCH  39  40
ATOM     40  C   UNL A   1      38.185  32.697  33.218  1.00  0.00     0.031 A 
ATOM     41  C   UNL A   1      38.726  31.612  32.329  1.00  0.00     0.074 A 
ATOM     42  C   UNL A   1      38.870  33.078  34.315  1.00  0.00     0.049 A 
ATOM     43  N   UNL A   1      39.768  30.840  32.499  1.00  0.00    -0.248 NA
ATOM     44  C   UNL A   1      37.988  31.362  31.080  1.00  0.00     0.031 C 
ATOM     45  C   UNL A   1      38.486  34.163  35.216  1.00  0.00     0.029 A 
ATOM     46  N   UNL A   1      40.022  32.573  34.871  1.00  0.00    -0.354 N 
ATOM     47  C   UNL A   1      39.800  29.999  31.392  1.00  0.00     0.074 A 
ATOM     48  C   UNL A   1      38.673  30.355  30.557  1.00  0.00     0.031 C 
ATOM     49  C   UNL A   1      39.366  34.217  36.232  1.00  0.00     0.029 A 
ATOM     50  C   UNL A   1      40.344  33.139  36.087  1.00  0.00     0.049 A 
ATOM     51  H   UNL A   1      40.566  31.873  34.443  1.00  0.00     0.167 HD
ATOM     52  C   UNL A   1      40.681  29.010  31.110  1.00  0.00     0.034 A 
ATOM     53  C   UNL A   1      41.282  32.791  36.995  1.00  0.00     0.034 A 
ATOM     54  C   UNL A   1      41.792  28.659  31.958  1.00  0.00     0.049 A 
ATOM     55  C   UNL A   1      42.188  31.611  36.701  1.00  0.00     0.074 A 
ATOM     56  C   UNL A   1      42.768  27.704  31.736  1.00  0.00     0.029 A 
ATOM     57  N   UNL A   1      42.058  29.222  33.197  1.00  0.00    -0.354 N 
ATOM     58  N   UNL A   1      42.231  30.846  35.633  1.00  0.00    -0.248 NA
ATOM     59  C   UNL A   1      43.166  31.241  37.736  1.00  0.00     0.031 C 
ATOM     60  C   UNL A   1      43.565  27.622  32.880  1.00  0.00     0.029 A 
ATOM     61  C   UNL A   1      43.148  28.592  33.778  1.00  0.00     0.049 A 
ATOM     62  H   UNL A   1      41.549  29.960  33.603  1.00  0.00     0.167 HD
ATOM     63  C   UNL A   1      43.257  29.930  35.861  1.00  0.00     0.074 A 
ATOM     64  C   UNL A   1      43.821  30.247  37.154  1.00  0.00     0.031 C 
ATOM     65  C   UNL A   1      43.696  28.915  35.072  1.00  0.00     0.034 A 
BRANCH  52  66
ATOM     66  C   UNL A   1      40.440  28.182  29.874  1.00  0.00     0.023 A 
ATOM     67  C   UNL A   1      41.224  28.316  28.717  1.00  0.00     0.031 A 
ATOM     68  C   UNL A   1      39.414  27.218  29.872  1.00  0.00     0.131 A 
ATOM     69  C   UNL A   1      40.947  27.523  27.593  1.00  0.00     0.055 A 
ATOM     70  C   UNL A   1      39.189  26.385  28.776  1.00  0.00     0.041 A 
ATOM     71  F   UNL A   1      38.617  27.068  30.941  1.00  0.00    -0.206 F 
ATOM     72  C   UNL A   1      39.954  26.540  27.624  1.00  0.00     0.022 A 
BRANCH  69  73
ATOM     73  S   UNL A   1      41.838  27.857  26.049  1.00  0.00     0.124 S 
ATOM     74  O   UNL A   1      41.577  26.640  25.285  1.00  0.00    -0.237 OA
ATOM     75  O   UNL A   1      41.185  29.067  25.563  1.00  0.00    -0.237 OA
ATOM     76  O   UNL A   1      43.224  28.028  26.481  1.00  0.00    -0.744 OA
ENDBRANCH  69  73
ENDBRANCH  52  66
BRANCH  53  77
ATOM     77  C   UNL A   1      41.372  33.487  38.317  1.00  0.00     0.023 A 
ATOM     78  C   UNL A   1      40.566  33.104  39.403  1.00  0.00     0.031 A 
ATOM     79  C   UNL A   1      42.183  34.626  38.479  1.00  0.00     0.131 A 
ATOM     80  C   UNL A   1      40.535  33.891  40.568  1.00  0.00     0.055 A 
ATOM     81  C   UNL A   1      42.203  35.362  39.665  1.00  0.00     0.041 A 
ATOM     82  F   UNL A   1      42.963  35.055  37.473  1.00  0.00    -0.206 F 
ATOM     83  C   UNL A   1      41.361  35.007  40.712  1.00  0.00     0.022 A 
BRANCH  80  84
ATOM     84  S   UNL A   1      39.290  33.518  41.836  1.00  0.00     0.124 S 
ATOM     85  O   UNL A   1      38.664  34.822  42.028  1.00  0.00    -0.237 OA
ATOM     86  O   UNL A   1      38.476  32.505  41.172  1.00  0.00    -0.237 OA
ATOM     87  O   UNL A   1      40.087  33.036  42.962  1.00  0.00    -0.744 OA
ENDBRANCH  80  84
ENDBRANCH  53  77
BRANCH  65  88
ATOM     88  C   UNL A   1      44.868  28.101  35.568  1.00  0.00     0.023 A 
ATOM     89  C   UNL A   1      44.690  26.916  36.303  1.00  0.00     0.031 A 
ATOM     90  C   UNL A   1      46.184  28.506  35.278  1.00  0.00     0.131 A 
ATOM     91  C   UNL A   1      45.808  26.201  36.760  1.00  0.00     0.055 A 
ATOM     92  C   UNL A   1      47.291  27.757  35.679  1.00  0.00     0.041 A 
ATOM     93  F   UNL A   1      46.415  29.630  34.581  1.00  0.00    -0.206 F 
ATOM     94  C   UNL A   1      47.106  26.603  36.434  1.00  0.00     0.022 A 
BRANCH  91  95
ATOM     95  S   UNL A   1      45.549  24.774  37.849  1.00  0.00     0.124 S 
ATOM     96  O   UNL A   1      46.915  24.426  38.224  1.00  0.00    -0.237 OA
ATOM     97  O   UNL A   1      44.720  25.336  38.911  1.00  0.00    -0.237 OA
ATOM     98  O   UNL A   1      44.875  23.803  36.988  1.00  0.00    -0.744 OA
ENDBRANCH  91  95
ENDBRANCH  65  88
ENDBRANCH  39  40
ENDBRANCH  32  34
ENDBRANCH  31  32
ENDBRANCH  30  31
ENDBRANCH  29  30
ENDBRANCH  28  29
ENDBRANCH  27  28
ENDBRANCH   1  27
TORSDOF 24
ENDMDL
MODEL 2
REMARK VINA RESULT:      -9.5      1.798      2.132
REMARK SMILES O=C(CCc1nc(-c2ccccc2)c(-c2ccccc2)o1)OCCOCCOCCOC(=O)c1ccc(-c2c3nc(c(-c4cc(S(=O)(=O)[O-])ccc4F)c4ccc([nH]4)c(-c4cc(S(=O)(=O)[O-])ccc4F)c4nc(c(-c5cc(S(=O)(=O)[O-])ccc5F)c5ccc2[nH]5)C=C4)C=C3)cc1
REMARK SMILES IDX 26 1 25 2 24 3 23 4 22 5 2 6 1 7 3 8 4 9 5 10 6 11 21 12
REMARK SMILES IDX 7 13 14 14 8 15 9 16 13 17 10 18 12 19 11 20 15 21 16 22
REMARK SMILES IDX 20 23 17 24 19 25 18 26 27 27 28 28 29 29 30 30 31 31 32 32
REMARK SMILES IDX 33 33 34 34 35 35 96 36 36 37 95 38 37 39 38 40 39 41 89 42
REMARK SMILES IDX 40 43 94 44 88 45 90 46 41 47 93 48 87 49 86 50 42 52 74 53
REMARK SMILES IDX 54 54 73 55 55 56 58 57 72 58 91 59 56 60 57 61 71 63 92 64
REMARK SMILES IDX 59 65 43 66 44 67 52 68 45 69 51 70 53 71 50 72 46 73 47 74
REMARK SMILES IDX 48 75 49 76 75 77 76 78 84 79 77 80 83 81 85 82 82 83 78 84
REMARK SMILES IDX 79 85 80 86 81 87 60 88 61 89 69 90 62 91 68 92 70 93 67 94
REMARK SMILES IDX 63 95 64 96 65 97 66 98
REMARK H PARENT 90 51 58 62
REMARK Flexibility Score: inf
ROOT
ATOM      1  C   UNL A   1      34.264  33.223  29.042  1.00  0.00     0.188 C 
ENDROOT
BRANCH   1   2
ATOM      2  O   UNL A   1      35.594  32.967  28.626  1.00  0.00    -0.376 OA
BRANCH   2   3
ATOM      3  C   UNL A   1      35.833  31.757  27.912  1.00  0.00     0.202 C 
BRANCH   3   4
ATOM      4  C   UNL A   1      34.753  30.665  27.972  1.00  0.00     0.261 C 
BRANCH   4   5
ATOM      5  O   UNL A   1      33.755  30.573  26.929  1.00  0.00    -0.463 OA
BRANCH   5   6
ATOM      6  C   UNL A   1      33.410  29.581  26.100  1.00  0.00     0.306 C 
ATOM      7  O   UNL A   1      32.662  29.835  25.155  1.00  0.00    -0.252 OA
BRANCH   6   8
ATOM      8  C   UNL A   1      33.904  28.179  26.301  1.00  0.00     0.132 C 
BRANCH   8   9
ATOM      9  C   UNL A   1      32.803  27.141  26.124  1.00  0.00     0.109 C 
BRANCH   9  10
ATOM     10  C   UNL A   1      33.291  25.872  25.517  1.00  0.00     0.196 A 
ATOM     11  N   UNL A   1      32.639  25.039  24.737  1.00  0.00    -0.213 NA
ATOM     12  O   UNL A   1      34.555  25.451  25.842  1.00  0.00    -0.440 OA
ATOM     13  C   UNL A   1      33.423  23.924  24.687  1.00  0.00     0.117 A 
ATOM     14  C   UNL A   1      34.643  24.214  25.254  1.00  0.00     0.162 A 
BRANCH  13  15
ATOM     15  C   UNL A   1      32.947  22.613  24.278  1.00  0.00     0.004 A 
ATOM     16  C   UNL A   1      32.620  22.392  22.927  1.00  0.00     0.010 A 
ATOM     17  C   UNL A   1      32.902  21.535  25.167  1.00  0.00     0.010 A 
ATOM     18  C   UNL A   1      32.214  21.134  22.483  1.00  0.00     0.001 A 
ATOM     19  C   UNL A   1      32.489  20.273  24.720  1.00  0.00     0.001 A 
ATOM     20  C   UNL A   1      32.140  20.076  23.382  1.00  0.00     0.000 A 
ENDBRANCH  13  15
BRANCH  14  21
ATOM     21  C   UNL A   1      35.893  23.498  25.335  1.00  0.00     0.020 A 
ATOM     22  C   UNL A   1      36.107  22.307  24.643  1.00  0.00     0.012 A 
ATOM     23  C   UNL A   1      36.931  24.061  26.092  1.00  0.00     0.012 A 
ATOM     24  C   UNL A   1      37.359  21.691  24.703  1.00  0.00     0.001 A 
ATOM     25  C   UNL A   1      38.176  23.446  26.153  1.00  0.00     0.001 A 
ATOM     26  C   UNL A   1      38.389  22.260  25.457  1.00  0.00     0.000 A 
ENDBRANCH  14  21
ENDBRANCH   9  10
ENDBRANCH   8   9
ENDBRANCH   6   8
ENDBRANCH   5   6
ENDBRANCH   4   5
ENDBRANCH   3   4
ENDBRANCH   2   3
ENDBRANCH   1   2
BRANCH   1  27
ATOM     27  C   UNL A   1      33.329  33.830  27.992  1.00  0.00     0.188 C 
BRANCH  27  28
ATOM     28  O   UNL A   1      32.569  34.910  28.513  1.00  0.00    -0.376 OA
BRANCH  28  29
ATOM     29  C   UNL A   1      33.311  35.970  29.101  1.00  0.00     0.202 C 
BRANCH  29  30
ATOM     30  C   UNL A   1      32.723  36.767  30.289  1.00  0.00     0.261 C 
BRANCH  30  31
ATOM     31  O   UNL A   1      33.298  36.576  31.589  1.00  0.00    -0.460 OA
BRANCH  31  32
ATOM     32  C   UNL A   1      33.061  35.412  32.229  1.00  0.00     0.338 C 
ATOM     33  O   UNL A   1      31.965  34.935  32.485  1.00  0.00    -0.246 OA
BRANCH  32  34
ATOM     34  C   UNL A   1      34.357  34.738  32.464  1.00  0.00     0.060 A 
ATOM     35  C   UNL A   1      34.393  33.544  33.193  1.00  0.00     0.016 A 
ATOM     36  C   UNL A   1      35.542  35.285  31.967  1.00  0.00     0.016 A 
ATOM     37  C   UNL A   1      35.601  32.860  33.376  1.00  0.00     0.010 A 
ATOM     38  C   UNL A   1      36.760  34.630  32.201  1.00  0.00     0.010 A 
ATOM     39  C   UNL A   1      36.798  33.412  32.904  1.00  0.00    -0.014 A 
BRANCH  39  40
ATOM     40  C   UNL A   1      38.106  32.818  33.286  1.00  0.00     0.031 A 
ATOM     41  C   UNL A   1      38.647  31.693  32.446  1.00  0.00     0.074 A 
ATOM     42  C   UNL A   1      38.787  33.241  34.369  1.00  0.00     0.049 A 
ATOM     43  N   UNL A   1      39.684  30.924  32.654  1.00  0.00    -0.248 NA
ATOM     44  C   UNL A   1      37.915  31.394  31.204  1.00  0.00     0.031 C 
ATOM     45  C   UNL A   1      38.404  34.365  35.222  1.00  0.00     0.029 A 
ATOM     46  N   UNL A   1      39.934  32.754  34.953  1.00  0.00    -0.354 N 
ATOM     47  C   UNL A   1      39.717  30.038  31.584  1.00  0.00     0.074 A 
ATOM     48  C   UNL A   1      38.597  30.363  30.728  1.00  0.00     0.031 C 
ATOM     49  C   UNL A   1      39.279  34.457  36.240  1.00  0.00     0.029 A 
ATOM     50  C   UNL A   1      40.252  33.370  36.145  1.00  0.00     0.049 A 
ATOM     51  H   UNL A   1      40.476  32.035  34.557  1.00  0.00     0.167 HD
ATOM     52  C   UNL A   1      40.595  29.034  31.348  1.00  0.00     0.034 A 
ATOM     53  C   UNL A   1      41.184  33.055  37.073  1.00  0.00     0.034 A 
ATOM     54  C   UNL A   1      41.700  28.713  32.216  1.00  0.00     0.049 A 
ATOM     55  C   UNL A   1      42.085  31.860  36.833  1.00  0.00     0.074 A 
ATOM     56  C   UNL A   1      42.673  27.745  32.040  1.00  0.00     0.029 A 
ATOM     57  N   UNL A   1      41.962  29.326  33.432  1.00  0.00    -0.354 N 
ATOM     58  N   UNL A   1      42.130  31.051  35.798  1.00  0.00    -0.248 NA
ATOM     59  C   UNL A   1      43.056  31.529  37.888  1.00  0.00     0.031 C 
ATOM     60  C   UNL A   1      43.464  27.707  33.191  1.00  0.00     0.029 A 
ATOM     61  C   UNL A   1      43.046  28.716  34.045  1.00  0.00     0.049 A 
ATOM     62  H   UNL A   1      41.455  30.083  33.804  1.00  0.00     0.167 HD
ATOM     63  C   UNL A   1      43.150  30.140  36.070  1.00  0.00     0.074 A 
ATOM     64  C   UNL A   1      43.709  30.509  37.352  1.00  0.00     0.031 C 
ATOM     65  C   UNL A   1      43.589  29.091  35.328  1.00  0.00     0.034 A 
BRANCH  52  66
ATOM     66  C   UNL A   1      40.357  28.155  30.147  1.00  0.00     0.023 A 
ATOM     67  C   UNL A   1      41.139  28.246  28.984  1.00  0.00     0.031 A 
ATOM     68  C   UNL A   1      39.336  27.187  30.185  1.00  0.00     0.131 A 
ATOM     69  C   UNL A   1      40.864  27.407  27.893  1.00  0.00     0.055 A 
ATOM     70  C   UNL A   1      39.114  26.310  29.123  1.00  0.00     0.041 A 
ATOM     71  F   UNL A   1      38.541  27.076  31.261  1.00  0.00    -0.206 F 
ATOM     72  C   UNL A   1      39.876  26.422  27.965  1.00  0.00     0.022 A 
BRANCH  69  73
ATOM     73  S   UNL A   1      41.752  27.684  26.335  1.00  0.00     0.124 S 
ATOM     74  O   UNL A   1      43.139  27.483  26.744  1.00  0.00    -0.237 OA
ATOM     75  O   UNL A   1      41.189  26.658  25.465  1.00  0.00    -0.237 OA
ATOM     76  O   UNL A   1      41.407  29.060  25.983  1.00  0.00    -0.744 OA
ENDBRANCH  69  73
ENDBRANCH  52  66
BRANCH  53  77
ATOM     77  C   UNL A   1      41.270  33.806  38.365  1.00  0.00     0.023 A 
ATOM     78  C   UNL A   1      42.207  34.837  38.552  1.00  0.00     0.031 A 
ATOM     79  C   UNL A   1      40.495  33.422  39.475  1.00  0.00     0.131 A 
ATOM     80  C   UNL A   1      42.393  35.395  39.829  1.00  0.00     0.055 A 
ATOM     81  C   UNL A   1      40.633  34.030  40.724  1.00  0.00     0.041 A 
ATOM     82  F   UNL A   1      39.595  32.430  39.367  1.00  0.00    -0.206 F 
ATOM     83  C   UNL A   1      41.600  35.010  40.912  1.00  0.00     0.022 A 
BRANCH  80  84
ATOM     84  S   UNL A   1      43.788  36.527  40.088  1.00  0.00     0.124 S 
ATOM     85  O   UNL A   1      44.577  36.303  38.881  1.00  0.00    -0.237 OA
ATOM     86  O   UNL A   1      43.116  37.819  40.186  1.00  0.00    -0.237 OA
ATOM     87  O   UNL A   1      44.392  36.044  41.327  1.00  0.00    -0.744 OA
ENDBRANCH  80  84
ENDBRANCH  53  77
BRANCH  65  88
ATOM     88  C   UNL A   1      44.754  28.293  35.863  1.00  0.00     0.023 A 
ATOM     89  C   UNL A   1      46.084  28.613  35.539  1.00  0.00     0.031 A 
ATOM     90  C   UNL A   1      44.529  27.208  36.731  1.00  0.00     0.131 A 
ATOM     91  C   UNL A   1      47.134  27.832  36.045  1.00  0.00     0.055 A 
ATOM     92  C   UNL A   1      45.581  26.475  37.282  1.00  0.00     0.041 A 
ATOM     93  F   UNL A   1      43.280  26.855  37.074  1.00  0.00    -0.206 F 
ATOM     94  C   UNL A   1      46.892  26.779  36.931  1.00  0.00     0.022 A 
BRANCH  91  95
ATOM     95  S   UNL A   1      48.824  28.163  35.473  1.00  0.00     0.124 S 
ATOM     96  O   UNL A   1      49.035  29.533  35.929  1.00  0.00    -0.237 OA
ATOM     97  O   UNL A   1      49.597  27.135  36.163  1.00  0.00    -0.237 OA
ATOM     98  O   UNL A   1      48.734  27.999  34.022  1.00  0.00    -0.744 OA
ENDBRANCH  91  95
ENDBRANCH  65  88
ENDBRANCH  39  40
ENDBRANCH  32  34
ENDBRANCH  31  32
ENDBRANCH  30  31
ENDBRANCH  29  30
ENDBRANCH  28  29
ENDBRANCH  27  28
ENDBRANCH   1  27
TORSDOF 24
ENDMDL
MODEL 3
REMARK VINA RESULT:      -9.3      7.355     16.407
REMARK SMILES O=C(CCc1nc(-c2ccccc2)c(-c2ccccc2)o1)OCCOCCOCCOC(=O)c1ccc(-c2c3nc(c(-c4cc(S(=O)(=O)[O-])ccc4F)c4ccc([nH]4)c(-c4cc(S(=O)(=O)[O-])ccc4F)c4nc(c(-c5cc(S(=O)(=O)[O-])ccc5F)c5ccc2[nH]5)C=C4)C=C3)cc1
REMARK SMILES IDX 26 1 25 2 24 3 23 4 22 5 2 6 1 7 3 8 4 9 5 10 6 11 21 12
REMARK SMILES IDX 7 13 14 14 8 15 9 16 13 17 10 18 12 19 11 20 15 21 16 22
REMARK SMILES IDX 20 23 17 24 19 25 18 26 27 27 28 28 29 29 30 30 31 31 32 32
REMARK SMILES IDX 33 33 34 34 35 35 96 36 36 37 95 38 37 39 38 40 39 41 89 42
REMARK SMILES IDX 40 43 94 44 88 45 90 46 41 47 93 48 87 49 86 50 42 52 74 53
REMARK SMILES IDX 54 54 73 55 55 56 58 57 72 58 91 59 56 60 57 61 71 63 92 64
REMARK SMILES IDX 59 65 43 66 44 67 52 68 45 69 51 70 53 71 50 72 46 73 47 74
REMARK SMILES IDX 48 75 49 76 75 77 76 78 84 79 77 80 83 81 85 82 82 83 78 84
REMARK SMILES IDX 79 85 80 86 81 87 60 88 61 89 69 90 62 91 68 92 70 93 67 94
REMARK SMILES IDX 63 95 64 96 65 97 66 98
REMARK H PARENT 90 51 58 62
REMARK Flexibility Score: inf
ROOT
ATOM      1  C   UNL A   1      47.968  19.514  38.894  1.00  0.00     0.188 C 
ENDROOT
BRANCH   1   2
ATOM      2  O   UNL A   1      48.028  18.279  39.586  1.00  0.00    -0.376 OA
BRANCH   2   3
ATOM      3  C   UNL A   1      47.471  18.239  40.897  1.00  0.00     0.202 C 
BRANCH   3   4
ATOM      4  C   UNL A   1      46.215  17.380  41.115  1.00  0.00     0.261 C 
BRANCH   4   5
ATOM      5  O   UNL A   1      45.033  17.606  40.313  1.00  0.00    -0.463 OA
BRANCH   5   6
ATOM      6  C   UNL A   1      44.621  17.083  39.151  1.00  0.00     0.306 C 
ATOM      7  O   UNL A   1      44.794  17.731  38.118  1.00  0.00    -0.252 OA
BRANCH   6   8
ATOM      8  C   UNL A   1      43.952  15.742  39.084  1.00  0.00     0.132 C 
BRANCH   8   9
ATOM      9  C   UNL A   1      42.579  15.740  39.745  1.00  0.00     0.109 C 
BRANCH   9  10
ATOM     10  C   UNL A   1      42.606  15.226  41.141  1.00  0.00     0.196 A 
ATOM     11  N   UNL A   1      42.728  15.909  42.258  1.00  0.00    -0.213 NA
ATOM     12  O   UNL A   1      42.568  13.867  41.325  1.00  0.00    -0.440 OA
ATOM     13  C   UNL A   1      42.971  14.968  43.215  1.00  0.00     0.117 A 
ATOM     14  C   UNL A   1      42.752  13.720  42.677  1.00  0.00     0.162 A 
BRANCH  13  15
ATOM     15  C   UNL A   1      43.553  15.261  44.515  1.00  0.00     0.004 A 
ATOM     16  C   UNL A   1      44.610  16.185  44.601  1.00  0.00     0.010 A 
ATOM     17  C   UNL A   1      43.026  14.729  45.695  1.00  0.00     0.010 A 
ATOM     18  C   UNL A   1      45.159  16.536  45.833  1.00  0.00     0.001 A 
ATOM     19  C   UNL A   1      43.582  15.079  46.933  1.00  0.00     0.001 A 
ATOM     20  C   UNL A   1      44.650  15.976  47.000  1.00  0.00     0.000 A 
ENDBRANCH  13  15
BRANCH  14  21
ATOM     21  C   UNL A   1      42.694  12.394  43.242  1.00  0.00     0.020 A 
ATOM     22  C   UNL A   1      41.697  11.485  42.892  1.00  0.00     0.012 A 
ATOM     23  C   UNL A   1      43.713  12.005  44.125  1.00  0.00     0.012 A 
ATOM     24  C   UNL A   1      41.729  10.192  43.418  1.00  0.00     0.001 A 
ATOM     25  C   UNL A   1      43.742  10.719  44.650  1.00  0.00     0.001 A 
ATOM     26  C   UNL A   1      42.748   9.812  44.294  1.00  0.00     0.000 A 
ENDBRANCH  14  21
ENDBRANCH   9  10
ENDBRANCH   8   9
ENDBRANCH   6   8
ENDBRANCH   5   6
ENDBRANCH   4   5
ENDBRANCH   3   4
ENDBRANCH   2   3
ENDBRANCH   1   2
BRANCH   1  27
ATOM     27  C   UNL A   1      48.958  19.695  37.740  1.00  0.00     0.188 C 
BRANCH  27  28
ATOM     28  O   UNL A   1      48.633  20.812  36.925  1.00  0.00    -0.376 OA
BRANCH  28  29
ATOM     29  C   UNL A   1      47.497  21.568  37.326  1.00  0.00     0.202 C 
BRANCH  29  30
ATOM     30  C   UNL A   1      47.605  23.099  37.510  1.00  0.00     0.261 C 
BRANCH  30  31
ATOM     31  O   UNL A   1      46.492  23.913  37.118  1.00  0.00    -0.460 OA
BRANCH  31  32
ATOM     32  C   UNL A   1      46.599  25.252  37.253  1.00  0.00     0.338 C 
ATOM     33  O   UNL A   1      47.354  25.847  38.007  1.00  0.00    -0.246 OA
BRANCH  32  34
ATOM     34  C   UNL A   1      45.733  25.892  36.237  1.00  0.00     0.060 A 
ATOM     35  C   UNL A   1      46.118  27.112  35.670  1.00  0.00     0.016 A 
ATOM     36  C   UNL A   1      44.536  25.290  35.844  1.00  0.00     0.016 A 
ATOM     37  C   UNL A   1      45.344  27.704  34.665  1.00  0.00     0.010 A 
ATOM     38  C   UNL A   1      43.730  25.913  34.880  1.00  0.00     0.010 A 
ATOM     39  C   UNL A   1      44.129  27.122  34.282  1.00  0.00    -0.014 A 
BRANCH  39  40
ATOM     40  C   UNL A   1      43.191  27.852  33.388  1.00  0.00     0.031 A 
ATOM     41  C   UNL A   1      42.309  28.908  33.995  1.00  0.00     0.074 A 
ATOM     42  C   UNL A   1      43.098  27.566  32.074  1.00  0.00     0.049 A 
ATOM     43  N   UNL A   1      41.320  29.574  33.459  1.00  0.00    -0.248 NA
ATOM     44  C   UNL A   1      42.578  29.255  35.401  1.00  0.00     0.031 C 
ATOM     45  C   UNL A   1      43.944  26.615  31.354  1.00  0.00     0.029 A 
ATOM     46  N   UNL A   1      42.228  28.032  31.116  1.00  0.00    -0.354 N 
ATOM     47  C   UNL A   1      40.834  30.403  34.464  1.00  0.00     0.074 A 
ATOM     48  C   UNL A   1      41.637  30.156  35.642  1.00  0.00     0.031 C 
ATOM     49  C   UNL A   1      43.526  26.541  30.078  1.00  0.00     0.029 A 
ATOM     50  C   UNL A   1      42.352  27.395  29.899  1.00  0.00     0.049 A 
ATOM     51  H   UNL A   1      41.578  28.752  31.282  1.00  0.00     0.167 HD
ATOM     52  C   UNL A   1      39.802  31.278  34.410  1.00  0.00     0.034 A 
ATOM     53  C   UNL A   1      41.575  27.455  28.795  1.00  0.00     0.034 A 
ATOM     54  C   UNL A   1      39.003  31.505  33.232  1.00  0.00     0.049 A 
ATOM     55  C   UNL A   1      40.362  28.364  28.798  1.00  0.00     0.074 A 
ATOM     56  C   UNL A   1      37.965  32.405  33.062  1.00  0.00     0.029 A 
ATOM     57  N   UNL A   1      39.129  30.811  32.038  1.00  0.00    -0.354 N 
ATOM     58  N   UNL A   1      39.935  29.171  29.744  1.00  0.00    -0.248 NA
ATOM     59  C   UNL A   1      39.522  28.367  27.591  1.00  0.00     0.031 C 
ATOM     60  C   UNL A   1      37.402  32.188  31.803  1.00  0.00     0.029 A 
ATOM     61  C   UNL A   1      38.148  31.221  31.148  1.00  0.00     0.049 A 
ATOM     62  H   UNL A   1      39.813  30.129  31.850  1.00  0.00     0.167 HD
ATOM     63  C   UNL A   1      38.798  29.793  29.229  1.00  0.00     0.074 A 
ATOM     64  C   UNL A   1      38.616  29.287  27.887  1.00  0.00     0.031 C 
ATOM     65  C   UNL A   1      37.975  30.702  29.813  1.00  0.00     0.034 A 
BRANCH  52  66
ATOM     66  C   UNL A   1      39.421  32.000  35.677  1.00  0.00     0.023 A 
ATOM     67  C   UNL A   1      39.980  33.239  36.031  1.00  0.00     0.031 A 
ATOM     68  C   UNL A   1      38.455  31.439  36.533  1.00  0.00     0.131 A 
ATOM     69  C   UNL A   1      39.592  33.860  37.228  1.00  0.00     0.055 A 
ATOM     70  C   UNL A   1      38.025  32.095  37.686  1.00  0.00     0.041 A 
ATOM     71  F   UNL A   1      37.911  30.244  36.257  1.00  0.00    -0.206 F 
ATOM     72  C   UNL A   1      38.600  33.311  38.043  1.00  0.00     0.022 A 
BRANCH  69  73
ATOM     73  S   UNL A   1      40.475  35.353  37.761  1.00  0.00     0.124 S 
ATOM     74  O   UNL A   1      40.321  35.287  39.211  1.00  0.00    -0.237 OA
ATOM     75  O   UNL A   1      41.822  35.122  37.251  1.00  0.00    -0.237 OA
ATOM     76  O   UNL A   1      39.740  36.437  37.111  1.00  0.00    -0.744 OA
ENDBRANCH  69  73
ENDBRANCH  52  66
BRANCH  53  77
ATOM     77  C   UNL A   1      41.839  26.570  27.616  1.00  0.00     0.023 A 
ATOM     78  C   UNL A   1      41.311  25.270  27.543  1.00  0.00     0.031 A 
ATOM     79  C   UNL A   1      42.725  26.971  26.598  1.00  0.00     0.131 A 
ATOM     80  C   UNL A   1      41.727  24.399  26.521  1.00  0.00     0.055 A 
ATOM     81  C   UNL A   1      43.077  26.126  25.544  1.00  0.00     0.041 A 
ATOM     82  F   UNL A   1      43.279  28.195  26.620  1.00  0.00    -0.206 F 
ATOM     83  C   UNL A   1      42.593  24.824  25.512  1.00  0.00     0.022 A 
BRANCH  80  84
ATOM     84  S   UNL A   1      41.232  22.654  26.613  1.00  0.00     0.124 S 
ATOM     85  O   UNL A   1      39.788  22.746  26.424  1.00  0.00    -0.237 OA
ATOM     86  O   UNL A   1      41.988  22.067  25.511  1.00  0.00    -0.237 OA
ATOM     87  O   UNL A   1      41.663  22.249  27.949  1.00  0.00    -0.744 OA
ENDBRANCH  80  84
ENDBRANCH  53  77
BRANCH  65  88
ATOM     88  C   UNL A   1      36.828  31.239  28.989  1.00  0.00     0.023 A 
ATOM     89  C   UNL A   1      35.768  30.417  28.569  1.00  0.00     0.031 A 
ATOM     90  C   UNL A   1      36.785  32.601  28.640  1.00  0.00     0.131 A 
ATOM     91  C   UNL A   1      34.733  30.954  27.788  1.00  0.00     0.055 A 
ATOM     92  C   UNL A   1      35.720  33.143  27.918  1.00  0.00     0.041 A 
ATOM     93  F   UNL A   1      37.770  33.433  29.012  1.00  0.00    -0.206 F 
ATOM     94  C   UNL A   1      34.692  32.316  27.479  1.00  0.00     0.022 A 
BRANCH  91  95
ATOM     95  S   UNL A   1      33.472  29.835  27.118  1.00  0.00     0.124 S 
ATOM     96  O   UNL A   1      33.889  29.706  25.726  1.00  0.00    -0.237 OA
ATOM     97  O   UNL A   1      33.637  28.644  27.946  1.00  0.00    -0.237 OA
ATOM     98  O   UNL A   1      32.221  30.564  27.327  1.00  0.00    -0.744 OA
ENDBRANCH  91  95
ENDBRANCH  65  88
ENDBRANCH  39  40
ENDBRANCH  32  34
ENDBRANCH  31  32
ENDBRANCH  30  31
ENDBRANCH  29  30
ENDBRANCH  28  29
ENDBRANCH  27  28
ENDBRANCH   1  27
TORSDOF 24
ENDMDL
