MODEL 1
REMARK VINA RESULT:      -8.1      0.000      0.000
REMARK SMILES Cc1cccc(C(=O)Nc2cc(C(=O)OCCOCCOCCOC(=O)c3ccc(-c4c5nc(c(-c6cc(S(=O)(=O)[O-])ccc6F)c6ccc([nH]6)c(-c6cc(S(=O)(=O)[O-])ccc6F)c6nc(c(-c7cc(S(=O)(=O)[O-])ccc7F)c7ccc4[nH]7)C=C6)C=C5)cc3)ccc2N2CC[NH+](CC(=O)NC(C)(C)C)CC2)c1
REMARK SMILES IDX 19 1 18 2 17 3 16 4 15 5 13 6 14 7 12 8 10 9 11 10 92 11
REMARK SMILES IDX 91 12 90 13 9 14 7 15 8 16 6 18 1 19 2 20 3 21 107 22 4 23
REMARK SMILES IDX 5 24 93 25 94 26 106 27 95 28 105 29 96 30 97 32 98 33 99 34
REMARK SMILES IDX 100 35 101 37 102 38 103 39 104 40 20 41 21 42 22 43 23 44
REMARK SMILES IDX 24 45 25 46 26 47 27 48 28 49 89 50 29 51 88 52 30 53 31 54
REMARK SMILES IDX 32 55 82 56 33 57 87 58 81 59 83 60 34 61 86 62 80 63 79 64
REMARK SMILES IDX 35 66 67 67 47 68 66 69 48 70 51 71 65 72 84 73 49 74 50 75
REMARK SMILES IDX 64 77 85 78 52 79 36 80 37 81 45 82 38 83 44 84 46 85 43 86
REMARK SMILES IDX 39 87 40 88 41 89 42 90 68 91 69 92 77 93 70 94 76 95 78 96
REMARK SMILES IDX 75 97 71 98 72 99 73 100 74 101 53 102 54 103 62 104 55 105
REMARK SMILES IDX 61 106 63 107 60 108 56 109 57 110 58 111 59 112
REMARK H PARENT 9 17 96 31 100 36 83 65 51 76
REMARK Flexibility Score: inf
ROOT
ATOM      1  C   UNL A   1      39.955  28.849  29.634  1.00  0.00     0.188 C 
ENDROOT
BRANCH   1   2
ATOM      2  O   UNL A   1      40.871  28.832  28.512  1.00  0.00    -0.376 OA
BRANCH   2   3
ATOM      3  C   UNL A   1      40.600  28.346  27.196  1.00  0.00     0.202 C 
BRANCH   3   4
ATOM      4  C   UNL A   1      40.454  26.712  26.775  1.00  0.00     0.261 C 
BRANCH   4   5
ATOM      5  O   UNL A   1      40.129  25.398  27.624  1.00  0.00    -0.460 OA
BRANCH   5   6
ATOM      6  C   UNL A   1      40.626  24.103  27.775  1.00  0.00     0.338 C 
ATOM      7  O   UNL A   1      40.098  22.999  27.868  1.00  0.00    -0.246 OA
BRANCH   6   8
ATOM      8  C   UNL A   1      42.057  23.912  27.843  1.00  0.00     0.062 A 
ATOM      9  C   UNL A   1      43.920  23.961  26.441  1.00  0.00     0.065 A 
ATOM     10  C   UNL A   1      42.615  23.571  26.649  1.00  0.00     0.044 A 
ATOM     11  C   UNL A   1      44.770  24.494  27.469  1.00  0.00     0.061 A 
ATOM     12  C   UNL A   1      44.175  24.798  28.688  1.00  0.00     0.029 A 
ATOM     13  C   UNL A   1      42.811  24.583  28.839  1.00  0.00     0.018 A 
BRANCH   9  14
ATOM     14  N   UNL A   1      44.335  23.934  25.109  1.00  0.00    -0.320 N 
ATOM     15  C   UNL A   1      44.893  22.866  24.424  1.00  0.00     0.255 C 
ATOM     16  O   UNL A   1      45.309  23.083  23.281  1.00  0.00    -0.269 OA
ATOM     17  H   UNL A   1      44.221  24.768  24.599  1.00  0.00     0.170 HD
BRANCH  15  18
ATOM     18  C   UNL A   1      44.912  21.433  24.928  1.00  0.00     0.040 A 
ATOM     19  C   UNL A   1      42.741  18.434  26.011  1.00  0.00     0.044 C 
ATOM     20  C   UNL A   1      43.916  19.278  25.587  1.00  0.00    -0.050 A 
ATOM     21  C   UNL A   1      45.181  18.688  25.555  1.00  0.00     0.003 A 
ATOM     22  C   UNL A   1      43.787  20.650  25.267  1.00  0.00     0.017 A 
ATOM     23  C   UNL A   1      46.296  19.443  25.201  1.00  0.00     0.001 A 
ATOM     24  C   UNL A   1      46.163  20.802  24.905  1.00  0.00     0.014 A 
ENDBRANCH  15  18
ENDBRANCH   9  14
BRANCH  11  25
ATOM     25  N   UNL A   1      46.073  24.880  27.206  1.00  0.00    -0.359 N 
ATOM     26  C   UNL A   1      47.217  24.756  28.128  1.00  0.00     0.178 C 
ATOM     27  C   UNL A   1      46.199  26.085  26.408  1.00  0.00     0.178 C 
ATOM     28  C   UNL A   1      48.568  24.890  27.325  1.00  0.00     0.284 C 
ATOM     29  C   UNL A   1      47.357  25.845  25.445  1.00  0.00     0.284 C 
ATOM     30  N   UNL A   1      48.645  25.792  26.139  1.00  0.00    -0.324 N 
ATOM     31  H   UNL A   1      49.343  25.353  25.537  1.00  0.00     0.348 HD
BRANCH  30  32
ATOM     32  C   UNL A   1      49.226  27.133  26.350  1.00  0.00     0.363 C 
BRANCH  32  33
ATOM     33  C   UNL A   1      50.645  27.178  26.906  1.00  0.00     0.275 C 
ATOM     34  O   UNL A   1      50.809  27.193  28.133  1.00  0.00    -0.268 OA
ATOM     35  N   UNL A   1      51.775  27.183  26.146  1.00  0.00    -0.347 N 
ATOM     36  H   UNL A   1      52.562  27.030  26.718  1.00  0.00     0.164 HD
BRANCH  35  37
ATOM     37  C   UNL A   1      52.207  27.345  24.725  1.00  0.00     0.032 C 
ATOM     38  C   UNL A   1      53.049  26.142  24.256  1.00  0.00     0.034 C 
ATOM     39  C   UNL A   1      50.921  27.325  23.871  1.00  0.00     0.034 C 
ATOM     40  C   UNL A   1      52.945  28.647  24.400  1.00  0.00     0.034 C 
ENDBRANCH  35  37
ENDBRANCH  32  33
ENDBRANCH  30  32
ENDBRANCH  11  25
ENDBRANCH   6   8
ENDBRANCH   5   6
ENDBRANCH   4   5
ENDBRANCH   3   4
ENDBRANCH   2   3
ENDBRANCH   1   2
BRANCH   1  41
ATOM     41  C   UNL A   1      38.581  28.137  29.698  1.00  0.00     0.188 C 
BRANCH  41  42
ATOM     42  O   UNL A   1      37.692  28.490  28.648  1.00  0.00    -0.376 OA
BRANCH  42  43
ATOM     43  C   UNL A   1      36.698  29.457  28.972  1.00  0.00     0.202 C 
BRANCH  43  44
ATOM     44  C   UNL A   1      36.192  30.353  27.816  1.00  0.00     0.261 C 
BRANCH  44  45
ATOM     45  O   UNL A   1      36.747  31.692  27.813  1.00  0.00    -0.460 OA
BRANCH  45  46
ATOM     46  C   UNL A   1      36.399  32.529  28.869  1.00  0.00     0.338 C 
ATOM     47  O   UNL A   1      35.286  32.648  29.268  1.00  0.00    -0.246 OA
BRANCH  46  48
ATOM     48  C   UNL A   1      37.638  33.089  29.519  1.00  0.00     0.060 A 
ATOM     49  C   UNL A   1      38.057  34.416  29.614  1.00  0.00     0.016 A 
ATOM     50  C   UNL A   1      38.531  32.185  29.964  1.00  0.00     0.016 A 
ATOM     51  C   UNL A   1      39.420  34.776  30.037  1.00  0.00     0.010 A 
ATOM     52  C   UNL A   1      39.857  32.597  30.085  1.00  0.00     0.010 A 
ATOM     53  C   UNL A   1      40.445  33.847  30.255  1.00  0.00    -0.014 A 
BRANCH  53  54
ATOM     54  C   UNL A   1      42.072  34.074  30.496  1.00  0.00     0.031 A 
ATOM     55  C   UNL A   1      43.419  34.209  29.488  1.00  0.00     0.074 A 
ATOM     56  C   UNL A   1      42.392  34.255  31.799  1.00  0.00     0.049 A 
ATOM     57  N   UNL A   1      44.557  34.819  29.809  1.00  0.00    -0.248 NA
ATOM     58  C   UNL A   1      43.632  33.766  28.070  1.00  0.00     0.031 C 
ATOM     59  C   UNL A   1      43.688  34.517  32.421  1.00  0.00     0.029 A 
ATOM     60  N   UNL A   1      41.570  33.962  32.885  1.00  0.00    -0.354 N 
ATOM     61  C   UNL A   1      45.442  34.742  28.727  1.00  0.00     0.074 A 
ATOM     62  C   UNL A   1      44.612  34.537  27.607  1.00  0.00     0.031 C 
ATOM     63  C   UNL A   1      43.673  34.026  33.669  1.00  0.00     0.029 A 
ATOM     64  C   UNL A   1      42.384  33.393  33.867  1.00  0.00     0.049 A 
ATOM     65  H   UNL A   1      40.602  34.125  32.948  1.00  0.00     0.167 HD
ATOM     66  C   UNL A   1      46.709  34.212  28.709  1.00  0.00     0.034 A 
ATOM     67  C   UNL A   1      42.181  32.092  34.206  1.00  0.00     0.034 A 
ATOM     68  C   UNL A   1      47.000  33.536  29.945  1.00  0.00     0.049 A 
ATOM     69  C   UNL A   1      43.347  31.232  33.790  1.00  0.00     0.074 A 
ATOM     70  C   UNL A   1      47.437  33.976  31.174  1.00  0.00     0.029 A 
ATOM     71  N   UNL A   1      46.519  32.240  30.118  1.00  0.00    -0.354 N 
ATOM     72  N   UNL A   1      44.184  31.494  32.816  1.00  0.00    -0.248 NA
ATOM     73  C   UNL A   1      43.684  30.027  34.529  1.00  0.00     0.031 C 
ATOM     74  C   UNL A   1      47.164  32.946  32.110  1.00  0.00     0.029 A 
ATOM     75  C   UNL A   1      46.605  31.864  31.445  1.00  0.00     0.049 A 
ATOM     76  H   UNL A   1      46.166  31.671  29.395  1.00  0.00     0.167 HD
ATOM     77  C   UNL A   1      45.165  30.530  32.802  1.00  0.00     0.074 A 
ATOM     78  C   UNL A   1      44.811  29.654  33.907  1.00  0.00     0.031 C 
ATOM     79  C   UNL A   1      46.221  30.536  31.927  1.00  0.00     0.034 A 
BRANCH  66  80
ATOM     80  C   UNL A   1      47.651  34.228  27.488  1.00  0.00     0.023 A 
ATOM     81  C   UNL A   1      48.634  33.225  27.364  1.00  0.00     0.031 A 
ATOM     82  C   UNL A   1      47.684  35.200  26.458  1.00  0.00     0.131 A 
ATOM     83  C   UNL A   1      49.617  33.278  26.341  1.00  0.00     0.055 A 
ATOM     84  C   UNL A   1      48.705  35.304  25.501  1.00  0.00     0.041 A 
ATOM     85  F   UNL A   1      46.691  36.076  26.282  1.00  0.00    -0.206 F 
ATOM     86  C   UNL A   1      49.691  34.344  25.447  1.00  0.00     0.022 A 
BRANCH  83  87
ATOM     87  S   UNL A   1      50.836  31.942  26.168  1.00  0.00     0.124 S 
ATOM     88  O   UNL A   1      51.803  32.251  27.215  1.00  0.00    -0.237 OA
ATOM     89  O   UNL A   1      50.011  30.757  26.375  1.00  0.00    -0.237 OA
ATOM     90  O   UNL A   1      51.336  32.114  24.804  1.00  0.00    -0.744 OA
ENDBRANCH  83  87
ENDBRANCH  66  80
BRANCH  67  91
ATOM     91  C   UNL A   1      40.740  31.680  34.282  1.00  0.00     0.023 A 
ATOM     92  C   UNL A   1      39.913  32.424  35.162  1.00  0.00     0.031 A 
ATOM     93  C   UNL A   1      40.101  30.828  33.373  1.00  0.00     0.131 A 
ATOM     94  C   UNL A   1      38.527  32.474  34.982  1.00  0.00     0.055 A 
ATOM     95  C   UNL A   1      38.697  30.792  33.270  1.00  0.00     0.041 A 
ATOM     96  F   UNL A   1      40.808  30.120  32.479  1.00  0.00    -0.206 F 
ATOM     97  C   UNL A   1      37.906  31.642  34.052  1.00  0.00     0.022 A 
BRANCH  94  98
ATOM     98  S   UNL A   1      37.592  33.857  35.721  1.00  0.00     0.124 S 
ATOM     99  O   UNL A   1      38.591  34.472  36.588  1.00  0.00    -0.237 OA
ATOM    100  O   UNL A   1      37.181  34.650  34.564  1.00  0.00    -0.237 OA
ATOM    101  O   UNL A   1      36.492  33.180  36.402  1.00  0.00    -0.744 OA
ENDBRANCH  94  98
ENDBRANCH  67  91
BRANCH  79 102
ATOM    102  C   UNL A   1      47.136  29.344  31.670  1.00  0.00     0.023 A 
ATOM    103  C   UNL A   1      48.501  29.344  31.990  1.00  0.00     0.031 A 
ATOM    104  C   UNL A   1      46.666  28.135  31.107  1.00  0.00     0.131 A 
ATOM    105  C   UNL A   1      49.365  28.310  31.591  1.00  0.00     0.055 A 
ATOM    106  C   UNL A   1      47.511  27.062  30.784  1.00  0.00     0.041 A 
ATOM    107  F   UNL A   1      45.363  27.921  30.880  1.00  0.00    -0.206 F 
ATOM    108  C   UNL A   1      48.879  27.161  30.987  1.00  0.00     0.022 A 
BRANCH 105 109
ATOM    109  S   UNL A   1      51.144  28.576  31.810  1.00  0.00     0.124 S 
ATOM    110  O   UNL A   1      51.435  29.553  30.765  1.00  0.00    -0.237 OA
ATOM    111  O   UNL A   1      51.216  29.078  33.180  1.00  0.00    -0.237 OA
ATOM    112  O   UNL A   1      51.720  27.250  31.601  1.00  0.00    -0.744 OA
ENDBRANCH 105 109
ENDBRANCH  79 102
ENDBRANCH  53  54
ENDBRANCH  46  48
ENDBRANCH  45  46
ENDBRANCH  44  45
ENDBRANCH  43  44
ENDBRANCH  42  43
ENDBRANCH  41  42
ENDBRANCH   1  41
TORSDOF 26
ENDMDL
MODEL 2
REMARK VINA RESULT:      -7.8      6.347     11.399
REMARK SMILES Cc1cccc(C(=O)Nc2cc(C(=O)OCCOCCOCCOC(=O)c3ccc(-c4c5nc(c(-c6cc(S(=O)(=O)[O-])ccc6F)c6ccc([nH]6)c(-c6cc(S(=O)(=O)[O-])ccc6F)c6nc(c(-c7cc(S(=O)(=O)[O-])ccc7F)c7ccc4[nH]7)C=C6)C=C5)cc3)ccc2N2CC[NH+](CC(=O)NC(C)(C)C)CC2)c1
REMARK SMILES IDX 19 1 18 2 17 3 16 4 15 5 13 6 14 7 12 8 10 9 11 10 92 11
REMARK SMILES IDX 91 12 90 13 9 14 7 15 8 16 6 18 1 19 2 20 3 21 107 22 4 23
REMARK SMILES IDX 5 24 93 25 94 26 106 27 95 28 105 29 96 30 97 32 98 33 99 34
REMARK SMILES IDX 100 35 101 37 102 38 103 39 104 40 20 41 21 42 22 43 23 44
REMARK SMILES IDX 24 45 25 46 26 47 27 48 28 49 89 50 29 51 88 52 30 53 31 54
REMARK SMILES IDX 32 55 82 56 33 57 87 58 81 59 83 60 34 61 86 62 80 63 79 64
REMARK SMILES IDX 35 66 67 67 47 68 66 69 48 70 51 71 65 72 84 73 49 74 50 75
REMARK SMILES IDX 64 77 85 78 52 79 36 80 37 81 45 82 38 83 44 84 46 85 43 86
REMARK SMILES IDX 39 87 40 88 41 89 42 90 68 91 69 92 77 93 70 94 76 95 78 96
REMARK SMILES IDX 75 97 71 98 72 99 73 100 74 101 53 102 54 103 62 104 55 105
REMARK SMILES IDX 61 106 63 107 60 108 56 109 57 110 58 111 59 112
REMARK H PARENT 9 17 96 31 100 36 83 65 51 76
REMARK Flexibility Score: inf
ROOT
ATOM      1  C   UNL A   1      39.994  32.914  33.594  1.00  0.00     0.188 C 
ENDROOT
BRANCH   1   2
ATOM      2  O   UNL A   1      38.966  32.797  34.607  1.00  0.00    -0.376 OA
BRANCH   2   3
ATOM      3  C   UNL A   1      37.732  32.085  34.494  1.00  0.00     0.202 C 
BRANCH   3   4
ATOM      4  C   UNL A   1      36.606  32.286  33.243  1.00  0.00     0.261 C 
BRANCH   4   5
ATOM      5  O   UNL A   1      36.463  33.368  32.077  1.00  0.00    -0.460 OA
BRANCH   5   6
ATOM      6  C   UNL A   1      36.959  33.590  30.792  1.00  0.00     0.338 C 
ATOM      7  O   UNL A   1      38.005  34.065  30.358  1.00  0.00    -0.246 OA
BRANCH   6   8
ATOM      8  C   UNL A   1      36.147  33.209  29.659  1.00  0.00     0.062 A 
ATOM      9  C   UNL A   1      36.072  31.566  28.004  1.00  0.00     0.065 A 
ATOM     10  C   UNL A   1      36.818  32.462  28.739  1.00  0.00     0.044 A 
ATOM     11  C   UNL A   1      34.635  31.536  27.999  1.00  0.00     0.061 A 
ATOM     12  C   UNL A   1      33.981  32.336  28.928  1.00  0.00     0.029 A 
ATOM     13  C   UNL A   1      34.741  33.102  29.804  1.00  0.00     0.018 A 
BRANCH   9  14
ATOM     14  N   UNL A   1      36.813  30.578  27.357  1.00  0.00    -0.320 N 
ATOM     15  C   UNL A   1      37.919  29.900  27.848  1.00  0.00     0.255 C 
ATOM     16  O   UNL A   1      38.510  29.146  27.068  1.00  0.00    -0.269 OA
ATOM     17  H   UNL A   1      36.519  30.334  26.450  1.00  0.00     0.170 HD
BRANCH  15  18
ATOM     18  C   UNL A   1      38.371  29.923  29.297  1.00  0.00     0.040 A 
ATOM     19  C   UNL A   1      37.670  28.593  32.850  1.00  0.00     0.044 C 
ATOM     20  C   UNL A   1      38.342  29.237  31.664  1.00  0.00    -0.050 A 
ATOM     21  C   UNL A   1      39.573  29.867  31.858  1.00  0.00     0.003 A 
ATOM     22  C   UNL A   1      37.749  29.264  30.380  1.00  0.00     0.017 A 
ATOM     23  C   UNL A   1      40.208  30.502  30.794  1.00  0.00     0.001 A 
ATOM     24  C   UNL A   1      39.607  30.541  29.533  1.00  0.00     0.014 A 
ENDBRANCH  15  18
ENDBRANCH   9  14
BRANCH  11  25
ATOM     25  N   UNL A   1      33.932  30.607  27.251  1.00  0.00    -0.359 N 
ATOM     26  C   UNL A   1      32.633  30.832  26.591  1.00  0.00     0.178 C 
ATOM     27  C   UNL A   1      34.020  29.243  27.738  1.00  0.00     0.178 C 
ATOM     28  C   UNL A   1      32.385  29.714  25.505  1.00  0.00     0.284 C 
ATOM     29  C   UNL A   1      34.133  28.352  26.506  1.00  0.00     0.284 C 
ATOM     30  N   UNL A   1      32.892  28.329  25.730  1.00  0.00    -0.324 N 
ATOM     31  H   UNL A   1      33.080  27.977  24.791  1.00  0.00     0.348 HD
BRANCH  30  32
ATOM     32  C   UNL A   1      31.927  27.334  26.241  1.00  0.00     0.363 C 
BRANCH  32  33
ATOM     33  C   UNL A   1      31.312  26.395  25.210  1.00  0.00     0.275 C 
ATOM     34  O   UNL A   1      30.214  26.683  24.714  1.00  0.00    -0.268 OA
ATOM     35  N   UNL A   1      31.893  25.247  24.764  1.00  0.00    -0.347 N 
ATOM     36  H   UNL A   1      31.404  24.910  23.979  1.00  0.00     0.164 HD
BRANCH  35  37
ATOM     37  C   UNL A   1      33.032  24.334  25.080  1.00  0.00     0.032 C 
ATOM     38  C   UNL A   1      32.870  23.700  26.476  1.00  0.00     0.034 C 
ATOM     39  C   UNL A   1      32.954  23.169  24.070  1.00  0.00     0.034 C 
ATOM     40  C   UNL A   1      34.429  24.948  24.954  1.00  0.00     0.034 C 
ENDBRANCH  35  37
ENDBRANCH  32  33
ENDBRANCH  30  32
ENDBRANCH  11  25
ENDBRANCH   6   8
ENDBRANCH   5   6
ENDBRANCH   4   5
ENDBRANCH   3   4
ENDBRANCH   2   3
ENDBRANCH   1   2
BRANCH   1  41
ATOM     41  C   UNL A   1      40.470  34.228  32.928  1.00  0.00     0.188 C 
BRANCH  41  42
ATOM     42  O   UNL A   1      40.947  34.071  31.600  1.00  0.00    -0.376 OA
BRANCH  42  43
ATOM     43  C   UNL A   1      42.184  34.711  31.303  1.00  0.00     0.202 C 
BRANCH  43  44
ATOM     44  C   UNL A   1      43.450  34.135  31.981  1.00  0.00     0.261 C 
BRANCH  44  45
ATOM     45  O   UNL A   1      43.716  32.746  31.662  1.00  0.00    -0.460 OA
BRANCH  45  46
ATOM     46  C   UNL A   1      44.989  32.430  31.197  1.00  0.00     0.338 C 
ATOM     47  O   UNL A   1      45.339  32.618  30.076  1.00  0.00    -0.246 OA
BRANCH  46  48
ATOM     48  C   UNL A   1      45.872  32.009  32.343  1.00  0.00     0.060 A 
ATOM     49  C   UNL A   1      47.087  32.552  32.761  1.00  0.00     0.016 A 
ATOM     50  C   UNL A   1      45.511  30.881  32.982  1.00  0.00     0.016 A 
ATOM     51  C   UNL A   1      47.960  31.861  33.723  1.00  0.00     0.010 A 
ATOM     52  C   UNL A   1      46.506  30.180  33.661  1.00  0.00     0.010 A 
ATOM     53  C   UNL A   1      47.728  30.565  34.204  1.00  0.00    -0.014 A 
BRANCH  53  54
ATOM     54  C   UNL A   1      48.705  29.552  35.086  1.00  0.00     0.031 A 
ATOM     55  C   UNL A   1      49.853  28.376  34.708  1.00  0.00     0.074 A 
ATOM     56  C   UNL A   1      48.605  29.755  36.422  1.00  0.00     0.049 A 
ATOM     57  N   UNL A   1      50.840  27.984  35.510  1.00  0.00    -0.248 NA
ATOM     58  C   UNL A   1      50.071  27.585  33.451  1.00  0.00     0.031 C 
ATOM     59  C   UNL A   1      49.309  29.107  37.526  1.00  0.00     0.029 A 
ATOM     60  N   UNL A   1      47.590  30.463  37.062  1.00  0.00    -0.354 N 
ATOM     61  C   UNL A   1      51.599  27.002  34.861  1.00  0.00     0.074 A 
ATOM     62  C   UNL A   1      51.347  27.211  33.491  1.00  0.00     0.031 C 
ATOM     63  C   UNL A   1      48.522  29.132  38.611  1.00  0.00     0.029 A 
ATOM     64  C   UNL A   1      47.272  29.754  38.223  1.00  0.00     0.049 A 
ATOM     65  H   UNL A   1      47.177  31.301  36.755  1.00  0.00     0.167 HD
ATOM     66  C   UNL A   1      51.871  25.726  35.289  1.00  0.00     0.034 A 
ATOM     67  C   UNL A   1      46.038  29.190  38.322  1.00  0.00     0.034 A 
ATOM     68  C   UNL A   1      51.107  25.406  36.466  1.00  0.00     0.049 A 
ATOM     69  C   UNL A   1      46.126  27.685  38.314  1.00  0.00     0.074 A 
ATOM     70  C   UNL A   1      51.298  25.662  37.805  1.00  0.00     0.029 A 
ATOM     71  N   UNL A   1      49.782  25.010  36.305  1.00  0.00    -0.354 N 
ATOM     72  N   UNL A   1      47.089  26.976  37.779  1.00  0.00    -0.248 NA
ATOM     73  C   UNL A   1      45.131  26.878  39.001  1.00  0.00     0.031 C 
ATOM     74  C   UNL A   1      50.049  25.468  38.450  1.00  0.00     0.029 A 
ATOM     75  C   UNL A   1      49.114  25.050  37.514  1.00  0.00     0.049 A 
ATOM     76  H   UNL A   1      49.377  24.740  35.449  1.00  0.00     0.167 HD
ATOM     77  C   UNL A   1      46.868  25.646  38.055  1.00  0.00     0.074 A 
ATOM     78  C   UNL A   1      45.642  25.651  38.838  1.00  0.00     0.031 C 
ATOM     79  C   UNL A   1      47.717  24.640  37.671  1.00  0.00     0.034 A 
BRANCH  66  80
ATOM     80  C   UNL A   1      52.777  24.724  34.545  1.00  0.00     0.023 A 
ATOM     81  C   UNL A   1      52.288  23.432  34.264  1.00  0.00     0.031 A 
ATOM     82  C   UNL A   1      54.117  24.936  34.138  1.00  0.00     0.131 A 
ATOM     83  C   UNL A   1      53.129  22.428  33.714  1.00  0.00     0.055 A 
ATOM     84  C   UNL A   1      54.975  23.925  33.678  1.00  0.00     0.041 A 
ATOM     85  F   UNL A   1      54.660  26.157  34.106  1.00  0.00    -0.206 F 
ATOM     86  C   UNL A   1      54.483  22.653  33.476  1.00  0.00     0.022 A 
BRANCH  83  87
ATOM     87  S   UNL A   1      52.459  20.790  33.307  1.00  0.00     0.124 S 
ATOM     88  O   UNL A   1      51.731  20.430  34.518  1.00  0.00    -0.237 OA
ATOM     89  O   UNL A   1      51.654  21.082  32.126  1.00  0.00    -0.237 OA
ATOM     90  O   UNL A   1      53.657  19.988  33.053  1.00  0.00    -0.744 OA
ENDBRANCH  83  87
ENDBRANCH  66  80
BRANCH  67  91
ATOM     91  C   UNL A   1      44.918  30.030  37.784  1.00  0.00     0.023 A 
ATOM     92  C   UNL A   1      44.072  29.420  36.823  1.00  0.00     0.031 A 
ATOM     93  C   UNL A   1      44.479  31.236  38.346  1.00  0.00     0.131 A 
ATOM     94  C   UNL A   1      42.769  29.881  36.609  1.00  0.00     0.055 A 
ATOM     95  C   UNL A   1      43.210  31.762  38.042  1.00  0.00     0.041 A 
ATOM     96  F   UNL A   1      45.200  31.856  39.292  1.00  0.00    -0.206 F 
ATOM     97  C   UNL A   1      42.336  31.067  37.198  1.00  0.00     0.022 A 
BRANCH  94  98
ATOM     98  S   UNL A   1      41.552  28.758  35.841  1.00  0.00     0.124 S 
ATOM     99  O   UNL A   1      40.330  29.551  35.889  1.00  0.00    -0.237 OA
ATOM    100  O   UNL A   1      42.102  28.517  34.508  1.00  0.00    -0.237 OA
ATOM    101  O   UNL A   1      41.586  27.591  36.721  1.00  0.00    -0.744 OA
ENDBRANCH  94  98
ENDBRANCH  67  91
BRANCH  79 102
ATOM    102  C   UNL A   1      47.359  23.158  37.676  1.00  0.00     0.023 A 
ATOM    103  C   UNL A   1      46.976  22.459  36.524  1.00  0.00     0.031 A 
ATOM    104  C   UNL A   1      47.409  22.371  38.850  1.00  0.00     0.131 A 
ATOM    105  C   UNL A   1      46.483  21.145  36.573  1.00  0.00     0.055 A 
ATOM    106  C   UNL A   1      47.000  21.029  38.890  1.00  0.00     0.041 A 
ATOM    107  F   UNL A   1      47.895  22.852  40.003  1.00  0.00    -0.206 F 
ATOM    108  C   UNL A   1      46.492  20.418  37.753  1.00  0.00     0.022 A 
BRANCH 105 109
ATOM    109  S   UNL A   1      45.751  20.468  35.060  1.00  0.00     0.124 S 
ATOM    110  O   UNL A   1      44.724  21.460  34.751  1.00  0.00    -0.237 OA
ATOM    111  O   UNL A   1      46.893  20.440  34.149  1.00  0.00    -0.237 OA
ATOM    112  O   UNL A   1      45.250  19.160  35.472  1.00  0.00    -0.744 OA
ENDBRANCH 105 109
ENDBRANCH  79 102
ENDBRANCH  53  54
ENDBRANCH  46  48
ENDBRANCH  45  46
ENDBRANCH  44  45
ENDBRANCH  43  44
ENDBRANCH  42  43
ENDBRANCH  41  42
ENDBRANCH   1  41
TORSDOF 26
ENDMDL
MODEL 3
REMARK VINA RESULT:      -7.6      6.532     10.608
REMARK SMILES Cc1cccc(C(=O)Nc2cc(C(=O)OCCOCCOCCOC(=O)c3ccc(-c4c5nc(c(-c6cc(S(=O)(=O)[O-])ccc6F)c6ccc([nH]6)c(-c6cc(S(=O)(=O)[O-])ccc6F)c6nc(c(-c7cc(S(=O)(=O)[O-])ccc7F)c7ccc4[nH]7)C=C6)C=C5)cc3)ccc2N2CC[NH+](CC(=O)NC(C)(C)C)CC2)c1
REMARK SMILES IDX 19 1 18 2 17 3 16 4 15 5 13 6 14 7 12 8 10 9 11 10 92 11
REMARK SMILES IDX 91 12 90 13 9 14 7 15 8 16 6 18 1 19 2 20 3 21 107 22 4 23
REMARK SMILES IDX 5 24 93 25 94 26 106 27 95 28 105 29 96 30 97 32 98 33 99 34
REMARK SMILES IDX 100 35 101 37 102 38 103 39 104 40 20 41 21 42 22 43 23 44
REMARK SMILES IDX 24 45 25 46 26 47 27 48 28 49 89 50 29 51 88 52 30 53 31 54
REMARK SMILES IDX 32 55 82 56 33 57 87 58 81 59 83 60 34 61 86 62 80 63 79 64
REMARK SMILES IDX 35 66 67 67 47 68 66 69 48 70 51 71 65 72 84 73 49 74 50 75
REMARK SMILES IDX 64 77 85 78 52 79 36 80 37 81 45 82 38 83 44 84 46 85 43 86
REMARK SMILES IDX 39 87 40 88 41 89 42 90 68 91 69 92 77 93 70 94 76 95 78 96
REMARK SMILES IDX 75 97 71 98 72 99 73 100 74 101 53 102 54 103 62 104 55 105
REMARK SMILES IDX 61 106 63 107 60 108 56 109 57 110 58 111 59 112
REMARK H PARENT 9 17 96 31 100 36 83 65 51 76
REMARK Flexibility Score: inf
ROOT
ATOM      1  C   UNL A   1      45.268  33.505  28.405  1.00  0.00     0.188 C 
ENDROOT
BRANCH   1   2
ATOM      2  O   UNL A   1      43.933  33.112  28.807  1.00  0.00    -0.376 OA
BRANCH   2   3
ATOM      3  C   UNL A   1      43.538  31.845  29.336  1.00  0.00     0.202 C 
BRANCH   3   4
ATOM      4  C   UNL A   1      41.987  31.469  29.904  1.00  0.00     0.261 C 
BRANCH   4   5
ATOM      5  O   UNL A   1      41.079  30.159  29.790  1.00  0.00    -0.460 OA
BRANCH   5   6
ATOM      6  C   UNL A   1      39.740  29.833  29.573  1.00  0.00     0.338 C 
ATOM      7  O   UNL A   1      38.679  30.398  29.824  1.00  0.00    -0.246 OA
BRANCH   6   8
ATOM      8  C   UNL A   1      39.427  28.586  28.912  1.00  0.00     0.062 A 
ATOM      9  C   UNL A   1      40.167  27.298  27.114  1.00  0.00     0.065 A 
ATOM     10  C   UNL A   1      39.844  28.540  27.617  1.00  0.00     0.044 A 
ATOM     11  C   UNL A   1      39.884  26.062  27.790  1.00  0.00     0.061 A 
ATOM     12  C   UNL A   1      39.427  26.146  29.099  1.00  0.00     0.029 A 
ATOM     13  C   UNL A   1      39.281  27.401  29.678  1.00  0.00     0.018 A 
BRANCH   9  14
ATOM     14  N   UNL A   1      40.927  27.318  25.945  1.00  0.00    -0.320 N 
ATOM     15  C   UNL A   1      42.233  27.762  25.799  1.00  0.00     0.255 C 
ATOM     16  O   UNL A   1      42.687  27.812  24.651  1.00  0.00    -0.269 OA
ATOM     17  H   UNL A   1      40.487  26.982  25.131  1.00  0.00     0.170 HD
BRANCH  15  18
ATOM     18  C   UNL A   1      43.175  28.064  26.951  1.00  0.00     0.040 A 
ATOM     19  C   UNL A   1      44.186  27.094  30.545  1.00  0.00     0.044 C 
ATOM     20  C   UNL A   1      44.194  27.700  29.165  1.00  0.00    -0.050 A 
ATOM     21  C   UNL A   1      45.223  28.584  28.832  1.00  0.00     0.003 A 
ATOM     22  C   UNL A   1      43.176  27.440  28.218  1.00  0.00     0.017 A 
ATOM     23  C   UNL A   1      45.245  29.190  27.579  1.00  0.00     0.001 A 
ATOM     24  C   UNL A   1      44.226  28.943  26.656  1.00  0.00     0.014 A 
ENDBRANCH  15  18
ENDBRANCH   9  14
BRANCH  11  25
ATOM     25  N   UNL A   1      40.239  24.840  27.245  1.00  0.00    -0.359 N 
ATOM     26  C   UNL A   1      39.373  23.650  27.149  1.00  0.00     0.178 C 
ATOM     27  C   UNL A   1      41.613  24.444  27.487  1.00  0.00     0.178 C 
ATOM     28  C   UNL A   1      39.973  22.635  26.101  1.00  0.00     0.284 C 
ATOM     29  C   UNL A   1      42.108  23.795  26.199  1.00  0.00     0.284 C 
ATOM     30  N   UNL A   1      41.452  22.512  25.944  1.00  0.00    -0.324 N 
ATOM     31  H   UNL A   1      41.577  22.250  24.966  1.00  0.00     0.348 HD
BRANCH  30  32
ATOM     32  C   UNL A   1      42.112  21.392  26.646  1.00  0.00     0.363 C 
BRANCH  32  33
ATOM     33  C   UNL A   1      42.754  20.325  25.767  1.00  0.00     0.275 C 
ATOM     34  O   UNL A   1      42.210  19.216  25.675  1.00  0.00    -0.268 OA
ATOM     35  N   UNL A   1      43.893  20.501  25.042  1.00  0.00    -0.347 N 
ATOM     36  H   UNL A   1      44.011  19.748  24.420  1.00  0.00     0.164 HD
BRANCH  35  37
ATOM     37  C   UNL A   1      45.022  21.467  24.886  1.00  0.00     0.032 C 
ATOM     38  C   UNL A   1      45.340  22.176  26.217  1.00  0.00     0.034 C 
ATOM     39  C   UNL A   1      46.271  20.630  24.538  1.00  0.00     0.034 C 
ATOM     40  C   UNL A   1      44.854  22.509  23.776  1.00  0.00     0.034 C 
ENDBRANCH  35  37
ENDBRANCH  32  33
ENDBRANCH  30  32
ENDBRANCH  11  25
ENDBRANCH   6   8
ENDBRANCH   5   6
ENDBRANCH   4   5
ENDBRANCH   3   4
ENDBRANCH   2   3
ENDBRANCH   1   2
BRANCH   1  41
ATOM     41  C   UNL A   1      46.545  32.638  28.523  1.00  0.00     0.188 C 
BRANCH  41  42
ATOM     42  O   UNL A   1      47.368  32.959  29.635  1.00  0.00    -0.376 OA
BRANCH  42  43
ATOM     43  C   UNL A   1      46.688  33.205  30.862  1.00  0.00     0.202 C 
BRANCH  43  44
ATOM     44  C   UNL A   1      46.453  31.986  31.787  1.00  0.00     0.261 C 
BRANCH  44  45
ATOM     45  O   UNL A   1      47.411  31.868  32.869  1.00  0.00    -0.460 OA
BRANCH  45  46
ATOM     46  C   UNL A   1      47.054  32.412  34.099  1.00  0.00     0.338 C 
ATOM     47  O   UNL A   1      46.269  33.297  34.218  1.00  0.00    -0.246 OA
BRANCH  46  48
ATOM     48  C   UNL A   1      47.656  31.603  35.220  1.00  0.00     0.060 A 
ATOM     49  C   UNL A   1      48.790  31.872  35.985  1.00  0.00     0.016 A 
ATOM     50  C   UNL A   1      47.103  30.396  35.438  1.00  0.00     0.016 A 
ATOM     51  C   UNL A   1      49.404  30.855  36.854  1.00  0.00     0.010 A 
ATOM     52  C   UNL A   1      47.893  29.430  36.059  1.00  0.00     0.010 A 
ATOM     53  C   UNL A   1      48.999  29.514  36.900  1.00  0.00    -0.014 A 
BRANCH  53  54
ATOM     54  C   UNL A   1      49.710  28.198  37.622  1.00  0.00     0.031 A 
ATOM     55  C   UNL A   1      50.768  26.986  37.112  1.00  0.00     0.074 A 
ATOM     56  C   UNL A   1      49.427  28.104  38.942  1.00  0.00     0.049 A 
ATOM     57  N   UNL A   1      51.569  26.285  37.910  1.00  0.00    -0.248 NA
ATOM     58  C   UNL A   1      51.090  26.479  35.737  1.00  0.00     0.031 C 
ATOM     59  C   UNL A   1      49.876  27.128  39.933  1.00  0.00     0.029 A 
ATOM     60  N   UNL A   1      48.409  28.786  39.605  1.00  0.00    -0.354 N 
ATOM     61  C   UNL A   1      52.307  25.378  37.140  1.00  0.00     0.074 A 
ATOM     62  C   UNL A   1      52.296  25.927  35.842  1.00  0.00     0.031 C 
ATOM     63  C   UNL A   1      48.937  27.019  40.884  1.00  0.00     0.029 A 
ATOM     64  C   UNL A   1      47.839  27.885  40.508  1.00  0.00     0.049 A 
ATOM     65  H   UNL A   1      48.143  29.722  39.465  1.00  0.00     0.167 HD
ATOM     66  C   UNL A   1      52.368  24.012  37.272  1.00  0.00     0.034 A 
ATOM     67  C   UNL A   1      46.550  27.496  40.311  1.00  0.00     0.034 A 
ATOM     68  C   UNL A   1      51.401  23.546  38.230  1.00  0.00     0.049 A 
ATOM     69  C   UNL A   1      46.473  26.036  39.945  1.00  0.00     0.074 A 
ATOM     70  C   UNL A   1      51.408  23.461  39.604  1.00  0.00     0.029 A 
ATOM     71  N   UNL A   1      50.081  23.392  37.813  1.00  0.00    -0.354 N 
ATOM     72  N   UNL A   1      47.423  25.336  39.377  1.00  0.00    -0.248 NA
ATOM     73  C   UNL A   1      45.302  25.245  40.283  1.00  0.00     0.031 C 
ATOM     74  C   UNL A   1      50.061  23.307  40.021  1.00  0.00     0.029 A 
ATOM     75  C   UNL A   1      49.242  23.251  38.902  1.00  0.00     0.049 A 
ATOM     76  H   UNL A   1      49.787  23.384  36.873  1.00  0.00     0.167 HD
ATOM     77  C   UNL A   1      47.018  24.024  39.288  1.00  0.00     0.074 A 
ATOM     78  C   UNL A   1      45.694  24.026  39.890  1.00  0.00     0.031 C 
ATOM     79  C   UNL A   1      47.802  23.021  38.778  1.00  0.00     0.034 A 
BRANCH  66  80
ATOM     80  C   UNL A   1      53.264  23.087  36.424  1.00  0.00     0.023 A 
ATOM     81  C   UNL A   1      52.662  22.194  35.513  1.00  0.00     0.031 A 
ATOM     82  C   UNL A   1      54.675  22.983  36.488  1.00  0.00     0.131 A 
ATOM     83  C   UNL A   1      53.429  21.221  34.818  1.00  0.00     0.055 A 
ATOM     84  C   UNL A   1      55.423  21.968  35.872  1.00  0.00     0.041 A 
ATOM     85  F   UNL A   1      55.422  23.901  37.108  1.00  0.00    -0.206 F 
ATOM     86  C   UNL A   1      54.796  21.068  35.039  1.00  0.00     0.022 A 
BRANCH  83  87
ATOM     87  S   UNL A   1      52.639  20.122  33.608  1.00  0.00     0.124 S 
ATOM     88  O   UNL A   1      51.223  20.255  33.929  1.00  0.00    -0.237 OA
ATOM     89  O   UNL A   1      53.077  20.705  32.344  1.00  0.00    -0.237 OA
ATOM     90  O   UNL A   1      53.215  18.811  33.914  1.00  0.00    -0.744 OA
ENDBRANCH  83  87
ENDBRANCH  66  80
BRANCH  67  91
ATOM     91  C   UNL A   1      45.626  28.588  39.860  1.00  0.00     0.023 A 
ATOM     92  C   UNL A   1      45.354  29.616  40.798  1.00  0.00     0.031 A 
ATOM     93  C   UNL A   1      45.244  28.818  38.533  1.00  0.00     0.131 A 
ATOM     94  C   UNL A   1      44.929  30.883  40.381  1.00  0.00     0.055 A 
ATOM     95  C   UNL A   1      44.707  30.057  38.133  1.00  0.00     0.041 A 
ATOM     96  F   UNL A   1      45.502  27.914  37.576  1.00  0.00    -0.206 F 
ATOM     97  C   UNL A   1      44.581  31.106  39.050  1.00  0.00     0.022 A 
BRANCH  94  98
ATOM     98  S   UNL A   1      45.159  32.303  41.505  1.00  0.00     0.124 S 
ATOM     99  O   UNL A   1      46.325  32.963  40.929  1.00  0.00    -0.237 OA
ATOM    100  O   UNL A   1      43.898  33.033  41.396  1.00  0.00    -0.237 OA
ATOM    101  O   UNL A   1      45.369  31.662  42.801  1.00  0.00    -0.744 OA
ENDBRANCH  94  98
ENDBRANCH  67  91
BRANCH  79 102
ATOM    102  C   UNL A   1      47.287  21.643  38.375  1.00  0.00     0.023 A 
ATOM    103  C   UNL A   1      46.962  21.304  37.055  1.00  0.00     0.031 A 
ATOM    104  C   UNL A   1      47.120  20.595  39.308  1.00  0.00     0.131 A 
ATOM    105  C   UNL A   1      46.327  20.094  36.726  1.00  0.00     0.055 A 
ATOM    106  C   UNL A   1      46.566  19.350  38.970  1.00  0.00     0.041 A 
ATOM    107  F   UNL A   1      47.522  20.710  40.582  1.00  0.00    -0.206 F 
ATOM    108  C   UNL A   1      46.125  19.107  37.678  1.00  0.00     0.022 A 
BRANCH 105 109
ATOM    109  S   UNL A   1      45.701  19.911  35.035  1.00  0.00     0.124 S 
ATOM    110  O   UNL A   1      46.935  19.733  34.274  1.00  0.00    -0.237 OA
ATOM    111  O   UNL A   1      44.853  18.728  35.146  1.00  0.00    -0.237 OA
ATOM    112  O   UNL A   1      44.994  21.165  34.790  1.00  0.00    -0.744 OA
ENDBRANCH 105 109
ENDBRANCH  79 102
ENDBRANCH  53  54
ENDBRANCH  46  48
ENDBRANCH  45  46
ENDBRANCH  44  45
ENDBRANCH  43  44
ENDBRANCH  42  43
ENDBRANCH  41  42
ENDBRANCH   1  41
TORSDOF 26
ENDMDL
