MODEL 1
REMARK VINA RESULT:     -11.3      0.000      0.000
REMARK SMILES COc1ccc(C2=NN(C(=O)CCC(=O)OCCOCCOCCOC(=O)c3ccc(-c4c5nc(c(-c6cc(S(=O)(=O)[O-])ccc6F)c6ccc([nH]6)c(-c6cc(S(=O)(=O)[O-])ccc6F)c6nc(c(-c7cc(S(=O)(=O)[O-])ccc7F)c7ccc4[nH]7)C=C6)C=C5)cc3)[C@H](c3ccc(Cl)cc3Cl)C2)cc1
REMARK SMILES IDX 20 1 19 2 18 3 17 4 16 5 14 6 15 7 13 8 12 9 10 10 11 11
REMARK SMILES IDX 9 12 7 13 8 14 100 15 91 16 6 17 3 18 4 19 102 20 5 21
REMARK SMILES IDX 101 22 2 23 1 24 92 25 93 26 98 27 94 28 97 29 99 30 95 31
REMARK SMILES IDX 96 32 21 33 22 34 23 35 24 36 25 37 26 38 27 39 28 40 29 41
REMARK SMILES IDX 90 42 30 43 89 44 31 45 32 46 33 47 83 48 34 49 88 50 82 51
REMARK SMILES IDX 84 52 35 53 87 54 81 55 80 56 36 58 68 59 48 60 67 61 49 62
REMARK SMILES IDX 52 63 66 64 85 65 50 66 51 67 65 69 86 70 53 71 37 72 38 73
REMARK SMILES IDX 46 74 39 75 45 76 47 77 44 78 40 79 41 80 42 81 43 82 69 83
REMARK SMILES IDX 70 84 78 85 71 86 77 87 79 88 76 89 72 90 73 91 74 92 75 93
REMARK SMILES IDX 54 94 55 95 63 96 56 97 62 98 64 99 61 100 57 101 58 102
REMARK SMILES IDX 59 103 60 104
REMARK H PARENT 84 57 52 68
REMARK Flexibility Score: inf
ROOT
ATOM      1  C   UNL A   1      34.314  28.663  26.846  1.00  0.00     0.188 C 
ENDROOT
BRANCH   1   2
ATOM      2  O   UNL A   1      33.147  27.775  26.899  1.00  0.00    -0.376 OA
BRANCH   2   3
ATOM      3  C   UNL A   1      31.909  27.584  26.156  1.00  0.00     0.202 C 
BRANCH   3   4
ATOM      4  C   UNL A   1      31.118  26.287  25.963  1.00  0.00     0.261 C 
BRANCH   4   5
ATOM      5  O   UNL A   1      31.775  25.211  26.567  1.00  0.00    -0.463 OA
BRANCH   5   6
ATOM      6  C   UNL A   1      31.041  24.142  26.876  1.00  0.00     0.306 C 
ATOM      7  O   UNL A   1      29.813  24.116  26.948  1.00  0.00    -0.252 OA
BRANCH   6   8
ATOM      8  C   UNL A   1      31.919  22.940  26.993  1.00  0.00     0.132 C 
BRANCH   8   9
ATOM      9  C   UNL A   1      31.649  21.764  26.038  1.00  0.00     0.114 C 
BRANCH   9  10
ATOM     10  C   UNL A   1      32.657  21.359  24.914  1.00  0.00     0.243 C 
ATOM     11  O   UNL A   1      32.318  20.234  24.459  1.00  0.00    -0.273 OA
BRANCH  10  12
ATOM     12  N   UNL A   1      33.792  22.053  24.322  1.00  0.00    -0.225 N 
ATOM     13  C   UNL A   1      33.975  24.041  23.337  1.00  0.00     0.071 C 
ATOM     14  N   UNL A   1      33.226  23.279  23.993  1.00  0.00    -0.174 NA
ATOM     15  C   UNL A   1      35.311  23.516  22.955  1.00  0.00     0.091 C 
ATOM     16  C   UNL A   1      35.589  22.183  23.903  1.00  0.00     0.149 C 
BRANCH  13  17
ATOM     17  C   UNL A   1      33.409  25.334  22.884  1.00  0.00    -0.002 A 
ATOM     18  C   UNL A   1      32.029  27.756  22.533  1.00  0.00     0.118 A 
ATOM     19  C   UNL A   1      33.338  27.745  23.029  1.00  0.00     0.047 A 
ATOM     20  C   UNL A   1      31.411  26.547  22.215  1.00  0.00     0.047 A 
ATOM     21  C   UNL A   1      34.023  26.537  23.229  1.00  0.00     0.014 A 
ATOM     22  C   UNL A   1      32.096  25.338  22.399  1.00  0.00     0.014 A 
BRANCH  18  23
ATOM     23  O   UNL A   1      31.471  28.997  22.375  1.00  0.00    -0.497 OA
ATOM     24  C   UNL A   1      30.146  29.165  22.871  1.00  0.00     0.278 C 
ENDBRANCH  18  23
ENDBRANCH  13  17
BRANCH  16  25
ATOM     25  C   UNL A   1      37.125  21.660  25.025  1.00  0.00    -0.004 A 
ATOM     26  C   UNL A   1      37.459  20.364  25.001  1.00  0.00     0.009 A 
ATOM     27  C   UNL A   1      38.292  22.409  25.870  1.00  0.00     0.047 A 
ATOM     28  C   UNL A   1      38.807  19.903  25.340  1.00  0.00     0.021 A 
ATOM     29  C   UNL A   1      39.458  21.825  26.424  1.00  0.00     0.041 A 
ATOM     30  Cl  UNL A   1      38.585  24.196  26.224  1.00  0.00    -0.084 Cl
ATOM     31  C   UNL A   1      39.782  20.587  26.020  1.00  0.00     0.042 A 
ATOM     32  Cl  UNL A   1      41.370  19.964  26.195  1.00  0.00    -0.084 Cl
ENDBRANCH  16  25
ENDBRANCH  10  12
ENDBRANCH   9  10
ENDBRANCH   8   9
ENDBRANCH   6   8
ENDBRANCH   5   6
ENDBRANCH   4   5
ENDBRANCH   3   4
ENDBRANCH   2   3
ENDBRANCH   1   2
BRANCH   1  33
ATOM     33  C   UNL A   1      35.111  29.968  27.958  1.00  0.00     0.188 C 
BRANCH  33  34
ATOM     34  O   UNL A   1      34.729  31.747  28.153  1.00  0.00    -0.376 OA
BRANCH  34  35
ATOM     35  C   UNL A   1      35.195  33.008  29.344  1.00  0.00     0.202 C 
BRANCH  35  36
ATOM     36  C   UNL A   1      35.995  32.997  31.061  1.00  0.00     0.261 C 
BRANCH  36  37
ATOM     37  O   UNL A   1      37.175  32.121  31.663  1.00  0.00    -0.460 OA
BRANCH  37  38
ATOM     38  C   UNL A   1      37.206  30.671  31.652  1.00  0.00     0.338 C 
ATOM     39  O   UNL A   1      36.278  30.012  32.115  1.00  0.00    -0.246 OA
BRANCH  38  40
ATOM     40  C   UNL A   1      38.665  29.963  31.485  1.00  0.00     0.060 A 
ATOM     41  C   UNL A   1      38.731  28.547  31.553  1.00  0.00     0.016 A 
ATOM     42  C   UNL A   1      39.922  30.584  31.578  1.00  0.00     0.016 A 
ATOM     43  C   UNL A   1      39.880  27.853  32.033  1.00  0.00     0.010 A 
ATOM     44  C   UNL A   1      41.142  29.818  31.820  1.00  0.00     0.010 A 
ATOM     45  C   UNL A   1      41.152  28.429  32.081  1.00  0.00    -0.014 A 
BRANCH  45  46
ATOM     46  C   UNL A   1      42.417  27.556  32.243  1.00  0.00     0.031 A 
ATOM     47  C   UNL A   1      43.050  27.198  33.594  1.00  0.00     0.074 A 
ATOM     48  C   UNL A   1      43.086  27.071  31.159  1.00  0.00     0.049 A 
ATOM     49  N   UNL A   1      44.281  26.812  33.864  1.00  0.00    -0.248 NA
ATOM     50  C   UNL A   1      42.180  27.235  34.775  1.00  0.00     0.031 C 
ATOM     51  C   UNL A   1      42.631  27.123  29.768  1.00  0.00     0.029 A 
ATOM     52  N   UNL A   1      44.328  26.457  31.047  1.00  0.00    -0.354 N 
ATOM     53  C   UNL A   1      44.357  26.623  35.247  1.00  0.00     0.074 A 
ATOM     54  C   UNL A   1      43.023  26.904  35.752  1.00  0.00     0.031 C 
ATOM     55  C   UNL A   1      43.556  26.594  28.961  1.00  0.00     0.029 A 
ATOM     56  C   UNL A   1      44.746  26.289  29.738  1.00  0.00     0.049 A 
ATOM     57  H   UNL A   1      44.860  26.170  31.824  1.00  0.00     0.167 HD
ATOM     58  C   UNL A   1      45.425  26.272  36.023  1.00  0.00     0.034 A 
ATOM     59  C   UNL A   1      45.946  26.031  29.173  1.00  0.00     0.034 A 
ATOM     60  C   UNL A   1      46.753  25.947  35.528  1.00  0.00     0.049 A 
ATOM     61  C   UNL A   1      47.165  25.836  30.035  1.00  0.00     0.074 A 
ATOM     62  C   UNL A   1      47.890  25.614  36.255  1.00  0.00     0.029 A 
ATOM     63  N   UNL A   1      47.132  25.906  34.194  1.00  0.00    -0.354 N 
ATOM     64  N   UNL A   1      47.253  25.816  31.342  1.00  0.00    -0.248 NA
ATOM     65  C   UNL A   1      48.449  25.644  29.344  1.00  0.00     0.031 C 
ATOM     66  C   UNL A   1      48.966  25.462  35.371  1.00  0.00     0.029 A 
ATOM     67  C   UNL A   1      48.487  25.605  34.083  1.00  0.00     0.049 A 
ATOM     68  H   UNL A   1      46.528  26.066  33.433  1.00  0.00     0.167 HD
ATOM     69  C   UNL A   1      48.598  25.581  31.624  1.00  0.00     0.074 A 
ATOM     70  C   UNL A   1      49.280  25.452  30.357  1.00  0.00     0.031 C 
ATOM     71  C   UNL A   1      49.201  25.479  32.834  1.00  0.00     0.034 A 
BRANCH  58  72
ATOM     72  C   UNL A   1      45.257  26.319  37.533  1.00  0.00     0.023 A 
ATOM     73  C   UNL A   1      45.285  27.513  38.271  1.00  0.00     0.031 A 
ATOM     74  C   UNL A   1      45.031  25.120  38.243  1.00  0.00     0.131 A 
ATOM     75  C   UNL A   1      45.156  27.476  39.673  1.00  0.00     0.055 A 
ATOM     76  C   UNL A   1      44.827  25.098  39.625  1.00  0.00     0.041 A 
ATOM     77  F   UNL A   1      44.994  23.943  37.597  1.00  0.00    -0.206 F 
ATOM     78  C   UNL A   1      44.905  26.280  40.351  1.00  0.00     0.022 A 
BRANCH  75  79
ATOM     79  S   UNL A   1      45.461  28.994  40.620  1.00  0.00     0.124 S 
ATOM     80  O   UNL A   1      44.903  30.012  39.734  1.00  0.00    -0.237 OA
ATOM     81  O   UNL A   1      44.728  28.747  41.856  1.00  0.00    -0.237 OA
ATOM     82  O   UNL A   1      46.917  29.028  40.755  1.00  0.00    -0.744 OA
ENDBRANCH  75  79
ENDBRANCH  58  72
BRANCH  59  83
ATOM     83  C   UNL A   1      46.103  26.084  27.681  1.00  0.00     0.023 A 
ATOM     84  C   UNL A   1      45.900  24.950  26.880  1.00  0.00     0.031 A 
ATOM     85  C   UNL A   1      46.540  27.265  27.046  1.00  0.00     0.131 A 
ATOM     86  C   UNL A   1      46.174  25.009  25.502  1.00  0.00     0.055 A 
ATOM     87  C   UNL A   1      46.739  27.337  25.668  1.00  0.00     0.041 A 
ATOM     88  F   UNL A   1      46.770  28.378  27.762  1.00  0.00    -0.206 F 
ATOM     89  C   UNL A   1      46.570  26.199  24.888  1.00  0.00     0.022 A 
BRANCH  86  90
ATOM     90  S   UNL A   1      46.110  23.475  24.534  1.00  0.00     0.124 S 
ATOM     91  O   UNL A   1      47.153  23.708  23.543  1.00  0.00    -0.237 OA
ATOM     92  O   UNL A   1      46.401  22.466  25.547  1.00  0.00    -0.237 OA
ATOM     93  O   UNL A   1      44.744  23.457  24.014  1.00  0.00    -0.744 OA
ENDBRANCH  86  90
ENDBRANCH  59  83
BRANCH  71  94
ATOM     94  C   UNL A   1      50.679  25.150  32.852  1.00  0.00     0.023 A 
ATOM     95  C   UNL A   1      51.150  23.824  32.834  1.00  0.00     0.031 A 
ATOM     96  C   UNL A   1      51.632  26.182  32.914  1.00  0.00     0.131 A 
ATOM     97  C   UNL A   1      52.529  23.565  32.925  1.00  0.00     0.055 A 
ATOM     98  C   UNL A   1      53.005  25.920  32.947  1.00  0.00     0.041 A 
ATOM     99  F   UNL A   1      51.247  27.467  32.945  1.00  0.00    -0.206 F 
ATOM    100  C   UNL A   1      53.459  24.606  32.964  1.00  0.00     0.022 A 
BRANCH  97 101
ATOM    101  S   UNL A   1      53.094  21.846  33.076  1.00  0.00     0.124 S 
ATOM    102  O   UNL A   1      51.891  21.099  32.720  1.00  0.00    -0.237 OA
ATOM    103  O   UNL A   1      54.188  21.789  32.112  1.00  0.00    -0.237 OA
ATOM    104  O   UNL A   1      53.498  21.738  34.476  1.00  0.00    -0.744 OA
ENDBRANCH  97 101
ENDBRANCH  71  94
ENDBRANCH  45  46
ENDBRANCH  38  40
ENDBRANCH  37  38
ENDBRANCH  36  37
ENDBRANCH  35  36
ENDBRANCH  34  35
ENDBRANCH  33  34
ENDBRANCH   1  33
TORSDOF 26
ENDMDL
MODEL 2
REMARK VINA RESULT:     -10.5      2.308      2.804
REMARK SMILES COc1ccc(C2=NN(C(=O)CCC(=O)OCCOCCOCCOC(=O)c3ccc(-c4c5nc(c(-c6cc(S(=O)(=O)[O-])ccc6F)c6ccc([nH]6)c(-c6cc(S(=O)(=O)[O-])ccc6F)c6nc(c(-c7cc(S(=O)(=O)[O-])ccc7F)c7ccc4[nH]7)C=C6)C=C5)cc3)[C@H](c3ccc(Cl)cc3Cl)C2)cc1
REMARK SMILES IDX 20 1 19 2 18 3 17 4 16 5 14 6 15 7 13 8 12 9 10 10 11 11
REMARK SMILES IDX 9 12 7 13 8 14 100 15 91 16 6 17 3 18 4 19 102 20 5 21
REMARK SMILES IDX 101 22 2 23 1 24 92 25 93 26 98 27 94 28 97 29 99 30 95 31
REMARK SMILES IDX 96 32 21 33 22 34 23 35 24 36 25 37 26 38 27 39 28 40 29 41
REMARK SMILES IDX 90 42 30 43 89 44 31 45 32 46 33 47 83 48 34 49 88 50 82 51
REMARK SMILES IDX 84 52 35 53 87 54 81 55 80 56 36 58 68 59 48 60 67 61 49 62
REMARK SMILES IDX 52 63 66 64 85 65 50 66 51 67 65 69 86 70 53 71 37 72 38 73
REMARK SMILES IDX 46 74 39 75 45 76 47 77 44 78 40 79 41 80 42 81 43 82 69 83
REMARK SMILES IDX 70 84 78 85 71 86 77 87 79 88 76 89 72 90 73 91 74 92 75 93
REMARK SMILES IDX 54 94 55 95 63 96 56 97 62 98 64 99 61 100 57 101 58 102
REMARK SMILES IDX 59 103 60 104
REMARK H PARENT 84 57 52 68
REMARK Flexibility Score: inf
ROOT
ATOM      1  C   UNL A   1      34.188  28.681  26.398  1.00  0.00     0.188 C 
ENDROOT
BRANCH   1   2
ATOM      2  O   UNL A   1      33.168  27.636  26.544  1.00  0.00    -0.376 OA
BRANCH   2   3
ATOM      3  C   UNL A   1      31.733  27.562  26.777  1.00  0.00     0.202 C 
BRANCH   3   4
ATOM      4  C   UNL A   1      30.795  26.381  26.508  1.00  0.00     0.261 C 
BRANCH   4   5
ATOM      5  O   UNL A   1      31.475  25.168  26.639  1.00  0.00    -0.463 OA
BRANCH   5   6
ATOM      6  C   UNL A   1      30.745  24.081  26.891  1.00  0.00     0.306 C 
ATOM      7  O   UNL A   1      29.519  24.016  26.828  1.00  0.00    -0.252 OA
BRANCH   6   8
ATOM      8  C   UNL A   1      31.643  22.912  27.131  1.00  0.00     0.132 C 
BRANCH   8   9
ATOM      9  C   UNL A   1      31.518  21.709  26.179  1.00  0.00     0.114 C 
BRANCH   9  10
ATOM     10  C   UNL A   1      32.526  21.470  25.008  1.00  0.00     0.243 C 
ATOM     11  O   UNL A   1      32.458  20.260  24.663  1.00  0.00    -0.273 OA
BRANCH  10  12
ATOM     12  N   UNL A   1      33.408  22.369  24.278  1.00  0.00    -0.225 N 
ATOM     13  C   UNL A   1      33.063  24.357  23.336  1.00  0.00     0.071 C 
ATOM     14  N   UNL A   1      32.577  23.465  24.071  1.00  0.00    -0.174 NA
ATOM     15  C   UNL A   1      34.403  24.098  22.749  1.00  0.00     0.091 C 
ATOM     16  C   UNL A   1      35.066  22.842  23.607  1.00  0.00     0.149 C 
BRANCH  13  17
ATOM     17  C   UNL A   1      32.202  25.517  23.008  1.00  0.00    -0.002 A 
ATOM     18  C   UNL A   1      30.501  27.754  22.976  1.00  0.00     0.118 A 
ATOM     19  C   UNL A   1      31.889  27.910  22.872  1.00  0.00     0.047 A 
ATOM     20  C   UNL A   1      29.967  26.472  23.100  1.00  0.00     0.047 A 
ATOM     21  C   UNL A   1      32.744  26.798  22.911  1.00  0.00     0.014 A 
ATOM     22  C   UNL A   1      30.816  25.356  23.125  1.00  0.00     0.014 A 
BRANCH  18  23
ATOM     23  O   UNL A   1      29.774  28.913  22.917  1.00  0.00    -0.497 OA
ATOM     24  C   UNL A   1      30.248  29.914  22.019  1.00  0.00     0.278 C 
ENDBRANCH  18  23
ENDBRANCH  13  17
BRANCH  16  25
ATOM     25  C   UNL A   1      36.822  22.622  24.477  1.00  0.00    -0.004 A 
ATOM     26  C   UNL A   1      37.385  23.736  24.959  1.00  0.00     0.009 A 
ATOM     27  C   UNL A   1      37.756  21.393  24.981  1.00  0.00     0.047 A 
ATOM     28  C   UNL A   1      38.383  23.702  26.031  1.00  0.00     0.021 A 
ATOM     29  C   UNL A   1      38.902  21.471  25.810  1.00  0.00     0.041 A 
ATOM     30  Cl  UNL A   1      37.559  19.566  24.816  1.00  0.00    -0.084 Cl
ATOM     31  C   UNL A   1      39.120  22.627  26.457  1.00  0.00     0.042 A 
ATOM     32  Cl  UNL A   1      40.133  22.714  27.838  1.00  0.00    -0.084 Cl
ENDBRANCH  16  25
ENDBRANCH  10  12
ENDBRANCH   9  10
ENDBRANCH   8   9
ENDBRANCH   6   8
ENDBRANCH   5   6
ENDBRANCH   4   5
ENDBRANCH   3   4
ENDBRANCH   2   3
ENDBRANCH   1   2
BRANCH   1  33
ATOM     33  C   UNL A   1      34.843  30.127  27.425  1.00  0.00     0.188 C 
BRANCH  33  34
ATOM     34  O   UNL A   1      34.219  31.839  27.587  1.00  0.00    -0.376 OA
BRANCH  34  35
ATOM     35  C   UNL A   1      34.407  33.131  28.820  1.00  0.00     0.202 C 
BRANCH  35  36
ATOM     36  C   UNL A   1      34.783  33.167  30.676  1.00  0.00     0.261 C 
BRANCH  36  37
ATOM     37  O   UNL A   1      34.978  31.995  31.729  1.00  0.00    -0.460 OA
BRANCH  37  38
ATOM     38  C   UNL A   1      36.017  31.969  32.742  1.00  0.00     0.338 C 
ATOM     39  O   UNL A   1      36.033  32.790  33.656  1.00  0.00    -0.246 OA
BRANCH  38  40
ATOM     40  C   UNL A   1      37.395  31.182  32.369  1.00  0.00     0.060 A 
ATOM     41  C   UNL A   1      37.516  29.826  32.768  1.00  0.00     0.016 A 
ATOM     42  C   UNL A   1      38.612  31.752  31.960  1.00  0.00     0.016 A 
ATOM     43  C   UNL A   1      38.772  29.224  33.076  1.00  0.00     0.010 A 
ATOM     44  C   UNL A   1      39.872  31.020  32.046  1.00  0.00     0.010 A 
ATOM     45  C   UNL A   1      39.992  29.740  32.633  1.00  0.00    -0.014 A 
BRANCH  45  46
ATOM     46  C   UNL A   1      41.277  28.882  32.659  1.00  0.00     0.031 A 
ATOM     47  C   UNL A   1      42.261  28.838  33.835  1.00  0.00     0.074 A 
ATOM     48  C   UNL A   1      41.641  28.121  31.588  1.00  0.00     0.049 A 
ATOM     49  N   UNL A   1      43.529  28.480  33.851  1.00  0.00    -0.248 NA
ATOM     50  C   UNL A   1      41.741  29.198  35.160  1.00  0.00     0.031 C 
ATOM     51  C   UNL A   1      40.827  27.851  30.402  1.00  0.00     0.029 A 
ATOM     52  N   UNL A   1      42.824  27.448  31.301  1.00  0.00    -0.354 N 
ATOM     53  C   UNL A   1      43.980  28.630  35.166  1.00  0.00     0.074 A 
ATOM     54  C   UNL A   1      42.825  29.080  35.925  1.00  0.00     0.031 C 
ATOM     55  C   UNL A   1      41.514  27.103  29.532  1.00  0.00     0.029 A 
ATOM     56  C   UNL A   1      42.877  26.949  30.012  1.00  0.00     0.049 A 
ATOM     57  H   UNL A   1      43.553  27.337  31.953  1.00  0.00     0.167 HD
ATOM     58  C   UNL A   1      45.228  28.436  35.688  1.00  0.00     0.034 A 
ATOM     59  C   UNL A   1      43.887  26.512  29.227  1.00  0.00     0.034 A 
ATOM     60  C   UNL A   1      46.381  27.946  34.951  1.00  0.00     0.049 A 
ATOM     61  C   UNL A   1      45.298  26.484  29.751  1.00  0.00     0.074 A 
ATOM     62  C   UNL A   1      47.681  27.755  35.404  1.00  0.00     0.029 A 
ATOM     63  N   UNL A   1      46.387  27.566  33.617  1.00  0.00    -0.354 N 
ATOM     64  N   UNL A   1      45.736  26.779  30.950  1.00  0.00    -0.248 NA
ATOM     65  C   UNL A   1      46.353  26.077  28.809  1.00  0.00     0.031 C 
ATOM     66  C   UNL A   1      48.482  27.348  34.331  1.00  0.00     0.029 A 
ATOM     67  C   UNL A   1      47.669  27.192  33.223  1.00  0.00     0.049 A 
ATOM     68  H   UNL A   1      45.596  27.560  33.030  1.00  0.00     0.167 HD
ATOM     69  C   UNL A   1      47.113  26.565  30.909  1.00  0.00     0.074 A 
ATOM     70  C   UNL A   1      47.431  26.103  29.577  1.00  0.00     0.031 C 
ATOM     71  C   UNL A   1      48.024  26.737  31.900  1.00  0.00     0.034 A 
BRANCH  58  72
ATOM     72  C   UNL A   1      45.472  28.857  37.129  1.00  0.00     0.023 A 
ATOM     73  C   UNL A   1      45.466  27.953  38.203  1.00  0.00     0.031 A 
ATOM     74  C   UNL A   1      45.748  30.211  37.418  1.00  0.00     0.131 A 
ATOM     75  C   UNL A   1      45.666  28.421  39.516  1.00  0.00     0.055 A 
ATOM     76  C   UNL A   1      46.021  30.656  38.713  1.00  0.00     0.041 A 
ATOM     77  F   UNL A   1      45.767  31.127  36.436  1.00  0.00    -0.206 F 
ATOM     78  C   UNL A   1      45.965  29.762  39.774  1.00  0.00     0.022 A 
BRANCH  75  79
ATOM     79  S   UNL A   1      45.390  27.283  40.902  1.00  0.00     0.124 S 
ATOM     80  O   UNL A   1      46.600  27.485  41.696  1.00  0.00    -0.237 OA
ATOM     81  O   UNL A   1      44.151  27.786  41.483  1.00  0.00    -0.237 OA
ATOM     82  O   UNL A   1      45.290  25.974  40.258  1.00  0.00    -0.744 OA
ENDBRANCH  75  79
ENDBRANCH  58  72
BRANCH  59  83
ATOM     83  C   UNL A   1      43.634  26.194  27.782  1.00  0.00     0.023 A 
ATOM     84  C   UNL A   1      43.630  24.872  27.310  1.00  0.00     0.031 A 
ATOM     85  C   UNL A   1      43.471  27.226  26.836  1.00  0.00     0.131 A 
ATOM     86  C   UNL A   1      43.510  24.621  25.932  1.00  0.00     0.055 A 
ATOM     87  C   UNL A   1      43.279  26.968  25.479  1.00  0.00     0.041 A 
ATOM     88  F   UNL A   1      43.485  28.512  27.223  1.00  0.00    -0.206 F 
ATOM     89  C   UNL A   1      43.313  25.658  25.018  1.00  0.00     0.022 A 
BRANCH  86  90
ATOM     90  S   UNL A   1      43.725  22.921  25.333  1.00  0.00     0.124 S 
ATOM     91  O   UNL A   1      44.597  22.357  26.356  1.00  0.00    -0.237 OA
ATOM     92  O   UNL A   1      42.351  22.430  25.318  1.00  0.00    -0.237 OA
ATOM     93  O   UNL A   1      44.337  23.099  24.018  1.00  0.00    -0.744 OA
ENDBRANCH  86  90
ENDBRANCH  59  83
BRANCH  71  94
ATOM     94  C   UNL A   1      49.459  26.362  31.601  1.00  0.00     0.023 A 
ATOM     95  C   UNL A   1      50.319  27.210  30.878  1.00  0.00     0.031 A 
ATOM     96  C   UNL A   1      49.968  25.121  32.025  1.00  0.00     0.131 A 
ATOM     97  C   UNL A   1      51.622  26.787  30.561  1.00  0.00     0.055 A 
ATOM     98  C   UNL A   1      51.283  24.730  31.756  1.00  0.00     0.041 A 
ATOM     99  F   UNL A   1      49.195  24.263  32.708  1.00  0.00    -0.206 F 
ATOM    100  C   UNL A   1      52.114  25.560  31.011  1.00  0.00     0.022 A 
BRANCH  97 101
ATOM    101  S   UNL A   1      52.646  27.827  29.480  1.00  0.00     0.124 S 
ATOM    102  O   UNL A   1      52.124  27.496  28.157  1.00  0.00    -0.237 OA
ATOM    103  O   UNL A   1      52.349  29.171  29.965  1.00  0.00    -0.237 OA
ATOM    104  O   UNL A   1      54.006  27.362  29.743  1.00  0.00    -0.744 OA
ENDBRANCH  97 101
ENDBRANCH  71  94
ENDBRANCH  45  46
ENDBRANCH  38  40
ENDBRANCH  37  38
ENDBRANCH  36  37
ENDBRANCH  35  36
ENDBRANCH  34  35
ENDBRANCH  33  34
ENDBRANCH   1  33
TORSDOF 26
ENDMDL
MODEL 3
REMARK VINA RESULT:     -10.0     11.701     15.780
REMARK SMILES COc1ccc(C2=NN(C(=O)CCC(=O)OCCOCCOCCOC(=O)c3ccc(-c4c5nc(c(-c6cc(S(=O)(=O)[O-])ccc6F)c6ccc([nH]6)c(-c6cc(S(=O)(=O)[O-])ccc6F)c6nc(c(-c7cc(S(=O)(=O)[O-])ccc7F)c7ccc4[nH]7)C=C6)C=C5)cc3)[C@H](c3ccc(Cl)cc3Cl)C2)cc1
REMARK SMILES IDX 20 1 19 2 18 3 17 4 16 5 14 6 15 7 13 8 12 9 10 10 11 11
REMARK SMILES IDX 9 12 7 13 8 14 100 15 91 16 6 17 3 18 4 19 102 20 5 21
REMARK SMILES IDX 101 22 2 23 1 24 92 25 93 26 98 27 94 28 97 29 99 30 95 31
REMARK SMILES IDX 96 32 21 33 22 34 23 35 24 36 25 37 26 38 27 39 28 40 29 41
REMARK SMILES IDX 90 42 30 43 89 44 31 45 32 46 33 47 83 48 34 49 88 50 82 51
REMARK SMILES IDX 84 52 35 53 87 54 81 55 80 56 36 58 68 59 48 60 67 61 49 62
REMARK SMILES IDX 52 63 66 64 85 65 50 66 51 67 65 69 86 70 53 71 37 72 38 73
REMARK SMILES IDX 46 74 39 75 45 76 47 77 44 78 40 79 41 80 42 81 43 82 69 83
REMARK SMILES IDX 70 84 78 85 71 86 77 87 79 88 76 89 72 90 73 91 74 92 75 93
REMARK SMILES IDX 54 94 55 95 63 96 56 97 62 98 64 99 61 100 57 101 58 102
REMARK SMILES IDX 59 103 60 104
REMARK H PARENT 84 57 52 68
REMARK Flexibility Score: inf
ROOT
ATOM      1  C   UNL A   1      46.871  43.924  26.732  1.00  0.00     0.188 C 
ENDROOT
BRANCH   1   2
ATOM      2  O   UNL A   1      46.703  43.531  25.328  1.00  0.00    -0.376 OA
BRANCH   2   3
ATOM      3  C   UNL A   1      46.006  44.028  24.151  1.00  0.00     0.202 C 
BRANCH   3   4
ATOM      4  C   UNL A   1      44.648  44.735  24.089  1.00  0.00     0.261 C 
BRANCH   4   5
ATOM      5  O   UNL A   1      43.648  43.937  24.652  1.00  0.00    -0.463 OA
BRANCH   5   6
ATOM      6  C   UNL A   1      43.104  43.000  23.874  1.00  0.00     0.306 C 
ATOM      7  O   UNL A   1      43.305  41.790  23.969  1.00  0.00    -0.252 OA
BRANCH   6   8
ATOM      8  C   UNL A   1      42.105  43.621  22.954  1.00  0.00     0.132 C 
BRANCH   8   9
ATOM      9  C   UNL A   1      42.362  43.507  21.441  1.00  0.00     0.114 C 
BRANCH   9  10
ATOM     10  C   UNL A   1      43.806  43.521  20.841  1.00  0.00     0.243 C 
ATOM     11  O   UNL A   1      44.175  42.329  20.660  1.00  0.00    -0.273 OA
BRANCH  10  12
ATOM     12  N   UNL A   1      44.687  44.607  20.437  1.00  0.00    -0.225 N 
ATOM     13  C   UNL A   1      46.904  44.812  20.456  1.00  0.00     0.071 C 
ATOM     14  N   UNL A   1      45.938  44.028  20.616  1.00  0.00    -0.174 NA
ATOM     15  C   UNL A   1      46.583  46.234  20.165  1.00  0.00     0.091 C 
ATOM     16  C   UNL A   1      44.989  46.280  19.709  1.00  0.00     0.149 C 
BRANCH  13  17
ATOM     17  C   UNL A   1      48.265  44.283  20.708  1.00  0.00    -0.002 A 
ATOM     18  C   UNL A   1      51.022  43.796  20.949  1.00  0.00     0.118 A 
ATOM     19  C   UNL A   1      50.280  44.260  22.042  1.00  0.00     0.047 A 
ATOM     20  C   UNL A   1      50.378  43.579  19.731  1.00  0.00     0.047 A 
ATOM     21  C   UNL A   1      48.908  44.528  21.921  1.00  0.00     0.014 A 
ATOM     22  C   UNL A   1      49.004  43.831  19.609  1.00  0.00     0.014 A 
BRANCH  18  23
ATOM     23  O   UNL A   1      52.349  43.565  21.195  1.00  0.00    -0.497 OA
ATOM     24  C   UNL A   1      53.118  44.683  21.631  1.00  0.00     0.278 C 
ENDBRANCH  18  23
ENDBRANCH  13  17
BRANCH  16  25
ATOM     25  C   UNL A   1      44.085  47.096  18.156  1.00  0.00    -0.004 A 
ATOM     26  C   UNL A   1      43.259  46.299  17.468  1.00  0.00     0.009 A 
ATOM     27  C   UNL A   1      43.888  48.585  17.541  1.00  0.00     0.047 A 
ATOM     28  C   UNL A   1      42.169  46.832  16.649  1.00  0.00     0.021 A 
ATOM     29  C   UNL A   1      42.986  48.979  16.523  1.00  0.00     0.041 A 
ATOM     30  Cl  UNL A   1      44.590  50.216  18.046  1.00  0.00    -0.084 Cl
ATOM     31  C   UNL A   1      42.016  48.114  16.186  1.00  0.00     0.042 A 
ATOM     32  Cl  UNL A   1      40.595  48.618  15.370  1.00  0.00    -0.084 Cl
ENDBRANCH  16  25
ENDBRANCH  10  12
ENDBRANCH   9  10
ENDBRANCH   8   9
ENDBRANCH   6   8
ENDBRANCH   5   6
ENDBRANCH   4   5
ENDBRANCH   3   4
ENDBRANCH   2   3
ENDBRANCH   1   2
BRANCH   1  33
ATOM     33  C   UNL A   1      47.381  43.090  28.350  1.00  0.00     0.188 C 
BRANCH  33  34
ATOM     34  O   UNL A   1      47.405  41.319  28.809  1.00  0.00    -0.376 OA
BRANCH  34  35
ATOM     35  C   UNL A   1      47.376  39.781  27.880  1.00  0.00     0.202 C 
BRANCH  35  36
ATOM     36  C   UNL A   1      46.263  39.052  26.532  1.00  0.00     0.261 C 
BRANCH  36  37
ATOM     37  O   UNL A   1      44.874  39.543  25.940  1.00  0.00    -0.460 OA
BRANCH  37  38
ATOM     38  C   UNL A   1      43.634  39.588  26.692  1.00  0.00     0.338 C 
ATOM     39  O   UNL A   1      43.205  40.646  27.146  1.00  0.00    -0.246 OA
BRANCH  38  40
ATOM     40  C   UNL A   1      43.108  38.186  27.337  1.00  0.00     0.060 A 
ATOM     41  C   UNL A   1      43.644  37.787  28.589  1.00  0.00     0.016 A 
ATOM     42  C   UNL A   1      42.409  37.161  26.679  1.00  0.00     0.016 A 
ATOM     43  C   UNL A   1      43.782  36.418  28.965  1.00  0.00     0.010 A 
ATOM     44  C   UNL A   1      42.346  35.804  27.216  1.00  0.00     0.010 A 
ATOM     45  C   UNL A   1      43.055  35.386  28.365  1.00  0.00    -0.014 A 
BRANCH  45  46
ATOM     46  C   UNL A   1      42.945  33.997  29.031  1.00  0.00     0.031 A 
ATOM     47  C   UNL A   1      42.127  33.710  30.297  1.00  0.00     0.074 A 
ATOM     48  C   UNL A   1      43.622  32.921  28.540  1.00  0.00     0.049 A 
ATOM     49  N   UNL A   1      42.241  32.721  31.160  1.00  0.00    -0.248 NA
ATOM     50  C   UNL A   1      41.016  34.621  30.600  1.00  0.00     0.031 C 
ATOM     51  C   UNL A   1      44.350  32.862  27.270  1.00  0.00     0.029 A 
ATOM     52  N   UNL A   1      43.842  31.654  29.071  1.00  0.00    -0.354 N 
ATOM     53  C   UNL A   1      41.268  32.921  32.144  1.00  0.00     0.074 A 
ATOM     54  C   UNL A   1      40.545  34.116  31.739  1.00  0.00     0.031 C 
ATOM     55  C   UNL A   1      44.931  31.667  27.127  1.00  0.00     0.029 A 
ATOM     56  C   UNL A   1      44.755  30.904  28.351  1.00  0.00     0.049 A 
ATOM     57  H   UNL A   1      43.392  31.324  29.882  1.00  0.00     0.167 HD
ATOM     58  C   UNL A   1      41.011  32.202  33.276  1.00  0.00     0.034 A 
ATOM     59  C   UNL A   1      45.473  29.795  28.635  1.00  0.00     0.034 A 
ATOM     60  C   UNL A   1      41.696  30.982  33.671  1.00  0.00     0.049 A 
ATOM     61  C   UNL A   1      45.324  29.115  29.969  1.00  0.00     0.074 A 
ATOM     62  C   UNL A   1      41.512  30.218  34.818  1.00  0.00     0.029 A 
ATOM     63  N   UNL A   1      42.689  30.340  32.946  1.00  0.00    -0.354 N 
ATOM     64  N   UNL A   1      44.512  29.406  30.955  1.00  0.00    -0.248 NA
ATOM     65  C   UNL A   1      46.201  27.964  30.235  1.00  0.00     0.031 C 
ATOM     66  C   UNL A   1      42.447  29.176  34.825  1.00  0.00     0.029 A 
ATOM     67  C   UNL A   1      43.156  29.227  33.639  1.00  0.00     0.049 A 
ATOM     68  H   UNL A   1      43.017  30.630  32.064  1.00  0.00     0.167 HD
ATOM     69  C   UNL A   1      44.764  28.456  31.943  1.00  0.00     0.074 A 
ATOM     70  C   UNL A   1      45.790  27.576  31.432  1.00  0.00     0.031 C 
ATOM     71  C   UNL A   1      44.186  28.333  33.164  1.00  0.00     0.034 A 
BRANCH  58  72
ATOM     72  C   UNL A   1      40.000  32.762  34.264  1.00  0.00     0.023 A 
ATOM     73  C   UNL A   1      40.322  33.739  35.219  1.00  0.00     0.031 A 
ATOM     74  C   UNL A   1      38.662  32.315  34.215  1.00  0.00     0.131 A 
ATOM     75  C   UNL A   1      39.341  34.186  36.125  1.00  0.00     0.055 A 
ATOM     76  C   UNL A   1      37.675  32.818  35.066  1.00  0.00     0.041 A 
ATOM     77  F   UNL A   1      38.288  31.380  33.326  1.00  0.00    -0.206 F 
ATOM     78  C   UNL A   1      38.016  33.749  36.039  1.00  0.00     0.022 A 
BRANCH  75  79
ATOM     79  S   UNL A   1      39.846  35.244  37.511  1.00  0.00     0.124 S 
ATOM     80  O   UNL A   1      41.167  34.705  37.827  1.00  0.00    -0.237 OA
ATOM     81  O   UNL A   1      39.822  36.575  36.917  1.00  0.00    -0.237 OA
ATOM     82  O   UNL A   1      38.822  34.994  38.525  1.00  0.00    -0.744 OA
ENDBRANCH  75  79
ENDBRANCH  58  72
BRANCH  59  83
ATOM     83  C   UNL A   1      46.531  29.318  27.682  1.00  0.00     0.023 A 
ATOM     84  C   UNL A   1      46.280  28.291  26.760  1.00  0.00     0.031 A 
ATOM     85  C   UNL A   1      47.839  29.839  27.741  1.00  0.00     0.131 A 
ATOM     86  C   UNL A   1      47.328  27.790  25.968  1.00  0.00     0.055 A 
ATOM     87  C   UNL A   1      48.858  29.389  26.902  1.00  0.00     0.041 A 
ATOM     88  F   UNL A   1      48.145  30.811  28.617  1.00  0.00    -0.206 F 
ATOM     89  C   UNL A   1      48.608  28.346  26.018  1.00  0.00     0.022 A 
BRANCH  86  90
ATOM     90  S   UNL A   1      47.024  26.322  24.945  1.00  0.00     0.124 S 
ATOM     91  O   UNL A   1      47.525  25.256  25.804  1.00  0.00    -0.237 OA
ATOM     92  O   UNL A   1      45.578  26.375  24.763  1.00  0.00    -0.237 OA
ATOM     93  O   UNL A   1      47.812  26.578  23.740  1.00  0.00    -0.744 OA
ENDBRANCH  86  90
ENDBRANCH  59  83
BRANCH  71  94
ATOM     94  C   UNL A   1      44.605  27.157  34.020  1.00  0.00     0.023 A 
ATOM     95  C   UNL A   1      44.036  25.879  33.865  1.00  0.00     0.031 A 
ATOM     96  C   UNL A   1      45.573  27.326  35.026  1.00  0.00     0.131 A 
ATOM     97  C   UNL A   1      44.405  24.835  34.732  1.00  0.00     0.055 A 
ATOM     98  C   UNL A   1      45.977  26.269  35.848  1.00  0.00     0.041 A 
ATOM     99  F   UNL A   1      46.145  28.522  35.231  1.00  0.00    -0.206 F 
ATOM    100  C   UNL A   1      45.384  25.018  35.710  1.00  0.00     0.022 A 
BRANCH  97 101
ATOM    101  S   UNL A   1      43.528  23.249  34.621  1.00  0.00     0.124 S 
ATOM    102  O   UNL A   1      44.371  22.378  35.434  1.00  0.00    -0.237 OA
ATOM    103  O   UNL A   1      42.220  23.574  35.181  1.00  0.00    -0.237 OA
ATOM    104  O   UNL A   1      43.531  22.953  33.190  1.00  0.00    -0.744 OA
ENDBRANCH  97 101
ENDBRANCH  71  94
ENDBRANCH  45  46
ENDBRANCH  38  40
ENDBRANCH  37  38
ENDBRANCH  36  37
ENDBRANCH  35  36
ENDBRANCH  34  35
ENDBRANCH  33  34
ENDBRANCH   1  33
TORSDOF 26
ENDMDL
