MODEL 1
REMARK VINA RESULT:     -10.6      0.000      0.000
REMARK SMILES Cc1cc([C@H](O)CC2(CC(=O)OCCOCCOCCOC(=O)c3ccc(-c4c5nc(c(-c6cc(S(=O)(=O)[O-])ccc6F)c6ccc([nH]6)c(-c6cc(S(=O)(=O)[O-])ccc6F)c6nc(c(-c7cc(S(=O)(=O)[O-])ccc7F)c7ccc4[nH]7)C=C6)C=C5)cc3)CCCC2)ccc1F
REMARK SMILES IDX 16 1 15 2 14 3 13 4 12 5 10 6 11 7 9 8 8 9 87 10 90 11 88 12
REMARK SMILES IDX 89 13 7 14 5 15 4 16 1 17 2 18 3 19 93 20 92 21 94 22 91 23
REMARK SMILES IDX 6 24 17 26 18 27 19 28 20 29 21 30 22 31 23 32 24 33 25 34
REMARK SMILES IDX 86 35 26 36 85 37 27 38 28 39 29 40 79 41 30 42 84 43 78 44
REMARK SMILES IDX 80 45 31 46 83 47 77 48 76 49 32 51 64 52 44 53 63 54 45 55
REMARK SMILES IDX 48 56 62 57 81 58 46 59 47 60 61 62 82 63 49 64 33 65 34 66
REMARK SMILES IDX 42 67 35 68 41 69 43 70 40 71 36 72 37 73 38 74 39 75 65 76
REMARK SMILES IDX 66 77 74 78 67 79 73 80 75 81 72 82 68 83 69 84 70 85 71 86
REMARK SMILES IDX 50 87 51 88 59 89 52 90 58 91 60 92 57 93 53 94 54 95 55 96
REMARK SMILES IDX 56 97
REMARK H PARENT 6 25 80 50 48 61
REMARK Flexibility Score: inf
ROOT
ATOM      1  C   UNL A   1      35.335  21.905  26.214  1.00  0.00     0.188 C 
ENDROOT
BRANCH   1   2
ATOM      2  O   UNL A   1      34.324  21.344  27.051  1.00  0.00    -0.376 OA
BRANCH   2   3
ATOM      3  C   UNL A   1      33.486  22.236  27.763  1.00  0.00     0.202 C 
BRANCH   3   4
ATOM      4  C   UNL A   1      32.035  22.396  27.273  1.00  0.00     0.261 C 
BRANCH   4   5
ATOM      5  O   UNL A   1      31.432  23.687  27.530  1.00  0.00    -0.463 OA
BRANCH   5   6
ATOM      6  C   UNL A   1      30.533  24.136  26.626  1.00  0.00     0.306 C 
ATOM      7  O   UNL A   1      29.395  24.486  26.928  1.00  0.00    -0.252 OA
BRANCH   6   8
ATOM      8  C   UNL A   1      31.041  24.286  25.188  1.00  0.00     0.129 C 
BRANCH   8   9
ATOM      9  C   UNL A   1      31.596  25.590  24.501  1.00  0.00    -0.016 C 
ATOM     10  C   UNL A   1      32.706  25.146  23.511  1.00  0.00     0.008 C 
ATOM     11  C   UNL A   1      32.409  26.506  25.430  1.00  0.00     0.008 C 
ATOM     12  C   UNL A   1      33.971  24.997  24.346  1.00  0.00     0.001 C 
ATOM     13  C   UNL A   1      33.757  25.829  25.605  1.00  0.00     0.001 C 
BRANCH   9  14
ATOM     14  C   UNL A   1      30.489  26.307  23.661  1.00  0.00     0.044 C 
BRANCH  14  15
ATOM     15  C   UNL A   1      30.909  27.581  22.883  1.00  0.00     0.145 C 
BRANCH  15  16
ATOM     16  C   UNL A   1      30.067  28.774  23.228  1.00  0.00    -0.019 A 
ATOM     17  C   UNL A   1      30.377  31.930  25.269  1.00  0.00     0.047 C 
ATOM     18  C   UNL A   1      29.848  30.949  24.268  1.00  0.00    -0.015 A 
ATOM     19  C   UNL A   1      30.561  29.777  24.070  1.00  0.00     0.012 A 
ATOM     20  C   UNL A   1      28.664  31.094  23.543  1.00  0.00     0.126 A 
ATOM     21  C   UNL A   1      28.093  30.071  22.802  1.00  0.00     0.040 A 
ATOM     22  F   UNL A   1      28.064  32.275  23.433  1.00  0.00    -0.207 F 
ATOM     23  C   UNL A   1      28.790  28.893  22.658  1.00  0.00     0.009 A 
ENDBRANCH  15  16
BRANCH  15  24
ATOM     24  O   UNL A   1      30.903  27.371  21.483  1.00  0.00    -0.388 OA
ATOM     25  H   UNL A   1      31.737  26.956  21.214  1.00  0.00     0.211 HD
ENDBRANCH  15  24
ENDBRANCH  14  15
ENDBRANCH   9  14
ENDBRANCH   8   9
ENDBRANCH   6   8
ENDBRANCH   5   6
ENDBRANCH   4   5
ENDBRANCH   3   4
ENDBRANCH   2   3
ENDBRANCH   1   2
BRANCH   1  26
ATOM     26  C   UNL A   1      35.981  21.030  25.108  1.00  0.00     0.188 C 
BRANCH  26  27
ATOM     27  O   UNL A   1      37.091  21.677  24.510  1.00  0.00    -0.376 OA
BRANCH  27  28
ATOM     28  C   UNL A   1      37.997  22.335  25.361  1.00  0.00     0.202 C 
BRANCH  28  29
ATOM     29  C   UNL A   1      39.087  21.475  26.017  1.00  0.00     0.261 C 
BRANCH  29  30
ATOM     30  O   UNL A   1      40.288  22.127  26.455  1.00  0.00    -0.460 OA
BRANCH  30  31
ATOM     31  C   UNL A   1      41.305  21.257  26.524  1.00  0.00     0.338 C 
ATOM     32  O   UNL A   1      41.180  20.027  26.396  1.00  0.00    -0.246 OA
BRANCH  31  33
ATOM     33  C   UNL A   1      42.589  21.743  27.022  1.00  0.00     0.060 A 
ATOM     34  C   UNL A   1      42.600  21.945  28.415  1.00  0.00     0.016 A 
ATOM     35  C   UNL A   1      43.128  22.700  26.163  1.00  0.00     0.016 A 
ATOM     36  C   UNL A   1      42.792  23.228  28.897  1.00  0.00     0.010 A 
ATOM     37  C   UNL A   1      43.287  23.985  26.649  1.00  0.00     0.010 A 
ATOM     38  C   UNL A   1      43.007  24.270  27.992  1.00  0.00    -0.014 A 
BRANCH  38  39
ATOM     39  C   UNL A   1      43.132  25.660  28.418  1.00  0.00     0.031 A 
ATOM     40  C   UNL A   1      41.936  26.521  28.240  1.00  0.00     0.074 A 
ATOM     41  C   UNL A   1      44.271  26.202  28.924  1.00  0.00     0.049 A 
ATOM     42  N   UNL A   1      41.966  27.810  28.175  1.00  0.00    -0.248 NA
ATOM     43  C   UNL A   1      40.603  25.961  27.981  1.00  0.00     0.031 C 
ATOM     44  C   UNL A   1      44.324  27.309  29.862  1.00  0.00     0.029 A 
ATOM     45  N   UNL A   1      45.621  25.986  28.619  1.00  0.00    -0.354 N 
ATOM     46  C   UNL A   1      40.653  28.223  28.243  1.00  0.00     0.074 A 
ATOM     47  C   UNL A   1      39.861  27.067  27.903  1.00  0.00     0.031 C 
ATOM     48  C   UNL A   1      45.579  27.787  29.899  1.00  0.00     0.029 A 
ATOM     49  C   UNL A   1      46.336  27.165  28.815  1.00  0.00     0.049 A 
ATOM     50  H   UNL A   1      46.005  25.133  28.312  1.00  0.00     0.167 HD
ATOM     51  C   UNL A   1      40.347  29.405  28.845  1.00  0.00     0.034 A 
ATOM     52  C   UNL A   1      47.188  27.817  27.962  1.00  0.00     0.034 A 
ATOM     53  C   UNL A   1      41.552  30.098  29.284  1.00  0.00     0.049 A 
ATOM     54  C   UNL A   1      46.896  29.307  27.897  1.00  0.00     0.074 A 
ATOM     55  C   UNL A   1      42.239  30.097  30.487  1.00  0.00     0.029 A 
ATOM     56  N   UNL A   1      42.402  30.673  28.357  1.00  0.00    -0.354 N 
ATOM     57  N   UNL A   1      45.805  29.836  28.361  1.00  0.00    -0.248 NA
ATOM     58  C   UNL A   1      47.701  30.272  27.147  1.00  0.00     0.031 C 
ATOM     59  C   UNL A   1      43.483  30.743  30.295  1.00  0.00     0.029 A 
ATOM     60  C   UNL A   1      43.555  31.137  28.973  1.00  0.00     0.049 A 
ATOM     61  H   UNL A   1      42.215  30.742  27.393  1.00  0.00     0.167 HD
ATOM     62  C   UNL A   1      45.686  31.122  27.917  1.00  0.00     0.074 A 
ATOM     63  C   UNL A   1      46.890  31.342  27.140  1.00  0.00     0.031 C 
ATOM     64  C   UNL A   1      44.561  31.841  28.185  1.00  0.00     0.034 A 
BRANCH  51  65
ATOM     65  C   UNL A   1      38.961  29.697  29.386  1.00  0.00     0.023 A 
ATOM     66  C   UNL A   1      38.061  30.620  28.808  1.00  0.00     0.031 A 
ATOM     67  C   UNL A   1      38.458  28.966  30.484  1.00  0.00     0.131 A 
ATOM     68  C   UNL A   1      36.713  30.675  29.212  1.00  0.00     0.055 A 
ATOM     69  C   UNL A   1      37.136  29.067  30.925  1.00  0.00     0.041 A 
ATOM     70  F   UNL A   1      39.210  28.082  31.153  1.00  0.00    -0.206 F 
ATOM     71  C   UNL A   1      36.245  29.898  30.269  1.00  0.00     0.022 A 
BRANCH  68  72
ATOM     72  S   UNL A   1      35.490  31.659  28.297  1.00  0.00     0.124 S 
ATOM     73  O   UNL A   1      36.280  32.810  27.859  1.00  0.00    -0.237 OA
ATOM     74  O   UNL A   1      35.079  30.747  27.235  1.00  0.00    -0.237 OA
ATOM     75  O   UNL A   1      34.471  31.968  29.298  1.00  0.00    -0.744 OA
ENDBRANCH  68  72
ENDBRANCH  51  65
BRANCH  52  76
ATOM     76  C   UNL A   1      47.903  27.179  26.807  1.00  0.00     0.023 A 
ATOM     77  C   UNL A   1      49.294  26.937  26.846  1.00  0.00     0.031 A 
ATOM     78  C   UNL A   1      47.224  26.765  25.650  1.00  0.00     0.131 A 
ATOM     79  C   UNL A   1      49.970  26.379  25.742  1.00  0.00     0.055 A 
ATOM     80  C   UNL A   1      47.893  26.178  24.563  1.00  0.00     0.041 A 
ATOM     81  F   UNL A   1      45.894  26.918  25.548  1.00  0.00    -0.206 F 
ATOM     82  C   UNL A   1      49.273  25.997  24.599  1.00  0.00     0.022 A 
BRANCH  79  83
ATOM     83  S   UNL A   1      51.775  26.141  25.796  1.00  0.00     0.124 S 
ATOM     84  O   UNL A   1      52.212  26.676  24.506  1.00  0.00    -0.237 OA
ATOM     85  O   UNL A   1      52.168  26.955  26.947  1.00  0.00    -0.237 OA
ATOM     86  O   UNL A   1      51.906  24.704  25.948  1.00  0.00    -0.744 OA
ENDBRANCH  79  83
ENDBRANCH  52  76
BRANCH  64  87
ATOM     87  C   UNL A   1      44.260  33.237  27.707  1.00  0.00     0.023 A 
ATOM     88  C   UNL A   1      44.441  34.313  28.607  1.00  0.00     0.031 A 
ATOM     89  C   UNL A   1      43.886  33.589  26.403  1.00  0.00     0.131 A 
ATOM     90  C   UNL A   1      44.172  35.633  28.244  1.00  0.00     0.055 A 
ATOM     91  C   UNL A   1      43.566  34.906  26.049  1.00  0.00     0.041 A 
ATOM     92  F   UNL A   1      43.892  32.696  25.404  1.00  0.00    -0.206 F 
ATOM     93  C   UNL A   1      43.695  35.935  26.974  1.00  0.00     0.022 A 
BRANCH  90  94
ATOM     94  S   UNL A   1      44.495  36.991  29.400  1.00  0.00     0.124 S 
ATOM     95  O   UNL A   1      45.946  36.908  29.554  1.00  0.00    -0.237 OA
ATOM     96  O   UNL A   1      44.010  38.147  28.650  1.00  0.00    -0.237 OA
ATOM     97  O   UNL A   1      43.717  36.639  30.582  1.00  0.00    -0.744 OA
ENDBRANCH  90  94
ENDBRANCH  64  87
ENDBRANCH  38  39
ENDBRANCH  31  33
ENDBRANCH  30  31
ENDBRANCH  29  30
ENDBRANCH  28  29
ENDBRANCH  27  28
ENDBRANCH  26  27
ENDBRANCH   1  26
TORSDOF 25
ENDMDL
MODEL 2
REMARK VINA RESULT:     -10.1      1.964      2.800
REMARK SMILES Cc1cc([C@H](O)CC2(CC(=O)OCCOCCOCCOC(=O)c3ccc(-c4c5nc(c(-c6cc(S(=O)(=O)[O-])ccc6F)c6ccc([nH]6)c(-c6cc(S(=O)(=O)[O-])ccc6F)c6nc(c(-c7cc(S(=O)(=O)[O-])ccc7F)c7ccc4[nH]7)C=C6)C=C5)cc3)CCCC2)ccc1F
REMARK SMILES IDX 16 1 15 2 14 3 13 4 12 5 10 6 11 7 9 8 8 9 87 10 90 11 88 12
REMARK SMILES IDX 89 13 7 14 5 15 4 16 1 17 2 18 3 19 93 20 92 21 94 22 91 23
REMARK SMILES IDX 6 24 17 26 18 27 19 28 20 29 21 30 22 31 23 32 24 33 25 34
REMARK SMILES IDX 86 35 26 36 85 37 27 38 28 39 29 40 79 41 30 42 84 43 78 44
REMARK SMILES IDX 80 45 31 46 83 47 77 48 76 49 32 51 64 52 44 53 63 54 45 55
REMARK SMILES IDX 48 56 62 57 81 58 46 59 47 60 61 62 82 63 49 64 33 65 34 66
REMARK SMILES IDX 42 67 35 68 41 69 43 70 40 71 36 72 37 73 38 74 39 75 65 76
REMARK SMILES IDX 66 77 74 78 67 79 73 80 75 81 72 82 68 83 69 84 70 85 71 86
REMARK SMILES IDX 50 87 51 88 59 89 52 90 58 91 60 92 57 93 53 94 54 95 55 96
REMARK SMILES IDX 56 97
REMARK H PARENT 6 25 80 50 48 61
REMARK Flexibility Score: inf
ROOT
ATOM      1  C   UNL A   1      35.756  21.358  25.394  1.00  0.00     0.188 C 
ENDROOT
BRANCH   1   2
ATOM      2  O   UNL A   1      34.696  22.050  26.054  1.00  0.00    -0.376 OA
BRANCH   2   3
ATOM      3  C   UNL A   1      34.578  23.444  25.831  1.00  0.00     0.202 C 
BRANCH   3   4
ATOM      4  C   UNL A   1      33.259  24.123  26.242  1.00  0.00     0.261 C 
BRANCH   4   5
ATOM      5  O   UNL A   1      33.228  25.562  26.093  1.00  0.00    -0.463 OA
BRANCH   5   6
ATOM      6  C   UNL A   1      32.045  26.177  26.307  1.00  0.00     0.306 C 
ATOM      7  O   UNL A   1      31.151  25.694  26.998  1.00  0.00    -0.252 OA
BRANCH   6   8
ATOM      8  C   UNL A   1      31.899  27.584  25.715  1.00  0.00     0.129 C 
BRANCH   8   9
ATOM      9  C   UNL A   1      33.051  28.599  25.366  1.00  0.00    -0.016 C 
ATOM     10  C   UNL A   1      34.027  28.612  26.574  1.00  0.00     0.008 C 
ATOM     11  C   UNL A   1      32.620  30.074  25.346  1.00  0.00     0.008 C 
ATOM     12  C   UNL A   1      33.424  29.580  27.583  1.00  0.00     0.001 C 
ATOM     13  C   UNL A   1      32.478  30.485  26.801  1.00  0.00     0.001 C 
BRANCH   9  14
ATOM     14  C   UNL A   1      33.868  28.126  24.118  1.00  0.00     0.044 C 
BRANCH  14  15
ATOM     15  C   UNL A   1      33.080  27.925  22.797  1.00  0.00     0.145 C 
BRANCH  15  16
ATOM     16  C   UNL A   1      32.409  26.586  22.722  1.00  0.00    -0.019 A 
ATOM     17  C   UNL A   1      33.409  22.963  22.412  1.00  0.00     0.047 C 
ATOM     18  C   UNL A   1      32.563  24.170  22.675  1.00  0.00    -0.015 A 
ATOM     19  C   UNL A   1      33.166  25.416  22.592  1.00  0.00     0.012 A 
ATOM     20  C   UNL A   1      31.195  24.152  22.954  1.00  0.00     0.126 A 
ATOM     21  C   UNL A   1      30.404  25.291  22.964  1.00  0.00     0.040 A 
ATOM     22  F   UNL A   1      30.585  23.036  23.339  1.00  0.00    -0.207 F 
ATOM     23  C   UNL A   1      31.012  26.518  22.828  1.00  0.00     0.009 A 
ENDBRANCH  15  16
BRANCH  15  24
ATOM     24  O   UNL A   1      33.901  28.122  21.660  1.00  0.00    -0.388 OA
ATOM     25  H   UNL A   1      34.827  27.966  21.898  1.00  0.00     0.211 HD
ENDBRANCH  15  24
ENDBRANCH  14  15
ENDBRANCH   9  14
ENDBRANCH   8   9
ENDBRANCH   6   8
ENDBRANCH   5   6
ENDBRANCH   4   5
ENDBRANCH   3   4
ENDBRANCH   2   3
ENDBRANCH   1   2
BRANCH   1  26
ATOM     26  C   UNL A   1      36.554  22.075  24.273  1.00  0.00     0.188 C 
BRANCH  26  27
ATOM     27  O   UNL A   1      37.802  22.554  24.744  1.00  0.00    -0.376 OA
BRANCH  27  28
ATOM     28  C   UNL A   1      38.208  22.158  26.031  1.00  0.00     0.202 C 
BRANCH  28  29
ATOM     29  C   UNL A   1      39.660  22.460  26.427  1.00  0.00     0.261 C 
BRANCH  29  30
ATOM     30  O   UNL A   1      40.407  21.427  27.087  1.00  0.00    -0.460 OA
BRANCH  30  31
ATOM     31  C   UNL A   1      41.512  21.121  26.393  1.00  0.00     0.338 C 
ATOM     32  O   UNL A   1      41.555  20.265  25.493  1.00  0.00    -0.246 OA
BRANCH  31  33
ATOM     33  C   UNL A   1      42.790  21.632  26.881  1.00  0.00     0.060 A 
ATOM     34  C   UNL A   1      42.807  21.838  28.273  1.00  0.00     0.016 A 
ATOM     35  C   UNL A   1      43.305  22.596  26.016  1.00  0.00     0.016 A 
ATOM     36  C   UNL A   1      42.980  23.125  28.750  1.00  0.00     0.010 A 
ATOM     37  C   UNL A   1      43.444  23.886  26.497  1.00  0.00     0.010 A 
ATOM     38  C   UNL A   1      43.168  24.169  27.841  1.00  0.00    -0.014 A 
BRANCH  38  39
ATOM     39  C   UNL A   1      43.270  25.562  28.262  1.00  0.00     0.031 A 
ATOM     40  C   UNL A   1      42.072  26.412  28.048  1.00  0.00     0.074 A 
ATOM     41  C   UNL A   1      44.391  26.116  28.795  1.00  0.00     0.049 A 
ATOM     42  N   UNL A   1      42.093  27.701  27.976  1.00  0.00    -0.248 NA
ATOM     43  C   UNL A   1      40.751  25.839  27.757  1.00  0.00     0.031 C 
ATOM     44  C   UNL A   1      44.410  27.229  29.728  1.00  0.00     0.029 A 
ATOM     45  N   UNL A   1      45.750  25.911  28.527  1.00  0.00    -0.354 N 
ATOM     46  C   UNL A   1      40.775  28.103  28.008  1.00  0.00     0.074 A 
ATOM     47  C   UNL A   1      40.002  26.939  27.653  1.00  0.00     0.031 C 
ATOM     48  C   UNL A   1      45.659  27.718  29.795  1.00  0.00     0.029 A 
ATOM     49  C   UNL A   1      46.450  27.097  28.736  1.00  0.00     0.049 A 
ATOM     50  H   UNL A   1      46.149  25.059  28.235  1.00  0.00     0.167 HD
ATOM     51  C   UNL A   1      40.443  29.286  28.594  1.00  0.00     0.034 A 
ATOM     52  C   UNL A   1      47.319  27.751  27.901  1.00  0.00     0.034 A 
ATOM     53  C   UNL A   1      41.631  29.992  29.061  1.00  0.00     0.049 A 
ATOM     54  C   UNL A   1      47.015  29.239  27.820  1.00  0.00     0.074 A 
ATOM     55  C   UNL A   1      42.286  30.003  30.282  1.00  0.00     0.029 A 
ATOM     56  N   UNL A   1      42.500  30.568  28.154  1.00  0.00    -0.354 N 
ATOM     57  N   UNL A   1      45.909  29.761  28.252  1.00  0.00    -0.248 NA
ATOM     58  C   UNL A   1      47.832  30.206  27.087  1.00  0.00     0.031 C 
ATOM     59  C   UNL A   1      43.529  30.658  30.119  1.00  0.00     0.029 A 
ATOM     60  C   UNL A   1      43.632  31.046  28.797  1.00  0.00     0.049 A 
ATOM     61  H   UNL A   1      42.338  30.631  27.185  1.00  0.00     0.167 HD
ATOM     62  C   UNL A   1      45.791  31.043  27.798  1.00  0.00     0.074 A 
ATOM     63  C   UNL A   1      47.012  31.269  27.052  1.00  0.00     0.031 C 
ATOM     64  C   UNL A   1      44.653  31.754  28.033  1.00  0.00     0.034 A 
BRANCH  51  65
ATOM     65  C   UNL A   1      39.041  29.569  29.097  1.00  0.00     0.023 A 
ATOM     66  C   UNL A   1      38.690  29.659  30.463  1.00  0.00     0.031 A 
ATOM     67  C   UNL A   1      38.003  29.853  28.184  1.00  0.00     0.131 A 
ATOM     68  C   UNL A   1      37.434  30.155  30.862  1.00  0.00     0.055 A 
ATOM     69  C   UNL A   1      36.735  30.286  28.583  1.00  0.00     0.041 A 
ATOM     70  F   UNL A   1      38.180  29.773  26.859  1.00  0.00    -0.206 F 
ATOM     71  C   UNL A   1      36.454  30.471  29.925  1.00  0.00     0.022 A 
BRANCH  68  72
ATOM     72  S   UNL A   1      37.073  30.527  32.603  1.00  0.00     0.124 S 
ATOM     73  O   UNL A   1      37.248  29.224  33.244  1.00  0.00    -0.237 OA
ATOM     74  O   UNL A   1      38.089  31.522  32.931  1.00  0.00    -0.237 OA
ATOM     75  O   UNL A   1      35.695  31.012  32.578  1.00  0.00    -0.744 OA
ENDBRANCH  68  72
ENDBRANCH  51  65
BRANCH  52  76
ATOM     76  C   UNL A   1      48.069  27.114  26.769  1.00  0.00     0.023 A 
ATOM     77  C   UNL A   1      49.457  26.866  26.854  1.00  0.00     0.031 A 
ATOM     78  C   UNL A   1      47.428  26.704  25.589  1.00  0.00     0.131 A 
ATOM     79  C   UNL A   1      50.167  26.308  25.771  1.00  0.00     0.055 A 
ATOM     80  C   UNL A   1      48.130  26.117  24.524  1.00  0.00     0.041 A 
ATOM     81  F   UNL A   1      46.102  26.862  25.444  1.00  0.00    -0.206 F 
ATOM     82  C   UNL A   1      49.508  25.931  24.605  1.00  0.00     0.022 A 
BRANCH  79  83
ATOM     83  S   UNL A   1      51.969  26.063  25.885  1.00  0.00     0.124 S 
ATOM     84  O   UNL A   1      52.433  26.445  24.551  1.00  0.00    -0.237 OA
ATOM     85  O   UNL A   1      52.350  26.998  26.943  1.00  0.00    -0.237 OA
ATOM     86  O   UNL A   1      52.083  24.651  26.201  1.00  0.00    -0.744 OA
ENDBRANCH  79  83
ENDBRANCH  52  76
BRANCH  64  87
ATOM     87  C   UNL A   1      44.353  33.144  27.539  1.00  0.00     0.023 A 
ATOM     88  C   UNL A   1      44.543  34.231  28.424  1.00  0.00     0.031 A 
ATOM     89  C   UNL A   1      43.972  33.481  26.233  1.00  0.00     0.131 A 
ATOM     90  C   UNL A   1      44.276  35.548  28.046  1.00  0.00     0.055 A 
ATOM     91  C   UNL A   1      43.654  34.795  25.865  1.00  0.00     0.041 A 
ATOM     92  F   UNL A   1      43.969  32.576  25.245  1.00  0.00    -0.206 F 
ATOM     93  C   UNL A   1      43.792  35.835  26.776  1.00  0.00     0.022 A 
BRANCH  90  94
ATOM     94  S   UNL A   1      44.610  36.919  29.182  1.00  0.00     0.124 S 
ATOM     95  O   UNL A   1      45.696  37.614  28.495  1.00  0.00    -0.237 OA
ATOM     96  O   UNL A   1      43.328  37.618  29.197  1.00  0.00    -0.237 OA
ATOM     97  O   UNL A   1      44.978  36.259  30.430  1.00  0.00    -0.744 OA
ENDBRANCH  90  94
ENDBRANCH  64  87
ENDBRANCH  38  39
ENDBRANCH  31  33
ENDBRANCH  30  31
ENDBRANCH  29  30
ENDBRANCH  28  29
ENDBRANCH  27  28
ENDBRANCH  26  27
ENDBRANCH   1  26
TORSDOF 25
ENDMDL
MODEL 3
REMARK VINA RESULT:     -10.0      5.379     10.584
REMARK SMILES Cc1cc([C@H](O)CC2(CC(=O)OCCOCCOCCOC(=O)c3ccc(-c4c5nc(c(-c6cc(S(=O)(=O)[O-])ccc6F)c6ccc([nH]6)c(-c6cc(S(=O)(=O)[O-])ccc6F)c6nc(c(-c7cc(S(=O)(=O)[O-])ccc7F)c7ccc4[nH]7)C=C6)C=C5)cc3)CCCC2)ccc1F
REMARK SMILES IDX 16 1 15 2 14 3 13 4 12 5 10 6 11 7 9 8 8 9 87 10 90 11 88 12
REMARK SMILES IDX 89 13 7 14 5 15 4 16 1 17 2 18 3 19 93 20 92 21 94 22 91 23
REMARK SMILES IDX 6 24 17 26 18 27 19 28 20 29 21 30 22 31 23 32 24 33 25 34
REMARK SMILES IDX 86 35 26 36 85 37 27 38 28 39 29 40 79 41 30 42 84 43 78 44
REMARK SMILES IDX 80 45 31 46 83 47 77 48 76 49 32 51 64 52 44 53 63 54 45 55
REMARK SMILES IDX 48 56 62 57 81 58 46 59 47 60 61 62 82 63 49 64 33 65 34 66
REMARK SMILES IDX 42 67 35 68 41 69 43 70 40 71 36 72 37 73 38 74 39 75 65 76
REMARK SMILES IDX 66 77 74 78 67 79 73 80 75 81 72 82 68 83 69 84 70 85 71 86
REMARK SMILES IDX 50 87 51 88 59 89 52 90 58 91 60 92 57 93 53 94 54 95 55 96
REMARK SMILES IDX 56 97
REMARK H PARENT 6 25 80 50 48 61
REMARK Flexibility Score: inf
ROOT
ATOM      1  C   UNL A   1      41.164  20.556  27.236  1.00  0.00     0.188 C 
ENDROOT
BRANCH   1   2
ATOM      2  O   UNL A   1      39.877  21.163  27.125  1.00  0.00    -0.376 OA
BRANCH   2   3
ATOM      3  C   UNL A   1      39.346  21.353  25.825  1.00  0.00     0.202 C 
BRANCH   3   4
ATOM      4  C   UNL A   1      38.101  22.247  25.687  1.00  0.00     0.261 C 
BRANCH   4   5
ATOM      5  O   UNL A   1      37.163  21.850  24.659  1.00  0.00    -0.463 OA
BRANCH   5   6
ATOM      6  C   UNL A   1      36.647  22.831  23.886  1.00  0.00     0.306 C 
ATOM      7  O   UNL A   1      36.805  22.881  22.668  1.00  0.00    -0.252 OA
BRANCH   6   8
ATOM      8  C   UNL A   1      35.751  23.850  24.598  1.00  0.00     0.129 C 
BRANCH   8   9
ATOM      9  C   UNL A   1      34.176  23.899  24.607  1.00  0.00    -0.016 C 
ATOM     10  C   UNL A   1      33.749  24.985  23.583  1.00  0.00     0.008 C 
ATOM     11  C   UNL A   1      33.561  24.476  25.892  1.00  0.00     0.008 C 
ATOM     12  C   UNL A   1      33.835  26.312  24.327  1.00  0.00     0.001 C 
ATOM     13  C   UNL A   1      33.769  25.978  25.813  1.00  0.00     0.001 C 
BRANCH   9  14
ATOM     14  C   UNL A   1      33.562  22.543  24.125  1.00  0.00     0.044 C 
BRANCH  14  15
ATOM     15  C   UNL A   1      32.689  21.765  25.143  1.00  0.00     0.145 C 
BRANCH  15  16
ATOM     16  C   UNL A   1      32.600  20.300  24.829  1.00  0.00    -0.019 A 
ATOM     17  C   UNL A   1      32.180  18.106  21.792  1.00  0.00     0.047 C 
ATOM     18  C   UNL A   1      32.493  18.515  23.198  1.00  0.00    -0.015 A 
ATOM     19  C   UNL A   1      32.422  19.864  23.511  1.00  0.00     0.012 A 
ATOM     20  C   UNL A   1      32.808  17.643  24.241  1.00  0.00     0.126 A 
ATOM     21  C   UNL A   1      32.865  18.034  25.571  1.00  0.00     0.040 A 
ATOM     22  F   UNL A   1      33.183  16.391  24.004  1.00  0.00    -0.207 F 
ATOM     23  C   UNL A   1      32.742  19.372  25.871  1.00  0.00     0.009 A 
ENDBRANCH  15  16
BRANCH  15  24
ATOM     24  O   UNL A   1      31.389  22.318  25.253  1.00  0.00    -0.388 OA
ATOM     25  H   UNL A   1      31.231  22.592  26.169  1.00  0.00     0.211 HD
ENDBRANCH  15  24
ENDBRANCH  14  15
ENDBRANCH   9  14
ENDBRANCH   8   9
ENDBRANCH   6   8
ENDBRANCH   5   6
ENDBRANCH   4   5
ENDBRANCH   3   4
ENDBRANCH   2   3
ENDBRANCH   1   2
BRANCH   1  26
ATOM     26  C   UNL A   1      42.244  20.854  26.163  1.00  0.00     0.188 C 
BRANCH  26  27
ATOM     27  O   UNL A   1      43.290  21.656  26.681  1.00  0.00    -0.376 OA
BRANCH  27  28
ATOM     28  C   UNL A   1      43.563  22.872  26.029  1.00  0.00     0.202 C 
BRANCH  28  29
ATOM     29  C   UNL A   1      42.367  23.624  25.428  1.00  0.00     0.261 C 
BRANCH  29  30
ATOM     30  O   UNL A   1      41.315  24.034  26.314  1.00  0.00    -0.460 OA
BRANCH  30  31
ATOM     31  C   UNL A   1      41.102  25.354  26.222  1.00  0.00     0.338 C 
ATOM     32  O   UNL A   1      40.920  25.957  25.151  1.00  0.00    -0.246 OA
BRANCH  31  33
ATOM     33  C   UNL A   1      41.341  26.170  27.409  1.00  0.00     0.060 A 
ATOM     34  C   UNL A   1      41.984  27.389  27.120  1.00  0.00     0.016 A 
ATOM     35  C   UNL A   1      41.762  25.384  28.480  1.00  0.00     0.016 A 
ATOM     36  C   UNL A   1      43.243  27.614  27.647  1.00  0.00     0.010 A 
ATOM     37  C   UNL A   1      43.035  25.600  28.977  1.00  0.00     0.010 A 
ATOM     38  C   UNL A   1      43.818  26.647  28.475  1.00  0.00    -0.014 A 
BRANCH  38  39
ATOM     39  C   UNL A   1      45.174  26.774  28.998  1.00  0.00     0.031 A 
ATOM     40  C   UNL A   1      46.262  26.182  28.178  1.00  0.00     0.074 A 
ATOM     41  C   UNL A   1      45.482  27.360  30.185  1.00  0.00     0.049 A 
ATOM     42  N   UNL A   1      47.420  25.842  28.636  1.00  0.00    -0.248 NA
ATOM     43  C   UNL A   1      46.060  25.798  26.775  1.00  0.00     0.031 C 
ATOM     44  C   UNL A   1      46.737  28.024  30.488  1.00  0.00     0.029 A 
ATOM     45  N   UNL A   1      44.814  27.378  31.415  1.00  0.00    -0.354 N 
ATOM     46  C   UNL A   1      48.196  25.562  27.531  1.00  0.00     0.074 A 
ATOM     47  C   UNL A   1      47.269  25.336  26.450  1.00  0.00     0.031 C 
ATOM     48  C   UNL A   1      46.826  28.198  31.817  1.00  0.00     0.029 A 
ATOM     49  C   UNL A   1      45.745  27.447  32.449  1.00  0.00     0.049 A 
ATOM     50  H   UNL A   1      43.836  27.347  31.532  1.00  0.00     0.167 HD
ATOM     51  C   UNL A   1      49.532  25.818  27.561  1.00  0.00     0.034 A 
ATOM     52  C   UNL A   1      45.869  26.653  33.560  1.00  0.00     0.034 A 
ATOM     53  C   UNL A   1      49.941  26.320  28.868  1.00  0.00     0.049 A 
ATOM     54  C   UNL A   1      47.305  26.207  33.781  1.00  0.00     0.074 A 
ATOM     55  C   UNL A   1      50.067  27.604  29.372  1.00  0.00     0.029 A 
ATOM     56  N   UNL A   1      49.975  25.473  29.960  1.00  0.00    -0.354 N 
ATOM     57  N   UNL A   1      48.230  26.322  32.878  1.00  0.00    -0.248 NA
ATOM     58  C   UNL A   1      47.758  25.435  34.938  1.00  0.00     0.031 C 
ATOM     59  C   UNL A   1      50.251  27.521  30.772  1.00  0.00     0.029 A 
ATOM     60  C   UNL A   1      50.237  26.184  31.121  1.00  0.00     0.049 A 
ATOM     61  H   UNL A   1      49.833  24.499  29.919  1.00  0.00     0.167 HD
ATOM     62  C   UNL A   1      49.326  25.593  33.238  1.00  0.00     0.074 A 
ATOM     63  C   UNL A   1      48.973  25.036  34.528  1.00  0.00     0.031 C 
ATOM     64  C   UNL A   1      50.383  25.472  32.386  1.00  0.00     0.034 A 
BRANCH  51  65
ATOM     65  C   UNL A   1      50.345  26.001  26.294  1.00  0.00     0.023 A 
ATOM     66  C   UNL A   1      49.821  26.497  25.080  1.00  0.00     0.031 A 
ATOM     67  C   UNL A   1      51.735  25.758  26.301  1.00  0.00     0.131 A 
ATOM     68  C   UNL A   1      50.668  26.865  24.016  1.00  0.00     0.055 A 
ATOM     69  C   UNL A   1      52.568  26.066  25.221  1.00  0.00     0.041 A 
ATOM     70  F   UNL A   1      52.363  25.254  27.371  1.00  0.00    -0.206 F 
ATOM     71  C   UNL A   1      52.042  26.654  24.084  1.00  0.00     0.022 A 
BRANCH  68  72
ATOM     72  S   UNL A   1      50.032  27.750  22.563  1.00  0.00     0.124 S 
ATOM     73  O   UNL A   1      50.864  28.953  22.540  1.00  0.00    -0.237 OA
ATOM     74  O   UNL A   1      50.281  26.803  21.481  1.00  0.00    -0.237 OA
ATOM     75  O   UNL A   1      48.627  27.989  22.886  1.00  0.00    -0.744 OA
ENDBRANCH  68  72
ENDBRANCH  51  65
BRANCH  52  76
ATOM     76  C   UNL A   1      44.766  25.828  34.156  1.00  0.00     0.023 A 
ATOM     77  C   UNL A   1      43.833  26.388  35.055  1.00  0.00     0.031 A 
ATOM     78  C   UNL A   1      44.590  24.475  33.827  1.00  0.00     0.131 A 
ATOM     79  C   UNL A   1      42.825  25.600  35.648  1.00  0.00     0.055 A 
ATOM     80  C   UNL A   1      43.565  23.697  34.391  1.00  0.00     0.041 A 
ATOM     81  F   UNL A   1      45.407  23.875  32.945  1.00  0.00    -0.206 F 
ATOM     82  C   UNL A   1      42.687  24.254  35.318  1.00  0.00     0.022 A 
BRANCH  79  83
ATOM     83  S   UNL A   1      41.677  26.335  36.856  1.00  0.00     0.124 S 
ATOM     84  O   UNL A   1      41.360  27.631  36.255  1.00  0.00    -0.237 OA
ATOM     85  O   UNL A   1      40.564  25.385  36.854  1.00  0.00    -0.237 OA
ATOM     86  O   UNL A   1      42.475  26.390  38.067  1.00  0.00    -0.744 OA
ENDBRANCH  79  83
ENDBRANCH  52  76
BRANCH  64  87
ATOM     87  C   UNL A   1      51.623  24.650  32.616  1.00  0.00     0.023 A 
ATOM     88  C   UNL A   1      51.480  23.267  32.870  1.00  0.00     0.031 A 
ATOM     89  C   UNL A   1      52.941  25.119  32.520  1.00  0.00     0.131 A 
ATOM     90  C   UNL A   1      52.580  22.440  33.104  1.00  0.00     0.055 A 
ATOM     91  C   UNL A   1      54.044  24.305  32.805  1.00  0.00     0.041 A 
ATOM     92  F   UNL A   1      53.219  26.352  32.073  1.00  0.00    -0.206 F 
ATOM     93  C   UNL A   1      53.867  22.961  33.113  1.00  0.00     0.022 A 
BRANCH  90  94
ATOM     94  S   UNL A   1      52.359  20.658  33.345  1.00  0.00     0.124 S 
ATOM     95  O   UNL A   1      52.679  20.509  34.762  1.00  0.00    -0.237 OA
ATOM     96  O   UNL A   1      50.951  20.479  32.998  1.00  0.00    -0.237 OA
ATOM     97  O   UNL A   1      53.312  20.057  32.419  1.00  0.00    -0.744 OA
ENDBRANCH  90  94
ENDBRANCH  64  87
ENDBRANCH  38  39
ENDBRANCH  31  33
ENDBRANCH  30  31
ENDBRANCH  29  30
ENDBRANCH  28  29
ENDBRANCH  27  28
ENDBRANCH  26  27
ENDBRANCH   1  26
TORSDOF 25
ENDMDL
