MODEL 1
REMARK VINA RESULT:     -11.5      0.000      0.000
REMARK SMILES Cc1c(CC(=O)OCCOCCOCCOC(=O)c2ccc(-c3c4nc(c(-c5cc(S(=O)(=O)[O-])ccc5F)c5ccc([nH]5)c(-c5cc(S(=O)(=O)[O-])ccc5F)c5nc(c(-c6cc(S(=O)(=O)[O-])ccc6F)c6ccc3[nH]6)C=C5)C=C4)cc2)c2ccccc2n1C(=O)c1ccc(Cl)cc1
REMARK SMILES IDX 11 1 10 2 9 3 8 4 7 5 5 6 6 7 4 8 3 9 1 10 2 11 88 12 82 13
REMARK SMILES IDX 87 14 83 15 86 16 84 17 85 18 89 19 90 20 91 21 92 22 97 23
REMARK SMILES IDX 93 24 96 25 94 26 95 27 12 28 13 29 14 30 15 31 16 32 17 33
REMARK SMILES IDX 18 34 19 35 20 36 81 37 21 38 80 39 22 40 23 41 24 42 74 43
REMARK SMILES IDX 25 44 79 45 73 46 75 47 26 48 78 49 72 50 71 51 27 53 59 54
REMARK SMILES IDX 39 55 58 56 40 57 43 58 57 59 76 60 41 61 42 62 56 64 77 65
REMARK SMILES IDX 44 66 28 67 29 68 37 69 30 70 36 71 38 72 35 73 31 74 32 75
REMARK SMILES IDX 33 76 34 77 60 78 61 79 69 80 62 81 68 82 70 83 67 84 63 85
REMARK SMILES IDX 64 86 65 87 66 88 45 89 46 90 54 91 47 92 53 93 55 94 52 95
REMARK SMILES IDX 48 96 49 97 50 98 51 99
REMARK H PARENT 75 52 43 63
REMARK Flexibility Score: inf
ROOT
ATOM      1  C   UNL A   1      34.972  22.735  24.583  1.00  0.00     0.188 C 
ENDROOT
BRANCH   1   2
ATOM      2  O   UNL A   1      33.728  22.614  23.925  1.00  0.00    -0.376 OA
BRANCH   2   3
ATOM      3  C   UNL A   1      32.954  21.458  24.213  1.00  0.00     0.202 C 
BRANCH   3   4
ATOM      4  C   UNL A   1      32.123  21.497  25.505  1.00  0.00     0.261 C 
BRANCH   4   5
ATOM      5  O   UNL A   1      31.033  22.448  25.401  1.00  0.00    -0.463 OA
BRANCH   5   6
ATOM      6  C   UNL A   1      30.866  23.273  26.471  1.00  0.00     0.310 C 
ATOM      7  O   UNL A   1      31.490  23.115  27.517  1.00  0.00    -0.252 OA
BRANCH   6   8
ATOM      8  C   UNL A   1      30.083  24.551  26.174  1.00  0.00     0.160 C 
BRANCH   8   9
ATOM      9  C   UNL A   1      30.568  25.650  25.278  1.00  0.00    -0.008 A 
ATOM     10  C   UNL A   1      28.266  26.293  24.265  1.00  0.00     0.065 C 
ATOM     11  C   UNL A   1      29.741  26.419  24.467  1.00  0.00     0.028 A 
ATOM     12  N   UNL A   1      30.509  27.428  23.898  1.00  0.00    -0.280 N 
ATOM     13  C   UNL A   1      31.798  26.389  25.393  1.00  0.00     0.004 A 
ATOM     14  C   UNL A   1      31.647  27.580  24.691  1.00  0.00     0.056 A 
ATOM     15  C   UNL A   1      32.989  26.254  26.134  1.00  0.00     0.010 A 
ATOM     16  C   UNL A   1      32.578  28.638  24.846  1.00  0.00     0.027 A 
ATOM     17  C   UNL A   1      33.968  27.250  26.202  1.00  0.00     0.001 A 
ATOM     18  C   UNL A   1      33.743  28.457  25.585  1.00  0.00     0.002 A 
BRANCH  12  19
ATOM     19  C   UNL A   1      30.240  28.129  22.691  1.00  0.00     0.262 C 
ATOM     20  O   UNL A   1      30.737  27.775  21.646  1.00  0.00    -0.268 OA
BRANCH  19  21
ATOM     21  C   UNL A   1      29.478  29.396  22.717  1.00  0.00     0.040 A 
ATOM     22  C   UNL A   1      29.040  29.923  21.496  1.00  0.00     0.015 A 
ATOM     23  C   UNL A   1      29.445  30.150  23.892  1.00  0.00     0.015 A 
ATOM     24  C   UNL A   1      28.626  31.252  21.436  1.00  0.00     0.021 A 
ATOM     25  C   UNL A   1      29.039  31.485  23.822  1.00  0.00     0.021 A 
ATOM     26  C   UNL A   1      28.648  32.032  22.594  1.00  0.00     0.041 A 
ATOM     27  Cl  UNL A   1      28.256  33.705  22.493  1.00  0.00    -0.084 Cl
ENDBRANCH  19  21
ENDBRANCH  12  19
ENDBRANCH   8   9
ENDBRANCH   6   8
ENDBRANCH   5   6
ENDBRANCH   4   5
ENDBRANCH   3   4
ENDBRANCH   2   3
ENDBRANCH   1   2
BRANCH   1  28
ATOM     28  C   UNL A   1      35.941  21.550  24.533  1.00  0.00     0.188 C 
BRANCH  28  29
ATOM     29  O   UNL A   1      37.280  21.694  24.952  1.00  0.00    -0.376 OA
BRANCH  29  30
ATOM     30  C   UNL A   1      38.016  20.492  25.092  1.00  0.00     0.202 C 
BRANCH  30  31
ATOM     31  C   UNL A   1      39.378  20.585  25.818  1.00  0.00     0.261 C 
BRANCH  31  32
ATOM     32  O   UNL A   1      39.602  21.880  26.442  1.00  0.00    -0.460 OA
BRANCH  32  33
ATOM     33  C   UNL A   1      40.911  22.266  26.542  1.00  0.00     0.338 C 
ATOM     34  O   UNL A   1      41.847  21.699  25.999  1.00  0.00    -0.246 OA
BRANCH  33  35
ATOM     35  C   UNL A   1      40.997  23.677  27.051  1.00  0.00     0.060 A 
ATOM     36  C   UNL A   1      42.061  24.211  27.776  1.00  0.00     0.016 A 
ATOM     37  C   UNL A   1      39.829  24.438  26.932  1.00  0.00     0.016 A 
ATOM     38  C   UNL A   1      41.897  25.434  28.467  1.00  0.00     0.010 A 
ATOM     39  C   UNL A   1      39.631  25.599  27.690  1.00  0.00     0.010 A 
ATOM     40  C   UNL A   1      40.658  26.103  28.488  1.00  0.00    -0.014 A 
BRANCH  40  41
ATOM     41  C   UNL A   1      40.531  27.491  28.983  1.00  0.00     0.031 A 
ATOM     42  C   UNL A   1      41.461  28.393  28.297  1.00  0.00     0.074 A 
ATOM     43  C   UNL A   1      39.691  28.095  29.852  1.00  0.00     0.049 A 
ATOM     44  N   UNL A   1      42.628  28.692  28.754  1.00  0.00    -0.248 NA
ATOM     45  C   UNL A   1      41.175  28.878  26.949  1.00  0.00     0.031 C 
ATOM     46  C   UNL A   1      38.628  27.500  30.627  1.00  0.00     0.029 A 
ATOM     47  N   UNL A   1      39.586  29.419  30.206  1.00  0.00    -0.354 N 
ATOM     48  C   UNL A   1      43.135  29.617  27.868  1.00  0.00     0.074 A 
ATOM     49  C   UNL A   1      42.324  29.503  26.676  1.00  0.00     0.031 C 
ATOM     50  C   UNL A   1      37.801  28.446  31.129  1.00  0.00     0.029 A 
ATOM     51  C   UNL A   1      38.430  29.738  30.915  1.00  0.00     0.049 A 
ATOM     52  H   UNL A   1      40.271  30.087  29.976  1.00  0.00     0.167 HD
ATOM     53  C   UNL A   1      44.005  30.573  28.297  1.00  0.00     0.034 A 
ATOM     54  C   UNL A   1      38.081  30.895  31.538  1.00  0.00     0.034 A 
ATOM     55  C   UNL A   1      44.441  30.324  29.654  1.00  0.00     0.049 A 
ATOM     56  C   UNL A   1      39.329  31.605  31.883  1.00  0.00     0.074 A 
ATOM     57  C   UNL A   1      45.025  29.251  30.303  1.00  0.00     0.029 A 
ATOM     58  N   UNL A   1      43.916  31.114  30.653  1.00  0.00    -0.354 N 
ATOM     59  N   UNL A   1      40.140  31.220  32.829  1.00  0.00    -0.248 NA
ATOM     60  C   UNL A   1      39.901  32.505  30.897  1.00  0.00     0.031 C 
ATOM     61  C   UNL A   1      44.418  29.211  31.591  1.00  0.00     0.029 A 
ATOM     62  C   UNL A   1      43.552  30.300  31.698  1.00  0.00     0.049 A 
ATOM     63  H   UNL A   1      43.818  32.093  30.623  1.00  0.00     0.167 HD
ATOM     64  C   UNL A   1      41.397  31.386  32.274  1.00  0.00     0.074 A 
ATOM     65  C   UNL A   1      41.195  32.301  31.153  1.00  0.00     0.031 C 
ATOM     66  C   UNL A   1      42.431  30.550  32.589  1.00  0.00     0.034 A 
BRANCH  53  67
ATOM     67  C   UNL A   1      44.197  31.889  27.599  1.00  0.00     0.023 A 
ATOM     68  C   UNL A   1      43.602  33.083  28.046  1.00  0.00     0.031 A 
ATOM     69  C   UNL A   1      45.114  32.015  26.543  1.00  0.00     0.131 A 
ATOM     70  C   UNL A   1      43.845  34.307  27.419  1.00  0.00     0.055 A 
ATOM     71  C   UNL A   1      45.428  33.253  25.970  1.00  0.00     0.041 A 
ATOM     72  F   UNL A   1      45.767  30.944  26.065  1.00  0.00    -0.206 F 
ATOM     73  C   UNL A   1      44.780  34.407  26.397  1.00  0.00     0.022 A 
BRANCH  70  74
ATOM     74  S   UNL A   1      42.913  35.780  27.917  1.00  0.00     0.124 S 
ATOM     75  O   UNL A   1      42.043  35.245  28.958  1.00  0.00    -0.237 OA
ATOM     76  O   UNL A   1      43.981  36.666  28.374  1.00  0.00    -0.237 OA
ATOM     77  O   UNL A   1      42.252  36.198  26.684  1.00  0.00    -0.744 OA
ENDBRANCH  70  74
ENDBRANCH  53  67
BRANCH  54  78
ATOM     78  C   UNL A   1      36.772  31.593  31.442  1.00  0.00     0.023 A 
ATOM     79  C   UNL A   1      36.147  31.760  30.194  1.00  0.00     0.031 A 
ATOM     80  C   UNL A   1      36.267  32.350  32.518  1.00  0.00     0.131 A 
ATOM     81  C   UNL A   1      35.127  32.712  30.029  1.00  0.00     0.055 A 
ATOM     82  C   UNL A   1      35.232  33.281  32.357  1.00  0.00     0.041 A 
ATOM     83  F   UNL A   1      36.818  32.255  33.739  1.00  0.00    -0.206 F 
ATOM     84  C   UNL A   1      34.669  33.479  31.101  1.00  0.00     0.022 A 
BRANCH  81  85
ATOM     85  S   UNL A   1      34.432  33.019  28.380  1.00  0.00     0.124 S 
ATOM     86  O   UNL A   1      33.843  31.728  28.034  1.00  0.00    -0.237 OA
ATOM     87  O   UNL A   1      33.480  34.089  28.654  1.00  0.00    -0.237 OA
ATOM     88  O   UNL A   1      35.600  33.394  27.587  1.00  0.00    -0.744 OA
ENDBRANCH  81  85
ENDBRANCH  54  78
BRANCH  66  89
ATOM     89  C   UNL A   1      42.312  29.631  33.794  1.00  0.00     0.023 A 
ATOM     90  C   UNL A   1      43.041  29.991  34.944  1.00  0.00     0.031 A 
ATOM     91  C   UNL A   1      41.707  28.358  33.792  1.00  0.00     0.131 A 
ATOM     92  C   UNL A   1      43.195  29.091  36.008  1.00  0.00     0.055 A 
ATOM     93  C   UNL A   1      41.804  27.488  34.888  1.00  0.00     0.041 A 
ATOM     94  F   UNL A   1      41.080  27.876  32.713  1.00  0.00    -0.206 F 
ATOM     95  C   UNL A   1      42.567  27.845  35.995  1.00  0.00     0.022 A 
BRANCH  92  96
ATOM     96  S   UNL A   1      44.346  29.459  37.359  1.00  0.00     0.124 S 
ATOM     97  O   UNL A   1      45.534  29.908  36.640  1.00  0.00    -0.237 OA
ATOM     98  O   UNL A   1      43.633  30.498  38.100  1.00  0.00    -0.237 OA
ATOM     99  O   UNL A   1      44.484  28.187  38.063  1.00  0.00    -0.744 OA
ENDBRANCH  92  96
ENDBRANCH  66  89
ENDBRANCH  40  41
ENDBRANCH  33  35
ENDBRANCH  32  33
ENDBRANCH  31  32
ENDBRANCH  30  31
ENDBRANCH  29  30
ENDBRANCH  28  29
ENDBRANCH   1  28
TORSDOF 23
ENDMDL
MODEL 2
REMARK VINA RESULT:     -11.0      1.666      2.121
REMARK SMILES Cc1c(CC(=O)OCCOCCOCCOC(=O)c2ccc(-c3c4nc(c(-c5cc(S(=O)(=O)[O-])ccc5F)c5ccc([nH]5)c(-c5cc(S(=O)(=O)[O-])ccc5F)c5nc(c(-c6cc(S(=O)(=O)[O-])ccc6F)c6ccc3[nH]6)C=C5)C=C4)cc2)c2ccccc2n1C(=O)c1ccc(Cl)cc1
REMARK SMILES IDX 11 1 10 2 9 3 8 4 7 5 5 6 6 7 4 8 3 9 1 10 2 11 88 12 82 13
REMARK SMILES IDX 87 14 83 15 86 16 84 17 85 18 89 19 90 20 91 21 92 22 97 23
REMARK SMILES IDX 93 24 96 25 94 26 95 27 12 28 13 29 14 30 15 31 16 32 17 33
REMARK SMILES IDX 18 34 19 35 20 36 81 37 21 38 80 39 22 40 23 41 24 42 74 43
REMARK SMILES IDX 25 44 79 45 73 46 75 47 26 48 78 49 72 50 71 51 27 53 59 54
REMARK SMILES IDX 39 55 58 56 40 57 43 58 57 59 76 60 41 61 42 62 56 64 77 65
REMARK SMILES IDX 44 66 28 67 29 68 37 69 30 70 36 71 38 72 35 73 31 74 32 75
REMARK SMILES IDX 33 76 34 77 60 78 61 79 69 80 62 81 68 82 70 83 67 84 63 85
REMARK SMILES IDX 64 86 65 87 66 88 45 89 46 90 54 91 47 92 53 93 55 94 52 95
REMARK SMILES IDX 48 96 49 97 50 98 51 99
REMARK H PARENT 75 52 43 63
REMARK Flexibility Score: inf
ROOT
ATOM      1  C   UNL A   1      36.041  21.862  25.747  1.00  0.00     0.188 C 
ENDROOT
BRANCH   1   2
ATOM      2  O   UNL A   1      34.710  21.481  26.023  1.00  0.00    -0.376 OA
BRANCH   2   3
ATOM      3  C   UNL A   1      33.825  21.372  24.917  1.00  0.00     0.202 C 
BRANCH   3   4
ATOM      4  C   UNL A   1      33.048  22.641  24.535  1.00  0.00     0.261 C 
BRANCH   4   5
ATOM      5  O   UNL A   1      33.886  23.820  24.630  1.00  0.00    -0.463 OA
BRANCH   5   6
ATOM      6  C   UNL A   1      34.394  24.280  23.453  1.00  0.00     0.310 C 
ATOM      7  O   UNL A   1      34.811  23.518  22.584  1.00  0.00    -0.252 OA
BRANCH   6   8
ATOM      8  C   UNL A   1      34.139  25.761  23.185  1.00  0.00     0.160 C 
BRANCH   8   9
ATOM      9  C   UNL A   1      32.943  26.516  23.681  1.00  0.00    -0.008 A 
ATOM     10  C   UNL A   1      31.140  25.182  22.377  1.00  0.00     0.065 C 
ATOM     11  C   UNL A   1      31.631  26.222  23.329  1.00  0.00     0.028 A 
ATOM     12  N   UNL A   1      30.788  27.025  24.088  1.00  0.00    -0.280 N 
ATOM     13  C   UNL A   1      32.856  27.326  24.869  1.00  0.00     0.004 A 
ATOM     14  C   UNL A   1      31.512  27.448  25.204  1.00  0.00     0.056 A 
ATOM     15  C   UNL A   1      33.775  27.862  25.793  1.00  0.00     0.010 A 
ATOM     16  C   UNL A   1      31.121  27.949  26.471  1.00  0.00     0.027 A 
ATOM     17  C   UNL A   1      33.393  28.462  26.997  1.00  0.00     0.001 A 
ATOM     18  C   UNL A   1      32.065  28.472  27.350  1.00  0.00     0.002 A 
BRANCH  12  19
ATOM     19  C   UNL A   1      29.461  27.418  23.764  1.00  0.00     0.262 C 
ATOM     20  O   UNL A   1      28.547  26.630  23.842  1.00  0.00    -0.268 OA
BRANCH  19  21
ATOM     21  C   UNL A   1      29.198  28.749  23.174  1.00  0.00     0.040 A 
ATOM     22  C   UNL A   1      27.919  29.295  23.331  1.00  0.00     0.015 A 
ATOM     23  C   UNL A   1      30.120  29.292  22.275  1.00  0.00     0.015 A 
ATOM     24  C   UNL A   1      27.530  30.363  22.525  1.00  0.00     0.021 A 
ATOM     25  C   UNL A   1      29.718  30.355  21.463  1.00  0.00     0.021 A 
ATOM     26  C   UNL A   1      28.423  30.872  21.580  1.00  0.00     0.041 A 
ATOM     27  Cl  UNL A   1      27.897  32.106  20.502  1.00  0.00    -0.084 Cl
ENDBRANCH  19  21
ENDBRANCH  12  19
ENDBRANCH   8   9
ENDBRANCH   6   8
ENDBRANCH   5   6
ENDBRANCH   4   5
ENDBRANCH   3   4
ENDBRANCH   2   3
ENDBRANCH   1   2
BRANCH   1  28
ATOM     28  C   UNL A   1      36.831  21.052  24.715  1.00  0.00     0.188 C 
BRANCH  28  29
ATOM     29  O   UNL A   1      38.106  20.536  25.025  1.00  0.00    -0.376 OA
BRANCH  29  30
ATOM     30  C   UNL A   1      38.974  21.411  25.725  1.00  0.00     0.202 C 
BRANCH  30  31
ATOM     31  C   UNL A   1      40.230  20.783  26.372  1.00  0.00     0.261 C 
BRANCH  31  32
ATOM     32  O   UNL A   1      41.000  21.735  27.158  1.00  0.00    -0.460 OA
BRANCH  32  33
ATOM     33  C   UNL A   1      41.904  22.483  26.454  1.00  0.00     0.338 C 
ATOM     34  O   UNL A   1      42.356  22.180  25.361  1.00  0.00    -0.246 OA
BRANCH  33  35
ATOM     35  C   UNL A   1      41.947  23.885  26.995  1.00  0.00     0.060 A 
ATOM     36  C   UNL A   1      42.720  24.310  28.074  1.00  0.00     0.016 A 
ATOM     37  C   UNL A   1      40.994  24.767  26.475  1.00  0.00     0.016 A 
ATOM     38  C   UNL A   1      42.446  25.555  28.688  1.00  0.00     0.010 A 
ATOM     39  C   UNL A   1      40.657  25.954  27.136  1.00  0.00     0.010 A 
ATOM     40  C   UNL A   1      41.365  26.355  28.269  1.00  0.00    -0.014 A 
BRANCH  40  41
ATOM     41  C   UNL A   1      41.215  27.756  28.718  1.00  0.00     0.031 A 
ATOM     42  C   UNL A   1      42.229  28.626  28.114  1.00  0.00     0.074 A 
ATOM     43  C   UNL A   1      40.301  28.394  29.482  1.00  0.00     0.049 A 
ATOM     44  N   UNL A   1      43.348  28.915  28.684  1.00  0.00    -0.248 NA
ATOM     45  C   UNL A   1      42.095  29.084  26.734  1.00  0.00     0.031 C 
ATOM     46  C   UNL A   1      39.151  27.836  30.153  1.00  0.00     0.029 A 
ATOM     47  N   UNL A   1      40.186  29.728  29.794  1.00  0.00    -0.354 N 
ATOM     48  C   UNL A   1      43.962  29.811  27.837  1.00  0.00     0.074 A 
ATOM     49  C   UNL A   1      43.278  29.682  26.569  1.00  0.00     0.031 C 
ATOM     50  C   UNL A   1      38.295  28.808  30.546  1.00  0.00     0.029 A 
ATOM     51  C   UNL A   1      38.969  30.084  30.371  1.00  0.00     0.049 A 
ATOM     52  H   UNL A   1      40.904  30.379  29.623  1.00  0.00     0.167 HD
ATOM     53  C   UNL A   1      44.802  30.760  28.334  1.00  0.00     0.034 A 
ATOM     54  C   UNL A   1      38.579  31.261  30.929  1.00  0.00     0.034 A 
ATOM     55  C   UNL A   1      45.089  30.536  29.735  1.00  0.00     0.049 A 
ATOM     56  C   UNL A   1      39.798  31.957  31.388  1.00  0.00     0.074 A 
ATOM     57  C   UNL A   1      45.580  29.468  30.464  1.00  0.00     0.029 A 
ATOM     58  N   UNL A   1      44.478  31.358  30.656  1.00  0.00    -0.354 N 
ATOM     59  N   UNL A   1      40.499  31.580  32.422  1.00  0.00    -0.248 NA
ATOM     60  C   UNL A   1      40.487  32.824  30.449  1.00  0.00     0.031 C 
ATOM     61  C   UNL A   1      44.842  29.468  31.682  1.00  0.00     0.029 A 
ATOM     62  C   UNL A   1      43.991  30.574  31.674  1.00  0.00     0.049 A 
ATOM     63  H   UNL A   1      44.403  32.337  30.595  1.00  0.00     0.167 HD
ATOM     64  C   UNL A   1      41.810  31.711  31.999  1.00  0.00     0.074 A 
ATOM     65  C   UNL A   1      41.744  32.603  30.843  1.00  0.00     0.031 C 
ATOM     66  C   UNL A   1      42.788  30.864  32.437  1.00  0.00     0.034 A 
BRANCH  53  67
ATOM     67  C   UNL A   1      45.091  32.056  27.632  1.00  0.00     0.023 A 
ATOM     68  C   UNL A   1      44.340  33.226  27.851  1.00  0.00     0.031 A 
ATOM     69  C   UNL A   1      46.235  32.199  26.830  1.00  0.00     0.131 A 
ATOM     70  C   UNL A   1      44.667  34.437  27.236  1.00  0.00     0.055 A 
ATOM     71  C   UNL A   1      46.615  33.431  26.284  1.00  0.00     0.041 A 
ATOM     72  F   UNL A   1      47.043  31.154  26.589  1.00  0.00    -0.206 F 
ATOM     73  C   UNL A   1      45.820  34.556  26.472  1.00  0.00     0.022 A 
BRANCH  70  74
ATOM     74  S   UNL A   1      43.562  35.865  27.405  1.00  0.00     0.124 S 
ATOM     75  O   UNL A   1      42.850  35.547  28.637  1.00  0.00    -0.237 OA
ATOM     76  O   UNL A   1      44.516  36.968  27.488  1.00  0.00    -0.237 OA
ATOM     77  O   UNL A   1      42.767  35.828  26.180  1.00  0.00    -0.744 OA
ENDBRANCH  70  74
ENDBRANCH  53  67
BRANCH  54  78
ATOM     78  C   UNL A   1      37.301  31.979  30.682  1.00  0.00     0.023 A 
ATOM     79  C   UNL A   1      36.762  32.827  31.665  1.00  0.00     0.031 A 
ATOM     80  C   UNL A   1      36.458  31.621  29.612  1.00  0.00     0.131 A 
ATOM     81  C   UNL A   1      35.413  33.213  31.612  1.00  0.00     0.055 A 
ATOM     82  C   UNL A   1      35.119  32.029  29.546  1.00  0.00     0.041 A 
ATOM     83  F   UNL A   1      36.896  30.805  28.639  1.00  0.00    -0.206 F 
ATOM     84  C   UNL A   1      34.584  32.814  30.561  1.00  0.00     0.022 A 
BRANCH  81  85
ATOM     85  S   UNL A   1      34.694  34.185  32.965  1.00  0.00     0.124 S 
ATOM     86  O   UNL A   1      35.651  35.278  33.119  1.00  0.00    -0.237 OA
ATOM     87  O   UNL A   1      33.399  34.559  32.408  1.00  0.00    -0.237 OA
ATOM     88  O   UNL A   1      34.658  33.239  34.078  1.00  0.00    -0.744 OA
ENDBRANCH  81  85
ENDBRANCH  54  78
BRANCH  66  89
ATOM     89  C   UNL A   1      42.526  29.976  33.642  1.00  0.00     0.023 A 
ATOM     90  C   UNL A   1      43.188  30.314  34.839  1.00  0.00     0.031 A 
ATOM     91  C   UNL A   1      41.849  28.740  33.613  1.00  0.00     0.131 A 
ATOM     92  C   UNL A   1      43.210  29.425  35.923  1.00  0.00     0.055 A 
ATOM     93  C   UNL A   1      41.813  27.886  34.725  1.00  0.00     0.041 A 
ATOM     94  F   UNL A   1      41.276  28.276  32.497  1.00  0.00    -0.206 F 
ATOM     95  C   UNL A   1      42.512  28.218  35.880  1.00  0.00     0.022 A 
BRANCH  92  96
ATOM     96  S   UNL A   1      44.278  29.750  37.352  1.00  0.00     0.124 S 
ATOM     97  O   UNL A   1      44.361  28.437  37.982  1.00  0.00    -0.237 OA
ATOM     98  O   UNL A   1      45.508  30.220  36.719  1.00  0.00    -0.237 OA
ATOM     99  O   UNL A   1      43.553  30.764  38.112  1.00  0.00    -0.744 OA
ENDBRANCH  92  96
ENDBRANCH  66  89
ENDBRANCH  40  41
ENDBRANCH  33  35
ENDBRANCH  32  33
ENDBRANCH  31  32
ENDBRANCH  30  31
ENDBRANCH  29  30
ENDBRANCH  28  29
ENDBRANCH   1  28
TORSDOF 23
ENDMDL
MODEL 3
REMARK VINA RESULT:     -11.0      3.774      9.446
REMARK SMILES Cc1c(CC(=O)OCCOCCOCCOC(=O)c2ccc(-c3c4nc(c(-c5cc(S(=O)(=O)[O-])ccc5F)c5ccc([nH]5)c(-c5cc(S(=O)(=O)[O-])ccc5F)c5nc(c(-c6cc(S(=O)(=O)[O-])ccc6F)c6ccc3[nH]6)C=C5)C=C4)cc2)c2ccccc2n1C(=O)c1ccc(Cl)cc1
REMARK SMILES IDX 11 1 10 2 9 3 8 4 7 5 5 6 6 7 4 8 3 9 1 10 2 11 88 12 82 13
REMARK SMILES IDX 87 14 83 15 86 16 84 17 85 18 89 19 90 20 91 21 92 22 97 23
REMARK SMILES IDX 93 24 96 25 94 26 95 27 12 28 13 29 14 30 15 31 16 32 17 33
REMARK SMILES IDX 18 34 19 35 20 36 81 37 21 38 80 39 22 40 23 41 24 42 74 43
REMARK SMILES IDX 25 44 79 45 73 46 75 47 26 48 78 49 72 50 71 51 27 53 59 54
REMARK SMILES IDX 39 55 58 56 40 57 43 58 57 59 76 60 41 61 42 62 56 64 77 65
REMARK SMILES IDX 44 66 28 67 29 68 37 69 30 70 36 71 38 72 35 73 31 74 32 75
REMARK SMILES IDX 33 76 34 77 60 78 61 79 69 80 62 81 68 82 70 83 67 84 63 85
REMARK SMILES IDX 64 86 65 87 66 88 45 89 46 90 54 91 47 92 53 93 55 94 52 95
REMARK SMILES IDX 48 96 49 97 50 98 51 99
REMARK H PARENT 75 52 43 63
REMARK Flexibility Score: inf
ROOT
ATOM      1  C   UNL A   1      34.516  31.119  27.989  1.00  0.00     0.188 C 
ENDROOT
BRANCH   1   2
ATOM      2  O   UNL A   1      33.773  29.985  27.592  1.00  0.00    -0.376 OA
BRANCH   2   3
ATOM      3  C   UNL A   1      32.707  30.198  26.677  1.00  0.00     0.202 C 
BRANCH   3   4
ATOM      4  C   UNL A   1      31.755  29.014  26.448  1.00  0.00     0.261 C 
BRANCH   4   5
ATOM      5  O   UNL A   1      32.490  27.774  26.280  1.00  0.00    -0.463 OA
BRANCH   5   6
ATOM      6  C   UNL A   1      31.969  26.897  25.378  1.00  0.00     0.310 C 
ATOM      7  O   UNL A   1      31.821  27.193  24.195  1.00  0.00    -0.252 OA
BRANCH   6   8
ATOM      8  C   UNL A   1      31.859  25.459  25.879  1.00  0.00     0.160 C 
BRANCH   8   9
ATOM      9  C   UNL A   1      32.474  24.276  25.194  1.00  0.00    -0.008 A 
ATOM     10  C   UNL A   1      30.535  23.805  23.535  1.00  0.00     0.065 C 
ATOM     11  C   UNL A   1      31.879  23.583  24.146  1.00  0.00     0.028 A 
ATOM     12  N   UNL A   1      32.793  22.652  23.668  1.00  0.00    -0.280 N 
ATOM     13  C   UNL A   1      33.870  23.920  25.154  1.00  0.00     0.004 A 
ATOM     14  C   UNL A   1      34.062  23.072  24.070  1.00  0.00     0.056 A 
ATOM     15  C   UNL A   1      35.033  24.331  25.833  1.00  0.00     0.010 A 
ATOM     16  C   UNL A   1      35.367  22.773  23.603  1.00  0.00     0.027 A 
ATOM     17  C   UNL A   1      36.323  23.950  25.448  1.00  0.00     0.001 A 
ATOM     18  C   UNL A   1      36.488  23.199  24.310  1.00  0.00     0.002 A 
BRANCH  12  19
ATOM     19  C   UNL A   1      32.502  21.450  22.968  1.00  0.00     0.262 C 
ATOM     20  O   UNL A   1      31.942  21.478  21.896  1.00  0.00    -0.268 OA
BRANCH  19  21
ATOM     21  C   UNL A   1      32.733  20.136  23.609  1.00  0.00     0.040 A 
ATOM     22  C   UNL A   1      32.445  18.984  22.867  1.00  0.00     0.015 A 
ATOM     23  C   UNL A   1      32.971  20.080  24.985  1.00  0.00     0.015 A 
ATOM     24  C   UNL A   1      32.326  17.762  23.526  1.00  0.00     0.021 A 
ATOM     25  C   UNL A   1      32.839  18.853  25.638  1.00  0.00     0.021 A 
ATOM     26  C   UNL A   1      32.500  17.707  24.910  1.00  0.00     0.041 A 
ATOM     27  Cl  UNL A   1      32.228  16.221  25.736  1.00  0.00    -0.084 Cl
ENDBRANCH  19  21
ENDBRANCH  12  19
ENDBRANCH   8   9
ENDBRANCH   6   8
ENDBRANCH   5   6
ENDBRANCH   4   5
ENDBRANCH   3   4
ENDBRANCH   2   3
ENDBRANCH   1   2
BRANCH   1  28
ATOM     28  C   UNL A   1      33.914  32.506  27.746  1.00  0.00     0.188 C 
BRANCH  28  29
ATOM     29  O   UNL A   1      34.744  33.627  27.538  1.00  0.00    -0.376 OA
BRANCH  29  30
ATOM     30  C   UNL A   1      34.384  34.802  28.243  1.00  0.00     0.202 C 
BRANCH  30  31
ATOM     31  C   UNL A   1      34.141  34.661  29.763  1.00  0.00     0.261 C 
BRANCH  31  32
ATOM     32  O   UNL A   1      35.321  34.218  30.489  1.00  0.00    -0.460 OA
BRANCH  32  33
ATOM     33  C   UNL A   1      35.216  32.994  31.091  1.00  0.00     0.338 C 
ATOM     34  O   UNL A   1      34.167  32.489  31.461  1.00  0.00    -0.246 OA
BRANCH  33  35
ATOM     35  C   UNL A   1      36.470  32.197  30.865  1.00  0.00     0.060 A 
ATOM     36  C   UNL A   1      37.380  32.400  29.828  1.00  0.00     0.016 A 
ATOM     37  C   UNL A   1      36.619  31.057  31.661  1.00  0.00     0.016 A 
ATOM     38  C   UNL A   1      38.340  31.405  29.530  1.00  0.00     0.010 A 
ATOM     39  C   UNL A   1      37.503  30.030  31.312  1.00  0.00     0.010 A 
ATOM     40  C   UNL A   1      38.363  30.180  30.224  1.00  0.00    -0.014 A 
BRANCH  40  41
ATOM     41  C   UNL A   1      39.500  29.242  30.108  1.00  0.00     0.031 A 
ATOM     42  C   UNL A   1      39.896  28.710  31.416  1.00  0.00     0.074 A 
ATOM     43  C   UNL A   1      40.172  28.721  29.057  1.00  0.00     0.049 A 
ATOM     44  N   UNL A   1      40.829  29.226  32.139  1.00  0.00    -0.248 NA
ATOM     45  C   UNL A   1      39.123  27.649  32.056  1.00  0.00     0.031 C 
ATOM     46  C   UNL A   1      39.974  28.985  27.651  1.00  0.00     0.029 A 
ATOM     47  N   UNL A   1      41.178  27.785  29.025  1.00  0.00    -0.354 N 
ATOM     48  C   UNL A   1      40.940  28.391  33.230  1.00  0.00     0.074 A 
ATOM     49  C   UNL A   1      39.726  27.606  33.247  1.00  0.00     0.031 C 
ATOM     50  C   UNL A   1      40.595  28.056  26.887  1.00  0.00     0.029 A 
ATOM     51  C   UNL A   1      41.448  27.268  27.760  1.00  0.00     0.049 A 
ATOM     52  H   UNL A   1      41.667  27.503  29.832  1.00  0.00     0.167 HD
ATOM     53  C   UNL A   1      42.138  28.243  33.860  1.00  0.00     0.034 A 
ATOM     54  C   UNL A   1      42.456  26.454  27.349  1.00  0.00     0.034 A 
ATOM     55  C   UNL A   1      43.114  29.197  33.379  1.00  0.00     0.049 A 
ATOM     56  C   UNL A   1      43.587  26.644  28.280  1.00  0.00     0.074 A 
ATOM     57  C   UNL A   1      43.147  30.575  33.263  1.00  0.00     0.029 A 
ATOM     58  N   UNL A   1      44.105  28.735  32.540  1.00  0.00    -0.354 N 
ATOM     59  N   UNL A   1      44.326  27.717  28.307  1.00  0.00    -0.248 NA
ATOM     60  C   UNL A   1      43.635  25.820  29.475  1.00  0.00     0.031 C 
ATOM     61  C   UNL A   1      43.815  30.837  32.033  1.00  0.00     0.029 A 
ATOM     62  C   UNL A   1      44.226  29.617  31.493  1.00  0.00     0.049 A 
ATOM     63  H   UNL A   1      44.635  27.916  32.668  1.00  0.00     0.167 HD
ATOM     64  C   UNL A   1      44.494  27.969  29.658  1.00  0.00     0.074 A 
ATOM     65  C   UNL A   1      44.171  26.706  30.318  1.00  0.00     0.031 C 
ATOM     66  C   UNL A   1      44.596  29.244  30.138  1.00  0.00     0.034 A 
BRANCH  53  67
ATOM     67  C   UNL A   1      42.501  27.030  34.668  1.00  0.00     0.023 A 
ATOM     68  C   UNL A   1      43.317  25.998  34.169  1.00  0.00     0.031 A 
ATOM     69  C   UNL A   1      42.163  26.944  36.028  1.00  0.00     0.131 A 
ATOM     70  C   UNL A   1      43.695  24.910  34.959  1.00  0.00     0.055 A 
ATOM     71  C   UNL A   1      42.613  25.901  36.846  1.00  0.00     0.041 A 
ATOM     72  F   UNL A   1      41.420  27.896  36.615  1.00  0.00    -0.206 F 
ATOM     73  C   UNL A   1      43.371  24.867  36.308  1.00  0.00     0.022 A 
BRANCH  70  74
ATOM     74  S   UNL A   1      44.591  23.520  34.216  1.00  0.00     0.124 S 
ATOM     75  O   UNL A   1      44.335  22.453  35.177  1.00  0.00    -0.237 OA
ATOM     76  O   UNL A   1      43.919  23.389  32.926  1.00  0.00    -0.237 OA
ATOM     77  O   UNL A   1      45.969  24.000  34.147  1.00  0.00    -0.744 OA
ENDBRANCH  70  74
ENDBRANCH  53  67
BRANCH  54  78
ATOM     78  C   UNL A   1      42.325  25.242  26.497  1.00  0.00     0.023 A 
ATOM     79  C   UNL A   1      41.410  24.232  26.838  1.00  0.00     0.031 A 
ATOM     80  C   UNL A   1      43.288  24.931  25.517  1.00  0.00     0.131 A 
ATOM     81  C   UNL A   1      41.525  22.947  26.281  1.00  0.00     0.055 A 
ATOM     82  C   UNL A   1      43.386  23.656  24.942  1.00  0.00     0.041 A 
ATOM     83  F   UNL A   1      44.205  25.840  25.145  1.00  0.00    -0.206 F 
ATOM     84  C   UNL A   1      42.512  22.650  25.339  1.00  0.00     0.022 A 
BRANCH  81  85
ATOM     85  S   UNL A   1      40.428  21.614  26.841  1.00  0.00     0.124 S 
ATOM     86  O   UNL A   1      40.863  20.479  26.031  1.00  0.00    -0.237 OA
ATOM     87  O   UNL A   1      40.757  21.535  28.259  1.00  0.00    -0.237 OA
ATOM     88  O   UNL A   1      39.095  22.120  26.524  1.00  0.00    -0.744 OA
ENDBRANCH  81  85
ENDBRANCH  54  78
BRANCH  66  89
ATOM     89  C   UNL A   1      44.858  30.390  29.174  1.00  0.00     0.023 A 
ATOM     90  C   UNL A   1      46.187  30.845  29.071  1.00  0.00     0.031 A 
ATOM     91  C   UNL A   1      43.867  31.162  28.535  1.00  0.00     0.131 A 
ATOM     92  C   UNL A   1      46.487  32.043  28.408  1.00  0.00     0.055 A 
ATOM     93  C   UNL A   1      44.179  32.322  27.812  1.00  0.00     0.041 A 
ATOM     94  F   UNL A   1      42.565  30.877  28.656  1.00  0.00    -0.206 F 
ATOM     95  C   UNL A   1      45.492  32.778  27.763  1.00  0.00     0.022 A 
BRANCH  92  96
ATOM     96  S   UNL A   1      48.152  32.754  28.509  1.00  0.00     0.124 S 
ATOM     97  O   UNL A   1      48.988  31.565  28.644  1.00  0.00    -0.237 OA
ATOM     98  O   UNL A   1      48.266  33.457  27.233  1.00  0.00    -0.237 OA
ATOM     99  O   UNL A   1      48.097  33.618  29.684  1.00  0.00    -0.744 OA
ENDBRANCH  92  96
ENDBRANCH  66  89
ENDBRANCH  40  41
ENDBRANCH  33  35
ENDBRANCH  32  33
ENDBRANCH  31  32
ENDBRANCH  30  31
ENDBRANCH  29  30
ENDBRANCH  28  29
ENDBRANCH   1  28
TORSDOF 23
ENDMDL
