MODEL 1
REMARK VINA RESULT:      -9.9      0.000      0.000
REMARK SMILES CCc1ccsc1C(=O)N(CC(=O)OCCOCCOCCOC(=O)c1ccc(-c2c3nc(c(-c4cc(S(=O)(=O)[O-])ccc4F)c4ccc([nH]4)c(-c4cc(S(=O)(=O)[O-])ccc4F)c4nc(c(-c5cc(S(=O)(=O)[O-])ccc5F)c5ccc2[nH]5)C=C4)C=C3)cc1)C(C)(C)C
REMARK SMILES IDX 18 1 17 2 16 3 15 4 14 5 12 6 13 7 11 8 10 9 8 10 9 11 7 12
REMARK SMILES IDX 3 13 4 14 5 15 6 16 2 17 1 18 89 19 90 20 91 21 92 22 19 23
REMARK SMILES IDX 20 24 21 25 22 26 23 27 24 28 25 29 26 30 27 31 88 32 28 33
REMARK SMILES IDX 87 34 29 35 30 36 31 37 81 38 32 39 86 40 80 41 82 42 33 43
REMARK SMILES IDX 85 44 79 45 78 46 34 48 66 49 46 50 65 51 47 52 50 53 64 54
REMARK SMILES IDX 83 55 48 56 49 57 63 59 84 60 51 61 35 62 36 63 44 64 37 65
REMARK SMILES IDX 43 66 45 67 42 68 38 69 39 70 40 71 41 72 67 73 68 74 76 75
REMARK SMILES IDX 69 76 75 77 77 78 74 79 70 80 71 81 72 82 73 83 52 84 53 85
REMARK SMILES IDX 61 86 54 87 60 88 62 89 59 90 55 91 56 92 57 93 58 94
REMARK H PARENT 82 47 50 58
REMARK Flexibility Score: inf
ROOT
ATOM      1  C   UNL A   1      35.954  21.582  25.310  1.00  0.00     0.188 C 
ENDROOT
BRANCH   1   2
ATOM      2  O   UNL A   1      35.362  22.025  26.529  1.00  0.00    -0.376 OA
BRANCH   2   3
ATOM      3  C   UNL A   1      34.097  21.478  26.885  1.00  0.00     0.202 C 
BRANCH   3   4
ATOM      4  C   UNL A   1      33.144  22.435  27.602  1.00  0.00     0.261 C 
BRANCH   4   5
ATOM      5  O   UNL A   1      32.684  23.527  26.772  1.00  0.00    -0.462 OA
BRANCH   5   6
ATOM      6  C   UNL A   1      31.356  23.552  26.466  1.00  0.00     0.325 C 
ATOM      7  O   UNL A   1      30.463  23.652  27.300  1.00  0.00    -0.250 OA
BRANCH   6   8
ATOM      8  C   UNL A   1      31.056  23.310  24.974  1.00  0.00     0.243 C 
BRANCH   8   9
ATOM      9  N   UNL A   1      31.650  24.241  24.011  1.00  0.00    -0.322 N 
BRANCH   9  10
ATOM     10  C   UNL A   1      31.168  25.564  23.830  1.00  0.00     0.265 C 
ATOM     11  O   UNL A   1      30.129  25.692  23.171  1.00  0.00    -0.268 OA
BRANCH  10  12
ATOM     12  C   UNL A   1      31.879  26.802  24.261  1.00  0.00     0.095 A 
ATOM     13  C   UNL A   1      32.195  27.520  25.432  1.00  0.00    -0.025 A 
ATOM     14  C   UNL A   1      32.882  28.756  25.111  1.00  0.00     0.016 A 
ATOM     15  C   UNL A   1      33.048  28.980  23.773  1.00  0.00     0.066 A 
ATOM     16  S   UNL A   1      32.467  27.691  22.858  1.00  0.00    -0.138 S 
BRANCH  13  17
ATOM     17  C   UNL A   1      31.878  27.190  26.870  1.00  0.00     0.034 C 
ATOM     18  C   UNL A   1      31.571  28.352  27.806  1.00  0.00     0.009 C 
ENDBRANCH  13  17
ENDBRANCH  10  12
ENDBRANCH   9  10
BRANCH   9  19
ATOM     19  C   UNL A   1      32.915  23.818  23.270  1.00  0.00     0.035 C 
ATOM     20  C   UNL A   1      32.929  24.245  21.780  1.00  0.00     0.034 C 
ATOM     21  C   UNL A   1      34.140  24.435  23.978  1.00  0.00     0.034 C 
ATOM     22  C   UNL A   1      33.141  22.292  23.277  1.00  0.00     0.034 C 
ENDBRANCH   9  19
ENDBRANCH   8   9
ENDBRANCH   6   8
ENDBRANCH   5   6
ENDBRANCH   4   5
ENDBRANCH   3   4
ENDBRANCH   2   3
ENDBRANCH   1   2
BRANCH   1  23
ATOM     23  C   UNL A   1      35.762  20.101  24.951  1.00  0.00     0.188 C 
BRANCH  23  24
ATOM     24  O   UNL A   1      36.938  19.299  24.942  1.00  0.00    -0.376 OA
BRANCH  24  25
ATOM     25  C   UNL A   1      38.178  20.002  24.935  1.00  0.00     0.202 C 
BRANCH  25  26
ATOM     26  C   UNL A   1      39.297  19.286  25.693  1.00  0.00     0.261 C 
BRANCH  26  27
ATOM     27  O   UNL A   1      40.451  20.146  25.812  1.00  0.00    -0.460 OA
BRANCH  27  28
ATOM     28  C   UNL A   1      40.958  20.244  27.059  1.00  0.00     0.338 C 
ATOM     29  O   UNL A   1      41.453  19.345  27.727  1.00  0.00    -0.246 OA
BRANCH  28  30
ATOM     30  C   UNL A   1      40.943  21.642  27.515  1.00  0.00     0.060 A 
ATOM     31  C   UNL A   1      40.133  22.554  26.839  1.00  0.00     0.016 A 
ATOM     32  C   UNL A   1      41.872  22.091  28.448  1.00  0.00     0.016 A 
ATOM     33  C   UNL A   1      40.310  23.926  27.011  1.00  0.00     0.010 A 
ATOM     34  C   UNL A   1      42.010  23.467  28.665  1.00  0.00     0.010 A 
ATOM     35  C   UNL A   1      41.271  24.400  27.910  1.00  0.00    -0.014 A 
BRANCH  35  36
ATOM     36  C   UNL A   1      41.619  25.848  27.963  1.00  0.00     0.031 A 
ATOM     37  C   UNL A   1      42.914  26.306  27.341  1.00  0.00     0.074 A 
ATOM     38  C   UNL A   1      40.800  26.759  28.525  1.00  0.00     0.049 A 
ATOM     39  N   UNL A   1      43.568  27.427  27.504  1.00  0.00    -0.248 NA
ATOM     40  C   UNL A   1      43.562  25.359  26.422  1.00  0.00     0.031 C 
ATOM     41  C   UNL A   1      39.467  26.488  29.061  1.00  0.00     0.029 A 
ATOM     42  N   UNL A   1      40.979  28.105  28.743  1.00  0.00    -0.354 N 
ATOM     43  C   UNL A   1      44.742  27.290  26.768  1.00  0.00     0.074 A 
ATOM     44  C   UNL A   1      44.701  25.979  26.153  1.00  0.00     0.031 C 
ATOM     45  C   UNL A   1      38.946  27.630  29.541  1.00  0.00     0.029 A 
ATOM     46  C   UNL A   1      39.944  28.690  29.436  1.00  0.00     0.049 A 
ATOM     47  H   UNL A   1      41.771  28.601  28.433  1.00  0.00     0.167 HD
ATOM     48  C   UNL A   1      45.764  28.172  26.635  1.00  0.00     0.034 A 
ATOM     49  C   UNL A   1      39.838  29.918  29.985  1.00  0.00     0.034 A 
ATOM     50  C   UNL A   1      45.760  29.492  27.218  1.00  0.00     0.049 A 
ATOM     51  C   UNL A   1      41.005  30.867  29.879  1.00  0.00     0.074 A 
ATOM     52  C   UNL A   1      46.744  30.465  27.170  1.00  0.00     0.029 A 
ATOM     53  N   UNL A   1      44.705  30.033  27.944  1.00  0.00    -0.354 N 
ATOM     54  N   UNL A   1      42.167  30.687  29.293  1.00  0.00    -0.248 NA
ATOM     55  C   UNL A   1      40.855  32.177  30.527  1.00  0.00     0.031 C 
ATOM     56  C   UNL A   1      46.305  31.571  27.908  1.00  0.00     0.029 A 
ATOM     57  C   UNL A   1      45.022  31.316  28.361  1.00  0.00     0.049 A 
ATOM     58  H   UNL A   1      43.857  29.572  28.134  1.00  0.00     0.167 HD
ATOM     59  C   UNL A   1      42.881  31.864  29.498  1.00  0.00     0.074 A 
ATOM     60  C   UNL A   1      42.012  32.754  30.239  1.00  0.00     0.031 C 
ATOM     61  C   UNL A   1      44.144  32.182  29.112  1.00  0.00     0.034 A 
BRANCH  48  62
ATOM     62  C   UNL A   1      46.998  27.696  25.907  1.00  0.00     0.023 A 
ATOM     63  C   UNL A   1      47.224  27.973  24.549  1.00  0.00     0.031 A 
ATOM     64  C   UNL A   1      47.943  26.902  26.582  1.00  0.00     0.131 A 
ATOM     65  C   UNL A   1      48.324  27.398  23.892  1.00  0.00     0.055 A 
ATOM     66  C   UNL A   1      49.077  26.397  25.943  1.00  0.00     0.041 A 
ATOM     67  F   UNL A   1      47.769  26.584  27.876  1.00  0.00    -0.206 F 
ATOM     68  C   UNL A   1      49.264  26.631  24.585  1.00  0.00     0.022 A 
BRANCH  65  69
ATOM     69  S   UNL A   1      48.430  27.542  22.086  1.00  0.00     0.124 S 
ATOM     70  O   UNL A   1      49.604  28.397  21.927  1.00  0.00    -0.237 OA
ATOM     71  O   UNL A   1      48.589  26.155  21.668  1.00  0.00    -0.237 OA
ATOM     72  O   UNL A   1      47.160  28.163  21.717  1.00  0.00    -0.744 OA
ENDBRANCH  65  69
ENDBRANCH  48  62
BRANCH  49  73
ATOM     73  C   UNL A   1      38.627  30.289  30.773  1.00  0.00     0.023 A 
ATOM     74  C   UNL A   1      37.585  31.035  30.201  1.00  0.00     0.031 A 
ATOM     75  C   UNL A   1      38.515  29.931  32.129  1.00  0.00     0.131 A 
ATOM     76  C   UNL A   1      36.491  31.426  30.991  1.00  0.00     0.055 A 
ATOM     77  C   UNL A   1      37.401  30.277  32.895  1.00  0.00     0.041 A 
ATOM     78  F   UNL A   1      39.486  29.223  32.727  1.00  0.00    -0.206 F 
ATOM     79  C   UNL A   1      36.385  31.038  32.328  1.00  0.00     0.022 A 
BRANCH  76  80
ATOM     80  S   UNL A   1      35.234  32.512  30.261  1.00  0.00     0.124 S 
ATOM     81  O   UNL A   1      34.762  31.709  29.140  1.00  0.00    -0.237 OA
ATOM     82  O   UNL A   1      34.300  32.681  31.369  1.00  0.00    -0.237 OA
ATOM     83  O   UNL A   1      35.989  33.710  29.897  1.00  0.00    -0.744 OA
ENDBRANCH  76  80
ENDBRANCH  49  73
BRANCH  61  84
ATOM     84  C   UNL A   1      44.631  33.567  29.456  1.00  0.00     0.023 A 
ATOM     85  C   UNL A   1      45.333  33.826  30.645  1.00  0.00     0.031 A 
ATOM     86  C   UNL A   1      44.373  34.641  28.587  1.00  0.00     0.131 A 
ATOM     87  C   UNL A   1      45.710  35.141  30.959  1.00  0.00     0.055 A 
ATOM     88  C   UNL A   1      44.794  35.938  28.881  1.00  0.00     0.041 A 
ATOM     89  F   UNL A   1      43.705  34.445  27.440  1.00  0.00    -0.206 F 
ATOM     90  C   UNL A   1      45.456  36.196  30.078  1.00  0.00     0.022 A 
BRANCH  87  91
ATOM     91  S   UNL A   1      46.469  35.470  32.573  1.00  0.00     0.124 S 
ATOM     92  O   UNL A   1      47.871  35.663  32.215  1.00  0.00    -0.237 OA
ATOM     93  O   UNL A   1      45.753  36.662  33.018  1.00  0.00    -0.237 OA
ATOM     94  O   UNL A   1      46.186  34.258  33.340  1.00  0.00    -0.744 OA
ENDBRANCH  87  91
ENDBRANCH  61  84
ENDBRANCH  35  36
ENDBRANCH  28  30
ENDBRANCH  27  28
ENDBRANCH  26  27
ENDBRANCH  25  26
ENDBRANCH  24  25
ENDBRANCH  23  24
ENDBRANCH   1  23
TORSDOF 25
ENDMDL
MODEL 2
REMARK VINA RESULT:      -9.8      1.656      7.791
REMARK SMILES CCc1ccsc1C(=O)N(CC(=O)OCCOCCOCCOC(=O)c1ccc(-c2c3nc(c(-c4cc(S(=O)(=O)[O-])ccc4F)c4ccc([nH]4)c(-c4cc(S(=O)(=O)[O-])ccc4F)c4nc(c(-c5cc(S(=O)(=O)[O-])ccc5F)c5ccc2[nH]5)C=C4)C=C3)cc1)C(C)(C)C
REMARK SMILES IDX 18 1 17 2 16 3 15 4 14 5 12 6 13 7 11 8 10 9 8 10 9 11 7 12
REMARK SMILES IDX 3 13 4 14 5 15 6 16 2 17 1 18 89 19 90 20 91 21 92 22 19 23
REMARK SMILES IDX 20 24 21 25 22 26 23 27 24 28 25 29 26 30 27 31 88 32 28 33
REMARK SMILES IDX 87 34 29 35 30 36 31 37 81 38 32 39 86 40 80 41 82 42 33 43
REMARK SMILES IDX 85 44 79 45 78 46 34 48 66 49 46 50 65 51 47 52 50 53 64 54
REMARK SMILES IDX 83 55 48 56 49 57 63 59 84 60 51 61 35 62 36 63 44 64 37 65
REMARK SMILES IDX 43 66 45 67 42 68 38 69 39 70 40 71 41 72 67 73 68 74 76 75
REMARK SMILES IDX 69 76 75 77 77 78 74 79 70 80 71 81 72 82 73 83 52 84 53 85
REMARK SMILES IDX 61 86 54 87 60 88 62 89 59 90 55 91 56 92 57 93 58 94
REMARK H PARENT 82 47 50 58
REMARK Flexibility Score: inf
ROOT
ATOM      1  C   UNL A   1      33.317  22.459  25.586  1.00  0.00     0.188 C 
ENDROOT
BRANCH   1   2
ATOM      2  O   UNL A   1      33.084  22.337  24.185  1.00  0.00    -0.376 OA
BRANCH   2   3
ATOM      3  C   UNL A   1      33.929  23.075  23.308  1.00  0.00     0.202 C 
BRANCH   3   4
ATOM      4  C   UNL A   1      33.327  23.413  21.943  1.00  0.00     0.261 C 
BRANCH   4   5
ATOM      5  O   UNL A   1      32.481  24.586  21.957  1.00  0.00    -0.462 OA
BRANCH   5   6
ATOM      6  C   UNL A   1      32.998  25.713  22.522  1.00  0.00     0.325 C 
ATOM      7  O   UNL A   1      33.941  26.343  22.056  1.00  0.00    -0.250 OA
BRANCH   6   8
ATOM      8  C   UNL A   1      32.376  26.067  23.886  1.00  0.00     0.243 C 
BRANCH   8   9
ATOM      9  N   UNL A   1      32.002  27.465  24.111  1.00  0.00    -0.322 N 
BRANCH   9  10
ATOM     10  C   UNL A   1      31.160  28.184  23.222  1.00  0.00     0.265 C 
ATOM     11  O   UNL A   1      31.716  28.959  22.433  1.00  0.00    -0.268 OA
BRANCH  10  12
ATOM     12  C   UNL A   1      29.670  28.170  23.253  1.00  0.00     0.095 A 
ATOM     13  C   UNL A   1      28.571  29.020  23.011  1.00  0.00    -0.025 A 
ATOM     14  C   UNL A   1      27.322  28.355  23.328  1.00  0.00     0.016 A 
ATOM     15  C   UNL A   1      27.465  27.085  23.813  1.00  0.00     0.066 A 
ATOM     16  S   UNL A   1      29.082  26.613  23.831  1.00  0.00    -0.138 S 
BRANCH  13  17
ATOM     17  C   UNL A   1      28.558  30.454  22.539  1.00  0.00     0.034 C 
ATOM     18  C   UNL A   1      28.825  31.537  23.577  1.00  0.00     0.009 C 
ENDBRANCH  13  17
ENDBRANCH  10  12
ENDBRANCH   9  10
BRANCH   9  19
ATOM     19  C   UNL A   1      32.424  28.136  25.415  1.00  0.00     0.035 C 
ATOM     20  C   UNL A   1      32.401  29.684  25.351  1.00  0.00     0.034 C 
ATOM     21  C   UNL A   1      31.484  27.668  26.546  1.00  0.00     0.034 C 
ATOM     22  C   UNL A   1      33.851  27.751  25.861  1.00  0.00     0.034 C 
ENDBRANCH   9  19
ENDBRANCH   8   9
ENDBRANCH   6   8
ENDBRANCH   5   6
ENDBRANCH   4   5
ENDBRANCH   3   4
ENDBRANCH   2   3
ENDBRANCH   1   2
BRANCH   1  23
ATOM     23  C   UNL A   1      34.157  21.354  26.242  1.00  0.00     0.188 C 
BRANCH  23  24
ATOM     24  O   UNL A   1      35.555  21.386  25.977  1.00  0.00    -0.376 OA
BRANCH  24  25
ATOM     25  C   UNL A   1      36.033  20.456  25.009  1.00  0.00     0.202 C 
BRANCH  25  26
ATOM     26  C   UNL A   1      37.542  20.539  24.767  1.00  0.00     0.261 C 
BRANCH  26  27
ATOM     27  O   UNL A   1      38.090  21.702  25.424  1.00  0.00    -0.460 OA
BRANCH  27  28
ATOM     28  C   UNL A   1      39.233  21.480  26.108  1.00  0.00     0.338 C 
ATOM     29  O   UNL A   1      39.943  20.484  26.054  1.00  0.00    -0.246 OA
BRANCH  28  30
ATOM     30  C   UNL A   1      39.607  22.667  26.890  1.00  0.00     0.060 A 
ATOM     31  C   UNL A   1      39.079  23.903  26.518  1.00  0.00     0.016 A 
ATOM     32  C   UNL A   1      40.625  22.599  27.835  1.00  0.00     0.016 A 
ATOM     33  C   UNL A   1      39.629  25.088  27.005  1.00  0.00     0.010 A 
ATOM     34  C   UNL A   1      41.140  23.786  28.370  1.00  0.00     0.010 A 
ATOM     35  C   UNL A   1      40.686  25.043  27.920  1.00  0.00    -0.014 A 
BRANCH  35  36
ATOM     36  C   UNL A   1      41.422  26.283  28.299  1.00  0.00     0.031 A 
ATOM     37  C   UNL A   1      40.697  27.346  29.083  1.00  0.00     0.074 A 
ATOM     38  C   UNL A   1      42.719  26.466  27.984  1.00  0.00     0.049 A 
ATOM     39  N   UNL A   1      41.010  28.601  29.277  1.00  0.00    -0.248 NA
ATOM     40  C   UNL A   1      39.437  26.935  29.722  1.00  0.00     0.031 C 
ATOM     41  C   UNL A   1      43.584  25.483  27.333  1.00  0.00     0.029 A 
ATOM     42  N   UNL A   1      43.536  27.557  28.167  1.00  0.00    -0.354 N 
ATOM     43  C   UNL A   1      39.951  29.149  29.995  1.00  0.00     0.074 A 
ATOM     44  C   UNL A   1      38.993  28.084  30.208  1.00  0.00     0.031 C 
ATOM     45  C   UNL A   1      44.809  26.012  27.177  1.00  0.00     0.029 A 
ATOM     46  C   UNL A   1      44.790  27.401  27.624  1.00  0.00     0.049 A 
ATOM     47  H   UNL A   1      43.250  28.372  28.642  1.00  0.00     0.167 HD
ATOM     48  C   UNL A   1      39.790  30.427  30.419  1.00  0.00     0.034 A 
ATOM     49  C   UNL A   1      45.788  28.292  27.445  1.00  0.00     0.034 A 
ATOM     50  C   UNL A   1      40.781  31.460  30.238  1.00  0.00     0.049 A 
ATOM     51  C   UNL A   1      45.572  29.722  27.870  1.00  0.00     0.074 A 
ATOM     52  C   UNL A   1      40.723  32.794  30.606  1.00  0.00     0.029 A 
ATOM     53  N   UNL A   1      42.026  31.267  29.650  1.00  0.00    -0.354 N 
ATOM     54  N   UNL A   1      44.517  30.268  28.431  1.00  0.00    -0.248 NA
ATOM     55  C   UNL A   1      46.672  30.662  27.616  1.00  0.00     0.031 C 
ATOM     56  C   UNL A   1      41.908  33.416  30.196  1.00  0.00     0.029 A 
ATOM     57  C   UNL A   1      42.735  32.458  29.632  1.00  0.00     0.049 A 
ATOM     58  H   UNL A   1      42.356  30.409  29.298  1.00  0.00     0.167 HD
ATOM     59  C   UNL A   1      44.833  31.613  28.603  1.00  0.00     0.074 A 
ATOM     60  C   UNL A   1      46.182  31.789  28.109  1.00  0.00     0.031 C 
ATOM     61  C   UNL A   1      44.075  32.615  29.120  1.00  0.00     0.034 A 
BRANCH  48  62
ATOM     62  C   UNL A   1      38.460  30.789  31.036  1.00  0.00     0.023 A 
ATOM     63  C   UNL A   1      37.424  31.385  30.297  1.00  0.00     0.031 A 
ATOM     64  C   UNL A   1      38.249  30.578  32.411  1.00  0.00     0.131 A 
ATOM     65  C   UNL A   1      36.258  31.817  30.950  1.00  0.00     0.055 A 
ATOM     66  C   UNL A   1      37.056  30.939  33.040  1.00  0.00     0.041 A 
ATOM     67  F   UNL A   1      39.211  30.034  33.174  1.00  0.00    -0.206 F 
ATOM     68  C   UNL A   1      36.058  31.577  32.312  1.00  0.00     0.022 A 
BRANCH  65  69
ATOM     69  S   UNL A   1      35.070  32.830  30.026  1.00  0.00     0.124 S 
ATOM     70  O   UNL A   1      34.645  31.904  28.979  1.00  0.00    -0.237 OA
ATOM     71  O   UNL A   1      34.073  33.150  31.040  1.00  0.00    -0.237 OA
ATOM     72  O   UNL A   1      35.872  33.960  29.561  1.00  0.00    -0.744 OA
ENDBRANCH  65  69
ENDBRANCH  48  62
BRANCH  49  73
ATOM     73  C   UNL A   1      47.040  27.889  26.742  1.00  0.00     0.023 A 
ATOM     74  C   UNL A   1      47.144  27.952  25.344  1.00  0.00     0.031 A 
ATOM     75  C   UNL A   1      48.143  27.397  27.464  1.00  0.00     0.131 A 
ATOM     76  C   UNL A   1      48.314  27.501  24.710  1.00  0.00     0.055 A 
ATOM     77  C   UNL A   1      49.323  27.000  26.833  1.00  0.00     0.041 A 
ATOM     78  F   UNL A   1      48.095  27.310  28.803  1.00  0.00    -0.206 F 
ATOM     79  C   UNL A   1      49.408  27.041  25.445  1.00  0.00     0.022 A 
BRANCH  76  80
ATOM     80  S   UNL A   1      48.360  27.459  22.897  1.00  0.00     0.124 S 
ATOM     81  O   UNL A   1      48.314  26.025  22.631  1.00  0.00    -0.237 OA
ATOM     82  O   UNL A   1      47.163  28.215  22.545  1.00  0.00    -0.237 OA
ATOM     83  O   UNL A   1      49.626  28.114  22.573  1.00  0.00    -0.744 OA
ENDBRANCH  76  80
ENDBRANCH  49  73
BRANCH  61  84
ATOM     84  C   UNL A   1      44.718  33.976  29.208  1.00  0.00     0.023 A 
ATOM     85  C   UNL A   1      45.445  34.374  30.343  1.00  0.00     0.031 A 
ATOM     86  C   UNL A   1      44.585  34.889  28.149  1.00  0.00     0.131 A 
ATOM     87  C   UNL A   1      45.970  35.673  30.413  1.00  0.00     0.055 A 
ATOM     88  C   UNL A   1      45.152  36.163  28.203  1.00  0.00     0.041 A 
ATOM     89  F   UNL A   1      43.899  34.557  27.044  1.00  0.00    -0.206 F 
ATOM     90  C   UNL A   1      45.840  36.565  29.345  1.00  0.00     0.022 A 
BRANCH  87  91
ATOM     91  S   UNL A   1      46.761  36.213  31.954  1.00  0.00     0.124 S 
ATOM     92  O   UNL A   1      47.500  37.394  31.518  1.00  0.00    -0.237 OA
ATOM     93  O   UNL A   1      45.616  36.461  32.823  1.00  0.00    -0.237 OA
ATOM     94  O   UNL A   1      47.590  35.070  32.334  1.00  0.00    -0.744 OA
ENDBRANCH  87  91
ENDBRANCH  61  84
ENDBRANCH  35  36
ENDBRANCH  28  30
ENDBRANCH  27  28
ENDBRANCH  26  27
ENDBRANCH  25  26
ENDBRANCH  24  25
ENDBRANCH  23  24
ENDBRANCH   1  23
TORSDOF 25
ENDMDL
MODEL 3
REMARK VINA RESULT:      -8.9      2.298      7.973
REMARK SMILES CCc1ccsc1C(=O)N(CC(=O)OCCOCCOCCOC(=O)c1ccc(-c2c3nc(c(-c4cc(S(=O)(=O)[O-])ccc4F)c4ccc([nH]4)c(-c4cc(S(=O)(=O)[O-])ccc4F)c4nc(c(-c5cc(S(=O)(=O)[O-])ccc5F)c5ccc2[nH]5)C=C4)C=C3)cc1)C(C)(C)C
REMARK SMILES IDX 18 1 17 2 16 3 15 4 14 5 12 6 13 7 11 8 10 9 8 10 9 11 7 12
REMARK SMILES IDX 3 13 4 14 5 15 6 16 2 17 1 18 89 19 90 20 91 21 92 22 19 23
REMARK SMILES IDX 20 24 21 25 22 26 23 27 24 28 25 29 26 30 27 31 88 32 28 33
REMARK SMILES IDX 87 34 29 35 30 36 31 37 81 38 32 39 86 40 80 41 82 42 33 43
REMARK SMILES IDX 85 44 79 45 78 46 34 48 66 49 46 50 65 51 47 52 50 53 64 54
REMARK SMILES IDX 83 55 48 56 49 57 63 59 84 60 51 61 35 62 36 63 44 64 37 65
REMARK SMILES IDX 43 66 45 67 42 68 38 69 39 70 40 71 41 72 67 73 68 74 76 75
REMARK SMILES IDX 69 76 75 77 77 78 74 79 70 80 71 81 72 82 73 83 52 84 53 85
REMARK SMILES IDX 61 86 54 87 60 88 62 89 59 90 55 91 56 92 57 93 58 94
REMARK H PARENT 82 47 50 58
REMARK Flexibility Score: inf
ROOT
ATOM      1  C   UNL A   1      34.690  22.800  25.571  1.00  0.00     0.188 C 
ENDROOT
BRANCH   1   2
ATOM      2  O   UNL A   1      33.451  22.619  24.888  1.00  0.00    -0.376 OA
BRANCH   2   3
ATOM      3  C   UNL A   1      33.454  22.749  23.471  1.00  0.00     0.202 C 
BRANCH   3   4
ATOM      4  C   UNL A   1      32.344  23.626  22.888  1.00  0.00     0.261 C 
BRANCH   4   5
ATOM      5  O   UNL A   1      31.714  24.489  23.863  1.00  0.00    -0.462 OA
BRANCH   5   6
ATOM      6  C   UNL A   1      32.163  25.774  23.931  1.00  0.00     0.325 C 
ATOM      7  O   UNL A   1      33.188  26.171  23.387  1.00  0.00    -0.250 OA
BRANCH   6   8
ATOM      8  C   UNL A   1      31.336  26.673  24.869  1.00  0.00     0.243 C 
BRANCH   8   9
ATOM      9  N   UNL A   1      31.567  28.118  24.789  1.00  0.00    -0.322 N 
BRANCH   9  10
ATOM     10  C   UNL A   1      31.133  28.902  23.688  1.00  0.00     0.265 C 
ATOM     11  O   UNL A   1      32.009  29.310  22.916  1.00  0.00    -0.268 OA
BRANCH  10  12
ATOM     12  C   UNL A   1      29.735  29.370  23.468  1.00  0.00     0.095 A 
ATOM     13  C   UNL A   1      28.970  30.554  23.494  1.00  0.00    -0.025 A 
ATOM     14  C   UNL A   1      27.570  30.272  23.243  1.00  0.00     0.016 A 
ATOM     15  C   UNL A   1      27.283  28.947  23.069  1.00  0.00     0.066 A 
ATOM     16  S   UNL A   1      28.678  28.004  23.117  1.00  0.00    -0.138 S 
BRANCH  13  17
ATOM     17  C   UNL A   1      29.409  31.970  23.780  1.00  0.00     0.034 C 
ATOM     18  C   UNL A   1      28.773  33.082  22.957  1.00  0.00     0.009 C 
ENDBRANCH  13  17
ENDBRANCH  10  12
ENDBRANCH   9  10
BRANCH   9  19
ATOM     19  C   UNL A   1      32.180  28.828  25.993  1.00  0.00     0.035 C 
ATOM     20  C   UNL A   1      31.770  28.207  27.352  1.00  0.00     0.034 C 
ATOM     21  C   UNL A   1      33.718  28.788  25.868  1.00  0.00     0.034 C 
ATOM     22  C   UNL A   1      31.797  30.320  26.076  1.00  0.00     0.034 C 
ENDBRANCH   9  19
ENDBRANCH   8   9
ENDBRANCH   6   8
ENDBRANCH   5   6
ENDBRANCH   4   5
ENDBRANCH   3   4
ENDBRANCH   2   3
ENDBRANCH   1   2
BRANCH   1  23
ATOM     23  C   UNL A   1      35.537  21.541  25.802  1.00  0.00     0.188 C 
BRANCH  23  24
ATOM     24  O   UNL A   1      36.604  21.324  24.885  1.00  0.00    -0.376 OA
BRANCH  24  25
ATOM     25  C   UNL A   1      37.060  19.980  24.756  1.00  0.00     0.202 C 
BRANCH  25  26
ATOM     26  C   UNL A   1      38.475  19.756  25.291  1.00  0.00     0.261 C 
BRANCH  26  27
ATOM     27  O   UNL A   1      39.052  21.008  25.721  1.00  0.00    -0.460 OA
BRANCH  27  28
ATOM     28  C   UNL A   1      40.149  20.889  26.499  1.00  0.00     0.338 C 
ATOM     29  O   UNL A   1      40.842  19.891  26.649  1.00  0.00    -0.246 OA
BRANCH  28  30
ATOM     30  C   UNL A   1      40.499  22.184  27.101  1.00  0.00     0.060 A 
ATOM     31  C   UNL A   1      40.053  23.350  26.478  1.00  0.00     0.016 A 
ATOM     32  C   UNL A   1      41.429  22.255  28.132  1.00  0.00     0.016 A 
ATOM     33  C   UNL A   1      40.604  24.587  26.807  1.00  0.00     0.010 A 
ATOM     34  C   UNL A   1      41.941  23.505  28.504  1.00  0.00     0.010 A 
ATOM     35  C   UNL A   1      41.576  24.676  27.809  1.00  0.00    -0.014 A 
BRANCH  35  36
ATOM     36  C   UNL A   1      42.323  25.945  28.039  1.00  0.00     0.031 A 
ATOM     37  C   UNL A   1      41.645  27.061  28.791  1.00  0.00     0.074 A 
ATOM     38  C   UNL A   1      43.593  26.110  27.618  1.00  0.00     0.049 A 
ATOM     39  N   UNL A   1      41.957  28.328  28.866  1.00  0.00    -0.248 NA
ATOM     40  C   UNL A   1      40.439  26.692  29.548  1.00  0.00     0.031 C 
ATOM     41  C   UNL A   1      44.419  25.086  26.982  1.00  0.00     0.029 A 
ATOM     42  N   UNL A   1      44.408  27.217  27.659  1.00  0.00    -0.354 N 
ATOM     43  C   UNL A   1      40.946  28.924  29.615  1.00  0.00     0.074 A 
ATOM     44  C   UNL A   1      40.017  27.873  29.976  1.00  0.00     0.031 C 
ATOM     45  C   UNL A   1      45.624  25.607  26.698  1.00  0.00     0.029 A 
ATOM     46  C   UNL A   1      45.622  27.026  27.040  1.00  0.00     0.049 A 
ATOM     47  H   UNL A   1      44.148  28.063  28.090  1.00  0.00     0.167 HD
ATOM     48  C   UNL A   1      40.802  30.230  29.952  1.00  0.00     0.034 A 
ATOM     49  C   UNL A   1      46.595  27.906  26.722  1.00  0.00     0.034 A 
ATOM     50  C   UNL A   1      41.767  31.251  29.622  1.00  0.00     0.049 A 
ATOM     51  C   UNL A   1      46.394  29.364  27.052  1.00  0.00     0.074 A 
ATOM     52  C   UNL A   1      41.720  32.608  29.892  1.00  0.00     0.029 A 
ATOM     53  N   UNL A   1      42.968  31.021  28.962  1.00  0.00    -0.354 N 
ATOM     54  N   UNL A   1      45.377  29.946  27.645  1.00  0.00    -0.248 NA
ATOM     55  C   UNL A   1      47.463  30.288  26.649  1.00  0.00     0.031 C 
ATOM     56  C   UNL A   1      42.867  33.204  29.351  1.00  0.00     0.029 A 
ATOM     57  C   UNL A   1      43.661  32.211  28.803  1.00  0.00     0.049 A 
ATOM     58  H   UNL A   1      43.282  30.140  28.653  1.00  0.00     0.167 HD
ATOM     59  C   UNL A   1      45.689  31.301  27.692  1.00  0.00     0.074 A 
ATOM     60  C   UNL A   1      46.997  31.447  27.090  1.00  0.00     0.031 C 
ATOM     61  C   UNL A   1      44.959  32.335  28.185  1.00  0.00     0.034 A 
BRANCH  48  62
ATOM     62  C   UNL A   1      39.516  30.630  30.635  1.00  0.00     0.023 A 
ATOM     63  C   UNL A   1      38.425  31.165  29.929  1.00  0.00     0.031 A 
ATOM     64  C   UNL A   1      39.405  30.520  32.033  1.00  0.00     0.131 A 
ATOM     65  C   UNL A   1      37.304  31.639  30.631  1.00  0.00     0.055 A 
ATOM     66  C   UNL A   1      38.257  30.921  32.718  1.00  0.00     0.041 A 
ATOM     67  F   UNL A   1      40.424  30.038  32.763  1.00  0.00    -0.206 F 
ATOM     68  C   UNL A   1      37.203  31.500  32.017  1.00  0.00     0.022 A 
BRANCH  65  69
ATOM     69  S   UNL A   1      36.044  32.576  29.723  1.00  0.00     0.124 S 
ATOM     70  O   UNL A   1      35.633  33.561  30.721  1.00  0.00    -0.237 OA
ATOM     71  O   UNL A   1      36.794  33.094  28.586  1.00  0.00    -0.237 OA
ATOM     72  O   UNL A   1      35.035  31.570  29.399  1.00  0.00    -0.744 OA
ENDBRANCH  65  69
ENDBRANCH  48  62
BRANCH  49  73
ATOM     73  C   UNL A   1      47.798  27.458  25.963  1.00  0.00     0.023 A 
ATOM     74  C   UNL A   1      48.954  27.017  26.624  1.00  0.00     0.031 A 
ATOM     75  C   UNL A   1      47.818  27.503  24.556  1.00  0.00     0.131 A 
ATOM     76  C   UNL A   1      50.093  26.668  25.879  1.00  0.00     0.055 A 
ATOM     77  C   UNL A   1      48.934  27.104  23.820  1.00  0.00     0.041 A 
ATOM     78  F   UNL A   1      46.740  27.923  23.875  1.00  0.00    -0.206 F 
ATOM     79  C   UNL A   1      50.085  26.693  24.483  1.00  0.00     0.022 A 
BRANCH  76  80
ATOM     80  S   UNL A   1      51.617  26.243  26.768  1.00  0.00     0.124 S 
ATOM     81  O   UNL A   1      52.586  27.135  26.140  1.00  0.00    -0.237 OA
ATOM     82  O   UNL A   1      51.260  26.552  28.148  1.00  0.00    -0.237 OA
ATOM     83  O   UNL A   1      51.797  24.821  26.476  1.00  0.00    -0.744 OA
ENDBRANCH  76  80
ENDBRANCH  49  73
BRANCH  61  84
ATOM     84  C   UNL A   1      45.592  33.703  28.124  1.00  0.00     0.023 A 
ATOM     85  C   UNL A   1      46.399  34.188  29.167  1.00  0.00     0.031 A 
ATOM     86  C   UNL A   1      45.368  34.534  27.014  1.00  0.00     0.131 A 
ATOM     87  C   UNL A   1      46.913  35.491  29.101  1.00  0.00     0.055 A 
ATOM     88  C   UNL A   1      45.924  35.811  26.930  1.00  0.00     0.041 A 
ATOM     89  F   UNL A   1      44.604  34.118  25.992  1.00  0.00    -0.206 F 
ATOM     90  C   UNL A   1      46.692  36.301  27.984  1.00  0.00     0.022 A 
BRANCH  87  91
ATOM     91  S   UNL A   1      47.814  36.148  30.532  1.00  0.00     0.124 S 
ATOM     92  O   UNL A   1      47.234  37.480  30.671  1.00  0.00    -0.237 OA
ATOM     93  O   UNL A   1      47.474  35.192  31.581  1.00  0.00    -0.237 OA
ATOM     94  O   UNL A   1      49.211  36.122  30.101  1.00  0.00    -0.744 OA
ENDBRANCH  87  91
ENDBRANCH  61  84
ENDBRANCH  35  36
ENDBRANCH  28  30
ENDBRANCH  27  28
ENDBRANCH  26  27
ENDBRANCH  25  26
ENDBRANCH  24  25
ENDBRANCH  23  24
ENDBRANCH   1  23
TORSDOF 25
ENDMDL
