MODEL 1
REMARK VINA RESULT:      -8.3      0.000      0.000
REMARK SMILES CC(C)N(CCC#N)C(=O)c1ccncc1/C=C/C(=O)OCCOCCOCCOC(=O)c1ccc(-c2c3nc(c(-c4cc(S(=O)(=O)[O-])ccc4F)c4ccc([nH]4)c(-c4cc(S(=O)(=O)[O-])ccc4F)c4nc(c(-c5cc(S(=O)(=O)[O-])ccc5F)c5ccc2[nH]5)C=C4)C=C3)cc1
REMARK SMILES IDX 24 1 23 2 22 3 21 4 19 5 20 6 18 7 17 8 16 9 11 10 12 11
REMARK SMILES IDX 13 12 15 13 14 14 9 15 10 16 4 17 2 18 1 19 3 20 5 21 6 22
REMARK SMILES IDX 7 23 8 24 25 25 26 26 27 27 28 28 29 29 30 30 31 31 32 32
REMARK SMILES IDX 33 33 34 34 95 35 35 36 94 37 36 38 37 39 38 40 88 41 39 42
REMARK SMILES IDX 93 43 87 44 89 45 40 46 92 47 86 48 85 49 41 51 73 52 53 53
REMARK SMILES IDX 72 54 54 55 57 56 71 57 90 58 55 59 56 60 70 62 91 63 58 64
REMARK SMILES IDX 42 65 43 66 51 67 44 68 50 69 52 70 49 71 45 72 46 73 47 74
REMARK SMILES IDX 48 75 74 76 75 77 83 78 76 79 82 80 84 81 81 82 77 83 78 84
REMARK SMILES IDX 79 85 80 86 59 87 60 88 68 89 61 90 67 91 69 92 66 93 62 94
REMARK SMILES IDX 63 95 64 96 65 97
REMARK H PARENT 89 50 57 61
REMARK Flexibility Score: inf
ROOT
ATOM      1  O   UNL A   1      36.805  32.412  28.321  1.00  0.00    -0.376 OA
ENDROOT
BRANCH   1   2
ATOM      2  C   UNL A   1      37.068  31.042  28.578  1.00  0.00     0.202 C 
BRANCH   2   3
ATOM      3  C   UNL A   1      36.009  29.929  28.722  1.00  0.00     0.261 C 
BRANCH   3   4
ATOM      4  O   UNL A   1      35.250  29.606  27.561  1.00  0.00    -0.460 OA
BRANCH   4   5
ATOM      5  C   UNL A   1      34.044  30.213  27.412  1.00  0.00     0.330 C 
ATOM      6  O   UNL A   1      33.819  31.412  27.489  1.00  0.00    -0.247 OA
BRANCH   5   7
ATOM      7  C   UNL A   1      33.052  29.231  26.901  1.00  0.00     0.094 C 
ATOM      8  C   UNL A   1      32.712  29.216  25.599  1.00  0.00     0.018 C 
BRANCH   8   9
ATOM      9  C   UNL A   1      31.459  28.687  24.993  1.00  0.00     0.006 A 
ATOM     10  C   UNL A   1      31.144  27.297  24.904  1.00  0.00     0.050 A 
ATOM     11  C   UNL A   1      30.291  26.898  23.867  1.00  0.00     0.034 A 
ATOM     12  C   UNL A   1      29.592  27.853  23.144  1.00  0.00     0.112 A 
ATOM     13  C   UNL A   1      30.671  29.553  24.223  1.00  0.00     0.119 A 
ATOM     14  N   UNL A   1      29.736  29.170  23.326  1.00  0.00    -0.264 NA
BRANCH  10  15
ATOM     15  C   UNL A   1      31.668  26.292  25.920  1.00  0.00     0.254 C 
ATOM     16  O   UNL A   1      31.238  26.388  27.071  1.00  0.00    -0.269 OA
BRANCH  15  17
ATOM     17  N   UNL A   1      32.569  25.215  25.641  1.00  0.00    -0.335 N 
BRANCH  17  18
ATOM     18  C   UNL A   1      33.833  25.581  24.932  1.00  0.00     0.079 C 
ATOM     19  C   UNL A   1      35.070  24.802  25.413  1.00  0.00     0.031 C 
ATOM     20  C   UNL A   1      33.699  25.526  23.408  1.00  0.00     0.031 C 
ENDBRANCH  17  18
BRANCH  17  21
ATOM     21  C   UNL A   1      32.473  23.793  26.076  1.00  0.00     0.135 C 
BRANCH  21  22
ATOM     22  C   UNL A   1      31.233  22.986  25.650  1.00  0.00     0.141 C 
BRANCH  22  23
ATOM     23  C   UNL A   1      30.234  22.909  26.794  1.00  0.00     0.064 C 
ATOM     24  N   UNL A   1      29.407  22.846  27.742  1.00  0.00    -0.198 NA
ENDBRANCH  22  23
ENDBRANCH  21  22
ENDBRANCH  17  21
ENDBRANCH  15  17
ENDBRANCH  10  15
ENDBRANCH   8   9
ENDBRANCH   5   7
ENDBRANCH   4   5
ENDBRANCH   3   4
ENDBRANCH   2   3
ENDBRANCH   1   2
BRANCH   1  25
ATOM     25  C   UNL A   1      36.509  33.313  29.368  1.00  0.00     0.188 C 
BRANCH  25  26
ATOM     26  C   UNL A   1      35.203  34.122  29.296  1.00  0.00     0.188 C 
BRANCH  26  27
ATOM     27  O   UNL A   1      34.167  33.765  30.178  1.00  0.00    -0.376 OA
BRANCH  27  28
ATOM     28  C   UNL A   1      34.271  34.069  31.558  1.00  0.00     0.202 C 
BRANCH  28  29
ATOM     29  C   UNL A   1      34.549  33.072  32.704  1.00  0.00     0.261 C 
BRANCH  29  30
ATOM     30  O   UNL A   1      35.702  32.232  32.627  1.00  0.00    -0.460 OA
BRANCH  30  31
ATOM     31  C   UNL A   1      36.583  32.351  33.653  1.00  0.00     0.338 C 
ATOM     32  O   UNL A   1      36.361  32.805  34.762  1.00  0.00    -0.246 OA
BRANCH  31  33
ATOM     33  C   UNL A   1      37.842  31.678  33.278  1.00  0.00     0.060 A 
ATOM     34  C   UNL A   1      38.166  30.461  33.891  1.00  0.00     0.016 A 
ATOM     35  C   UNL A   1      38.711  32.262  32.356  1.00  0.00     0.016 A 
ATOM     36  C   UNL A   1      39.377  29.831  33.595  1.00  0.00     0.010 A 
ATOM     37  C   UNL A   1      39.932  31.639  32.075  1.00  0.00     0.010 A 
ATOM     38  C   UNL A   1      40.282  30.433  32.711  1.00  0.00    -0.014 A 
BRANCH  38  39
ATOM     39  C   UNL A   1      41.659  29.890  32.571  1.00  0.00     0.031 A 
ATOM     40  C   UNL A   1      41.954  28.960  31.425  1.00  0.00     0.074 A 
ATOM     41  C   UNL A   1      42.633  30.223  33.438  1.00  0.00     0.049 A 
ATOM     42  N   UNL A   1      43.050  28.303  31.146  1.00  0.00    -0.248 NA
ATOM     43  C   UNL A   1      40.857  28.738  30.469  1.00  0.00     0.031 C 
ATOM     44  C   UNL A   1      42.485  31.153  34.556  1.00  0.00     0.029 A 
ATOM     45  N   UNL A   1      43.940  29.808  33.517  1.00  0.00    -0.354 N 
ATOM     46  C   UNL A   1      42.778  27.588  29.984  1.00  0.00     0.074 A 
ATOM     47  C   UNL A   1      41.398  27.861  29.638  1.00  0.00     0.031 C 
ATOM     48  C   UNL A   1      43.654  31.227  35.218  1.00  0.00     0.029 A 
ATOM     49  C   UNL A   1      44.618  30.318  34.601  1.00  0.00     0.049 A 
ATOM     50  H   UNL A   1      44.353  29.202  32.860  1.00  0.00     0.167 HD
ATOM     51  C   UNL A   1      43.604  26.784  29.270  1.00  0.00     0.034 A 
ATOM     52  C   UNL A   1      45.861  30.056  35.057  1.00  0.00     0.034 A 
ATOM     53  C   UNL A   1      44.971  26.508  29.638  1.00  0.00     0.049 A 
ATOM     54  C   UNL A   1      46.730  29.075  34.303  1.00  0.00     0.074 A 
ATOM     55  C   UNL A   1      45.895  25.714  28.982  1.00  0.00     0.029 A 
ATOM     56  N   UNL A   1      45.610  27.006  30.767  1.00  0.00    -0.354 N 
ATOM     57  N   UNL A   1      46.463  28.406  33.203  1.00  0.00    -0.248 NA
ATOM     58  C   UNL A   1      48.071  28.820  34.845  1.00  0.00     0.031 C 
ATOM     59  C   UNL A   1      47.061  25.666  29.754  1.00  0.00     0.029 A 
ATOM     60  C   UNL A   1      46.901  26.505  30.844  1.00  0.00     0.049 A 
ATOM     61  H   UNL A   1      45.204  27.623  31.418  1.00  0.00     0.167 HD
ATOM     62  C   UNL A   1      47.617  27.683  32.907  1.00  0.00     0.074 A 
ATOM     63  C   UNL A   1      48.584  28.008  33.932  1.00  0.00     0.031 C 
ATOM     64  C   UNL A   1      47.858  26.832  31.876  1.00  0.00     0.034 A 
BRANCH  51  65
ATOM     65  C   UNL A   1      43.028  26.105  28.050  1.00  0.00     0.023 A 
ATOM     66  C   UNL A   1      42.501  24.802  28.105  1.00  0.00     0.031 A 
ATOM     67  C   UNL A   1      43.021  26.766  26.809  1.00  0.00     0.131 A 
ATOM     68  C   UNL A   1      42.051  24.179  26.931  1.00  0.00     0.055 A 
ATOM     69  C   UNL A   1      42.496  26.172  25.661  1.00  0.00     0.041 A 
ATOM     70  F   UNL A   1      43.534  28.001  26.689  1.00  0.00    -0.206 F 
ATOM     71  C   UNL A   1      42.019  24.865  25.714  1.00  0.00     0.022 A 
BRANCH  68  72
ATOM     72  S   UNL A   1      41.634  22.414  26.988  1.00  0.00     0.124 S 
ATOM     73  O   UNL A   1      42.674  21.894  27.873  1.00  0.00    -0.237 OA
ATOM     74  O   UNL A   1      40.281  22.426  27.531  1.00  0.00    -0.237 OA
ATOM     75  O   UNL A   1      41.744  21.990  25.594  1.00  0.00    -0.744 OA
ENDBRANCH  68  72
ENDBRANCH  51  65
BRANCH  52  76
ATOM     76  C   UNL A   1      46.355  30.681  36.321  1.00  0.00     0.023 A 
ATOM     77  C   UNL A   1      46.162  30.061  37.566  1.00  0.00     0.031 A 
ATOM     78  C   UNL A   1      46.959  31.952  36.308  1.00  0.00     0.131 A 
ATOM     79  C   UNL A   1      46.515  30.735  38.747  1.00  0.00     0.055 A 
ATOM     80  C   UNL A   1      47.368  32.589  37.480  1.00  0.00     0.041 A 
ATOM     81  F   UNL A   1      47.159  32.598  35.148  1.00  0.00    -0.206 F 
ATOM     82  C   UNL A   1      47.131  31.988  38.712  1.00  0.00     0.022 A 
BRANCH  79  83
ATOM     83  S   UNL A   1      46.048  30.000  40.340  1.00  0.00     0.124 S 
ATOM     84  O   UNL A   1      46.078  31.161  41.221  1.00  0.00    -0.237 OA
ATOM     85  O   UNL A   1      44.728  29.453  40.046  1.00  0.00    -0.237 OA
ATOM     86  O   UNL A   1      47.094  29.008  40.576  1.00  0.00    -0.744 OA
ENDBRANCH  79  83
ENDBRANCH  52  76
BRANCH  64  87
ATOM     87  C   UNL A   1      49.246  26.241  31.774  1.00  0.00     0.023 A 
ATOM     88  C   UNL A   1      49.606  25.059  32.446  1.00  0.00     0.031 A 
ATOM     89  C   UNL A   1      50.226  26.876  30.989  1.00  0.00     0.131 A 
ATOM     90  C   UNL A   1      50.924  24.582  32.367  1.00  0.00     0.055 A 
ATOM     91  C   UNL A   1      51.517  26.360  30.860  1.00  0.00     0.041 A 
ATOM     92  F   UNL A   1      49.943  28.008  30.325  1.00  0.00    -0.206 F 
ATOM     93  C   UNL A   1      51.876  25.214  31.563  1.00  0.00     0.022 A 
BRANCH  90  94
ATOM     94  S   UNL A   1      51.409  23.177  33.407  1.00  0.00     0.124 S 
ATOM     95  O   UNL A   1      51.136  23.684  34.748  1.00  0.00    -0.237 OA
ATOM     96  O   UNL A   1      50.524  22.118  32.933  1.00  0.00    -0.237 OA
ATOM     97  O   UNL A   1      52.824  22.988  33.091  1.00  0.00    -0.744 OA
ENDBRANCH  90  94
ENDBRANCH  64  87
ENDBRANCH  38  39
ENDBRANCH  31  33
ENDBRANCH  30  31
ENDBRANCH  29  30
ENDBRANCH  28  29
ENDBRANCH  27  28
ENDBRANCH  26  27
ENDBRANCH  25  26
ENDBRANCH   1  25
TORSDOF 27
ENDMDL
MODEL 2
REMARK VINA RESULT:      -8.0      3.310     10.884
REMARK SMILES CC(C)N(CCC#N)C(=O)c1ccncc1/C=C/C(=O)OCCOCCOCCOC(=O)c1ccc(-c2c3nc(c(-c4cc(S(=O)(=O)[O-])ccc4F)c4ccc([nH]4)c(-c4cc(S(=O)(=O)[O-])ccc4F)c4nc(c(-c5cc(S(=O)(=O)[O-])ccc5F)c5ccc2[nH]5)C=C4)C=C3)cc1
REMARK SMILES IDX 24 1 23 2 22 3 21 4 19 5 20 6 18 7 17 8 16 9 11 10 12 11
REMARK SMILES IDX 13 12 15 13 14 14 9 15 10 16 4 17 2 18 1 19 3 20 5 21 6 22
REMARK SMILES IDX 7 23 8 24 25 25 26 26 27 27 28 28 29 29 30 30 31 31 32 32
REMARK SMILES IDX 33 33 34 34 95 35 35 36 94 37 36 38 37 39 38 40 88 41 39 42
REMARK SMILES IDX 93 43 87 44 89 45 40 46 92 47 86 48 85 49 41 51 73 52 53 53
REMARK SMILES IDX 72 54 54 55 57 56 71 57 90 58 55 59 56 60 70 62 91 63 58 64
REMARK SMILES IDX 42 65 43 66 51 67 44 68 50 69 52 70 49 71 45 72 46 73 47 74
REMARK SMILES IDX 48 75 74 76 75 77 83 78 76 79 82 80 84 81 81 82 77 83 78 84
REMARK SMILES IDX 79 85 80 86 59 87 60 88 68 89 61 90 67 91 69 92 66 93 62 94
REMARK SMILES IDX 63 95 64 96 65 97
REMARK H PARENT 89 50 57 61
REMARK Flexibility Score: inf
ROOT
ATOM      1  O   UNL A   1      38.983  22.563  26.742  1.00  0.00    -0.376 OA
ENDROOT
BRANCH   1   2
ATOM      2  C   UNL A   1      37.911  22.472  25.817  1.00  0.00     0.202 C 
BRANCH   2   3
ATOM      3  C   UNL A   1      37.382  21.176  25.168  1.00  0.00     0.261 C 
BRANCH   3   4
ATOM      4  O   UNL A   1      36.353  21.315  24.193  1.00  0.00    -0.460 OA
BRANCH   4   5
ATOM      5  C   UNL A   1      36.152  22.551  23.667  1.00  0.00     0.330 C 
ATOM      6  O   UNL A   1      36.985  23.249  23.109  1.00  0.00    -0.247 OA
BRANCH   5   7
ATOM      7  C   UNL A   1      34.697  22.854  23.651  1.00  0.00     0.094 C 
ATOM      8  C   UNL A   1      34.140  23.594  24.628  1.00  0.00     0.018 C 
BRANCH   8   9
ATOM      9  C   UNL A   1      32.714  23.609  25.057  1.00  0.00     0.006 A 
ATOM     10  C   UNL A   1      31.883  24.769  25.013  1.00  0.00     0.050 A 
ATOM     11  C   UNL A   1      30.819  24.829  25.922  1.00  0.00     0.034 A 
ATOM     12  C   UNL A   1      30.453  23.694  26.631  1.00  0.00     0.112 A 
ATOM     13  C   UNL A   1      32.227  22.522  25.796  1.00  0.00     0.119 A 
ATOM     14  N   UNL A   1      31.111  22.533  26.557  1.00  0.00    -0.264 NA
BRANCH  10  15
ATOM     15  C   UNL A   1      32.107  25.875  23.992  1.00  0.00     0.254 C 
ATOM     16  O   UNL A   1      31.781  25.633  22.829  1.00  0.00    -0.269 OA
BRANCH  15  17
ATOM     17  N   UNL A   1      32.608  27.186  24.276  1.00  0.00    -0.335 N 
BRANCH  17  18
ATOM     18  C   UNL A   1      32.225  28.259  23.309  1.00  0.00     0.079 C 
ATOM     19  C   UNL A   1      31.000  29.085  23.741  1.00  0.00     0.031 C 
ATOM     20  C   UNL A   1      33.400  29.164  22.927  1.00  0.00     0.031 C 
ENDBRANCH  17  18
BRANCH  17  21
ATOM     21  C   UNL A   1      33.357  27.650  25.478  1.00  0.00     0.135 C 
BRANCH  21  22
ATOM     22  C   UNL A   1      32.549  28.077  26.717  1.00  0.00     0.141 C 
BRANCH  22  23
ATOM     23  C   UNL A   1      32.880  29.512  27.094  1.00  0.00     0.064 C 
ATOM     24  N   UNL A   1      33.154  30.702  27.407  1.00  0.00    -0.198 NA
ENDBRANCH  22  23
ENDBRANCH  21  22
ENDBRANCH  17  21
ENDBRANCH  15  17
ENDBRANCH  10  15
ENDBRANCH   8   9
ENDBRANCH   5   7
ENDBRANCH   4   5
ENDBRANCH   3   4
ENDBRANCH   2   3
ENDBRANCH   1   2
BRANCH   1  25
ATOM     25  C   UNL A   1      39.757  23.738  26.855  1.00  0.00     0.188 C 
BRANCH  25  26
ATOM     26  C   UNL A   1      41.273  23.648  26.609  1.00  0.00     0.188 C 
BRANCH  26  27
ATOM     27  O   UNL A   1      41.768  22.468  26.023  1.00  0.00    -0.376 OA
BRANCH  27  28
ATOM     28  C   UNL A   1      43.087  22.429  25.508  1.00  0.00     0.202 C 
BRANCH  28  29
ATOM     29  C   UNL A   1      44.279  23.303  25.957  1.00  0.00     0.261 C 
BRANCH  29  30
ATOM     30  O   UNL A   1      44.949  22.987  27.179  1.00  0.00    -0.460 OA
BRANCH  30  31
ATOM     31  C   UNL A   1      45.987  23.797  27.504  1.00  0.00     0.338 C 
ATOM     32  O   UNL A   1      47.068  23.865  26.944  1.00  0.00    -0.246 OA
BRANCH  31  33
ATOM     33  C   UNL A   1      45.549  24.731  28.560  1.00  0.00     0.060 A 
ATOM     34  C   UNL A   1      44.667  24.271  29.545  1.00  0.00     0.016 A 
ATOM     35  C   UNL A   1      45.977  26.058  28.554  1.00  0.00     0.016 A 
ATOM     36  C   UNL A   1      44.193  25.147  30.523  1.00  0.00     0.010 A 
ATOM     37  C   UNL A   1      45.486  26.941  29.524  1.00  0.00     0.010 A 
ATOM     38  C   UNL A   1      44.574  26.496  30.498  1.00  0.00    -0.014 A 
BRANCH  38  39
ATOM     39  C   UNL A   1      43.898  27.477  31.388  1.00  0.00     0.031 A 
ATOM     40  C   UNL A   1      44.524  27.792  32.721  1.00  0.00     0.074 A 
ATOM     41  C   UNL A   1      42.756  28.085  31.017  1.00  0.00     0.049 A 
ATOM     42  N   UNL A   1      44.080  28.547  33.691  1.00  0.00    -0.248 NA
ATOM     43  C   UNL A   1      45.825  27.160  32.993  1.00  0.00     0.031 C 
ATOM     44  C   UNL A   1      42.082  27.903  29.733  1.00  0.00     0.029 A 
ATOM     45  N   UNL A   1      41.958  28.975  31.693  1.00  0.00    -0.354 N 
ATOM     46  C   UNL A   1      45.044  28.483  34.692  1.00  0.00     0.074 A 
ATOM     47  C   UNL A   1      46.075  27.580  34.224  1.00  0.00     0.031 C 
ATOM     48  C   UNL A   1      40.962  28.649  29.720  1.00  0.00     0.029 A 
ATOM     49  C   UNL A   1      40.816  29.324  31.008  1.00  0.00     0.049 A 
ATOM     50  H   UNL A   1      42.181  29.329  32.585  1.00  0.00     0.167 HD
ATOM     51  C   UNL A   1      45.070  29.123  35.887  1.00  0.00     0.034 A 
ATOM     52  C   UNL A   1      39.762  30.076  31.391  1.00  0.00     0.034 A 
ATOM     53  C   UNL A   1      44.027  30.007  36.346  1.00  0.00     0.049 A 
ATOM     54  C   UNL A   1      39.764  30.697  32.770  1.00  0.00     0.074 A 
ATOM     55  C   UNL A   1      43.957  30.711  37.537  1.00  0.00     0.029 A 
ATOM     56  N   UNL A   1      42.864  30.302  35.646  1.00  0.00    -0.354 N 
ATOM     57  N   UNL A   1      40.683  30.631  33.708  1.00  0.00    -0.248 NA
ATOM     58  C   UNL A   1      38.591  31.500  33.139  1.00  0.00     0.031 C 
ATOM     59  C   UNL A   1      42.721  31.362  37.591  1.00  0.00     0.029 A 
ATOM     60  C   UNL A   1      42.056  31.144  36.395  1.00  0.00     0.049 A 
ATOM     61  H   UNL A   1      42.645  29.961  34.748  1.00  0.00     0.167 HD
ATOM     62  C   UNL A   1      40.211  31.415  34.759  1.00  0.00     0.074 A 
ATOM     63  C   UNL A   1      38.936  31.954  34.335  1.00  0.00     0.031 C 
ATOM     64  C   UNL A   1      40.782  31.673  35.964  1.00  0.00     0.034 A 
BRANCH  51  65
ATOM     65  C   UNL A   1      46.240  28.843  36.800  1.00  0.00     0.023 A 
ATOM     66  C   UNL A   1      46.205  27.815  37.759  1.00  0.00     0.031 A 
ATOM     67  C   UNL A   1      47.404  29.628  36.720  1.00  0.00     0.131 A 
ATOM     68  C   UNL A   1      47.283  27.643  38.640  1.00  0.00     0.055 A 
ATOM     69  C   UNL A   1      48.506  29.399  37.545  1.00  0.00     0.041 A 
ATOM     70  F   UNL A   1      47.487  30.641  35.842  1.00  0.00    -0.206 F 
ATOM     71  C   UNL A   1      48.444  28.409  38.522  1.00  0.00     0.022 A 
BRANCH  68  72
ATOM     72  S   UNL A   1      47.092  26.494  40.032  1.00  0.00     0.124 S 
ATOM     73  O   UNL A   1      45.870  25.783  39.663  1.00  0.00    -0.237 OA
ATOM     74  O   UNL A   1      48.325  25.718  39.973  1.00  0.00    -0.237 OA
ATOM     75  O   UNL A   1      46.964  27.377  41.190  1.00  0.00    -0.744 OA
ENDBRANCH  68  72
ENDBRANCH  51  65
BRANCH  52  76
ATOM     76  C   UNL A   1      38.584  30.250  30.489  1.00  0.00     0.023 A 
ATOM     77  C   UNL A   1      38.231  31.513  29.985  1.00  0.00     0.031 A 
ATOM     78  C   UNL A   1      37.744  29.164  30.182  1.00  0.00     0.131 A 
ATOM     79  C   UNL A   1      37.042  31.669  29.253  1.00  0.00     0.055 A 
ATOM     80  C   UNL A   1      36.598  29.312  29.399  1.00  0.00     0.041 A 
ATOM     81  F   UNL A   1      38.025  27.935  30.646  1.00  0.00    -0.206 F 
ATOM     82  C   UNL A   1      36.232  30.575  28.943  1.00  0.00     0.022 A 
BRANCH  79  83
ATOM     83  S   UNL A   1      36.507  33.346  28.812  1.00  0.00     0.124 S 
ATOM     84  O   UNL A   1      35.618  33.673  29.921  1.00  0.00    -0.237 OA
ATOM     85  O   UNL A   1      37.774  34.068  28.771  1.00  0.00    -0.237 OA
ATOM     86  O   UNL A   1      35.853  33.164  27.519  1.00  0.00    -0.744 OA
ENDBRANCH  79  83
ENDBRANCH  52  76
BRANCH  64  87
ATOM     87  C   UNL A   1      40.059  32.629  36.886  1.00  0.00     0.023 A 
ATOM     88  C   UNL A   1      39.103  32.189  37.819  1.00  0.00     0.031 A 
ATOM     89  C   UNL A   1      40.333  34.008  36.825  1.00  0.00     0.131 A 
ATOM     90  C   UNL A   1      38.415  33.122  38.611  1.00  0.00     0.055 A 
ATOM     91  C   UNL A   1      39.695  34.925  37.663  1.00  0.00     0.041 A 
ATOM     92  F   UNL A   1      41.234  34.489  35.954  1.00  0.00    -0.206 F 
ATOM     93  C   UNL A   1      38.719  34.485  38.552  1.00  0.00     0.022 A 
BRANCH  90  94
ATOM     94  S   UNL A   1      37.048  32.545  39.653  1.00  0.00     0.124 S 
ATOM     95  O   UNL A   1      35.891  32.787  38.796  1.00  0.00    -0.237 OA
ATOM     96  O   UNL A   1      37.394  31.145  39.876  1.00  0.00    -0.237 OA
ATOM     97  O   UNL A   1      37.132  33.400  40.836  1.00  0.00    -0.744 OA
ENDBRANCH  90  94
ENDBRANCH  64  87
ENDBRANCH  38  39
ENDBRANCH  31  33
ENDBRANCH  30  31
ENDBRANCH  29  30
ENDBRANCH  28  29
ENDBRANCH  27  28
ENDBRANCH  26  27
ENDBRANCH  25  26
ENDBRANCH   1  25
TORSDOF 27
ENDMDL
MODEL 3
REMARK VINA RESULT:      -7.7      5.752      8.649
REMARK SMILES CC(C)N(CCC#N)C(=O)c1ccncc1/C=C/C(=O)OCCOCCOCCOC(=O)c1ccc(-c2c3nc(c(-c4cc(S(=O)(=O)[O-])ccc4F)c4ccc([nH]4)c(-c4cc(S(=O)(=O)[O-])ccc4F)c4nc(c(-c5cc(S(=O)(=O)[O-])ccc5F)c5ccc2[nH]5)C=C4)C=C3)cc1
REMARK SMILES IDX 24 1 23 2 22 3 21 4 19 5 20 6 18 7 17 8 16 9 11 10 12 11
REMARK SMILES IDX 13 12 15 13 14 14 9 15 10 16 4 17 2 18 1 19 3 20 5 21 6 22
REMARK SMILES IDX 7 23 8 24 25 25 26 26 27 27 28 28 29 29 30 30 31 31 32 32
REMARK SMILES IDX 33 33 34 34 95 35 35 36 94 37 36 38 37 39 38 40 88 41 39 42
REMARK SMILES IDX 93 43 87 44 89 45 40 46 92 47 86 48 85 49 41 51 73 52 53 53
REMARK SMILES IDX 72 54 54 55 57 56 71 57 90 58 55 59 56 60 70 62 91 63 58 64
REMARK SMILES IDX 42 65 43 66 51 67 44 68 50 69 52 70 49 71 45 72 46 73 47 74
REMARK SMILES IDX 48 75 74 76 75 77 83 78 76 79 82 80 84 81 81 82 77 83 78 84
REMARK SMILES IDX 79 85 80 86 59 87 60 88 68 89 61 90 67 91 69 92 66 93 62 94
REMARK SMILES IDX 63 95 64 96 65 97
REMARK H PARENT 89 50 57 61
REMARK Flexibility Score: inf
ROOT
ATOM      1  O   UNL A   1      39.140  28.595  27.632  1.00  0.00    -0.376 OA
ENDROOT
BRANCH   1   2
ATOM      2  C   UNL A   1      37.908  28.656  28.332  1.00  0.00     0.202 C 
BRANCH   2   3
ATOM      3  C   UNL A   1      36.747  29.630  28.038  1.00  0.00     0.261 C 
BRANCH   3   4
ATOM      4  O   UNL A   1      35.523  29.057  27.586  1.00  0.00    -0.460 OA
BRANCH   4   5
ATOM      5  C   UNL A   1      34.461  29.890  27.437  1.00  0.00     0.330 C 
ATOM      6  O   UNL A   1      34.487  31.111  27.434  1.00  0.00    -0.247 OA
BRANCH   5   7
ATOM      7  C   UNL A   1      33.265  29.103  27.035  1.00  0.00     0.094 C 
ATOM      8  C   UNL A   1      33.038  28.817  25.739  1.00  0.00     0.018 C 
BRANCH   8   9
ATOM      9  C   UNL A   1      31.735  28.491  25.094  1.00  0.00     0.006 A 
ATOM     10  C   UNL A   1      31.270  27.160  24.871  1.00  0.00     0.050 A 
ATOM     11  C   UNL A   1      30.381  26.962  23.807  1.00  0.00     0.034 A 
ATOM     12  C   UNL A   1      29.792  28.055  23.189  1.00  0.00     0.112 A 
ATOM     13  C   UNL A   1      31.049  29.511  24.421  1.00  0.00     0.119 A 
ATOM     14  N   UNL A   1      30.079  29.324  23.500  1.00  0.00    -0.264 NA
BRANCH  10  15
ATOM     15  C   UNL A   1      31.680  26.008  25.777  1.00  0.00     0.254 C 
ATOM     16  O   UNL A   1      31.480  26.151  26.985  1.00  0.00    -0.269 OA
BRANCH  15  17
ATOM     17  N   UNL A   1      32.220  24.755  25.344  1.00  0.00    -0.335 N 
BRANCH  17  18
ATOM     18  C   UNL A   1      33.550  24.812  24.664  1.00  0.00     0.079 C 
ATOM     19  C   UNL A   1      33.476  25.187  23.173  1.00  0.00     0.031 C 
ATOM     20  C   UNL A   1      34.563  25.686  25.408  1.00  0.00     0.031 C 
ENDBRANCH  17  18
BRANCH  17  21
ATOM     21  C   UNL A   1      31.691  23.384  25.592  1.00  0.00     0.135 C 
BRANCH  21  22
ATOM     22  C   UNL A   1      32.674  22.304  26.080  1.00  0.00     0.141 C 
BRANCH  22  23
ATOM     23  C   UNL A   1      32.390  20.980  25.389  1.00  0.00     0.064 C 
ATOM     24  N   UNL A   1      32.155  19.883  24.815  1.00  0.00    -0.198 NA
ENDBRANCH  22  23
ENDBRANCH  21  22
ENDBRANCH  17  21
ENDBRANCH  15  17
ENDBRANCH  10  15
ENDBRANCH   8   9
ENDBRANCH   5   7
ENDBRANCH   4   5
ENDBRANCH   3   4
ENDBRANCH   2   3
ENDBRANCH   1   2
BRANCH   1  25
ATOM     25  C   UNL A   1      39.982  27.465  27.725  1.00  0.00     0.188 C 
BRANCH  25  26
ATOM     26  C   UNL A   1      39.340  26.067  27.732  1.00  0.00     0.188 C 
BRANCH  26  27
ATOM     27  O   UNL A   1      40.025  25.033  27.068  1.00  0.00    -0.376 OA
BRANCH  27  28
ATOM     28  C   UNL A   1      39.623  23.686  27.244  1.00  0.00     0.202 C 
BRANCH  28  29
ATOM     29  C   UNL A   1      40.506  22.430  27.073  1.00  0.00     0.261 C 
BRANCH  29  30
ATOM     30  O   UNL A   1      41.026  22.120  25.779  1.00  0.00    -0.460 OA
BRANCH  30  31
ATOM     31  C   UNL A   1      42.306  21.672  25.753  1.00  0.00     0.338 C 
ATOM     32  O   UNL A   1      42.683  20.540  25.502  1.00  0.00    -0.246 OA
BRANCH  31  33
ATOM     33  C   UNL A   1      43.215  22.824  25.913  1.00  0.00     0.060 A 
ATOM     34  C   UNL A   1      44.129  22.821  26.975  1.00  0.00     0.016 A 
ATOM     35  C   UNL A   1      43.140  23.912  25.044  1.00  0.00     0.016 A 
ATOM     36  C   UNL A   1      44.962  23.923  27.182  1.00  0.00     0.010 A 
ATOM     37  C   UNL A   1      43.963  25.023  25.264  1.00  0.00     0.010 A 
ATOM     38  C   UNL A   1      44.860  25.044  26.348  1.00  0.00    -0.014 A 
BRANCH  38  39
ATOM     39  C   UNL A   1      45.573  26.300  26.699  1.00  0.00     0.031 A 
ATOM     40  C   UNL A   1      46.947  26.534  26.130  1.00  0.00     0.074 A 
ATOM     41  C   UNL A   1      45.009  27.223  27.501  1.00  0.00     0.049 A 
ATOM     42  N   UNL A   1      47.788  27.508  26.355  1.00  0.00    -0.248 NA
ATOM     43  C   UNL A   1      47.437  25.521  25.180  1.00  0.00     0.031 C 
ATOM     44  C   UNL A   1      43.667  27.136  28.072  1.00  0.00     0.029 A 
ATOM     45  N   UNL A   1      45.503  28.412  27.980  1.00  0.00    -0.354 N 
ATOM     46  C   UNL A   1      48.909  27.230  25.579  1.00  0.00     0.074 A 
ATOM     47  C   UNL A   1      48.652  25.971  24.910  1.00  0.00     0.031 C 
ATOM     48  C   UNL A   1      43.448  28.222  28.837  1.00  0.00     0.029 A 
ATOM     49  C   UNL A   1      44.649  29.056  28.846  1.00  0.00     0.049 A 
ATOM     50  H   UNL A   1      46.385  28.770  27.727  1.00  0.00     0.167 HD
ATOM     51  C   UNL A   1      50.043  27.960  25.434  1.00  0.00     0.034 A 
ATOM     52  C   UNL A   1      44.829  30.172  29.584  1.00  0.00     0.034 A 
ATOM     53  C   UNL A   1      50.290  29.203  26.121  1.00  0.00     0.049 A 
ATOM     54  C   UNL A   1      46.143  30.914  29.485  1.00  0.00     0.074 A 
ATOM     55  C   UNL A   1      51.401  30.025  26.040  1.00  0.00     0.029 A 
ATOM     56  N   UNL A   1      49.422  29.802  27.025  1.00  0.00    -0.354 N 
ATOM     57  N   UNL A   1      47.196  30.643  28.745  1.00  0.00    -0.248 NA
ATOM     58  C   UNL A   1      46.291  32.118  30.314  1.00  0.00     0.031 C 
ATOM     59  C   UNL A   1      51.241  31.072  26.953  1.00  0.00     0.029 A 
ATOM     60  C   UNL A   1      49.989  30.960  27.537  1.00  0.00     0.049 A 
ATOM     61  H   UNL A   1      48.533  29.454  27.269  1.00  0.00     0.167 HD
ATOM     62  C   UNL A   1      48.110  31.664  28.995  1.00  0.00     0.074 A 
ATOM     63  C   UNL A   1      47.482  32.562  29.940  1.00  0.00     0.031 C 
ATOM     64  C   UNL A   1      49.356  31.848  28.484  1.00  0.00     0.034 A 
BRANCH  51  65
ATOM     65  C   UNL A   1      51.120  27.398  24.537  1.00  0.00     0.023 A 
ATOM     66  C   UNL A   1      51.175  27.699  23.164  1.00  0.00     0.031 A 
ATOM     67  C   UNL A   1      52.098  26.535  25.061  1.00  0.00     0.131 A 
ATOM     68  C   UNL A   1      52.145  27.091  22.353  1.00  0.00     0.055 A 
ATOM     69  C   UNL A   1      53.110  25.997  24.264  1.00  0.00     0.041 A 
ATOM     70  F   UNL A   1      52.082  26.190  26.358  1.00  0.00    -0.206 F 
ATOM     71  C   UNL A   1      53.130  26.264  22.898  1.00  0.00     0.022 A 
BRANCH  68  72
ATOM     72  S   UNL A   1      52.019  27.287  20.554  1.00  0.00     0.124 S 
ATOM     73  O   UNL A   1      53.022  28.318  20.298  1.00  0.00    -0.237 OA
ATOM     74  O   UNL A   1      52.338  25.950  20.067  1.00  0.00    -0.237 OA
ATOM     75  O   UNL A   1      50.635  27.711  20.351  1.00  0.00    -0.744 OA
ENDBRANCH  68  72
ENDBRANCH  51  65
BRANCH  52  76
ATOM     76  C   UNL A   1      43.770  30.640  30.528  1.00  0.00     0.023 A 
ATOM     77  C   UNL A   1      42.830  31.611  30.146  1.00  0.00     0.031 A 
ATOM     78  C   UNL A   1      43.733  30.178  31.857  1.00  0.00     0.131 A 
ATOM     79  C   UNL A   1      41.934  32.131  31.095  1.00  0.00     0.055 A 
ATOM     80  C   UNL A   1      42.798  30.650  32.779  1.00  0.00     0.041 A 
ATOM     81  F   UNL A   1      44.614  29.258  32.281  1.00  0.00    -0.206 F 
ATOM     82  C   UNL A   1      41.901  31.645  32.404  1.00  0.00     0.022 A 
BRANCH  79  83
ATOM     83  S   UNL A   1      40.889  33.538  30.624  1.00  0.00     0.124 S 
ATOM     84  O   UNL A   1      39.682  32.866  30.159  1.00  0.00    -0.237 OA
ATOM     85  O   UNL A   1      40.774  34.265  31.884  1.00  0.00    -0.237 OA
ATOM     86  O   UNL A   1      41.670  34.209  29.588  1.00  0.00    -0.744 OA
ENDBRANCH  79  83
ENDBRANCH  52  76
BRANCH  64  87
ATOM     87  C   UNL A   1      50.096  33.101  28.891  1.00  0.00     0.023 A 
ATOM     88  C   UNL A   1      49.995  34.300  28.162  1.00  0.00     0.031 A 
ATOM     89  C   UNL A   1      50.920  33.093  30.032  1.00  0.00     0.131 A 
ATOM     90  C   UNL A   1      50.749  35.420  28.547  1.00  0.00     0.055 A 
ATOM     91  C   UNL A   1      51.615  34.229  30.449  1.00  0.00     0.041 A 
ATOM     92  F   UNL A   1      51.058  31.978  30.768  1.00  0.00    -0.206 F 
ATOM     93  C   UNL A   1      51.543  35.398  29.697  1.00  0.00     0.022 A 
BRANCH  90  94
ATOM     94  S   UNL A   1      50.757  36.880  27.471  1.00  0.00     0.124 S 
ATOM     95  O   UNL A   1      49.403  36.863  26.926  1.00  0.00    -0.237 OA
ATOM     96  O   UNL A   1      51.054  37.958  28.409  1.00  0.00    -0.237 OA
ATOM     97  O   UNL A   1      51.816  36.590  26.506  1.00  0.00    -0.744 OA
ENDBRANCH  90  94
ENDBRANCH  64  87
ENDBRANCH  38  39
ENDBRANCH  31  33
ENDBRANCH  30  31
ENDBRANCH  29  30
ENDBRANCH  28  29
ENDBRANCH  27  28
ENDBRANCH  26  27
ENDBRANCH  25  26
ENDBRANCH   1  25
TORSDOF 27
ENDMDL
