MODEL 1
REMARK VINA RESULT:      -9.1      0.000      0.000
REMARK SMILES Cc1ccsc1/C=C/C(=O)NC[C@H](CC(C)C)C(=O)OCCOCCOCCOC(=O)c1ccc(-c2c3nc(c(-c4cc(S(=O)(=O)[O-])ccc4F)c4ccc([nH]4)c(-c4cc(S(=O)(=O)[O-])ccc4F)c4nc(c(-c5cc(S(=O)(=O)[O-])ccc5F)c5ccc2[nH]5)C=C4)C=C3)cc1
REMARK SMILES IDX 24 1 23 2 22 3 21 4 20 5 18 6 19 7 13 8 12 9 11 10 9 11
REMARK SMILES IDX 10 12 8 14 7 15 6 16 1 17 2 18 3 19 4 20 5 21 14 22 15 23
REMARK SMILES IDX 16 24 17 25 25 26 26 27 27 28 28 29 29 30 30 31 31 32 32 33
REMARK SMILES IDX 33 34 94 35 34 36 93 37 35 38 36 39 37 40 87 41 38 42 92 43
REMARK SMILES IDX 86 44 88 45 39 46 91 47 85 48 84 49 40 51 72 52 52 53 71 54
REMARK SMILES IDX 53 55 56 56 70 57 89 58 54 59 55 60 69 62 90 63 57 64 41 65
REMARK SMILES IDX 42 66 50 67 43 68 49 69 51 70 48 71 44 72 45 73 46 74 47 75
REMARK SMILES IDX 73 76 74 77 82 78 75 79 81 80 83 81 80 82 76 83 77 84 78 85
REMARK SMILES IDX 79 86 58 87 59 88 67 89 60 90 66 91 68 92 65 93 61 94 62 95
REMARK SMILES IDX 63 96 64 97
REMARK H PARENT 11 13 88 50 56 61
REMARK Flexibility Score: inf
ROOT
ATOM      1  C   UNL A   1      31.430  28.049  23.852  1.00  0.00     0.188 C 
ENDROOT
BRANCH   1   2
ATOM      2  O   UNL A   1      32.415  28.288  22.852  1.00  0.00    -0.376 OA
BRANCH   2   3
ATOM      3  C   UNL A   1      33.615  27.521  22.924  1.00  0.00     0.202 C 
BRANCH   3   4
ATOM      4  C   UNL A   1      33.499  26.090  23.470  1.00  0.00     0.261 C 
BRANCH   4   5
ATOM      5  O   UNL A   1      32.856  25.159  22.575  1.00  0.00    -0.463 OA
BRANCH   5   6
ATOM      6  C   UNL A   1      33.279  23.875  22.667  1.00  0.00     0.310 C 
ATOM      7  O   UNL A   1      34.290  23.444  22.120  1.00  0.00    -0.252 OA
BRANCH   6   8
ATOM      8  C   UNL A   1      32.439  22.992  23.578  1.00  0.00     0.118 C 
BRANCH   8   9
ATOM      9  C   UNL A   1      32.204  21.676  22.845  1.00  0.00     0.131 C 
BRANCH   9  10
ATOM     10  N   UNL A   1      32.029  20.488  23.646  1.00  0.00    -0.352 N 
ATOM     11  C   UNL A   1      32.721  20.107  24.756  1.00  0.00     0.244 C 
ATOM     12  O   UNL A   1      32.353  19.111  25.379  1.00  0.00    -0.270 OA
ATOM     13  H   UNL A   1      31.318  19.874  23.352  1.00  0.00     0.163 HD
BRANCH  11  14
ATOM     14  C   UNL A   1      33.936  20.832  25.247  1.00  0.00     0.072 C 
ATOM     15  C   UNL A   1      35.150  20.939  24.687  1.00  0.00     0.025 C 
BRANCH  15  16
ATOM     16  C   UNL A   1      36.262  21.671  25.208  1.00  0.00     0.030 A 
ATOM     17  C   UNL A   1      38.081  19.850  24.987  1.00  0.00     0.046 C 
ATOM     18  C   UNL A   1      37.582  21.223  25.321  1.00  0.00    -0.033 A 
ATOM     19  C   UNL A   1      38.456  22.256  25.787  1.00  0.00     0.016 A 
ATOM     20  C   UNL A   1      37.795  23.432  26.040  1.00  0.00     0.066 A 
ATOM     21  S   UNL A   1      36.129  23.310  25.717  1.00  0.00    -0.144 S 
ENDBRANCH  15  16
ENDBRANCH  11  14
ENDBRANCH   9  10
ENDBRANCH   8   9
BRANCH   8  22
ATOM     22  C   UNL A   1      31.108  23.544  24.156  1.00  0.00     0.020 C 
BRANCH  22  23
ATOM     23  C   UNL A   1      30.906  23.759  25.677  1.00  0.00    -0.017 C 
ATOM     24  C   UNL A   1      30.296  22.579  26.417  1.00  0.00     0.007 C 
ATOM     25  C   UNL A   1      32.258  24.095  26.327  1.00  0.00     0.007 C 
ENDBRANCH  22  23
ENDBRANCH   8  22
ENDBRANCH   6   8
ENDBRANCH   5   6
ENDBRANCH   4   5
ENDBRANCH   3   4
ENDBRANCH   2   3
ENDBRANCH   1   2
BRANCH   1  26
ATOM     26  C   UNL A   1      30.562  29.242  24.250  1.00  0.00     0.188 C 
BRANCH  26  27
ATOM     27  O   UNL A   1      31.254  30.453  24.520  1.00  0.00    -0.376 OA
BRANCH  27  28
ATOM     28  C   UNL A   1      30.578  31.402  25.351  1.00  0.00     0.202 C 
BRANCH  28  29
ATOM     29  C   UNL A   1      31.375  31.982  26.540  1.00  0.00     0.261 C 
BRANCH  29  30
ATOM     30  O   UNL A   1      32.757  31.570  26.641  1.00  0.00    -0.460 OA
BRANCH  30  31
ATOM     31  C   UNL A   1      33.029  30.424  27.323  1.00  0.00     0.338 C 
ATOM     32  O   UNL A   1      32.338  29.432  27.347  1.00  0.00    -0.246 OA
BRANCH  31  33
ATOM     33  C   UNL A   1      34.448  30.477  27.797  1.00  0.00     0.060 A 
ATOM     34  C   UNL A   1      35.135  29.262  27.938  1.00  0.00     0.016 A 
ATOM     35  C   UNL A   1      35.127  31.678  28.025  1.00  0.00     0.016 A 
ATOM     36  C   UNL A   1      36.472  29.240  28.353  1.00  0.00     0.010 A 
ATOM     37  C   UNL A   1      36.464  31.656  28.454  1.00  0.00     0.010 A 
ATOM     38  C   UNL A   1      37.135  30.437  28.657  1.00  0.00    -0.014 A 
BRANCH  38  39
ATOM     39  C   UNL A   1      38.428  30.401  29.402  1.00  0.00     0.031 A 
ATOM     40  C   UNL A   1      39.545  29.559  28.834  1.00  0.00     0.074 A 
ATOM     41  C   UNL A   1      38.646  31.122  30.519  1.00  0.00     0.049 A 
ATOM     42  N   UNL A   1      40.739  29.320  29.312  1.00  0.00    -0.248 NA
ATOM     43  C   UNL A   1      39.268  28.898  27.549  1.00  0.00     0.031 C 
ATOM     44  C   UNL A   1      37.689  32.031  31.143  1.00  0.00     0.029 A 
ATOM     45  N   UNL A   1      39.756  31.197  31.331  1.00  0.00    -0.354 N 
ATOM     46  C   UNL A   1      41.356  28.484  28.387  1.00  0.00     0.074 A 
ATOM     47  C   UNL A   1      40.387  28.222  27.346  1.00  0.00     0.031 C 
ATOM     48  C   UNL A   1      38.250  32.569  32.242  1.00  0.00     0.029 A 
ATOM     49  C   UNL A   1      39.591  32.013  32.429  1.00  0.00     0.049 A 
ATOM     50  H   UNL A   1      40.591  30.712  31.144  1.00  0.00     0.167 HD
ATOM     51  C   UNL A   1      42.619  27.988  28.393  1.00  0.00     0.034 A 
ATOM     52  C   UNL A   1      40.413  32.261  33.472  1.00  0.00     0.034 A 
ATOM     53  C   UNL A   1      43.580  28.236  29.439  1.00  0.00     0.049 A 
ATOM     54  C   UNL A   1      41.773  31.592  33.522  1.00  0.00     0.074 A 
ATOM     55  C   UNL A   1      44.879  27.768  29.541  1.00  0.00     0.029 A 
ATOM     56  N   UNL A   1      43.349  29.010  30.568  1.00  0.00    -0.354 N 
ATOM     57  N   UNL A   1      42.339  30.793  32.647  1.00  0.00    -0.248 NA
ATOM     58  C   UNL A   1      42.607  31.863  34.704  1.00  0.00     0.031 C 
ATOM     59  C   UNL A   1      45.406  28.194  30.765  1.00  0.00     0.029 A 
ATOM     60  C   UNL A   1      44.469  29.004  31.386  1.00  0.00     0.049 A 
ATOM     61  H   UNL A   1      42.512  29.492  30.759  1.00  0.00     0.167 HD
ATOM     62  C   UNL A   1      43.608  30.508  33.154  1.00  0.00     0.074 A 
ATOM     63  C   UNL A   1      43.729  31.228  34.401  1.00  0.00     0.031 C 
ATOM     64  C   UNL A   1      44.587  29.727  32.630  1.00  0.00     0.034 A 
BRANCH  51  65
ATOM     65  C   UNL A   1      43.011  27.084  27.250  1.00  0.00     0.023 A 
ATOM     66  C   UNL A   1      42.714  25.710  27.259  1.00  0.00     0.031 A 
ATOM     67  C   UNL A   1      43.710  27.599  26.144  1.00  0.00     0.131 A 
ATOM     68  C   UNL A   1      43.172  24.888  26.220  1.00  0.00     0.055 A 
ATOM     69  C   UNL A   1      44.089  26.791  25.071  1.00  0.00     0.041 A 
ATOM     70  F   UNL A   1      44.045  28.898  26.092  1.00  0.00    -0.206 F 
ATOM     71  C   UNL A   1      43.833  25.424  25.111  1.00  0.00     0.022 A 
BRANCH  68  72
ATOM     72  S   UNL A   1      43.018  23.091  26.404  1.00  0.00     0.124 S 
ATOM     73  O   UNL A   1      41.928  22.986  27.371  1.00  0.00    -0.237 OA
ATOM     74  O   UNL A   1      42.710  22.659  25.045  1.00  0.00    -0.237 OA
ATOM     75  O   UNL A   1      44.328  22.683  26.908  1.00  0.00    -0.744 OA
ENDBRANCH  68  72
ENDBRANCH  51  65
BRANCH  52  76
ATOM     76  C   UNL A   1      39.982  33.141  34.603  1.00  0.00     0.023 A 
ATOM     77  C   UNL A   1      39.220  32.635  35.669  1.00  0.00     0.031 A 
ATOM     78  C   UNL A   1      40.233  34.525  34.579  1.00  0.00     0.131 A 
ATOM     79  C   UNL A   1      38.679  33.512  36.626  1.00  0.00     0.055 A 
ATOM     80  C   UNL A   1      39.752  35.382  35.570  1.00  0.00     0.041 A 
ATOM     81  F   UNL A   1      40.941  35.070  33.576  1.00  0.00    -0.206 F 
ATOM     82  C   UNL A   1      38.954  34.879  36.593  1.00  0.00     0.022 A 
BRANCH  79  83
ATOM     83  S   UNL A   1      37.500  32.854  37.841  1.00  0.00     0.124 S 
ATOM     84  O   UNL A   1      36.233  33.354  37.320  1.00  0.00    -0.237 OA
ATOM     85  O   UNL A   1      37.718  31.417  37.728  1.00  0.00    -0.237 OA
ATOM     86  O   UNL A   1      37.938  33.455  39.099  1.00  0.00    -0.744 OA
ENDBRANCH  79  83
ENDBRANCH  52  76
BRANCH  64  87
ATOM     87  C   UNL A   1      45.905  29.663  33.372  1.00  0.00     0.023 A 
ATOM     88  C   UNL A   1      46.969  30.537  33.085  1.00  0.00     0.031 A 
ATOM     89  C   UNL A   1      46.096  28.705  34.385  1.00  0.00     0.131 A 
ATOM     90  C   UNL A   1      48.192  30.397  33.760  1.00  0.00     0.055 A 
ATOM     91  C   UNL A   1      47.292  28.613  35.098  1.00  0.00     0.041 A 
ATOM     92  F   UNL A   1      45.118  27.842  34.704  1.00  0.00    -0.206 F 
ATOM     93  C   UNL A   1      48.355  29.454  34.778  1.00  0.00     0.022 A 
BRANCH  90  94
ATOM     94  S   UNL A   1      49.605  31.402  33.226  1.00  0.00     0.124 S 
ATOM     95  O   UNL A   1      50.294  30.496  32.312  1.00  0.00    -0.237 OA
ATOM     96  O   UNL A   1      48.954  32.554  32.611  1.00  0.00    -0.237 OA
ATOM     97  O   UNL A   1      50.315  31.686  34.472  1.00  0.00    -0.744 OA
ENDBRANCH  90  94
ENDBRANCH  64  87
ENDBRANCH  38  39
ENDBRANCH  31  33
ENDBRANCH  30  31
ENDBRANCH  29  30
ENDBRANCH  28  29
ENDBRANCH  27  28
ENDBRANCH  26  27
ENDBRANCH   1  26
TORSDOF 26
ENDMDL
MODEL 2
REMARK VINA RESULT:      -8.9      4.332      9.609
REMARK SMILES Cc1ccsc1/C=C/C(=O)NC[C@H](CC(C)C)C(=O)OCCOCCOCCOC(=O)c1ccc(-c2c3nc(c(-c4cc(S(=O)(=O)[O-])ccc4F)c4ccc([nH]4)c(-c4cc(S(=O)(=O)[O-])ccc4F)c4nc(c(-c5cc(S(=O)(=O)[O-])ccc5F)c5ccc2[nH]5)C=C4)C=C3)cc1
REMARK SMILES IDX 24 1 23 2 22 3 21 4 20 5 18 6 19 7 13 8 12 9 11 10 9 11
REMARK SMILES IDX 10 12 8 14 7 15 6 16 1 17 2 18 3 19 4 20 5 21 14 22 15 23
REMARK SMILES IDX 16 24 17 25 25 26 26 27 27 28 28 29 29 30 30 31 31 32 32 33
REMARK SMILES IDX 33 34 94 35 34 36 93 37 35 38 36 39 37 40 87 41 38 42 92 43
REMARK SMILES IDX 86 44 88 45 39 46 91 47 85 48 84 49 40 51 72 52 52 53 71 54
REMARK SMILES IDX 53 55 56 56 70 57 89 58 54 59 55 60 69 62 90 63 57 64 41 65
REMARK SMILES IDX 42 66 50 67 43 68 49 69 51 70 48 71 44 72 45 73 46 74 47 75
REMARK SMILES IDX 73 76 74 77 82 78 75 79 81 80 83 81 80 82 76 83 77 84 78 85
REMARK SMILES IDX 79 86 58 87 59 88 67 89 60 90 66 91 68 92 65 93 61 94 62 95
REMARK SMILES IDX 63 96 64 97
REMARK H PARENT 11 13 88 50 56 61
REMARK Flexibility Score: inf
ROOT
ATOM      1  C   UNL A   1      36.642  22.124  25.132  1.00  0.00     0.188 C 
ENDROOT
BRANCH   1   2
ATOM      2  O   UNL A   1      35.649  22.801  25.894  1.00  0.00    -0.376 OA
BRANCH   2   3
ATOM      3  C   UNL A   1      34.455  22.080  26.194  1.00  0.00     0.202 C 
BRANCH   3   4
ATOM      4  C   UNL A   1      33.479  22.728  27.188  1.00  0.00     0.261 C 
BRANCH   4   5
ATOM      5  O   UNL A   1      32.086  22.486  26.901  1.00  0.00    -0.463 OA
BRANCH   5   6
ATOM      6  C   UNL A   1      31.341  23.592  26.657  1.00  0.00     0.310 C 
ATOM      7  O   UNL A   1      30.260  23.823  27.190  1.00  0.00    -0.252 OA
BRANCH   6   8
ATOM      8  C   UNL A   1      31.983  24.595  25.709  1.00  0.00     0.118 C 
BRANCH   8   9
ATOM      9  C   UNL A   1      31.968  25.952  26.403  1.00  0.00     0.131 C 
BRANCH   9  10
ATOM     10  N   UNL A   1      32.970  26.914  26.011  1.00  0.00    -0.352 N 
ATOM     11  C   UNL A   1      32.792  28.115  25.394  1.00  0.00     0.244 C 
ATOM     12  O   UNL A   1      33.761  28.859  25.241  1.00  0.00    -0.270 OA
ATOM     13  H   UNL A   1      33.901  26.670  26.216  1.00  0.00     0.163 HD
BRANCH  11  14
ATOM     14  C   UNL A   1      31.468  28.571  24.864  1.00  0.00     0.072 C 
ATOM     15  C   UNL A   1      30.858  28.261  23.710  1.00  0.00     0.025 C 
BRANCH  15  16
ATOM     16  C   UNL A   1      29.576  28.722  23.279  1.00  0.00     0.030 A 
ATOM     17  C   UNL A   1      28.173  26.642  23.890  1.00  0.00     0.046 C 
ATOM     18  C   UNL A   1      28.361  28.038  23.379  1.00  0.00    -0.033 A 
ATOM     19  C   UNL A   1      27.259  28.843  22.946  1.00  0.00     0.016 A 
ATOM     20  C   UNL A   1      27.652  30.083  22.511  1.00  0.00     0.066 A 
ATOM     21  S   UNL A   1      29.336  30.295  22.621  1.00  0.00    -0.144 S 
ENDBRANCH  15  16
ENDBRANCH  11  14
ENDBRANCH   9  10
ENDBRANCH   8   9
BRANCH   8  22
ATOM     22  C   UNL A   1      31.451  24.716  24.256  1.00  0.00     0.020 C 
BRANCH  22  23
ATOM     23  C   UNL A   1      32.301  24.279  23.036  1.00  0.00    -0.017 C 
ATOM     24  C   UNL A   1      33.693  24.890  22.971  1.00  0.00     0.007 C 
ATOM     25  C   UNL A   1      32.442  22.748  23.038  1.00  0.00     0.007 C 
ENDBRANCH  22  23
ENDBRANCH   8  22
ENDBRANCH   6   8
ENDBRANCH   5   6
ENDBRANCH   4   5
ENDBRANCH   3   4
ENDBRANCH   2   3
ENDBRANCH   1   2
BRANCH   1  26
ATOM     26  C   UNL A   1      38.096  22.472  25.448  1.00  0.00     0.188 C 
BRANCH  26  27
ATOM     27  O   UNL A   1      38.759  21.609  26.361  1.00  0.00    -0.376 OA
BRANCH  27  28
ATOM     28  C   UNL A   1      40.159  21.407  26.147  1.00  0.00     0.202 C 
BRANCH  28  29
ATOM     29  C   UNL A   1      41.100  22.567  26.542  1.00  0.00     0.261 C 
BRANCH  29  30
ATOM     30  O   UNL A   1      42.517  22.303  26.426  1.00  0.00    -0.460 OA
BRANCH  30  31
ATOM     31  C   UNL A   1      43.204  22.945  25.443  1.00  0.00     0.338 C 
ATOM     32  O   UNL A   1      43.345  22.556  24.306  1.00  0.00    -0.246 OA
BRANCH  31  33
ATOM     33  C   UNL A   1      43.507  24.336  25.902  1.00  0.00     0.060 A 
ATOM     34  C   UNL A   1      44.121  24.491  27.154  1.00  0.00     0.016 A 
ATOM     35  C   UNL A   1      43.279  25.464  25.108  1.00  0.00     0.016 A 
ATOM     36  C   UNL A   1      44.456  25.763  27.634  1.00  0.00     0.010 A 
ATOM     37  C   UNL A   1      43.602  26.741  25.594  1.00  0.00     0.010 A 
ATOM     38  C   UNL A   1      44.159  26.904  26.876  1.00  0.00    -0.014 A 
BRANCH  38  39
ATOM     39  C   UNL A   1      44.210  28.253  27.512  1.00  0.00     0.031 A 
ATOM     40  C   UNL A   1      42.945  28.779  28.148  1.00  0.00     0.074 A 
ATOM     41  C   UNL A   1      45.338  28.985  27.581  1.00  0.00     0.049 A 
ATOM     42  N   UNL A   1      42.714  29.935  28.716  1.00  0.00    -0.248 NA
ATOM     43  C   UNL A   1      41.788  27.871  28.136  1.00  0.00     0.031 C 
ATOM     44  C   UNL A   1      46.647  28.577  27.075  1.00  0.00     0.029 A 
ATOM     45  N   UNL A   1      45.561  30.237  28.109  1.00  0.00    -0.354 N 
ATOM     46  C   UNL A   1      41.386  29.892  29.131  1.00  0.00     0.074 A 
ATOM     47  C   UNL A   1      40.855  28.615  28.707  1.00  0.00     0.031 C 
ATOM     48  C   UNL A   1      47.533  29.562  27.314  1.00  0.00     0.029 A 
ATOM     49  C   UNL A   1      46.852  30.690  27.950  1.00  0.00     0.049 A 
ATOM     50  H   UNL A   1      44.860  30.760  28.560  1.00  0.00     0.167 HD
ATOM     51  C   UNL A   1      40.674  30.823  29.815  1.00  0.00     0.034 A 
ATOM     52  C   UNL A   1      47.409  31.882  28.256  1.00  0.00     0.034 A 
ATOM     53  C   UNL A   1      41.199  32.102  30.224  1.00  0.00     0.049 A 
ATOM     54  C   UNL A   1      46.559  32.956  28.904  1.00  0.00     0.074 A 
ATOM     55  C   UNL A   1      40.553  33.117  30.909  1.00  0.00     0.029 A 
ATOM     56  N   UNL A   1      42.490  32.549  29.980  1.00  0.00    -0.354 N 
ATOM     57  N   UNL A   1      45.301  32.907  29.280  1.00  0.00    -0.248 NA
ATOM     58  C   UNL A   1      47.208  34.250  29.174  1.00  0.00     0.031 C 
ATOM     59  C   UNL A   1      41.426  34.204  31.012  1.00  0.00     0.029 A 
ATOM     60  C   UNL A   1      42.648  33.837  30.472  1.00  0.00     0.049 A 
ATOM     61  H   UNL A   1      43.191  32.029  29.525  1.00  0.00     0.167 HD
ATOM     62  C   UNL A   1      45.029  34.143  29.868  1.00  0.00     0.074 A 
ATOM     63  C   UNL A   1      46.253  34.910  29.810  1.00  0.00     0.031 C 
ATOM     64  C   UNL A   1      43.872  34.599  30.414  1.00  0.00     0.034 A 
BRANCH  51  65
ATOM     65  C   UNL A   1      39.231  30.503  30.118  1.00  0.00     0.023 A 
ATOM     66  C   UNL A   1      38.183  30.982  29.312  1.00  0.00     0.031 A 
ATOM     67  C   UNL A   1      38.895  29.723  31.239  1.00  0.00     0.131 A 
ATOM     68  C   UNL A   1      36.852  30.736  29.677  1.00  0.00     0.055 A 
ATOM     69  C   UNL A   1      37.572  29.410  31.549  1.00  0.00     0.041 A 
ATOM     70  F   UNL A   1      39.852  29.260  32.060  1.00  0.00    -0.206 F 
ATOM     71  C   UNL A   1      36.539  29.929  30.774  1.00  0.00     0.022 A 
BRANCH  68  72
ATOM     72  S   UNL A   1      35.534  31.602  28.781  1.00  0.00     0.124 S 
ATOM     73  O   UNL A   1      34.911  30.506  28.042  1.00  0.00    -0.237 OA
ATOM     74  O   UNL A   1      34.741  32.176  29.862  1.00  0.00    -0.237 OA
ATOM     75  O   UNL A   1      36.257  32.567  27.955  1.00  0.00    -0.744 OA
ENDBRANCH  68  72
ENDBRANCH  51  65
BRANCH  52  76
ATOM     76  C   UNL A   1      48.837  32.176  27.917  1.00  0.00     0.023 A 
ATOM     77  C   UNL A   1      49.882  31.805  28.780  1.00  0.00     0.031 A 
ATOM     78  C   UNL A   1      49.169  32.931  26.777  1.00  0.00     0.131 A 
ATOM     79  C   UNL A   1      51.193  32.245  28.527  1.00  0.00     0.055 A 
ATOM     80  C   UNL A   1      50.483  33.307  26.494  1.00  0.00     0.041 A 
ATOM     81  F   UNL A   1      48.211  33.331  25.925  1.00  0.00    -0.206 F 
ATOM     82  C   UNL A   1      51.503  32.979  27.382  1.00  0.00     0.022 A 
BRANCH  79  83
ATOM     83  S   UNL A   1      52.466  31.956  29.789  1.00  0.00     0.124 S 
ATOM     84  O   UNL A   1      52.845  33.319  30.143  1.00  0.00    -0.237 OA
ATOM     85  O   UNL A   1      51.726  31.213  30.803  1.00  0.00    -0.237 OA
ATOM     86  O   UNL A   1      53.485  31.190  29.075  1.00  0.00    -0.744 OA
ENDBRANCH  79  83
ENDBRANCH  52  76
BRANCH  64  87
ATOM     87  C   UNL A   1      43.893  35.970  31.055  1.00  0.00     0.023 A 
ATOM     88  C   UNL A   1      43.782  37.151  30.299  1.00  0.00     0.031 A 
ATOM     89  C   UNL A   1      44.028  36.093  32.450  1.00  0.00     0.131 A 
ATOM     90  C   UNL A   1      43.868  38.401  30.934  1.00  0.00     0.055 A 
ATOM     91  C   UNL A   1      44.047  37.337  33.083  1.00  0.00     0.041 A 
ATOM     92  F   UNL A   1      44.139  35.003  33.225  1.00  0.00    -0.206 F 
ATOM     93  C   UNL A   1      43.981  38.501  32.323  1.00  0.00     0.022 A 
BRANCH  90  94
ATOM     94  S   UNL A   1      43.928  39.898  29.912  1.00  0.00     0.124 S 
ATOM     95  O   UNL A   1      44.549  40.860  30.818  1.00  0.00    -0.237 OA
ATOM     96  O   UNL A   1      44.741  39.471  28.779  1.00  0.00    -0.237 OA
ATOM     97  O   UNL A   1      42.523  40.158  29.601  1.00  0.00    -0.744 OA
ENDBRANCH  90  94
ENDBRANCH  64  87
ENDBRANCH  38  39
ENDBRANCH  31  33
ENDBRANCH  30  31
ENDBRANCH  29  30
ENDBRANCH  28  29
ENDBRANCH  27  28
ENDBRANCH  26  27
ENDBRANCH   1  26
TORSDOF 26
ENDMDL
MODEL 3
REMARK VINA RESULT:      -8.9      3.911      9.072
REMARK SMILES Cc1ccsc1/C=C/C(=O)NC[C@H](CC(C)C)C(=O)OCCOCCOCCOC(=O)c1ccc(-c2c3nc(c(-c4cc(S(=O)(=O)[O-])ccc4F)c4ccc([nH]4)c(-c4cc(S(=O)(=O)[O-])ccc4F)c4nc(c(-c5cc(S(=O)(=O)[O-])ccc5F)c5ccc2[nH]5)C=C4)C=C3)cc1
REMARK SMILES IDX 24 1 23 2 22 3 21 4 20 5 18 6 19 7 13 8 12 9 11 10 9 11
REMARK SMILES IDX 10 12 8 14 7 15 6 16 1 17 2 18 3 19 4 20 5 21 14 22 15 23
REMARK SMILES IDX 16 24 17 25 25 26 26 27 27 28 28 29 29 30 30 31 31 32 32 33
REMARK SMILES IDX 33 34 94 35 34 36 93 37 35 38 36 39 37 40 87 41 38 42 92 43
REMARK SMILES IDX 86 44 88 45 39 46 91 47 85 48 84 49 40 51 72 52 52 53 71 54
REMARK SMILES IDX 53 55 56 56 70 57 89 58 54 59 55 60 69 62 90 63 57 64 41 65
REMARK SMILES IDX 42 66 50 67 43 68 49 69 51 70 48 71 44 72 45 73 46 74 47 75
REMARK SMILES IDX 73 76 74 77 82 78 75 79 81 80 83 81 80 82 76 83 77 84 78 85
REMARK SMILES IDX 79 86 58 87 59 88 67 89 60 90 66 91 68 92 65 93 61 94 62 95
REMARK SMILES IDX 63 96 64 97
REMARK H PARENT 11 13 88 50 56 61
REMARK Flexibility Score: inf
ROOT
ATOM      1  C   UNL A   1      33.797  20.529  25.655  1.00  0.00     0.188 C 
ENDROOT
BRANCH   1   2
ATOM      2  O   UNL A   1      33.540  21.190  24.421  1.00  0.00    -0.376 OA
BRANCH   2   3
ATOM      3  C   UNL A   1      32.180  21.285  24.003  1.00  0.00     0.202 C 
BRANCH   3   4
ATOM      4  C   UNL A   1      31.841  22.364  22.964  1.00  0.00     0.261 C 
BRANCH   4   5
ATOM      5  O   UNL A   1      31.029  23.445  23.467  1.00  0.00    -0.463 OA
BRANCH   5   6
ATOM      6  C   UNL A   1      31.440  23.986  24.640  1.00  0.00     0.310 C 
ATOM      7  O   UNL A   1      31.469  23.376  25.705  1.00  0.00    -0.252 OA
BRANCH   6   8
ATOM      8  C   UNL A   1      31.947  25.417  24.537  1.00  0.00     0.118 C 
BRANCH   8   9
ATOM      9  C   UNL A   1      33.362  25.358  23.973  1.00  0.00     0.131 C 
BRANCH   9  10
ATOM     10  N   UNL A   1      33.507  25.123  22.556  1.00  0.00    -0.352 N 
ATOM     11  C   UNL A   1      32.762  25.630  21.534  1.00  0.00     0.244 C 
ATOM     12  O   UNL A   1      33.107  25.409  20.374  1.00  0.00    -0.270 OA
ATOM     13  H   UNL A   1      34.239  24.519  22.295  1.00  0.00     0.163 HD
BRANCH  11  14
ATOM     14  C   UNL A   1      31.515  26.430  21.755  1.00  0.00     0.072 C 
ATOM     15  C   UNL A   1      31.365  27.638  22.319  1.00  0.00     0.025 C 
BRANCH  15  16
ATOM     16  C   UNL A   1      30.137  28.352  22.477  1.00  0.00     0.030 A 
ATOM     17  C   UNL A   1      28.840  26.617  23.883  1.00  0.00     0.046 C 
ATOM     18  C   UNL A   1      29.012  27.937  23.196  1.00  0.00    -0.033 A 
ATOM     19  C   UNL A   1      28.001  28.950  23.233  1.00  0.00     0.016 A 
ATOM     20  C   UNL A   1      28.357  30.076  22.535  1.00  0.00     0.066 A 
ATOM     21  S   UNL A   1      29.902  29.933  21.837  1.00  0.00    -0.144 S 
ENDBRANCH  15  16
ENDBRANCH  11  14
ENDBRANCH   9  10
ENDBRANCH   8   9
BRANCH   8  22
ATOM     22  C   UNL A   1      31.892  26.336  25.787  1.00  0.00     0.020 C 
BRANCH  22  23
ATOM     23  C   UNL A   1      32.389  27.803  25.744  1.00  0.00    -0.017 C 
ATOM     24  C   UNL A   1      31.459  28.815  26.393  1.00  0.00     0.007 C 
ATOM     25  C   UNL A   1      33.762  27.894  26.430  1.00  0.00     0.007 C 
ENDBRANCH  22  23
ENDBRANCH   8  22
ENDBRANCH   6   8
ENDBRANCH   5   6
ENDBRANCH   4   5
ENDBRANCH   3   4
ENDBRANCH   2   3
ENDBRANCH   1   2
BRANCH   1  26
ATOM     26  C   UNL A   1      34.383  21.384  26.776  1.00  0.00     0.188 C 
BRANCH  26  27
ATOM     27  O   UNL A   1      35.750  21.745  26.634  1.00  0.00    -0.376 OA
BRANCH  27  28
ATOM     28  C   UNL A   1      36.332  21.545  25.342  1.00  0.00     0.202 C 
BRANCH  28  29
ATOM     29  C   UNL A   1      37.873  21.469  25.273  1.00  0.00     0.261 C 
BRANCH  29  30
ATOM     30  O   UNL A   1      38.585  22.686  25.593  1.00  0.00    -0.460 OA
BRANCH  30  31
ATOM     31  C   UNL A   1      39.495  22.643  26.603  1.00  0.00     0.338 C 
ATOM     32  O   UNL A   1      40.160  21.683  26.918  1.00  0.00    -0.246 OA
BRANCH  31  33
ATOM     33  C   UNL A   1      39.755  24.040  27.071  1.00  0.00     0.060 A 
ATOM     34  C   UNL A   1      40.251  24.960  26.136  1.00  0.00     0.016 A 
ATOM     35  C   UNL A   1      39.451  24.475  28.365  1.00  0.00     0.016 A 
ATOM     36  C   UNL A   1      40.492  26.291  26.500  1.00  0.00     0.010 A 
ATOM     37  C   UNL A   1      39.705  25.806  28.735  1.00  0.00     0.010 A 
ATOM     38  C   UNL A   1      40.263  26.714  27.816  1.00  0.00    -0.014 A 
BRANCH  38  39
ATOM     39  C   UNL A   1      40.819  28.017  28.286  1.00  0.00     0.031 A 
ATOM     40  C   UNL A   1      39.844  29.073  28.749  1.00  0.00     0.074 A 
ATOM     41  C   UNL A   1      42.142  28.262  28.356  1.00  0.00     0.049 A 
ATOM     42  N   UNL A   1      40.067  30.297  29.152  1.00  0.00    -0.248 NA
ATOM     43  C   UNL A   1      38.425  28.685  28.754  1.00  0.00     0.031 C 
ATOM     44  C   UNL A   1      43.200  27.317  28.011  1.00  0.00     0.029 A 
ATOM     45  N   UNL A   1      42.821  29.396  28.745  1.00  0.00    -0.354 N 
ATOM     46  C   UNL A   1      38.817  30.826  29.461  1.00  0.00     0.074 A 
ATOM     47  C   UNL A   1      37.841  29.804  29.154  1.00  0.00     0.031 C 
ATOM     48  C   UNL A   1      44.394  27.910  28.199  1.00  0.00     0.029 A 
ATOM     49  C   UNL A   1      44.190  29.292  28.636  1.00  0.00     0.049 A 
ATOM     50  H   UNL A   1      42.369  30.206  29.071  1.00  0.00     0.167 HD
ATOM     51  C   UNL A   1      38.507  32.046  29.968  1.00  0.00     0.034 A 
ATOM     52  C   UNL A   1      45.161  30.210  28.839  1.00  0.00     0.034 A 
ATOM     53  C   UNL A   1      39.478  33.071  30.259  1.00  0.00     0.049 A 
ATOM     54  C   UNL A   1      44.780  31.609  29.281  1.00  0.00     0.074 A 
ATOM     55  C   UNL A   1      39.261  34.343  30.762  1.00  0.00     0.029 A 
ATOM     56  N   UNL A   1      40.848  32.950  30.068  1.00  0.00    -0.354 N 
ATOM     57  N   UNL A   1      43.593  32.100  29.558  1.00  0.00    -0.248 NA
ATOM     58  C   UNL A   1      45.875  32.579  29.443  1.00  0.00     0.031 C 
ATOM     59  C   UNL A   1      40.488  35.015  30.801  1.00  0.00     0.029 A 
ATOM     60  C   UNL A   1      41.483  34.135  30.410  1.00  0.00     0.049 A 
ATOM     61  H   UNL A   1      41.302  32.142  29.736  1.00  0.00     0.167 HD
ATOM     62  C   UNL A   1      43.810  33.416  29.967  1.00  0.00     0.074 A 
ATOM     63  C   UNL A   1      45.237  33.639  29.915  1.00  0.00     0.031 C 
ATOM     64  C   UNL A   1      42.909  34.353  30.359  1.00  0.00     0.034 A 
BRANCH  51  65
ATOM     65  C   UNL A   1      37.046  32.350  30.190  1.00  0.00     0.023 A 
ATOM     66  C   UNL A   1      36.259  32.961  29.197  1.00  0.00     0.031 A 
ATOM     67  C   UNL A   1      36.434  32.044  31.419  1.00  0.00     0.131 A 
ATOM     68  C   UNL A   1      34.929  33.306  29.474  1.00  0.00     0.055 A 
ATOM     69  C   UNL A   1      35.087  32.313  31.658  1.00  0.00     0.041 A 
ATOM     70  F   UNL A   1      37.143  31.485  32.412  1.00  0.00    -0.206 F 
ATOM     71  C   UNL A   1      34.328  32.961  30.687  1.00  0.00     0.022 A 
BRANCH  68  72
ATOM     72  S   UNL A   1      34.036  34.339  28.280  1.00  0.00     0.124 S 
ATOM     73  O   UNL A   1      33.659  35.485  29.105  1.00  0.00    -0.237 OA
ATOM     74  O   UNL A   1      35.047  34.591  27.261  1.00  0.00    -0.237 OA
ATOM     75  O   UNL A   1      32.921  33.492  27.859  1.00  0.00    -0.744 OA
ENDBRANCH  68  72
ENDBRANCH  51  65
BRANCH  52  76
ATOM     76  C   UNL A   1      46.599  29.883  28.583  1.00  0.00     0.023 A 
ATOM     77  C   UNL A   1      47.432  29.410  29.610  1.00  0.00     0.031 A 
ATOM     78  C   UNL A   1      47.187  30.143  27.332  1.00  0.00     0.131 A 
ATOM     79  C   UNL A   1      48.814  29.278  29.390  1.00  0.00     0.055 A 
ATOM     80  C   UNL A   1      48.549  29.944  27.099  1.00  0.00     0.041 A 
ATOM     81  F   UNL A   1      46.445  30.613  26.316  1.00  0.00    -0.206 F 
ATOM     82  C   UNL A   1      49.375  29.526  28.137  1.00  0.00     0.022 A 
BRANCH  79  83
ATOM     83  S   UNL A   1      49.889  28.905  30.806  1.00  0.00     0.124 S 
ATOM     84  O   UNL A   1      51.200  29.276  30.285  1.00  0.00    -0.237 OA
ATOM     85  O   UNL A   1      49.341  29.774  31.841  1.00  0.00    -0.237 OA
ATOM     86  O   UNL A   1      49.685  27.475  31.020  1.00  0.00    -0.744 OA
ENDBRANCH  79  83
ENDBRANCH  52  76
BRANCH  64  87
ATOM     87  C   UNL A   1      43.445  35.688  30.828  1.00  0.00     0.023 A 
ATOM     88  C   UNL A   1      43.643  36.767  29.947  1.00  0.00     0.031 A 
ATOM     89  C   UNL A   1      43.767  35.880  32.184  1.00  0.00     0.131 A 
ATOM     90  C   UNL A   1      44.200  37.966  30.420  1.00  0.00     0.055 A 
ATOM     91  C   UNL A   1      44.260  37.096  32.662  1.00  0.00     0.041 A 
ATOM     92  F   UNL A   1      43.602  34.888  33.074  1.00  0.00    -0.206 F 
ATOM     93  C   UNL A   1      44.493  38.143  31.775  1.00  0.00     0.022 A 
BRANCH  90  94
ATOM     94  S   UNL A   1      44.631  39.261  29.225  1.00  0.00     0.124 S 
ATOM     95  O   UNL A   1      46.088  39.281  29.311  1.00  0.00    -0.237 OA
ATOM     96  O   UNL A   1      44.072  38.738  27.983  1.00  0.00    -0.237 OA
ATOM     97  O   UNL A   1      43.962  40.450  29.751  1.00  0.00    -0.744 OA
ENDBRANCH  90  94
ENDBRANCH  64  87
ENDBRANCH  38  39
ENDBRANCH  31  33
ENDBRANCH  30  31
ENDBRANCH  29  30
ENDBRANCH  28  29
ENDBRANCH  27  28
ENDBRANCH  26  27
ENDBRANCH   1  26
TORSDOF 26
ENDMDL
