MODEL 1
REMARK VINA RESULT:      -8.5      0.000      0.000
REMARK SMILES NS(=O)(=O)c1ccc(-n2nc(C(=O)NCCCC(=O)OCCOCCOCCOC(=O)c3ccc(-c4c5nc(c(-c6cc(S(=O)(=O)[O-])ccc6F)c6ccc([nH]6)c(-c6cc(S(=O)(=O)[O-])ccc6F)c6nc(c(-c7cc(S(=O)(=O)[O-])ccc7F)c7ccc4[nH]7)C=C6)C=C5)cc3)cc2-c2ccccc2)cc1
REMARK SMILES IDX 22 1 21 2 20 3 18 4 19 5 17 6 16 7 15 8 14 9 12 10 13 11
REMARK SMILES IDX 11 13 9 14 10 15 96 16 95 17 8 18 5 19 6 20 104 21 7 22
REMARK SMILES IDX 103 23 2 24 3 25 4 26 1 27 97 30 98 31 102 32 99 33 101 34
REMARK SMILES IDX 100 35 23 36 24 37 25 38 26 39 27 40 28 41 29 42 30 43 31 44
REMARK SMILES IDX 32 45 33 46 94 47 34 48 93 49 35 50 36 51 37 52 87 53 38 54
REMARK SMILES IDX 92 55 86 56 88 57 39 58 91 59 85 60 84 61 40 63 72 64 52 65
REMARK SMILES IDX 71 66 53 67 56 68 70 69 89 70 54 71 55 72 69 74 90 75 57 76
REMARK SMILES IDX 41 77 42 78 50 79 43 80 49 81 51 82 48 83 44 84 45 85 46 86
REMARK SMILES IDX 47 87 73 88 74 89 82 90 75 91 81 92 83 93 80 94 76 95 77 96
REMARK SMILES IDX 78 97 79 98 58 99 59 100 67 101 60 102 66 103 68 104 65 105
REMARK SMILES IDX 61 106 62 107 63 108 64 109
REMARK H PARENT 14 12 1 28 1 29 88 62 56 73
REMARK Flexibility Score: inf
ROOT
ATOM      1  C   UNL A   1      43.518  39.979  30.092  1.00  0.00     0.202 C 
ENDROOT
BRANCH   1   2
ATOM      2  C   UNL A   1      43.422  41.241  29.222  1.00  0.00     0.261 C 
BRANCH   2   3
ATOM      3  O   UNL A   1      42.588  41.076  28.060  1.00  0.00    -0.463 OA
BRANCH   3   4
ATOM      4  C   UNL A   1      43.161  40.598  26.932  1.00  0.00     0.305 C 
ATOM      5  O   UNL A   1      43.301  39.409  26.670  1.00  0.00    -0.252 OA
BRANCH   4   6
ATOM      6  C   UNL A   1      43.608  41.685  25.967  1.00  0.00     0.124 C 
BRANCH   6   7
ATOM      7  C   UNL A   1      44.832  41.456  25.079  1.00  0.00     0.033 C 
BRANCH   7   8
ATOM      8  C   UNL A   1      45.054  42.466  23.959  1.00  0.00     0.117 C 
BRANCH   8   9
ATOM      9  N   UNL A   1      46.321  42.279  23.289  1.00  0.00    -0.351 N 
ATOM     10  C   UNL A   1      46.814  42.650  22.060  1.00  0.00     0.271 C 
ATOM     11  O   UNL A   1      47.981  42.299  21.851  1.00  0.00    -0.267 OA
ATOM     12  H   UNL A   1      46.973  41.777  23.830  1.00  0.00     0.163 HD
BRANCH  10  13
ATOM     13  C   UNL A   1      46.045  43.436  21.064  1.00  0.00     0.151 A 
ATOM     14  N   UNL A   1      45.599  45.165  19.854  1.00  0.00    -0.232 N 
ATOM     15  N   UNL A   1      46.581  44.578  20.574  1.00  0.00    -0.162 NA
ATOM     16  C   UNL A   1      44.526  44.319  19.659  1.00  0.00     0.075 A 
ATOM     17  C   UNL A   1      44.775  43.234  20.470  1.00  0.00     0.065 A 
BRANCH  14  18
ATOM     18  C   UNL A   1      45.735  46.500  19.397  1.00  0.00     0.065 A 
ATOM     19  C   UNL A   1      46.274  49.071  18.504  1.00  0.00     0.082 A 
ATOM     20  C   UNL A   1      46.084  48.049  17.572  1.00  0.00     0.024 A 
ATOM     21  C   UNL A   1      46.137  48.831  19.877  1.00  0.00     0.024 A 
ATOM     22  C   UNL A   1      45.826  46.757  18.022  1.00  0.00     0.030 A 
ATOM     23  C   UNL A   1      45.836  47.542  20.326  1.00  0.00     0.030 A 
BRANCH  19  24
ATOM     24  S   UNL A   1      46.747  50.668  17.917  1.00  0.00     0.238 S 
ATOM     25  O   UNL A   1      47.813  50.528  16.946  1.00  0.00    -0.207 OA
ATOM     26  O   UNL A   1      46.831  51.572  19.036  1.00  0.00    -0.207 OA
BRANCH  24  27
ATOM     27  N   UNL A   1      45.398  51.129  17.030  1.00  0.00    -0.225 NA
ATOM     28  H   UNL A   1      45.474  50.764  16.081  1.00  0.00     0.137 HD
ATOM     29  H   UNL A   1      45.343  52.148  17.000  1.00  0.00     0.137 HD
ENDBRANCH  24  27
ENDBRANCH  19  24
ENDBRANCH  14  18
BRANCH  16  30
ATOM     30  C   UNL A   1      43.423  44.519  18.721  1.00  0.00     0.000 A 
ATOM     31  C   UNL A   1      43.632  44.412  17.339  1.00  0.00     0.010 A 
ATOM     32  C   UNL A   1      42.134  44.782  19.200  1.00  0.00     0.010 A 
ATOM     33  C   UNL A   1      42.573  44.590  16.450  1.00  0.00     0.001 A 
ATOM     34  C   UNL A   1      41.077  44.960  18.308  1.00  0.00     0.001 A 
ATOM     35  C   UNL A   1      41.296  44.865  16.934  1.00  0.00     0.000 A 
ENDBRANCH  16  30
ENDBRANCH  10  13
ENDBRANCH   8   9
ENDBRANCH   7   8
ENDBRANCH   6   7
ENDBRANCH   4   6
ENDBRANCH   3   4
ENDBRANCH   2   3
ENDBRANCH   1   2
BRANCH   1  36
ATOM     36  O   UNL A   1      44.791  39.334  30.091  1.00  0.00    -0.376 OA
BRANCH  36  37
ATOM     37  C   UNL A   1      45.318  38.979  31.372  1.00  0.00     0.188 C 
BRANCH  37  38
ATOM     38  C   UNL A   1      44.439  38.028  32.192  1.00  0.00     0.188 C 
BRANCH  38  39
ATOM     39  O   UNL A   1      44.498  36.662  31.798  1.00  0.00    -0.376 OA
BRANCH  39  40
ATOM     40  C   UNL A   1      43.428  36.074  31.050  1.00  0.00     0.202 C 
BRANCH  40  41
ATOM     41  C   UNL A   1      43.603  35.362  29.695  1.00  0.00     0.261 C 
BRANCH  41  42
ATOM     42  O   UNL A   1      44.826  35.571  29.020  1.00  0.00    -0.460 OA
BRANCH  42  43
ATOM     43  C   UNL A   1      45.759  34.601  29.092  1.00  0.00     0.338 C 
ATOM     44  O   UNL A   1      46.905  34.708  29.484  1.00  0.00    -0.246 OA
BRANCH  43  45
ATOM     45  C   UNL A   1      45.061  33.355  28.723  1.00  0.00     0.060 A 
ATOM     46  C   UNL A   1      44.792  32.456  29.747  1.00  0.00     0.016 A 
ATOM     47  C   UNL A   1      44.870  33.021  27.363  1.00  0.00     0.016 A 
ATOM     48  C   UNL A   1      44.715  31.132  29.399  1.00  0.00     0.010 A 
ATOM     49  C   UNL A   1      44.770  31.706  27.014  1.00  0.00     0.010 A 
ATOM     50  C   UNL A   1      44.873  30.795  28.049  1.00  0.00    -0.014 A 
BRANCH  50  51
ATOM     51  C   UNL A   1      45.367  29.480  27.743  1.00  0.00     0.031 A 
ATOM     52  C   UNL A   1      44.354  28.434  27.855  1.00  0.00     0.074 A 
ATOM     53  C   UNL A   1      46.652  29.281  27.396  1.00  0.00     0.049 A 
ATOM     54  N   UNL A   1      44.201  27.633  28.852  1.00  0.00    -0.248 NA
ATOM     55  C   UNL A   1      43.263  28.414  26.876  1.00  0.00     0.031 C 
ATOM     56  C   UNL A   1      47.688  30.261  27.057  1.00  0.00     0.029 A 
ATOM     57  N   UNL A   1      47.280  28.097  27.198  1.00  0.00    -0.354 N 
ATOM     58  C   UNL A   1      43.124  26.836  28.514  1.00  0.00     0.074 A 
ATOM     59  C   UNL A   1      42.458  27.502  27.425  1.00  0.00     0.031 C 
ATOM     60  C   UNL A   1      48.732  29.622  26.478  1.00  0.00     0.029 A 
ATOM     61  C   UNL A   1      48.489  28.189  26.526  1.00  0.00     0.049 A 
ATOM     62  H   UNL A   1      46.907  27.240  27.506  1.00  0.00     0.167 HD
ATOM     63  C   UNL A   1      43.024  25.570  28.994  1.00  0.00     0.034 A 
ATOM     64  C   UNL A   1      49.180  27.151  25.981  1.00  0.00     0.034 A 
ATOM     65  C   UNL A   1      43.954  25.341  30.078  1.00  0.00     0.049 A 
ATOM     66  C   UNL A   1      48.756  25.929  26.725  1.00  0.00     0.074 A 
ATOM     67  C   UNL A   1      44.133  25.903  31.328  1.00  0.00     0.029 A 
ATOM     68  N   UNL A   1      45.140  24.700  29.786  1.00  0.00    -0.354 N 
ATOM     69  N   UNL A   1      49.021  25.752  27.993  1.00  0.00    -0.248 NA
ATOM     70  C   UNL A   1      47.604  25.178  26.237  1.00  0.00     0.031 C 
ATOM     71  C   UNL A   1      45.547  25.988  31.498  1.00  0.00     0.029 A 
ATOM     72  C   UNL A   1      46.158  25.412  30.380  1.00  0.00     0.049 A 
ATOM     73  H   UNL A   1      45.241  23.882  29.248  1.00  0.00     0.167 HD
ATOM     74  C   UNL A   1      47.848  25.259  28.547  1.00  0.00     0.074 A 
ATOM     75  C   UNL A   1      47.048  24.821  27.403  1.00  0.00     0.031 C 
ATOM     76  C   UNL A   1      47.504  25.524  29.845  1.00  0.00     0.034 A 
BRANCH  63  77
ATOM     77  C   UNL A   1      42.341  24.447  28.268  1.00  0.00     0.023 A 
ATOM     78  C   UNL A   1      43.147  23.599  27.494  1.00  0.00     0.031 A 
ATOM     79  C   UNL A   1      40.944  24.328  28.080  1.00  0.00     0.131 A 
ATOM     80  C   UNL A   1      42.573  22.748  26.537  1.00  0.00     0.055 A 
ATOM     81  C   UNL A   1      40.376  23.425  27.183  1.00  0.00     0.041 A 
ATOM     82  F   UNL A   1      40.061  25.146  28.668  1.00  0.00    -0.206 F 
ATOM     83  C   UNL A   1      41.193  22.648  26.381  1.00  0.00     0.022 A 
BRANCH  80  84
ATOM     84  S   UNL A   1      43.676  21.911  25.372  1.00  0.00     0.124 S 
ATOM     85  O   UNL A   1      43.157  20.547  25.395  1.00  0.00    -0.237 OA
ATOM     86  O   UNL A   1      43.446  22.667  24.146  1.00  0.00    -0.237 OA
ATOM     87  O   UNL A   1      44.995  22.084  25.976  1.00  0.00    -0.744 OA
ENDBRANCH  80  84
ENDBRANCH  63  77
BRANCH  64  88
ATOM     88  C   UNL A   1      49.839  27.159  24.644  1.00  0.00     0.023 A 
ATOM     89  C   UNL A   1      49.148  26.930  23.435  1.00  0.00     0.031 A 
ATOM     90  C   UNL A   1      51.175  27.615  24.528  1.00  0.00     0.131 A 
ATOM     91  C   UNL A   1      49.798  27.143  22.191  1.00  0.00     0.055 A 
ATOM     92  C   UNL A   1      51.811  27.814  23.302  1.00  0.00     0.041 A 
ATOM     93  F   UNL A   1      51.889  27.965  25.609  1.00  0.00    -0.206 F 
ATOM     94  C   UNL A   1      51.121  27.584  22.125  1.00  0.00     0.022 A 
BRANCH  91  95
ATOM     95  S   UNL A   1      48.894  26.928  20.623  1.00  0.00     0.124 S 
ATOM     96  O   UNL A   1      47.675  27.692  20.858  1.00  0.00    -0.237 OA
ATOM     97  O   UNL A   1      49.827  27.479  19.647  1.00  0.00    -0.237 OA
ATOM     98  O   UNL A   1      48.703  25.480  20.533  1.00  0.00    -0.744 OA
ENDBRANCH  91  95
ENDBRANCH  64  88
BRANCH  76  99
ATOM     99  C   UNL A   1      48.540  26.199  30.730  1.00  0.00     0.023 A 
ATOM    100  C   UNL A   1      49.639  25.532  31.322  1.00  0.00     0.031 A 
ATOM    101  C   UNL A   1      48.481  27.596  30.869  1.00  0.00     0.131 A 
ATOM    102  C   UNL A   1      50.612  26.260  32.036  1.00  0.00     0.055 A 
ATOM    103  C   UNL A   1      49.458  28.316  31.558  1.00  0.00     0.041 A 
ATOM    104  F   UNL A   1      47.484  28.294  30.301  1.00  0.00    -0.206 F 
ATOM    105  C   UNL A   1      50.525  27.649  32.150  1.00  0.00     0.022 A 
BRANCH 102 106
ATOM    106  S   UNL A   1      52.011  25.399  32.831  1.00  0.00     0.124 S 
ATOM    107  O   UNL A   1      51.551  24.018  32.923  1.00  0.00    -0.237 OA
ATOM    108  O   UNL A   1      53.109  25.647  31.901  1.00  0.00    -0.237 OA
ATOM    109  O   UNL A   1      52.145  26.082  34.119  1.00  0.00    -0.744 OA
ENDBRANCH 102 106
ENDBRANCH  76  99
ENDBRANCH  50  51
ENDBRANCH  43  45
ENDBRANCH  42  43
ENDBRANCH  41  42
ENDBRANCH  40  41
ENDBRANCH  39  40
ENDBRANCH  38  39
ENDBRANCH  37  38
ENDBRANCH  36  37
ENDBRANCH   1  36
TORSDOF 28
ENDMDL
MODEL 2
REMARK VINA RESULT:      -8.3      7.919     15.478
REMARK SMILES NS(=O)(=O)c1ccc(-n2nc(C(=O)NCCCC(=O)OCCOCCOCCOC(=O)c3ccc(-c4c5nc(c(-c6cc(S(=O)(=O)[O-])ccc6F)c6ccc([nH]6)c(-c6cc(S(=O)(=O)[O-])ccc6F)c6nc(c(-c7cc(S(=O)(=O)[O-])ccc7F)c7ccc4[nH]7)C=C6)C=C5)cc3)cc2-c2ccccc2)cc1
REMARK SMILES IDX 22 1 21 2 20 3 18 4 19 5 17 6 16 7 15 8 14 9 12 10 13 11
REMARK SMILES IDX 11 13 9 14 10 15 96 16 95 17 8 18 5 19 6 20 104 21 7 22
REMARK SMILES IDX 103 23 2 24 3 25 4 26 1 27 97 30 98 31 102 32 99 33 101 34
REMARK SMILES IDX 100 35 23 36 24 37 25 38 26 39 27 40 28 41 29 42 30 43 31 44
REMARK SMILES IDX 32 45 33 46 94 47 34 48 93 49 35 50 36 51 37 52 87 53 38 54
REMARK SMILES IDX 92 55 86 56 88 57 39 58 91 59 85 60 84 61 40 63 72 64 52 65
REMARK SMILES IDX 71 66 53 67 56 68 70 69 89 70 54 71 55 72 69 74 90 75 57 76
REMARK SMILES IDX 41 77 42 78 50 79 43 80 49 81 51 82 48 83 44 84 45 85 46 86
REMARK SMILES IDX 47 87 73 88 74 89 82 90 75 91 81 92 83 93 80 94 76 95 77 96
REMARK SMILES IDX 78 97 79 98 58 99 59 100 67 101 60 102 66 103 68 104 65 105
REMARK SMILES IDX 61 106 62 107 63 108 64 109
REMARK H PARENT 14 12 1 28 1 29 88 62 56 73
REMARK Flexibility Score: inf
ROOT
ATOM      1  C   UNL A   1      54.435  22.171  35.237  1.00  0.00     0.202 C 
ENDROOT
BRANCH   1   2
ATOM      2  C   UNL A   1      55.580  23.151  35.534  1.00  0.00     0.261 C 
BRANCH   2   3
ATOM      3  O   UNL A   1      55.353  24.474  35.014  1.00  0.00    -0.463 OA
BRANCH   3   4
ATOM      4  C   UNL A   1      54.980  24.589  33.719  1.00  0.00     0.305 C 
ATOM      5  O   UNL A   1      55.572  24.079  32.775  1.00  0.00    -0.252 OA
BRANCH   4   6
ATOM      6  C   UNL A   1      53.712  25.403  33.518  1.00  0.00     0.124 C 
BRANCH   6   7
ATOM      7  C   UNL A   1      52.674  25.481  34.638  1.00  0.00     0.033 C 
BRANCH   7   8
ATOM      8  C   UNL A   1      52.812  26.649  35.609  1.00  0.00     0.117 C 
BRANCH   8   9
ATOM      9  N   UNL A   1      52.316  26.332  36.929  1.00  0.00    -0.351 N 
ATOM     10  C   UNL A   1      51.114  26.526  37.569  1.00  0.00     0.271 C 
ATOM     11  O   UNL A   1      51.077  26.097  38.728  1.00  0.00    -0.267 OA
ATOM     12  H   UNL A   1      52.984  25.880  37.494  1.00  0.00     0.163 HD
BRANCH  10  13
ATOM     13  C   UNL A   1      49.933  27.160  36.934  1.00  0.00     0.151 A 
ATOM     14  N   UNL A   1      47.860  27.303  36.353  1.00  0.00    -0.232 N 
ATOM     15  N   UNL A   1      48.701  26.668  37.201  1.00  0.00    -0.162 NA
ATOM     16  C   UNL A   1      48.471  28.366  35.720  1.00  0.00     0.075 A 
ATOM     17  C   UNL A   1      49.807  28.252  36.041  1.00  0.00     0.065 A 
BRANCH  14  18
ATOM     18  C   UNL A   1      46.524  26.858  36.190  1.00  0.00     0.065 A 
ATOM     19  C   UNL A   1      44.005  25.731  35.900  1.00  0.00     0.082 A 
ATOM     20  C   UNL A   1      44.455  26.083  37.175  1.00  0.00     0.024 A 
ATOM     21  C   UNL A   1      44.779  25.993  34.764  1.00  0.00     0.024 A 
ATOM     22  C   UNL A   1      45.723  26.637  37.320  1.00  0.00     0.030 A 
ATOM     23  C   UNL A   1      46.036  26.588  34.906  1.00  0.00     0.030 A 
BRANCH  19  24
ATOM     24  S   UNL A   1      42.457  24.895  35.755  1.00  0.00     0.238 S 
ATOM     25  O   UNL A   1      42.690  23.505  35.421  1.00  0.00    -0.207 OA
ATOM     26  O   UNL A   1      41.542  25.728  35.017  1.00  0.00    -0.207 OA
BRANCH  24  27
ATOM     27  N   UNL A   1      41.915  24.883  37.345  1.00  0.00    -0.225 NA
ATOM     28  H   UNL A   1      42.163  25.763  37.796  1.00  0.00     0.137 HD
ATOM     29  H   UNL A   1      42.350  24.108  37.846  1.00  0.00     0.137 HD
ENDBRANCH  24  27
ENDBRANCH  19  24
ENDBRANCH  14  18
BRANCH  16  30
ATOM     30  C   UNL A   1      47.807  29.418  34.954  1.00  0.00     0.000 A 
ATOM     31  C   UNL A   1      46.829  30.227  35.551  1.00  0.00     0.010 A 
ATOM     32  C   UNL A   1      48.169  29.652  33.622  1.00  0.00     0.010 A 
ATOM     33  C   UNL A   1      46.208  31.238  34.819  1.00  0.00     0.001 A 
ATOM     34  C   UNL A   1      47.547  30.664  32.893  1.00  0.00     0.001 A 
ATOM     35  C   UNL A   1      46.566  31.456  33.490  1.00  0.00     0.000 A 
ENDBRANCH  16  30
ENDBRANCH  10  13
ENDBRANCH   8   9
ENDBRANCH   7   8
ENDBRANCH   6   7
ENDBRANCH   4   6
ENDBRANCH   3   4
ENDBRANCH   2   3
ENDBRANCH   1   2
BRANCH   1  36
ATOM     36  O   UNL A   1      53.649  21.794  36.367  1.00  0.00    -0.376 OA
BRANCH  36  37
ATOM     37  C   UNL A   1      52.239  21.697  36.149  1.00  0.00     0.188 C 
BRANCH  37  38
ATOM     38  C   UNL A   1      51.401  22.766  36.857  1.00  0.00     0.188 C 
BRANCH  38  39
ATOM     39  O   UNL A   1      50.023  22.446  37.013  1.00  0.00    -0.376 OA
BRANCH  39  40
ATOM     40  C   UNL A   1      49.405  21.464  36.174  1.00  0.00     0.202 C 
BRANCH  40  41
ATOM     41  C   UNL A   1      48.719  21.776  34.830  1.00  0.00     0.261 C 
BRANCH  41  42
ATOM     42  O   UNL A   1      49.051  23.004  34.216  1.00  0.00    -0.460 OA
BRANCH  42  43
ATOM     43  C   UNL A   1      50.090  23.019  33.359  1.00  0.00     0.338 C 
ATOM     44  O   UNL A   1      50.835  22.098  33.085  1.00  0.00    -0.246 OA
BRANCH  43  45
ATOM     45  C   UNL A   1      50.052  24.348  32.719  1.00  0.00     0.060 A 
ATOM     46  C   UNL A   1      49.299  25.330  33.350  1.00  0.00     0.016 A 
ATOM     47  C   UNL A   1      50.591  24.532  31.426  1.00  0.00     0.016 A 
ATOM     48  C   UNL A   1      48.768  26.308  32.549  1.00  0.00     0.010 A 
ATOM     49  C   UNL A   1      50.082  25.519  30.633  1.00  0.00     0.010 A 
ATOM     50  C   UNL A   1      49.053  26.264  31.179  1.00  0.00    -0.014 A 
BRANCH  50  51
ATOM     51  C   UNL A   1      48.104  26.864  30.280  1.00  0.00     0.031 A 
ATOM     52  C   UNL A   1      46.920  26.042  30.045  1.00  0.00     0.074 A 
ATOM     53  C   UNL A   1      48.332  28.070  29.729  1.00  0.00     0.049 A 
ATOM     54  N   UNL A   1      46.711  25.295  29.018  1.00  0.00    -0.248 NA
ATOM     55  C   UNL A   1      45.977  25.849  31.150  1.00  0.00     0.031 C 
ATOM     56  C   UNL A   1      49.369  29.058  30.046  1.00  0.00     0.029 A 
ATOM     57  N   UNL A   1      47.593  28.700  28.784  1.00  0.00    -0.354 N 
ATOM     58  C   UNL A   1      45.478  24.712  29.240  1.00  0.00     0.074 A 
ATOM     59  C   UNL A   1      45.192  24.899  30.639  1.00  0.00     0.031 C 
ATOM     60  C   UNL A   1      49.045  30.241  29.470  1.00  0.00     0.029 A 
ATOM     61  C   UNL A   1      47.860  30.054  28.648  1.00  0.00     0.049 A 
ATOM     62  H   UNL A   1      46.920  28.233  28.239  1.00  0.00     0.167 HD
ATOM     63  C   UNL A   1      44.687  24.348  28.198  1.00  0.00     0.034 A 
ATOM     64  C   UNL A   1      47.096  30.953  27.972  1.00  0.00     0.034 A 
ATOM     65  C   UNL A   1      45.421  24.356  26.951  1.00  0.00     0.049 A 
ATOM     66  C   UNL A   1      46.326  30.173  26.960  1.00  0.00     0.074 A 
ATOM     67  C   UNL A   1      46.523  23.669  26.478  1.00  0.00     0.029 A 
ATOM     68  N   UNL A   1      45.293  25.460  26.134  1.00  0.00    -0.354 N 
ATOM     69  N   UNL A   1      46.904  29.554  25.964  1.00  0.00    -0.248 NA
ATOM     70  C   UNL A   1      45.026  29.628  27.337  1.00  0.00     0.031 C 
ATOM     71  C   UNL A   1      47.270  24.632  25.737  1.00  0.00     0.029 A 
ATOM     72  C   UNL A   1      46.556  25.833  25.734  1.00  0.00     0.049 A 
ATOM     73  H   UNL A   1      44.449  25.902  25.883  1.00  0.00     0.167 HD
ATOM     74  C   UNL A   1      46.287  28.312  25.896  1.00  0.00     0.074 A 
ATOM     75  C   UNL A   1      45.067  28.456  26.690  1.00  0.00     0.031 C 
ATOM     76  C   UNL A   1      46.961  27.203  25.463  1.00  0.00     0.034 A 
BRANCH  63  77
ATOM     77  C   UNL A   1      43.187  24.323  28.250  1.00  0.00     0.023 A 
ATOM     78  C   UNL A   1      42.552  23.134  27.858  1.00  0.00     0.031 A 
ATOM     79  C   UNL A   1      42.356  25.457  28.399  1.00  0.00     0.131 A 
ATOM     80  C   UNL A   1      41.180  23.123  27.560  1.00  0.00     0.055 A 
ATOM     81  C   UNL A   1      40.980  25.422  28.177  1.00  0.00     0.041 A 
ATOM     82  F   UNL A   1      42.838  26.679  28.660  1.00  0.00    -0.206 F 
ATOM     83  C   UNL A   1      40.388  24.257  27.725  1.00  0.00     0.022 A 
BRANCH  80  84
ATOM     84  S   UNL A   1      40.491  21.646  26.777  1.00  0.00     0.124 S 
ATOM     85  O   UNL A   1      40.572  20.668  27.857  1.00  0.00    -0.237 OA
ATOM     86  O   UNL A   1      39.152  22.096  26.414  1.00  0.00    -0.237 OA
ATOM     87  O   UNL A   1      41.397  21.408  25.654  1.00  0.00    -0.744 OA
ENDBRANCH  80  84
ENDBRANCH  63  77
BRANCH  64  88
ATOM     88  C   UNL A   1      46.748  32.323  28.448  1.00  0.00     0.023 A 
ATOM     89  C   UNL A   1      46.972  33.490  27.690  1.00  0.00     0.031 A 
ATOM     90  C   UNL A   1      45.970  32.475  29.622  1.00  0.00     0.131 A 
ATOM     91  C   UNL A   1      46.443  34.734  28.122  1.00  0.00     0.055 A 
ATOM     92  C   UNL A   1      45.459  33.702  30.046  1.00  0.00     0.041 A 
ATOM     93  F   UNL A   1      45.606  31.415  30.361  1.00  0.00    -0.206 F 
ATOM     94  C   UNL A   1      45.688  34.839  29.292  1.00  0.00     0.022 A 
BRANCH  91  95
ATOM     95  S   UNL A   1      46.657  36.237  27.111  1.00  0.00     0.124 S 
ATOM     96  O   UNL A   1      47.079  37.220  28.101  1.00  0.00    -0.237 OA
ATOM     97  O   UNL A   1      47.661  35.820  26.140  1.00  0.00    -0.237 OA
ATOM     98  O   UNL A   1      45.324  36.465  26.551  1.00  0.00    -0.744 OA
ENDBRANCH  91  95
ENDBRANCH  64  88
BRANCH  76  99
ATOM     99  C   UNL A   1      48.342  27.401  24.857  1.00  0.00     0.023 A 
ATOM    100  C   UNL A   1      49.550  27.350  25.592  1.00  0.00     0.031 A 
ATOM    101  C   UNL A   1      48.440  27.516  23.460  1.00  0.00     0.131 A 
ATOM    102  C   UNL A   1      50.791  27.435  24.929  1.00  0.00     0.055 A 
ATOM    103  C   UNL A   1      49.671  27.576  22.804  1.00  0.00     0.041 A 
ATOM    104  F   UNL A   1      47.333  27.532  22.700  1.00  0.00    -0.206 F 
ATOM    105  C   UNL A   1      50.852  27.543  23.537  1.00  0.00     0.022 A 
BRANCH 102 106
ATOM    106  S   UNL A   1      52.349  27.406  25.877  1.00  0.00     0.124 S 
ATOM    107  O   UNL A   1      52.394  28.726  26.495  1.00  0.00    -0.237 OA
ATOM    108  O   UNL A   1      52.150  26.280  26.786  1.00  0.00    -0.237 OA
ATOM    109  O   UNL A   1      53.369  27.180  24.851  1.00  0.00    -0.744 OA
ENDBRANCH 102 106
ENDBRANCH  76  99
ENDBRANCH  50  51
ENDBRANCH  43  45
ENDBRANCH  42  43
ENDBRANCH  41  42
ENDBRANCH  40  41
ENDBRANCH  39  40
ENDBRANCH  38  39
ENDBRANCH  37  38
ENDBRANCH  36  37
ENDBRANCH   1  36
TORSDOF 28
ENDMDL
MODEL 3
REMARK VINA RESULT:      -8.3      6.451      9.773
REMARK SMILES NS(=O)(=O)c1ccc(-n2nc(C(=O)NCCCC(=O)OCCOCCOCCOC(=O)c3ccc(-c4c5nc(c(-c6cc(S(=O)(=O)[O-])ccc6F)c6ccc([nH]6)c(-c6cc(S(=O)(=O)[O-])ccc6F)c6nc(c(-c7cc(S(=O)(=O)[O-])ccc7F)c7ccc4[nH]7)C=C6)C=C5)cc3)cc2-c2ccccc2)cc1
REMARK SMILES IDX 22 1 21 2 20 3 18 4 19 5 17 6 16 7 15 8 14 9 12 10 13 11
REMARK SMILES IDX 11 13 9 14 10 15 96 16 95 17 8 18 5 19 6 20 104 21 7 22
REMARK SMILES IDX 103 23 2 24 3 25 4 26 1 27 97 30 98 31 102 32 99 33 101 34
REMARK SMILES IDX 100 35 23 36 24 37 25 38 26 39 27 40 28 41 29 42 30 43 31 44
REMARK SMILES IDX 32 45 33 46 94 47 34 48 93 49 35 50 36 51 37 52 87 53 38 54
REMARK SMILES IDX 92 55 86 56 88 57 39 58 91 59 85 60 84 61 40 63 72 64 52 65
REMARK SMILES IDX 71 66 53 67 56 68 70 69 89 70 54 71 55 72 69 74 90 75 57 76
REMARK SMILES IDX 41 77 42 78 50 79 43 80 49 81 51 82 48 83 44 84 45 85 46 86
REMARK SMILES IDX 47 87 73 88 74 89 82 90 75 91 81 92 83 93 80 94 76 95 77 96
REMARK SMILES IDX 78 97 79 98 58 99 59 100 67 101 60 102 66 103 68 104 65 105
REMARK SMILES IDX 61 106 62 107 63 108 64 109
REMARK H PARENT 14 12 1 28 1 29 88 62 56 73
REMARK Flexibility Score: inf
ROOT
ATOM      1  C   UNL A   1      47.643  36.691  25.787  1.00  0.00     0.202 C 
ENDROOT
BRANCH   1   2
ATOM      2  C   UNL A   1      48.270  38.020  25.339  1.00  0.00     0.261 C 
BRANCH   2   3
ATOM      3  O   UNL A   1      48.037  39.104  26.258  1.00  0.00    -0.463 OA
BRANCH   3   4
ATOM      4  C   UNL A   1      47.162  40.067  25.889  1.00  0.00     0.305 C 
ATOM      5  O   UNL A   1      46.569  40.099  24.818  1.00  0.00    -0.252 OA
BRANCH   4   6
ATOM      6  C   UNL A   1      46.940  41.130  26.954  1.00  0.00     0.124 C 
BRANCH   6   7
ATOM      7  C   UNL A   1      46.678  42.578  26.539  1.00  0.00     0.033 C 
BRANCH   7   8
ATOM      8  C   UNL A   1      45.265  43.103  26.766  1.00  0.00     0.117 C 
BRANCH   8   9
ATOM      9  N   UNL A   1      44.265  42.308  26.089  1.00  0.00    -0.351 N 
ATOM     10  C   UNL A   1      43.864  42.195  24.778  1.00  0.00     0.271 C 
ATOM     11  O   UNL A   1      42.954  41.379  24.591  1.00  0.00    -0.267 OA
ATOM     12  H   UNL A   1      43.761  41.721  26.698  1.00  0.00     0.163 HD
BRANCH  10  13
ATOM     13  C   UNL A   1      44.478  42.949  23.658  1.00  0.00     0.151 A 
ATOM     14  N   UNL A   1      46.043  43.459  22.264  1.00  0.00    -0.232 N 
ATOM     15  N   UNL A   1      45.627  42.490  23.109  1.00  0.00    -0.162 NA
ATOM     16  C   UNL A   1      45.074  44.421  22.063  1.00  0.00     0.075 A 
ATOM     17  C   UNL A   1      44.092  44.136  22.988  1.00  0.00     0.065 A 
BRANCH  14  18
ATOM     18  C   UNL A   1      47.343  43.418  21.699  1.00  0.00     0.065 A 
ATOM     19  C   UNL A   1      49.821  43.569  20.462  1.00  0.00     0.082 A 
ATOM     20  C   UNL A   1      49.639  44.177  21.706  1.00  0.00     0.024 A 
ATOM     21  C   UNL A   1      48.793  42.835  19.860  1.00  0.00     0.024 A 
ATOM     22  C   UNL A   1      48.392  44.111  22.320  1.00  0.00     0.030 A 
ATOM     23  C   UNL A   1      47.553  42.733  20.496  1.00  0.00     0.030 A 
BRANCH  19  24
ATOM     24  S   UNL A   1      51.366  43.793  19.635  1.00  0.00     0.238 S 
ATOM     25  O   UNL A   1      51.125  44.069  18.233  1.00  0.00    -0.207 OA
ATOM     26  O   UNL A   1      52.285  42.777  20.079  1.00  0.00    -0.207 OA
BRANCH  24  27
ATOM     27  N   UNL A   1      51.906  45.244  20.286  1.00  0.00    -0.225 NA
ATOM     28  H   UNL A   1      51.105  45.807  20.571  1.00  0.00     0.137 HD
ATOM     29  H   UNL A   1      52.447  45.750  19.585  1.00  0.00     0.137 HD
ENDBRANCH  24  27
ENDBRANCH  19  24
ENDBRANCH  14  18
BRANCH  16  30
ATOM     30  C   UNL A   1      45.076  45.453  21.029  1.00  0.00     0.000 A 
ATOM     31  C   UNL A   1      45.652  46.708  21.273  1.00  0.00     0.010 A 
ATOM     32  C   UNL A   1      44.533  45.183  19.767  1.00  0.00     0.010 A 
ATOM     33  C   UNL A   1      45.663  47.684  20.278  1.00  0.00     0.001 A 
ATOM     34  C   UNL A   1      44.545  46.161  18.774  1.00  0.00     0.001 A 
ATOM     35  C   UNL A   1      45.108  47.411  19.029  1.00  0.00     0.000 A 
ENDBRANCH  16  30
ENDBRANCH  10  13
ENDBRANCH   8   9
ENDBRANCH   7   8
ENDBRANCH   6   7
ENDBRANCH   4   6
ENDBRANCH   3   4
ENDBRANCH   2   3
ENDBRANCH   1   2
BRANCH   1  36
ATOM     36  O   UNL A   1      46.951  36.736  27.034  1.00  0.00    -0.376 OA
BRANCH  36  37
ATOM     37  C   UNL A   1      45.523  36.706  26.962  1.00  0.00     0.188 C 
BRANCH  37  38
ATOM     38  C   UNL A   1      44.844  38.078  27.021  1.00  0.00     0.188 C 
BRANCH  38  39
ATOM     39  O   UNL A   1      43.424  38.052  26.955  1.00  0.00    -0.376 OA
BRANCH  39  40
ATOM     40  C   UNL A   1      42.643  39.012  27.677  1.00  0.00     0.202 C 
BRANCH  40  41
ATOM     41  C   UNL A   1      42.545  39.074  29.213  1.00  0.00     0.261 C 
BRANCH  41  42
ATOM     42  O   UNL A   1      43.577  38.444  29.943  1.00  0.00    -0.460 OA
BRANCH  42  43
ATOM     43  C   UNL A   1      44.019  39.053  31.062  1.00  0.00     0.338 C 
ATOM     44  O   UNL A   1      44.166  40.245  31.244  1.00  0.00    -0.246 OA
BRANCH  43  45
ATOM     45  C   UNL A   1      44.157  37.978  32.064  1.00  0.00     0.060 A 
ATOM     46  C   UNL A   1      44.992  36.917  31.738  1.00  0.00     0.016 A 
ATOM     47  C   UNL A   1      43.315  37.950  33.198  1.00  0.00     0.016 A 
ATOM     48  C   UNL A   1      44.697  35.705  32.309  1.00  0.00     0.010 A 
ATOM     49  C   UNL A   1      43.037  36.750  33.784  1.00  0.00     0.010 A 
ATOM     50  C   UNL A   1      43.614  35.640  33.194  1.00  0.00    -0.014 A 
BRANCH  50  51
ATOM     51  C   UNL A   1      42.944  34.376  33.336  1.00  0.00     0.031 A 
ATOM     52  C   UNL A   1      41.898  34.152  32.342  1.00  0.00     0.074 A 
ATOM     53  C   UNL A   1      43.282  33.513  34.313  1.00  0.00     0.049 A 
ATOM     54  N   UNL A   1      40.634  34.310  32.527  1.00  0.00    -0.248 NA
ATOM     55  C   UNL A   1      42.296  33.952  30.946  1.00  0.00     0.031 C 
ATOM     56  C   UNL A   1      44.431  33.541  35.223  1.00  0.00     0.029 A 
ATOM     57  N   UNL A   1      42.666  32.351  34.638  1.00  0.00    -0.354 N 
ATOM     58  C   UNL A   1      40.049  33.993  31.316  1.00  0.00     0.074 A 
ATOM     59  C   UNL A   1      41.109  34.013  30.341  1.00  0.00     0.031 C 
ATOM     60  C   UNL A   1      44.547  32.335  35.829  1.00  0.00     0.029 A 
ATOM     61  C   UNL A   1      43.413  31.508  35.447  1.00  0.00     0.049 A 
ATOM     62  H   UNL A   1      41.761  32.124  34.325  1.00  0.00     0.167 HD
ATOM     63  C   UNL A   1      38.786  33.494  31.267  1.00  0.00     0.034 A 
ATOM     64  C   UNL A   1      43.142  30.199  35.700  1.00  0.00     0.034 A 
ATOM     65  C   UNL A   1      38.105  33.659  32.533  1.00  0.00     0.049 A 
ATOM     66  C   UNL A   1      41.677  30.024  35.479  1.00  0.00     0.074 A 
ATOM     67  C   UNL A   1      37.746  34.752  33.298  1.00  0.00     0.029 A 
ATOM     68  N   UNL A   1      38.063  32.577  33.387  1.00  0.00    -0.354 N 
ATOM     69  N   UNL A   1      40.780  30.604  36.234  1.00  0.00    -0.248 NA
ATOM     70  C   UNL A   1      41.206  29.673  34.143  1.00  0.00     0.031 C 
ATOM     71  C   UNL A   1      37.984  34.355  34.647  1.00  0.00     0.029 A 
ATOM     72  C   UNL A   1      38.407  33.023  34.644  1.00  0.00     0.049 A 
ATOM     73  H   UNL A   1      37.828  31.653  33.143  1.00  0.00     0.167 HD
ATOM     74  C   UNL A   1      39.821  31.091  35.356  1.00  0.00     0.074 A 
ATOM     75  C   UNL A   1      40.078  30.394  34.096  1.00  0.00     0.031 C 
ATOM     76  C   UNL A   1      39.108  32.225  35.636  1.00  0.00     0.034 A 
BRANCH  63  77
ATOM     77  C   UNL A   1      38.293  32.560  30.201  1.00  0.00     0.023 A 
ATOM     78  C   UNL A   1      37.127  32.931  29.512  1.00  0.00     0.031 A 
ATOM     79  C   UNL A   1      38.736  31.230  30.013  1.00  0.00     0.131 A 
ATOM     80  C   UNL A   1      36.418  31.988  28.751  1.00  0.00     0.055 A 
ATOM     81  C   UNL A   1      38.070  30.319  29.194  1.00  0.00     0.041 A 
ATOM     82  F   UNL A   1      39.765  30.707  30.690  1.00  0.00    -0.206 F 
ATOM     83  C   UNL A   1      36.886  30.687  28.580  1.00  0.00     0.022 A 
BRANCH  80  84
ATOM     84  S   UNL A   1      34.778  32.446  28.143  1.00  0.00     0.124 S 
ATOM     85  O   UNL A   1      34.462  31.326  27.262  1.00  0.00    -0.237 OA
ATOM     86  O   UNL A   1      34.011  32.527  29.381  1.00  0.00    -0.237 OA
ATOM     87  O   UNL A   1      35.014  33.720  27.467  1.00  0.00    -0.744 OA
ENDBRANCH  80  84
ENDBRANCH  63  77
BRANCH  64  88
ATOM     88  C   UNL A   1      44.146  29.097  35.721  1.00  0.00     0.023 A 
ATOM     89  C   UNL A   1      44.682  28.511  34.555  1.00  0.00     0.031 A 
ATOM     90  C   UNL A   1      44.761  28.739  36.945  1.00  0.00     0.131 A 
ATOM     91  C   UNL A   1      45.771  27.605  34.648  1.00  0.00     0.055 A 
ATOM     92  C   UNL A   1      45.826  27.841  37.031  1.00  0.00     0.041 A 
ATOM     93  F   UNL A   1      44.402  29.317  38.102  1.00  0.00    -0.206 F 
ATOM     94  C   UNL A   1      46.341  27.274  35.879  1.00  0.00     0.022 A 
BRANCH  91  95
ATOM     95  S   UNL A   1      46.526  26.902  33.146  1.00  0.00     0.124 S 
ATOM     96  O   UNL A   1      45.798  25.649  32.988  1.00  0.00    -0.237 OA
ATOM     97  O   UNL A   1      46.263  27.935  32.151  1.00  0.00    -0.237 OA
ATOM     98  O   UNL A   1      47.936  26.751  33.510  1.00  0.00    -0.744 OA
ENDBRANCH  91  95
ENDBRANCH  64  88
BRANCH  76  99
ATOM     99  C   UNL A   1      39.240  32.822  37.027  1.00  0.00     0.023 A 
ATOM    100  C   UNL A   1      38.568  32.333  38.173  1.00  0.00     0.031 A 
ATOM    101  C   UNL A   1      40.185  33.844  37.220  1.00  0.00     0.131 A 
ATOM    102  C   UNL A   1      38.837  32.880  39.444  1.00  0.00     0.055 A 
ATOM    103  C   UNL A   1      40.467  34.368  38.483  1.00  0.00     0.041 A 
ATOM    104  F   UNL A   1      40.885  34.328  36.181  1.00  0.00    -0.206 F 
ATOM    105  C   UNL A   1      39.788  33.892  39.600  1.00  0.00     0.022 A 
BRANCH 102 106
ATOM    106  S   UNL A   1      37.946  32.277  40.917  1.00  0.00     0.124 S 
ATOM    107  O   UNL A   1      37.322  31.043  40.454  1.00  0.00    -0.237 OA
ATOM    108  O   UNL A   1      39.018  32.123  41.897  1.00  0.00    -0.237 OA
ATOM    109  O   UNL A   1      37.006  33.359  41.214  1.00  0.00    -0.744 OA
ENDBRANCH 102 106
ENDBRANCH  76  99
ENDBRANCH  50  51
ENDBRANCH  43  45
ENDBRANCH  42  43
ENDBRANCH  41  42
ENDBRANCH  40  41
ENDBRANCH  39  40
ENDBRANCH  38  39
ENDBRANCH  37  38
ENDBRANCH  36  37
ENDBRANCH   1  36
TORSDOF 28
ENDMDL
