MODEL 1
REMARK VINA RESULT:      -9.7      0.000      0.000
REMARK SMILES CC[C@H](C)[C@H](NC(=O)[C@@H]1CCC[NH2+]1)C(=O)OCCOCCOCCOC(=O)c1ccc(-c2c3nc(c(-c4cc(S(=O)(=O)[O-])ccc4F)c4ccc([nH]4)c(-c4cc(S(=O)(=O)[O-])ccc4F)c4nc(c(-c5cc(S(=O)(=O)[O-])ccc5F)c5ccc2[nH]5)C=C4)C=C3)cc1
REMARK SMILES IDX 21 1 20 2 19 3 18 4 17 5 16 6 14 7 15 8 5 9 3 10 4 11 2 12
REMARK SMILES IDX 1 13 6 14 7 15 8 17 9 18 10 19 13 20 11 21 12 22 22 25 23 26
REMARK SMILES IDX 24 27 25 28 26 29 27 30 28 31 29 32 90 33 30 34 89 35 31 36
REMARK SMILES IDX 32 37 33 38 83 39 34 40 88 41 82 42 84 43 35 44 87 45 81 46
REMARK SMILES IDX 80 47 36 49 68 50 48 51 67 52 49 53 52 54 66 55 85 56 50 57
REMARK SMILES IDX 51 58 65 60 86 61 53 62 37 63 38 64 46 65 39 66 45 67 47 68
REMARK SMILES IDX 44 69 40 70 41 71 42 72 43 73 69 74 70 75 78 76 71 77 77 78
REMARK SMILES IDX 79 79 76 80 72 81 73 82 74 83 75 84 54 85 55 86 63 87 56 88
REMARK SMILES IDX 62 89 64 90 61 91 57 92 58 93 59 94 60 95
REMARK H PARENT 6 16 13 23 13 24 84 48 52 59
REMARK Flexibility Score: inf
ROOT
ATOM      1  C   UNL A   1      34.105  23.902  25.655  1.00  0.00     0.188 C 
ENDROOT
BRANCH   1   2
ATOM      2  C   UNL A   1      33.836  25.334  25.223  1.00  0.00     0.188 C 
BRANCH   2   3
ATOM      3  O   UNL A   1      32.603  25.468  24.524  1.00  0.00    -0.376 OA
BRANCH   3   4
ATOM      4  C   UNL A   1      32.722  25.579  23.104  1.00  0.00     0.202 C 
BRANCH   4   5
ATOM      5  C   UNL A   1      31.399  25.464  22.322  1.00  0.00     0.261 C 
BRANCH   5   6
ATOM      6  O   UNL A   1      30.874  26.755  21.922  1.00  0.00    -0.462 OA
BRANCH   6   7
ATOM      7  C   UNL A   1      30.126  27.438  22.825  1.00  0.00     0.328 C 
ATOM      8  O   UNL A   1      29.166  26.949  23.416  1.00  0.00    -0.250 OA
BRANCH   7   9
ATOM      9  C   UNL A   1      30.604  28.890  23.097  1.00  0.00     0.195 C 
BRANCH   9  10
ATOM     10  C   UNL A   1      29.538  30.023  22.931  1.00  0.00     0.019 C 
ATOM     11  C   UNL A   1      29.565  31.056  24.067  1.00  0.00     0.010 C 
BRANCH  10  12
ATOM     12  C   UNL A   1      29.410  30.702  21.557  1.00  0.00     0.002 C 
ATOM     13  C   UNL A   1      28.023  30.728  20.952  1.00  0.00     0.004 C 
ENDBRANCH  10  12
ENDBRANCH   9  10
BRANCH   9  14
ATOM     14  N   UNL A   1      32.026  29.318  23.066  1.00  0.00    -0.337 N 
ATOM     15  C   UNL A   1      33.147  29.011  23.766  1.00  0.00     0.278 C 
ATOM     16  H   UNL A   1      32.197  29.990  22.367  1.00  0.00     0.164 HD
ATOM     17  O   UNL A   1      34.177  28.887  23.088  1.00  0.00    -0.268 OA
BRANCH  15  18
ATOM     18  C   UNL A   1      33.256  28.912  25.284  1.00  0.00     0.272 C 
ATOM     19  C   UNL A   1      31.967  28.479  25.955  1.00  0.00     0.081 C 
ATOM     20  N   UNL A   1      33.617  30.155  25.955  1.00  0.00    -0.336 N 
ATOM     21  C   UNL A   1      32.140  28.934  27.392  1.00  0.00     0.068 C 
ATOM     22  C   UNL A   1      33.163  30.053  27.339  1.00  0.00     0.261 C 
ATOM     23  H   UNL A   1      33.163  30.944  25.496  1.00  0.00     0.346 HD
ATOM     24  H   UNL A   1      34.626  30.305  25.917  1.00  0.00     0.346 HD
ENDBRANCH  15  18
ENDBRANCH   9  14
ENDBRANCH   7   9
ENDBRANCH   6   7
ENDBRANCH   5   6
ENDBRANCH   4   5
ENDBRANCH   3   4
ENDBRANCH   2   3
ENDBRANCH   1   2
BRANCH   1  25
ATOM     25  O   UNL A   1      34.837  23.185  24.648  1.00  0.00    -0.376 OA
BRANCH  25  26
ATOM     26  C   UNL A   1      34.596  21.775  24.666  1.00  0.00     0.202 C 
BRANCH  26  27
ATOM     27  C   UNL A   1      35.722  20.900  25.236  1.00  0.00     0.261 C 
BRANCH  27  28
ATOM     28  O   UNL A   1      36.666  21.673  25.988  1.00  0.00    -0.460 OA
BRANCH  28  29
ATOM     29  C   UNL A   1      37.960  21.281  25.843  1.00  0.00     0.338 C 
ATOM     30  O   UNL A   1      38.354  20.224  25.398  1.00  0.00    -0.246 OA
BRANCH  29  31
ATOM     31  C   UNL A   1      38.837  22.453  26.108  1.00  0.00     0.060 A 
ATOM     32  C   UNL A   1      40.119  22.211  26.623  1.00  0.00     0.016 A 
ATOM     33  C   UNL A   1      38.468  23.750  25.721  1.00  0.00     0.016 A 
ATOM     34  C   UNL A   1      41.021  23.263  26.781  1.00  0.00     0.010 A 
ATOM     35  C   UNL A   1      39.375  24.799  25.871  1.00  0.00     0.010 A 
ATOM     36  C   UNL A   1      40.639  24.566  26.436  1.00  0.00    -0.014 A 
BRANCH  36  37
ATOM     37  C   UNL A   1      41.423  25.728  26.915  1.00  0.00     0.031 A 
ATOM     38  C   UNL A   1      40.701  26.718  27.786  1.00  0.00     0.074 A 
ATOM     39  C   UNL A   1      42.707  25.923  26.567  1.00  0.00     0.049 A 
ATOM     40  N   UNL A   1      41.095  27.879  28.238  1.00  0.00    -0.248 NA
ATOM     41  C   UNL A   1      39.329  26.350  28.179  1.00  0.00     0.031 C 
ATOM     42  C   UNL A   1      43.515  25.015  25.754  1.00  0.00     0.029 A 
ATOM     43  N   UNL A   1      43.551  26.969  26.844  1.00  0.00    -0.354 N 
ATOM     44  C   UNL A   1      40.020  28.378  28.965  1.00  0.00     0.074 A 
ATOM     45  C   UNL A   1      38.943  27.421  28.848  1.00  0.00     0.031 C 
ATOM     46  C   UNL A   1      44.734  25.557  25.581  1.00  0.00     0.029 A 
ATOM     47  C   UNL A   1      44.782  26.861  26.240  1.00  0.00     0.049 A 
ATOM     48  H   UNL A   1      43.298  27.725  27.421  1.00  0.00     0.167 HD
ATOM     49  C   UNL A   1      39.942  29.528  29.677  1.00  0.00     0.034 A 
ATOM     50  C   UNL A   1      45.810  27.734  26.206  1.00  0.00     0.034 A 
ATOM     51  C   UNL A   1      41.014  30.482  29.761  1.00  0.00     0.049 A 
ATOM     52  C   UNL A   1      45.674  29.052  26.939  1.00  0.00     0.074 A 
ATOM     53  C   UNL A   1      41.050  31.685  30.441  1.00  0.00     0.029 A 
ATOM     54  N   UNL A   1      42.243  30.347  29.125  1.00  0.00    -0.354 N 
ATOM     55  N   UNL A   1      44.658  29.514  27.632  1.00  0.00    -0.248 NA
ATOM     56  C   UNL A   1      46.826  29.961  26.889  1.00  0.00     0.031 C 
ATOM     57  C   UNL A   1      42.274  32.305  30.168  1.00  0.00     0.029 A 
ATOM     58  C   UNL A   1      43.034  31.455  29.379  1.00  0.00     0.049 A 
ATOM     59  H   UNL A   1      42.513  29.575  28.576  1.00  0.00     0.167 HD
ATOM     60  C   UNL A   1      45.063  30.753  28.126  1.00  0.00     0.074 A 
ATOM     61  C   UNL A   1      46.420  30.959  27.661  1.00  0.00     0.031 C 
ATOM     62  C   UNL A   1      44.384  31.639  28.899  1.00  0.00     0.034 A 
BRANCH  49  63
ATOM     63  C   UNL A   1      38.630  29.815  30.364  1.00  0.00     0.023 A 
ATOM     64  C   UNL A   1      37.714  30.744  29.840  1.00  0.00     0.031 A 
ATOM     65  C   UNL A   1      38.326  29.211  31.596  1.00  0.00     0.131 A 
ATOM     66  C   UNL A   1      36.580  31.104  30.583  1.00  0.00     0.055 A 
ATOM     67  C   UNL A   1      37.152  29.511  32.290  1.00  0.00     0.041 A 
ATOM     68  F   UNL A   1      39.178  28.341  32.160  1.00  0.00    -0.206 F 
ATOM     69  C   UNL A   1      36.279  30.474  31.793  1.00  0.00     0.022 A 
BRANCH  66  70
ATOM     70  S   UNL A   1      35.590  32.517  30.024  1.00  0.00     0.124 S 
ATOM     71  O   UNL A   1      35.403  32.203  28.609  1.00  0.00    -0.237 OA
ATOM     72  O   UNL A   1      34.402  32.423  30.863  1.00  0.00    -0.237 OA
ATOM     73  O   UNL A   1      36.453  33.667  30.289  1.00  0.00    -0.744 OA
ENDBRANCH  66  70
ENDBRANCH  49  63
BRANCH  50  74
ATOM     74  C   UNL A   1      47.044  27.431  25.423  1.00  0.00     0.023 A 
ATOM     75  C   UNL A   1      47.163  27.806  24.074  1.00  0.00     0.031 A 
ATOM     76  C   UNL A   1      48.097  26.695  25.995  1.00  0.00     0.131 A 
ATOM     77  C   UNL A   1      48.284  27.401  23.330  1.00  0.00     0.055 A 
ATOM     78  C   UNL A   1      49.234  26.339  25.264  1.00  0.00     0.041 A 
ATOM     79  F   UNL A   1      48.035  26.304  27.278  1.00  0.00    -0.206 F 
ATOM     80  C   UNL A   1      49.324  26.682  23.919  1.00  0.00     0.022 A 
BRANCH  77  81
ATOM     81  S   UNL A   1      48.319  27.752  21.549  1.00  0.00     0.124 S 
ATOM     82  O   UNL A   1      46.972  28.260  21.320  1.00  0.00    -0.237 OA
ATOM     83  O   UNL A   1      49.399  28.730  21.455  1.00  0.00    -0.237 OA
ATOM     84  O   UNL A   1      48.607  26.451  20.951  1.00  0.00    -0.744 OA
ENDBRANCH  77  81
ENDBRANCH  50  74
BRANCH  62  85
ATOM     85  C   UNL A   1      45.120  32.882  29.334  1.00  0.00     0.023 A 
ATOM     86  C   UNL A   1      45.137  34.048  28.549  1.00  0.00     0.031 A 
ATOM     87  C   UNL A   1      45.805  32.900  30.562  1.00  0.00     0.131 A 
ATOM     88  C   UNL A   1      45.868  35.167  28.978  1.00  0.00     0.055 A 
ATOM     89  C   UNL A   1      46.481  34.034  31.011  1.00  0.00     0.041 A 
ATOM     90  F   UNL A   1      45.818  31.814  31.353  1.00  0.00    -0.206 F 
ATOM     91  C   UNL A   1      46.525  35.173  30.211  1.00  0.00     0.022 A 
BRANCH  88  92
ATOM     92  S   UNL A   1      46.015  36.593  27.866  1.00  0.00     0.124 S 
ATOM     93  O   UNL A   1      44.700  36.623  27.235  1.00  0.00    -0.237 OA
ATOM     94  O   UNL A   1      46.302  37.683  28.794  1.00  0.00    -0.237 OA
ATOM     95  O   UNL A   1      47.120  36.226  26.982  1.00  0.00    -0.744 OA
ENDBRANCH  88  92
ENDBRANCH  62  85
ENDBRANCH  36  37
ENDBRANCH  29  31
ENDBRANCH  28  29
ENDBRANCH  27  28
ENDBRANCH  26  27
ENDBRANCH  25  26
ENDBRANCH   1  25
TORSDOF 24
ENDMDL
MODEL 2
REMARK VINA RESULT:      -9.5      1.811      2.128
REMARK SMILES CC[C@H](C)[C@H](NC(=O)[C@@H]1CCC[NH2+]1)C(=O)OCCOCCOCCOC(=O)c1ccc(-c2c3nc(c(-c4cc(S(=O)(=O)[O-])ccc4F)c4ccc([nH]4)c(-c4cc(S(=O)(=O)[O-])ccc4F)c4nc(c(-c5cc(S(=O)(=O)[O-])ccc5F)c5ccc2[nH]5)C=C4)C=C3)cc1
REMARK SMILES IDX 21 1 20 2 19 3 18 4 17 5 16 6 14 7 15 8 5 9 3 10 4 11 2 12
REMARK SMILES IDX 1 13 6 14 7 15 8 17 9 18 10 19 13 20 11 21 12 22 22 25 23 26
REMARK SMILES IDX 24 27 25 28 26 29 27 30 28 31 29 32 90 33 30 34 89 35 31 36
REMARK SMILES IDX 32 37 33 38 83 39 34 40 88 41 82 42 84 43 35 44 87 45 81 46
REMARK SMILES IDX 80 47 36 49 68 50 48 51 67 52 49 53 52 54 66 55 85 56 50 57
REMARK SMILES IDX 51 58 65 60 86 61 53 62 37 63 38 64 46 65 39 66 45 67 47 68
REMARK SMILES IDX 44 69 40 70 41 71 42 72 43 73 69 74 70 75 78 76 71 77 77 78
REMARK SMILES IDX 79 79 76 80 72 81 73 82 74 83 75 84 54 85 55 86 63 87 56 88
REMARK SMILES IDX 62 89 64 90 61 91 57 92 58 93 59 94 60 95
REMARK H PARENT 6 16 13 23 13 24 84 48 52 59
REMARK Flexibility Score: inf
ROOT
ATOM      1  C   UNL A   1      35.165  23.725  25.560  1.00  0.00     0.188 C 
ENDROOT
BRANCH   1   2
ATOM      2  C   UNL A   1      34.641  25.146  25.433  1.00  0.00     0.188 C 
BRANCH   2   3
ATOM      3  O   UNL A   1      33.534  25.238  24.544  1.00  0.00    -0.376 OA
BRANCH   3   4
ATOM      4  C   UNL A   1      33.864  25.160  23.155  1.00  0.00     0.202 C 
BRANCH   4   5
ATOM      5  C   UNL A   1      32.783  24.531  22.255  1.00  0.00     0.261 C 
BRANCH   5   6
ATOM      6  O   UNL A   1      31.800  25.497  21.807  1.00  0.00    -0.462 OA
BRANCH   6   7
ATOM      7  C   UNL A   1      30.902  25.953  22.717  1.00  0.00     0.328 C 
ATOM      8  O   UNL A   1      30.201  25.213  23.404  1.00  0.00    -0.250 OA
BRANCH   7   9
ATOM      9  C   UNL A   1      30.856  27.497  22.866  1.00  0.00     0.195 C 
BRANCH   9  10
ATOM     10  C   UNL A   1      29.450  28.173  22.741  1.00  0.00     0.019 C 
ATOM     11  C   UNL A   1      28.370  27.494  23.597  1.00  0.00     0.010 C 
BRANCH  10  12
ATOM     12  C   UNL A   1      29.371  29.705  22.849  1.00  0.00     0.002 C 
ATOM     13  C   UNL A   1      29.201  30.458  21.546  1.00  0.00     0.004 C 
ENDBRANCH  10  12
ENDBRANCH   9  10
BRANCH   9  14
ATOM     14  N   UNL A   1      32.030  28.388  22.677  1.00  0.00    -0.337 N 
ATOM     15  C   UNL A   1      33.066  28.803  23.450  1.00  0.00     0.278 C 
ATOM     16  H   UNL A   1      32.065  28.771  21.771  1.00  0.00     0.164 HD
ATOM     17  O   UNL A   1      34.167  28.840  22.882  1.00  0.00    -0.268 OA
BRANCH  15  18
ATOM     18  C   UNL A   1      32.967  29.310  24.884  1.00  0.00     0.272 C 
ATOM     19  C   UNL A   1      32.668  28.216  25.892  1.00  0.00     0.081 C 
ATOM     20  N   UNL A   1      31.930  30.309  25.111  1.00  0.00    -0.336 N 
ATOM     21  C   UNL A   1      32.123  28.971  27.090  1.00  0.00     0.068 C 
ATOM     22  C   UNL A   1      31.603  30.284  26.535  1.00  0.00     0.261 C 
ATOM     23  H   UNL A   1      31.102  30.085  24.559  1.00  0.00     0.346 HD
ATOM     24  H   UNL A   1      32.255  31.236  24.832  1.00  0.00     0.346 HD
ENDBRANCH  15  18
ENDBRANCH   9  14
ENDBRANCH   7   9
ENDBRANCH   6   7
ENDBRANCH   5   6
ENDBRANCH   4   5
ENDBRANCH   3   4
ENDBRANCH   2   3
ENDBRANCH   1   2
BRANCH   1  25
ATOM     25  O   UNL A   1      36.207  23.468  24.605  1.00  0.00    -0.376 OA
BRANCH  25  26
ATOM     26  C   UNL A   1      36.198  22.129  24.100  1.00  0.00     0.202 C 
BRANCH  26  27
ATOM     27  C   UNL A   1      37.377  21.238  24.519  1.00  0.00     0.261 C 
BRANCH  27  28
ATOM     28  O   UNL A   1      37.755  21.463  25.883  1.00  0.00    -0.460 OA
BRANCH  28  29
ATOM     29  C   UNL A   1      39.051  21.164  26.166  1.00  0.00     0.338 C 
ATOM     30  O   UNL A   1      39.636  20.136  25.898  1.00  0.00    -0.246 OA
BRANCH  29  31
ATOM     31  C   UNL A   1      39.719  22.398  26.662  1.00  0.00     0.060 A 
ATOM     32  C   UNL A   1      39.234  23.634  26.208  1.00  0.00     0.016 A 
ATOM     33  C   UNL A   1      40.700  22.353  27.663  1.00  0.00     0.016 A 
ATOM     34  C   UNL A   1      39.747  24.821  26.729  1.00  0.00     0.010 A 
ATOM     35  C   UNL A   1      41.205  23.541  28.189  1.00  0.00     0.010 A 
ATOM     36  C   UNL A   1      40.757  24.778  27.698  1.00  0.00    -0.014 A 
BRANCH  36  37
ATOM     37  C   UNL A   1      41.557  25.989  28.001  1.00  0.00     0.031 A 
ATOM     38  C   UNL A   1      40.845  27.111  28.703  1.00  0.00     0.074 A 
ATOM     39  C   UNL A   1      42.846  26.108  27.639  1.00  0.00     0.049 A 
ATOM     40  N   UNL A   1      41.255  28.321  28.975  1.00  0.00    -0.248 NA
ATOM     41  C   UNL A   1      39.464  26.829  29.135  1.00  0.00     0.031 C 
ATOM     42  C   UNL A   1      43.645  25.074  26.983  1.00  0.00     0.029 A 
ATOM     43  N   UNL A   1      43.705  27.171  27.761  1.00  0.00    -0.354 N 
ATOM     44  C   UNL A   1      40.183  28.943  29.607  1.00  0.00     0.074 A 
ATOM     45  C   UNL A   1      39.092  27.996  29.628  1.00  0.00     0.031 C 
ATOM     46  C   UNL A   1      44.874  25.565  26.741  1.00  0.00     0.029 A 
ATOM     47  C   UNL A   1      44.939  26.954  27.192  1.00  0.00     0.049 A 
ATOM     48  H   UNL A   1      43.461  28.011  28.213  1.00  0.00     0.167 HD
ATOM     49  C   UNL A   1      40.119  30.190  30.133  1.00  0.00     0.034 A 
ATOM     50  C   UNL A   1      45.982  27.795  27.035  1.00  0.00     0.034 A 
ATOM     51  C   UNL A   1      41.206  31.129  30.079  1.00  0.00     0.049 A 
ATOM     52  C   UNL A   1      45.862  29.212  27.555  1.00  0.00     0.074 A 
ATOM     53  C   UNL A   1      41.257  32.421  30.568  1.00  0.00     0.029 A 
ATOM     54  N   UNL A   1      42.437  30.879  29.484  1.00  0.00    -0.354 N 
ATOM     55  N   UNL A   1      44.848  29.790  28.160  1.00  0.00    -0.248 NA
ATOM     56  C   UNL A   1      47.029  30.085  27.378  1.00  0.00     0.031 C 
ATOM     57  C   UNL A   1      42.493  32.973  30.214  1.00  0.00     0.029 A 
ATOM     58  C   UNL A   1      43.244  32.001  29.572  1.00  0.00     0.049 A 
ATOM     59  H   UNL A   1      42.698  30.028  29.063  1.00  0.00     0.167 HD
ATOM     60  C   UNL A   1      45.270  31.084  28.462  1.00  0.00     0.074 A 
ATOM     61  C   UNL A   1      46.633  31.195  27.983  1.00  0.00     0.031 C 
ATOM     62  C   UNL A   1      44.600  32.088  29.083  1.00  0.00     0.034 A 
BRANCH  49  63
ATOM     63  C   UNL A   1      38.807  30.599  30.756  1.00  0.00     0.023 A 
ATOM     64  C   UNL A   1      37.855  31.347  30.039  1.00  0.00     0.031 A 
ATOM     65  C   UNL A   1      38.537  30.304  32.103  1.00  0.00     0.131 A 
ATOM     66  C   UNL A   1      36.720  31.845  30.695  1.00  0.00     0.055 A 
ATOM     67  C   UNL A   1      37.363  30.731  32.726  1.00  0.00     0.041 A 
ATOM     68  F   UNL A   1      39.423  29.621  32.845  1.00  0.00    -0.206 F 
ATOM     69  C   UNL A   1      36.454  31.520  32.027  1.00  0.00     0.022 A 
BRANCH  66  70
ATOM     70  S   UNL A   1      35.679  33.051  29.828  1.00  0.00     0.124 S 
ATOM     71  O   UNL A   1      36.474  33.321  28.633  1.00  0.00    -0.237 OA
ATOM     72  O   UNL A   1      34.442  32.309  29.620  1.00  0.00    -0.237 OA
ATOM     73  O   UNL A   1      35.588  34.165  30.771  1.00  0.00    -0.744 OA
ENDBRANCH  66  70
ENDBRANCH  49  63
BRANCH  50  74
ATOM     74  C   UNL A   1      47.216  27.357  26.319  1.00  0.00     0.023 A 
ATOM     75  C   UNL A   1      48.207  26.603  26.969  1.00  0.00     0.031 A 
ATOM     76  C   UNL A   1      47.455  27.750  24.990  1.00  0.00     0.131 A 
ATOM     77  C   UNL A   1      49.411  26.308  26.306  1.00  0.00     0.055 A 
ATOM     78  C   UNL A   1      48.633  27.411  24.319  1.00  0.00     0.041 A 
ATOM     79  F   UNL A   1      46.545  28.478  24.322  1.00  0.00    -0.206 F 
ATOM     80  C   UNL A   1      49.625  26.697  24.983  1.00  0.00     0.022 A 
BRANCH  77  81
ATOM     81  S   UNL A   1      50.737  25.486  27.234  1.00  0.00     0.124 S 
ATOM     82  O   UNL A   1      50.088  24.245  27.642  1.00  0.00    -0.237 OA
ATOM     83  O   UNL A   1      51.782  25.362  26.224  1.00  0.00    -0.237 OA
ATOM     84  O   UNL A   1      51.027  26.424  28.317  1.00  0.00    -0.744 OA
ENDBRANCH  77  81
ENDBRANCH  50  74
BRANCH  62  85
ATOM     85  C   UNL A   1      45.353  33.372  29.328  1.00  0.00     0.023 A 
ATOM     86  C   UNL A   1      45.362  34.420  28.392  1.00  0.00     0.031 A 
ATOM     87  C   UNL A   1      46.065  33.551  30.529  1.00  0.00     0.131 A 
ATOM     88  C   UNL A   1      46.109  35.580  28.649  1.00  0.00     0.055 A 
ATOM     89  C   UNL A   1      46.758  34.730  30.805  1.00  0.00     0.041 A 
ATOM     90  F   UNL A   1      46.089  32.583  31.459  1.00  0.00    -0.206 F 
ATOM     91  C   UNL A   1      46.792  35.748  29.856  1.00  0.00     0.022 A 
BRANCH  88  92
ATOM     92  S   UNL A   1      46.241  36.840  27.351  1.00  0.00     0.124 S 
ATOM     93  O   UNL A   1      47.505  37.488  27.684  1.00  0.00    -0.237 OA
ATOM     94  O   UNL A   1      46.240  36.034  26.133  1.00  0.00    -0.237 OA
ATOM     95  O   UNL A   1      45.050  37.663  27.548  1.00  0.00    -0.744 OA
ENDBRANCH  88  92
ENDBRANCH  62  85
ENDBRANCH  36  37
ENDBRANCH  29  31
ENDBRANCH  28  29
ENDBRANCH  27  28
ENDBRANCH  26  27
ENDBRANCH  25  26
ENDBRANCH   1  25
TORSDOF 24
ENDMDL
MODEL 3
REMARK VINA RESULT:      -8.9      2.589      7.986
REMARK SMILES CC[C@H](C)[C@H](NC(=O)[C@@H]1CCC[NH2+]1)C(=O)OCCOCCOCCOC(=O)c1ccc(-c2c3nc(c(-c4cc(S(=O)(=O)[O-])ccc4F)c4ccc([nH]4)c(-c4cc(S(=O)(=O)[O-])ccc4F)c4nc(c(-c5cc(S(=O)(=O)[O-])ccc5F)c5ccc2[nH]5)C=C4)C=C3)cc1
REMARK SMILES IDX 21 1 20 2 19 3 18 4 17 5 16 6 14 7 15 8 5 9 3 10 4 11 2 12
REMARK SMILES IDX 1 13 6 14 7 15 8 17 9 18 10 19 13 20 11 21 12 22 22 25 23 26
REMARK SMILES IDX 24 27 25 28 26 29 27 30 28 31 29 32 90 33 30 34 89 35 31 36
REMARK SMILES IDX 32 37 33 38 83 39 34 40 88 41 82 42 84 43 35 44 87 45 81 46
REMARK SMILES IDX 80 47 36 49 68 50 48 51 67 52 49 53 52 54 66 55 85 56 50 57
REMARK SMILES IDX 51 58 65 60 86 61 53 62 37 63 38 64 46 65 39 66 45 67 47 68
REMARK SMILES IDX 44 69 40 70 41 71 42 72 43 73 69 74 70 75 78 76 71 77 77 78
REMARK SMILES IDX 79 79 76 80 72 81 73 82 74 83 75 84 54 85 55 86 63 87 56 88
REMARK SMILES IDX 62 89 64 90 61 91 57 92 58 93 59 94 60 95
REMARK H PARENT 6 16 13 23 13 24 84 48 52 59
REMARK Flexibility Score: inf
ROOT
ATOM      1  C   UNL A   1      35.066  23.673  25.642  1.00  0.00     0.188 C 
ENDROOT
BRANCH   1   2
ATOM      2  C   UNL A   1      34.584  25.110  25.533  1.00  0.00     0.188 C 
BRANCH   2   3
ATOM      3  O   UNL A   1      33.476  25.246  24.651  1.00  0.00    -0.376 OA
BRANCH   3   4
ATOM      4  C   UNL A   1      33.802  25.218  23.259  1.00  0.00     0.202 C 
BRANCH   4   5
ATOM      5  C   UNL A   1      32.707  24.650  22.337  1.00  0.00     0.261 C 
BRANCH   5   6
ATOM      6  O   UNL A   1      31.821  25.678  21.825  1.00  0.00    -0.462 OA
BRANCH   6   7
ATOM      7  C   UNL A   1      30.920  26.218  22.683  1.00  0.00     0.328 C 
ATOM      8  O   UNL A   1      30.182  25.546  23.401  1.00  0.00    -0.250 OA
BRANCH   7   9
ATOM      9  C   UNL A   1      30.918  27.769  22.730  1.00  0.00     0.195 C 
BRANCH   9  10
ATOM     10  C   UNL A   1      29.558  28.480  22.420  1.00  0.00     0.019 C 
ATOM     11  C   UNL A   1      28.425  28.067  23.371  1.00  0.00     0.010 C 
BRANCH  10  12
ATOM     12  C   UNL A   1      29.572  30.000  22.189  1.00  0.00     0.002 C 
ATOM     13  C   UNL A   1      29.007  30.851  23.307  1.00  0.00     0.004 C 
ENDBRANCH  10  12
ENDBRANCH   9  10
BRANCH   9  14
ATOM     14  N   UNL A   1      32.138  28.608  22.609  1.00  0.00    -0.337 N 
ATOM     15  C   UNL A   1      33.169  28.943  23.425  1.00  0.00     0.278 C 
ATOM     16  H   UNL A   1      32.218  29.023  21.720  1.00  0.00     0.164 HD
ATOM     17  O   UNL A   1      34.287  28.948  22.890  1.00  0.00    -0.268 OA
BRANCH  15  18
ATOM     18  C   UNL A   1      33.052  29.402  24.875  1.00  0.00     0.272 C 
ATOM     19  C   UNL A   1      33.976  28.658  25.819  1.00  0.00     0.081 C 
ATOM     20  N   UNL A   1      31.727  29.247  25.462  1.00  0.00    -0.336 N 
ATOM     21  C   UNL A   1      33.353  28.885  27.184  1.00  0.00     0.068 C 
ATOM     22  C   UNL A   1      31.894  29.201  26.912  1.00  0.00     0.261 C 
ATOM     23  H   UNL A   1      31.298  28.382  25.133  1.00  0.00     0.346 HD
ATOM     24  H   UNL A   1      31.121  30.023  25.194  1.00  0.00     0.346 HD
ENDBRANCH  15  18
ENDBRANCH   9  14
ENDBRANCH   7   9
ENDBRANCH   6   7
ENDBRANCH   5   6
ENDBRANCH   4   5
ENDBRANCH   3   4
ENDBRANCH   2   3
ENDBRANCH   1   2
BRANCH   1  25
ATOM     25  O   UNL A   1      36.186  23.433  24.776  1.00  0.00    -0.376 OA
BRANCH  25  26
ATOM     26  C   UNL A   1      36.276  22.079  24.323  1.00  0.00     0.202 C 
BRANCH  26  27
ATOM     27  C   UNL A   1      37.539  21.308  24.735  1.00  0.00     0.261 C 
BRANCH  27  28
ATOM     28  O   UNL A   1      38.008  21.708  26.029  1.00  0.00    -0.460 OA
BRANCH  28  29
ATOM     29  C   UNL A   1      39.347  21.563  26.214  1.00  0.00     0.338 C 
ATOM     30  O   UNL A   1      40.044  20.659  25.806  1.00  0.00    -0.246 OA
BRANCH  29  31
ATOM     31  C   UNL A   1      39.875  22.820  26.810  1.00  0.00     0.060 A 
ATOM     32  C   UNL A   1      39.307  24.033  26.393  1.00  0.00     0.016 A 
ATOM     33  C   UNL A   1      40.803  22.803  27.862  1.00  0.00     0.016 A 
ATOM     34  C   UNL A   1      39.684  25.229  27.003  1.00  0.00     0.010 A 
ATOM     35  C   UNL A   1      41.171  23.999  28.476  1.00  0.00     0.010 A 
ATOM     36  C   UNL A   1      40.642  25.219  28.025  1.00  0.00    -0.014 A 
BRANCH  36  37
ATOM     37  C   UNL A   1      41.314  26.475  28.435  1.00  0.00     0.031 A 
ATOM     38  C   UNL A   1      42.726  26.673  27.960  1.00  0.00     0.074 A 
ATOM     39  C   UNL A   1      40.717  27.384  29.225  1.00  0.00     0.049 A 
ATOM     40  N   UNL A   1      43.590  27.604  28.268  1.00  0.00    -0.248 NA
ATOM     41  C   UNL A   1      43.239  25.658  27.024  1.00  0.00     0.031 C 
ATOM     42  C   UNL A   1      39.342  27.311  29.719  1.00  0.00     0.029 A 
ATOM     43  N   UNL A   1      41.208  28.546  29.766  1.00  0.00    -0.354 N 
ATOM     44  C   UNL A   1      44.746  27.285  27.564  1.00  0.00     0.074 A 
ATOM     45  C   UNL A   1      44.490  26.049  26.860  1.00  0.00     0.031 C 
ATOM     46  C   UNL A   1      39.109  28.375  30.510  1.00  0.00     0.029 A 
ATOM     47  C   UNL A   1      40.323  29.184  30.605  1.00  0.00     0.049 A 
ATOM     48  H   UNL A   1      42.109  28.891  29.571  1.00  0.00     0.167 HD
ATOM     49  C   UNL A   1      45.914  27.968  27.502  1.00  0.00     0.034 A 
ATOM     50  C   UNL A   1      40.495  30.277  31.376  1.00  0.00     0.034 A 
ATOM     51  C   UNL A   1      46.160  29.183  28.231  1.00  0.00     0.049 A 
ATOM     52  C   UNL A   1      41.835  30.981  31.359  1.00  0.00     0.074 A 
ATOM     53  C   UNL A   1      47.304  29.959  28.256  1.00  0.00     0.029 A 
ATOM     54  N   UNL A   1      45.245  29.793  29.081  1.00  0.00    -0.354 N 
ATOM     55  N   UNL A   1      42.922  30.678  30.684  1.00  0.00    -0.248 NA
ATOM     56  C   UNL A   1      41.968  32.176  32.201  1.00  0.00     0.031 C 
ATOM     57  C   UNL A   1      47.104  31.001  29.168  1.00  0.00     0.029 A 
ATOM     58  C   UNL A   1      45.808  30.922  29.654  1.00  0.00     0.049 A 
ATOM     59  H   UNL A   1      44.331  29.471  29.251  1.00  0.00     0.167 HD
ATOM     60  C   UNL A   1      43.854  31.666  30.997  1.00  0.00     0.074 A 
ATOM     61  C   UNL A   1      43.197  32.578  31.912  1.00  0.00     0.031 C 
ATOM     62  C   UNL A   1      45.133  31.814  30.568  1.00  0.00     0.034 A 
BRANCH  49  63
ATOM     63  C   UNL A   1      47.009  27.369  26.655  1.00  0.00     0.023 A 
ATOM     64  C   UNL A   1      47.984  26.519  27.207  1.00  0.00     0.031 A 
ATOM     65  C   UNL A   1      47.124  27.712  25.297  1.00  0.00     0.131 A 
ATOM     66  C   UNL A   1      49.075  26.108  26.428  1.00  0.00     0.055 A 
ATOM     67  C   UNL A   1      48.167  27.229  24.505  1.00  0.00     0.041 A 
ATOM     68  F   UNL A   1      46.241  28.544  24.724  1.00  0.00    -0.206 F 
ATOM     69  C   UNL A   1      49.160  26.436  25.074  1.00  0.00     0.022 A 
BRANCH  66  70
ATOM     70  S   UNL A   1      50.460  25.273  27.250  1.00  0.00     0.124 S 
ATOM     71  O   UNL A   1      50.916  26.305  28.178  1.00  0.00    -0.237 OA
ATOM     72  O   UNL A   1      49.818  24.111  27.850  1.00  0.00    -0.237 OA
ATOM     73  O   UNL A   1      51.382  24.981  26.154  1.00  0.00    -0.744 OA
ENDBRANCH  66  70
ENDBRANCH  49  63
BRANCH  50  74
ATOM     74  C   UNL A   1      39.401  30.760  32.270  1.00  0.00     0.023 A 
ATOM     75  C   UNL A   1      38.522  31.777  31.863  1.00  0.00     0.031 A 
ATOM     76  C   UNL A   1      39.266  30.259  33.578  1.00  0.00     0.131 A 
ATOM     77  C   UNL A   1      37.581  32.294  32.769  1.00  0.00     0.055 A 
ATOM     78  C   UNL A   1      38.295  30.742  34.458  1.00  0.00     0.041 A 
ATOM     79  F   UNL A   1      40.083  29.291  34.022  1.00  0.00    -0.206 F 
ATOM     80  C   UNL A   1      37.454  31.776  34.059  1.00  0.00     0.022 A 
BRANCH  77  81
ATOM     81  S   UNL A   1      36.583  33.725  32.266  1.00  0.00     0.124 S 
ATOM     82  O   UNL A   1      35.758  33.153  31.208  1.00  0.00    -0.237 OA
ATOM     83  O   UNL A   1      35.892  34.064  33.506  1.00  0.00    -0.237 OA
ATOM     84  O   UNL A   1      37.580  34.698  31.824  1.00  0.00    -0.744 OA
ENDBRANCH  77  81
ENDBRANCH  50  74
BRANCH  62  85
ATOM     85  C   UNL A   1      45.883  33.035  31.038  1.00  0.00     0.023 A 
ATOM     86  C   UNL A   1      46.642  33.032  32.221  1.00  0.00     0.031 A 
ATOM     87  C   UNL A   1      45.844  34.219  30.279  1.00  0.00     0.131 A 
ATOM     88  C   UNL A   1      47.291  34.205  32.637  1.00  0.00     0.055 A 
ATOM     89  C   UNL A   1      46.539  35.365  30.667  1.00  0.00     0.041 A 
ATOM     90  F   UNL A   1      45.136  34.277  29.140  1.00  0.00    -0.206 F 
ATOM     91  C   UNL A   1      47.258  35.365  31.859  1.00  0.00     0.022 A 
BRANCH  88  92
ATOM     92  S   UNL A   1      48.118  34.219  34.251  1.00  0.00     0.124 S 
ATOM     93  O   UNL A   1      48.240  35.649  34.517  1.00  0.00    -0.237 OA
ATOM     94  O   UNL A   1      47.172  33.493  35.093  1.00  0.00    -0.237 OA
ATOM     95  O   UNL A   1      49.379  33.526  33.997  1.00  0.00    -0.744 OA
ENDBRANCH  88  92
ENDBRANCH  62  85
ENDBRANCH  36  37
ENDBRANCH  29  31
ENDBRANCH  28  29
ENDBRANCH  27  28
ENDBRANCH  26  27
ENDBRANCH  25  26
ENDBRANCH   1  25
TORSDOF 24
ENDMDL
