MODEL 1
REMARK VINA RESULT:      -9.2      0.000      0.000
REMARK SMILES O=C(/C=C/c1cc(F)cc(C[N@@H+]2CCC[C@H]2CO)c1)OCCOCCOCCOC(=O)c1ccc(-c2c3nc(c(-c4cc(S(=O)(=O)[O-])ccc4F)c4ccc([nH]4)c(-c4cc(S(=O)(=O)[O-])ccc4F)c4nc(c(-c5cc(S(=O)(=O)[O-])ccc5F)c5ccc2[nH]5)C=C4)C=C3)cc1
REMARK SMILES IDX 24 1 23 2 22 3 21 4 20 5 2 6 1 7 3 8 4 9 5 10 6 11 19 12
REMARK SMILES IDX 7 13 10 14 8 15 9 16 11 17 12 18 13 19 16 20 14 22 15 23
REMARK SMILES IDX 17 24 18 25 25 27 26 28 27 29 28 30 29 31 30 32 31 33 32 34
REMARK SMILES IDX 33 35 94 36 34 37 93 38 35 39 36 40 37 41 87 42 38 43 92 44
REMARK SMILES IDX 86 45 88 46 39 47 91 48 85 49 84 50 40 52 72 53 52 54 71 55
REMARK SMILES IDX 53 56 56 57 70 58 89 59 54 60 55 61 69 63 90 64 57 65 41 66
REMARK SMILES IDX 42 67 50 68 43 69 49 70 51 71 48 72 44 73 45 74 46 75 47 76
REMARK SMILES IDX 73 77 74 78 82 79 75 80 81 81 83 82 80 83 76 84 77 85 78 86
REMARK SMILES IDX 79 87 58 88 59 89 67 90 60 91 66 92 68 93 65 94 61 95 62 96
REMARK SMILES IDX 63 97 64 98
REMARK H PARENT 12 21 18 26 88 51 56 62
REMARK Flexibility Score: inf
ROOT
ATOM      1  C   UNL A   1      42.467  18.678  26.401  1.00  0.00     0.188 C 
ENDROOT
BRANCH   1   2
ATOM      2  O   UNL A   1      41.360  19.369  25.856  1.00  0.00    -0.376 OA
BRANCH   2   3
ATOM      3  C   UNL A   1      40.808  20.489  26.526  1.00  0.00     0.202 C 
BRANCH   3   4
ATOM      4  C   UNL A   1      39.770  21.405  25.886  1.00  0.00     0.261 C 
BRANCH   4   5
ATOM      5  O   UNL A   1      38.966  22.356  26.625  1.00  0.00    -0.460 OA
BRANCH   5   6
ATOM      6  C   UNL A   1      38.627  23.649  26.510  1.00  0.00     0.330 C 
ATOM      7  O   UNL A   1      39.383  24.525  26.920  1.00  0.00    -0.247 OA
BRANCH   6   8
ATOM      8  C   UNL A   1      37.325  24.039  25.976  1.00  0.00     0.094 C 
ATOM      9  C   UNL A   1      36.607  23.242  25.179  1.00  0.00     0.016 C 
BRANCH   9  10
ATOM     10  C   UNL A   1      35.355  23.688  24.568  1.00  0.00    -0.022 A 
ATOM     11  C   UNL A   1      35.024  23.236  23.293  1.00  0.00     0.047 A 
ATOM     12  C   UNL A   1      34.449  24.489  25.284  1.00  0.00     0.018 A 
ATOM     13  C   UNL A   1      33.763  23.510  22.787  1.00  0.00     0.124 A 
ATOM     14  C   UNL A   1      33.166  24.769  24.777  1.00  0.00     0.010 A 
ATOM     15  F   UNL A   1      33.416  23.024  21.589  1.00  0.00    -0.207 F 
ATOM     16  C   UNL A   1      32.830  24.229  23.527  1.00  0.00     0.048 A 
BRANCH  14  17
ATOM     17  C   UNL A   1      32.144  25.483  25.639  1.00  0.00     0.299 C 
BRANCH  17  18
ATOM     18  N   UNL A   1      32.088  26.946  25.674  1.00  0.00    -0.327 N 
ATOM     19  C   UNL A   1      32.424  27.643  24.436  1.00  0.00     0.263 C 
ATOM     20  C   UNL A   1      32.847  27.603  26.756  1.00  0.00     0.210 C 
ATOM     21  H   UNL A   1      31.089  27.046  25.853  1.00  0.00     0.348 HD
ATOM     22  C   UNL A   1      33.841  28.164  24.602  1.00  0.00     0.068 C 
ATOM     23  C   UNL A   1      34.082  28.215  26.102  1.00  0.00     0.073 C 
BRANCH  20  24
ATOM     24  C   UNL A   1      31.955  28.693  27.394  1.00  0.00     0.220 C 
BRANCH  24  25
ATOM     25  O   UNL A   1      32.714  29.887  27.593  1.00  0.00    -0.390 OA
ATOM     26  H   UNL A   1      33.659  29.671  27.605  1.00  0.00     0.210 HD
ENDBRANCH  24  25
ENDBRANCH  20  24
ENDBRANCH  17  18
ENDBRANCH  14  17
ENDBRANCH   9  10
ENDBRANCH   6   8
ENDBRANCH   5   6
ENDBRANCH   4   5
ENDBRANCH   3   4
ENDBRANCH   2   3
ENDBRANCH   1   2
BRANCH   1  27
ATOM     27  C   UNL A   1      43.778  18.624  25.606  1.00  0.00     0.188 C 
BRANCH  27  28
ATOM     28  O   UNL A   1      43.966  19.521  24.527  1.00  0.00    -0.376 OA
BRANCH  28  29
ATOM     29  C   UNL A   1      45.107  20.375  24.543  1.00  0.00     0.202 C 
BRANCH  29  30
ATOM     30  C   UNL A   1      45.221  21.482  25.598  1.00  0.00     0.261 C 
BRANCH  30  31
ATOM     31  O   UNL A   1      43.947  21.945  26.084  1.00  0.00    -0.460 OA
BRANCH  31  32
ATOM     32  C   UNL A   1      43.366  22.890  25.306  1.00  0.00     0.338 C 
ATOM     33  O   UNL A   1      43.162  22.822  24.106  1.00  0.00    -0.246 OA
BRANCH  32  34
ATOM     34  C   UNL A   1      42.867  24.021  26.109  1.00  0.00     0.060 A 
ATOM     35  C   UNL A   1      42.547  25.200  25.426  1.00  0.00     0.016 A 
ATOM     36  C   UNL A   1      42.915  23.997  27.505  1.00  0.00     0.016 A 
ATOM     37  C   UNL A   1      42.352  26.384  26.135  1.00  0.00     0.010 A 
ATOM     38  C   UNL A   1      42.730  25.192  28.215  1.00  0.00     0.010 A 
ATOM     39  C   UNL A   1      42.504  26.400  27.528  1.00  0.00    -0.014 A 
BRANCH  39  40
ATOM     40  C   UNL A   1      42.661  27.712  28.208  1.00  0.00     0.031 A 
ATOM     41  C   UNL A   1      44.038  28.323  28.281  1.00  0.00     0.074 A 
ATOM     42  C   UNL A   1      41.597  28.398  28.660  1.00  0.00     0.049 A 
ATOM     43  N   UNL A   1      44.409  29.474  28.779  1.00  0.00    -0.248 NA
ATOM     44  C   UNL A   1      45.141  27.534  27.707  1.00  0.00     0.031 C 
ATOM     45  C   UNL A   1      40.208  27.946  28.591  1.00  0.00     0.029 A 
ATOM     46  N   UNL A   1      41.519  29.636  29.249  1.00  0.00    -0.354 N 
ATOM     47  C   UNL A   1      45.783  29.551  28.571  1.00  0.00     0.074 A 
ATOM     48  C   UNL A   1      46.186  28.317  27.937  1.00  0.00     0.031 C 
ATOM     49  C   UNL A   1      39.413  28.901  29.107  1.00  0.00     0.029 A 
ATOM     50  C   UNL A   1      40.236  30.020  29.567  1.00  0.00     0.049 A 
ATOM     51  H   UNL A   1      42.307  30.198  29.428  1.00  0.00     0.167 HD
ATOM     52  C   UNL A   1      46.632  30.564  28.868  1.00  0.00     0.034 A 
ATOM     53  C   UNL A   1      39.781  31.139  30.167  1.00  0.00     0.034 A 
ATOM     54  C   UNL A   1      46.231  31.798  29.492  1.00  0.00     0.049 A 
ATOM     55  C   UNL A   1      40.758  32.210  30.581  1.00  0.00     0.074 A 
ATOM     56  C   UNL A   1      47.015  32.890  29.819  1.00  0.00     0.029 A 
ATOM     57  N   UNL A   1      44.938  32.100  29.890  1.00  0.00    -0.354 N 
ATOM     58  N   UNL A   1      42.057  32.254  30.401  1.00  0.00    -0.248 NA
ATOM     59  C   UNL A   1      40.211  33.380  31.285  1.00  0.00     0.031 C 
ATOM     60  C   UNL A   1      46.208  33.830  30.465  1.00  0.00     0.029 A 
ATOM     61  C   UNL A   1      44.909  33.347  30.491  1.00  0.00     0.049 A 
ATOM     62  H   UNL A   1      44.156  31.515  29.763  1.00  0.00     0.167 HD
ATOM     63  C   UNL A   1      42.478  33.459  30.958  1.00  0.00     0.074 A 
ATOM     64  C   UNL A   1      41.297  34.115  31.479  1.00  0.00     0.031 C 
ATOM     65  C   UNL A   1      43.729  33.978  31.025  1.00  0.00     0.034 A 
BRANCH  52  66
ATOM     66  C   UNL A   1      48.088  30.367  28.551  1.00  0.00     0.023 A 
ATOM     67  C   UNL A   1      48.944  29.680  29.429  1.00  0.00     0.031 A 
ATOM     68  C   UNL A   1      48.619  30.859  27.348  1.00  0.00     0.131 A 
ATOM     69  C   UNL A   1      50.300  29.535  29.102  1.00  0.00     0.055 A 
ATOM     70  C   UNL A   1      49.958  30.663  27.004  1.00  0.00     0.041 A 
ATOM     71  F   UNL A   1      47.844  31.537  26.487  1.00  0.00    -0.206 F 
ATOM     72  C   UNL A   1      50.808  30.003  27.886  1.00  0.00     0.022 A 
BRANCH  69  73
ATOM     73  S   UNL A   1      51.414  28.776  30.315  1.00  0.00     0.124 S 
ATOM     74  O   UNL A   1      51.398  27.377  29.895  1.00  0.00    -0.237 OA
ATOM     75  O   UNL A   1      52.664  29.494  30.095  1.00  0.00    -0.237 OA
ATOM     76  O   UNL A   1      50.760  29.045  31.595  1.00  0.00    -0.744 OA
ENDBRANCH  69  73
ENDBRANCH  52  66
BRANCH  53  77
ATOM     77  C   UNL A   1      38.329  31.287  30.464  1.00  0.00     0.023 A 
ATOM     78  C   UNL A   1      37.463  31.930  29.567  1.00  0.00     0.031 A 
ATOM     79  C   UNL A   1      37.796  30.808  31.673  1.00  0.00     0.131 A 
ATOM     80  C   UNL A   1      36.110  32.097  29.904  1.00  0.00     0.055 A 
ATOM     81  C   UNL A   1      36.445  30.945  31.988  1.00  0.00     0.041 A 
ATOM     82  F   UNL A   1      38.588  30.187  32.563  1.00  0.00    -0.206 F 
ATOM     83  C   UNL A   1      35.593  31.598  31.103  1.00  0.00     0.022 A 
BRANCH  80  84
ATOM     84  S   UNL A   1      35.030  33.007  28.764  1.00  0.00     0.124 S 
ATOM     85  O   UNL A   1      33.730  32.410  29.050  1.00  0.00    -0.237 OA
ATOM     86  O   UNL A   1      35.214  34.386  29.203  1.00  0.00    -0.237 OA
ATOM     87  O   UNL A   1      35.585  32.696  27.449  1.00  0.00    -0.744 OA
ENDBRANCH  80  84
ENDBRANCH  53  77
BRANCH  65  88
ATOM     88  C   UNL A   1      43.896  35.324  31.673  1.00  0.00     0.023 A 
ATOM     89  C   UNL A   1      44.019  36.492  30.903  1.00  0.00     0.031 A 
ATOM     90  C   UNL A   1      43.853  35.445  33.072  1.00  0.00     0.131 A 
ATOM     91  C   UNL A   1      44.109  37.738  31.542  1.00  0.00     0.055 A 
ATOM     92  C   UNL A   1      43.907  36.689  33.701  1.00  0.00     0.041 A 
ATOM     93  F   UNL A   1      43.727  34.356  33.847  1.00  0.00    -0.206 F 
ATOM     94  C   UNL A   1      44.036  37.844  32.935  1.00  0.00     0.022 A 
BRANCH  91  95
ATOM     95  S   UNL A   1      44.313  39.230  30.531  1.00  0.00     0.124 S 
ATOM     96  O   UNL A   1      45.322  39.969  31.285  1.00  0.00    -0.237 OA
ATOM     97  O   UNL A   1      44.748  38.690  29.246  1.00  0.00    -0.237 OA
ATOM     98  O   UNL A   1      42.979  39.828  30.528  1.00  0.00    -0.744 OA
ENDBRANCH  91  95
ENDBRANCH  65  88
ENDBRANCH  39  40
ENDBRANCH  32  34
ENDBRANCH  31  32
ENDBRANCH  30  31
ENDBRANCH  29  30
ENDBRANCH  28  29
ENDBRANCH  27  28
ENDBRANCH   1  27
TORSDOF 25
ENDMDL
MODEL 2
REMARK VINA RESULT:      -8.9      3.012      4.003
REMARK SMILES O=C(/C=C/c1cc(F)cc(C[N@@H+]2CCC[C@H]2CO)c1)OCCOCCOCCOC(=O)c1ccc(-c2c3nc(c(-c4cc(S(=O)(=O)[O-])ccc4F)c4ccc([nH]4)c(-c4cc(S(=O)(=O)[O-])ccc4F)c4nc(c(-c5cc(S(=O)(=O)[O-])ccc5F)c5ccc2[nH]5)C=C4)C=C3)cc1
REMARK SMILES IDX 24 1 23 2 22 3 21 4 20 5 2 6 1 7 3 8 4 9 5 10 6 11 19 12
REMARK SMILES IDX 7 13 10 14 8 15 9 16 11 17 12 18 13 19 16 20 14 22 15 23
REMARK SMILES IDX 17 24 18 25 25 27 26 28 27 29 28 30 29 31 30 32 31 33 32 34
REMARK SMILES IDX 33 35 94 36 34 37 93 38 35 39 36 40 37 41 87 42 38 43 92 44
REMARK SMILES IDX 86 45 88 46 39 47 91 48 85 49 84 50 40 52 72 53 52 54 71 55
REMARK SMILES IDX 53 56 56 57 70 58 89 59 54 60 55 61 69 63 90 64 57 65 41 66
REMARK SMILES IDX 42 67 50 68 43 69 49 70 51 71 48 72 44 73 45 74 46 75 47 76
REMARK SMILES IDX 73 77 74 78 82 79 75 80 81 81 83 82 80 83 76 84 77 85 78 86
REMARK SMILES IDX 79 87 58 88 59 89 67 90 60 91 66 92 68 93 65 94 61 95 62 96
REMARK SMILES IDX 63 97 64 98
REMARK H PARENT 12 21 18 26 88 51 56 62
REMARK Flexibility Score: inf
ROOT
ATOM      1  C   UNL A   1      42.427  18.830  26.554  1.00  0.00     0.188 C 
ENDROOT
BRANCH   1   2
ATOM      2  O   UNL A   1      41.338  19.695  26.297  1.00  0.00    -0.376 OA
BRANCH   2   3
ATOM      3  C   UNL A   1      40.912  20.627  27.276  1.00  0.00     0.202 C 
BRANCH   3   4
ATOM      4  C   UNL A   1      40.489  22.052  26.930  1.00  0.00     0.261 C 
BRANCH   4   5
ATOM      5  O   UNL A   1      39.299  22.380  26.173  1.00  0.00    -0.460 OA
BRANCH   5   6
ATOM      6  C   UNL A   1      38.351  23.330  26.203  1.00  0.00     0.330 C 
ATOM      7  O   UNL A   1      38.633  24.471  26.555  1.00  0.00    -0.247 OA
BRANCH   6   8
ATOM      8  C   UNL A   1      36.960  23.012  25.900  1.00  0.00     0.094 C 
ATOM      9  C   UNL A   1      36.604  22.274  24.843  1.00  0.00     0.016 C 
BRANCH   9  10
ATOM     10  C   UNL A   1      35.202  22.051  24.495  1.00  0.00    -0.022 A 
ATOM     11  C   UNL A   1      34.642  22.772  23.442  1.00  0.00     0.047 A 
ATOM     12  C   UNL A   1      34.445  21.062  25.147  1.00  0.00     0.018 A 
ATOM     13  C   UNL A   1      33.374  22.436  22.995  1.00  0.00     0.124 A 
ATOM     14  C   UNL A   1      33.157  20.716  24.697  1.00  0.00     0.010 A 
ATOM     15  F   UNL A   1      32.855  23.082  21.944  1.00  0.00    -0.207 F 
ATOM     16  C   UNL A   1      32.653  21.400  23.581  1.00  0.00     0.048 A 
BRANCH  14  17
ATOM     17  C   UNL A   1      32.432  19.529  25.300  1.00  0.00     0.299 C 
BRANCH  17  18
ATOM     18  N   UNL A   1      32.531  18.203  24.686  1.00  0.00    -0.327 N 
ATOM     19  C   UNL A   1      32.591  17.064  25.599  1.00  0.00     0.263 C 
ATOM     20  C   UNL A   1      33.613  18.019  23.699  1.00  0.00     0.210 C 
ATOM     21  H   UNL A   1      31.631  18.201  24.207  1.00  0.00     0.348 HD
ATOM     22  C   UNL A   1      34.044  16.628  25.654  1.00  0.00     0.068 C 
ATOM     23  C   UNL A   1      34.682  17.175  24.387  1.00  0.00     0.073 C 
BRANCH  20  24
ATOM     24  C   UNL A   1      33.036  17.290  22.464  1.00  0.00     0.220 C 
BRANCH  24  25
ATOM     25  O   UNL A   1      31.943  18.035  21.926  1.00  0.00    -0.390 OA
ATOM     26  H   UNL A   1      31.641  17.618  21.105  1.00  0.00     0.210 HD
ENDBRANCH  24  25
ENDBRANCH  20  24
ENDBRANCH  17  18
ENDBRANCH  14  17
ENDBRANCH   9  10
ENDBRANCH   6   8
ENDBRANCH   5   6
ENDBRANCH   4   5
ENDBRANCH   3   4
ENDBRANCH   2   3
ENDBRANCH   1   2
BRANCH   1  27
ATOM     27  C   UNL A   1      43.538  18.698  25.504  1.00  0.00     0.188 C 
BRANCH  27  28
ATOM     28  O   UNL A   1      43.711  19.731  24.552  1.00  0.00    -0.376 OA
BRANCH  28  29
ATOM     29  C   UNL A   1      44.609  20.796  24.860  1.00  0.00     0.202 C 
BRANCH  29  30
ATOM     30  C   UNL A   1      44.173  21.912  25.816  1.00  0.00     0.261 C 
BRANCH  30  31
ATOM     31  O   UNL A   1      43.447  22.973  25.168  1.00  0.00    -0.460 OA
BRANCH  31  32
ATOM     32  C   UNL A   1      44.131  24.140  25.077  1.00  0.00     0.338 C 
ATOM     33  O   UNL A   1      45.078  24.374  24.346  1.00  0.00    -0.246 OA
BRANCH  32  34
ATOM     34  C   UNL A   1      43.513  25.195  25.901  1.00  0.00     0.060 A 
ATOM     35  C   UNL A   1      43.359  26.457  25.315  1.00  0.00     0.016 A 
ATOM     36  C   UNL A   1      43.292  25.013  27.268  1.00  0.00     0.016 A 
ATOM     37  C   UNL A   1      43.059  27.561  26.110  1.00  0.00     0.010 A 
ATOM     38  C   UNL A   1      43.003  26.127  28.068  1.00  0.00     0.010 A 
ATOM     39  C   UNL A   1      42.941  27.413  27.499  1.00  0.00    -0.014 A 
BRANCH  39  40
ATOM     40  C   UNL A   1      42.996  28.632  28.348  1.00  0.00     0.031 A 
ATOM     41  C   UNL A   1      44.330  29.302  28.558  1.00  0.00     0.074 A 
ATOM     42  C   UNL A   1      41.877  29.194  28.838  1.00  0.00     0.049 A 
ATOM     43  N   UNL A   1      44.615  30.397  29.216  1.00  0.00    -0.248 NA
ATOM     44  C   UNL A   1      45.499  28.656  27.936  1.00  0.00     0.031 C 
ATOM     45  C   UNL A   1      40.521  28.681  28.652  1.00  0.00     0.029 A 
ATOM     46  N   UNL A   1      41.704  30.339  29.577  1.00  0.00    -0.354 N 
ATOM     47  C   UNL A   1      45.988  30.575  29.079  1.00  0.00     0.074 A 
ATOM     48  C   UNL A   1      46.486  29.458  28.309  1.00  0.00     0.031 C 
ATOM     49  C   UNL A   1      39.653  29.516  29.251  1.00  0.00     0.029 A 
ATOM     50  C   UNL A   1      40.391  30.608  29.886  1.00  0.00     0.049 A 
ATOM     51  H   UNL A   1      42.451  30.915  29.860  1.00  0.00     0.167 HD
ATOM     52  C   UNL A   1      46.764  31.585  29.540  1.00  0.00     0.034 A 
ATOM     53  C   UNL A   1      39.849  31.612  30.605  1.00  0.00     0.034 A 
ATOM     54  C   UNL A   1      46.269  32.703  30.299  1.00  0.00     0.049 A 
ATOM     55  C   UNL A   1      40.745  32.672  31.194  1.00  0.00     0.074 A 
ATOM     56  C   UNL A   1      46.975  33.783  30.796  1.00  0.00     0.029 A 
ATOM     57  N   UNL A   1      44.947  32.880  30.676  1.00  0.00    -0.354 N 
ATOM     58  N   UNL A   1      42.045  32.810  31.078  1.00  0.00    -0.248 NA
ATOM     59  C   UNL A   1      40.105  33.709  32.018  1.00  0.00     0.031 C 
ATOM     60  C   UNL A   1      46.090  34.587  31.522  1.00  0.00     0.029 A 
ATOM     61  C   UNL A   1      44.823  34.035  31.430  1.00  0.00     0.049 A 
ATOM     62  H   UNL A   1      44.206  32.275  30.441  1.00  0.00     0.167 HD
ATOM     63  C   UNL A   1      42.373  33.952  31.802  1.00  0.00     0.074 A 
ATOM     64  C   UNL A   1      41.138  34.470  32.351  1.00  0.00     0.031 C 
ATOM     65  C   UNL A   1      43.588  34.525  31.989  1.00  0.00     0.034 A 
BRANCH  52  66
ATOM     66  C   UNL A   1      48.240  31.509  29.263  1.00  0.00     0.023 A 
ATOM     67  C   UNL A   1      48.821  32.196  28.184  1.00  0.00     0.031 A 
ATOM     68  C   UNL A   1      49.075  30.753  30.102  1.00  0.00     0.131 A 
ATOM     69  C   UNL A   1      50.200  32.082  27.952  1.00  0.00     0.055 A 
ATOM     70  C   UNL A   1      50.454  30.688  29.898  1.00  0.00     0.041 A 
ATOM     71  F   UNL A   1      48.562  30.066  31.135  1.00  0.00    -0.206 F 
ATOM     72  C   UNL A   1      51.023  31.351  28.814  1.00  0.00     0.022 A 
BRANCH  69  73
ATOM     73  S   UNL A   1      50.902  32.856  26.470  1.00  0.00     0.124 S 
ATOM     74  O   UNL A   1      51.465  34.086  27.019  1.00  0.00    -0.237 OA
ATOM     75  O   UNL A   1      51.866  31.860  26.016  1.00  0.00    -0.237 OA
ATOM     76  O   UNL A   1      49.743  33.041  25.599  1.00  0.00    -0.744 OA
ENDBRANCH  69  73
ENDBRANCH  52  66
BRANCH  53  77
ATOM     77  C   UNL A   1      38.381  31.642  30.854  1.00  0.00     0.023 A 
ATOM     78  C   UNL A   1      37.501  32.270  29.960  1.00  0.00     0.031 A 
ATOM     79  C   UNL A   1      37.844  31.062  32.018  1.00  0.00     0.131 A 
ATOM     80  C   UNL A   1      36.129  32.323  30.256  1.00  0.00     0.055 A 
ATOM     81  C   UNL A   1      36.477  31.087  32.289  1.00  0.00     0.041 A 
ATOM     82  F   UNL A   1      38.649  30.453  32.903  1.00  0.00    -0.206 F 
ATOM     83  C   UNL A   1      35.610  31.725  31.408  1.00  0.00     0.022 A 
BRANCH  80  84
ATOM     84  S   UNL A   1      35.024  33.214  29.125  1.00  0.00     0.124 S 
ATOM     85  O   UNL A   1      34.793  32.214  28.089  1.00  0.00    -0.237 OA
ATOM     86  O   UNL A   1      33.888  33.521  29.987  1.00  0.00    -0.237 OA
ATOM     87  O   UNL A   1      35.819  34.369  28.714  1.00  0.00    -0.744 OA
ENDBRANCH  80  84
ENDBRANCH  53  77
BRANCH  65  88
ATOM     88  C   UNL A   1      43.652  35.783  32.811  1.00  0.00     0.023 A 
ATOM     89  C   UNL A   1      43.761  35.734  34.210  1.00  0.00     0.031 A 
ATOM     90  C   UNL A   1      43.680  37.038  32.180  1.00  0.00     0.131 A 
ATOM     91  C   UNL A   1      43.881  36.927  34.939  1.00  0.00     0.055 A 
ATOM     92  C   UNL A   1      43.837  38.219  32.906  1.00  0.00     0.041 A 
ATOM     93  F   UNL A   1      43.588  37.132  30.843  1.00  0.00    -0.206 F 
ATOM     94  C   UNL A   1      43.938  38.167  34.294  1.00  0.00     0.022 A 
BRANCH  91  95
ATOM     95  S   UNL A   1      43.975  36.844  36.748  1.00  0.00     0.124 S 
ATOM     96  O   UNL A   1      45.278  36.219  36.953  1.00  0.00    -0.237 OA
ATOM     97  O   UNL A   1      43.874  38.247  37.139  1.00  0.00    -0.237 OA
ATOM     98  O   UNL A   1      42.826  36.017  37.114  1.00  0.00    -0.744 OA
ENDBRANCH  91  95
ENDBRANCH  65  88
ENDBRANCH  39  40
ENDBRANCH  32  34
ENDBRANCH  31  32
ENDBRANCH  30  31
ENDBRANCH  29  30
ENDBRANCH  28  29
ENDBRANCH  27  28
ENDBRANCH   1  27
TORSDOF 25
ENDMDL
MODEL 3
REMARK VINA RESULT:      -8.8      1.953      2.400
REMARK SMILES O=C(/C=C/c1cc(F)cc(C[N@@H+]2CCC[C@H]2CO)c1)OCCOCCOCCOC(=O)c1ccc(-c2c3nc(c(-c4cc(S(=O)(=O)[O-])ccc4F)c4ccc([nH]4)c(-c4cc(S(=O)(=O)[O-])ccc4F)c4nc(c(-c5cc(S(=O)(=O)[O-])ccc5F)c5ccc2[nH]5)C=C4)C=C3)cc1
REMARK SMILES IDX 24 1 23 2 22 3 21 4 20 5 2 6 1 7 3 8 4 9 5 10 6 11 19 12
REMARK SMILES IDX 7 13 10 14 8 15 9 16 11 17 12 18 13 19 16 20 14 22 15 23
REMARK SMILES IDX 17 24 18 25 25 27 26 28 27 29 28 30 29 31 30 32 31 33 32 34
REMARK SMILES IDX 33 35 94 36 34 37 93 38 35 39 36 40 37 41 87 42 38 43 92 44
REMARK SMILES IDX 86 45 88 46 39 47 91 48 85 49 84 50 40 52 72 53 52 54 71 55
REMARK SMILES IDX 53 56 56 57 70 58 89 59 54 60 55 61 69 63 90 64 57 65 41 66
REMARK SMILES IDX 42 67 50 68 43 69 49 70 51 71 48 72 44 73 45 74 46 75 47 76
REMARK SMILES IDX 73 77 74 78 82 79 75 80 81 81 83 82 80 83 76 84 77 85 78 86
REMARK SMILES IDX 79 87 58 88 59 89 67 90 60 91 66 92 68 93 65 94 61 95 62 96
REMARK SMILES IDX 63 97 64 98
REMARK H PARENT 12 21 18 26 88 51 56 62
REMARK Flexibility Score: inf
ROOT
ATOM      1  C   UNL A   1      42.214  19.526  27.209  1.00  0.00     0.188 C 
ENDROOT
BRANCH   1   2
ATOM      2  O   UNL A   1      40.848  19.883  27.133  1.00  0.00    -0.376 OA
BRANCH   2   3
ATOM      3  C   UNL A   1      40.452  21.241  27.229  1.00  0.00     0.202 C 
BRANCH   3   4
ATOM      4  C   UNL A   1      39.678  21.955  26.125  1.00  0.00     0.261 C 
BRANCH   4   5
ATOM      5  O   UNL A   1      38.249  21.825  25.925  1.00  0.00    -0.460 OA
BRANCH   5   6
ATOM      6  C   UNL A   1      37.432  21.111  25.135  1.00  0.00     0.330 C 
ATOM      7  O   UNL A   1      37.778  20.007  24.728  1.00  0.00    -0.247 OA
BRANCH   6   8
ATOM      8  C   UNL A   1      36.161  21.662  24.678  1.00  0.00     0.094 C 
ATOM      9  C   UNL A   1      36.079  22.803  23.985  1.00  0.00     0.016 C 
BRANCH   9  10
ATOM     10  C   UNL A   1      34.792  23.395  23.624  1.00  0.00    -0.022 A 
ATOM     11  C   UNL A   1      33.784  22.575  23.123  1.00  0.00     0.047 A 
ATOM     12  C   UNL A   1      34.533  24.757  23.859  1.00  0.00     0.018 A 
ATOM     13  C   UNL A   1      32.512  23.098  22.950  1.00  0.00     0.124 A 
ATOM     14  C   UNL A   1      33.243  25.294  23.687  1.00  0.00     0.010 A 
ATOM     15  F   UNL A   1      31.524  22.299  22.529  1.00  0.00    -0.207 F 
ATOM     16  C   UNL A   1      32.229  24.425  23.264  1.00  0.00     0.048 A 
BRANCH  14  17
ATOM     17  C   UNL A   1      32.947  26.718  24.115  1.00  0.00     0.299 C 
BRANCH  17  18
ATOM     18  N   UNL A   1      33.166  27.142  25.501  1.00  0.00    -0.327 N 
ATOM     19  C   UNL A   1      32.306  26.535  26.513  1.00  0.00     0.263 C 
ATOM     20  C   UNL A   1      33.159  28.597  25.747  1.00  0.00     0.210 C 
ATOM     21  H   UNL A   1      34.115  26.784  25.610  1.00  0.00     0.348 HD
ATOM     22  C   UNL A   1      31.250  27.569  26.861  1.00  0.00     0.068 C 
ATOM     23  C   UNL A   1      31.836  28.907  26.441  1.00  0.00     0.073 C 
BRANCH  20  24
ATOM     24  C   UNL A   1      34.360  28.950  26.653  1.00  0.00     0.220 C 
BRANCH  24  25
ATOM     25  O   UNL A   1      33.894  29.400  27.926  1.00  0.00    -0.390 OA
ATOM     26  H   UNL A   1      33.724  28.636  28.497  1.00  0.00     0.210 HD
ENDBRANCH  24  25
ENDBRANCH  20  24
ENDBRANCH  17  18
ENDBRANCH  14  17
ENDBRANCH   9  10
ENDBRANCH   6   8
ENDBRANCH   5   6
ENDBRANCH   4   5
ENDBRANCH   3   4
ENDBRANCH   2   3
ENDBRANCH   1   2
BRANCH   1  27
ATOM     27  C   UNL A   1      42.981  19.228  25.914  1.00  0.00     0.188 C 
BRANCH  27  28
ATOM     28  O   UNL A   1      43.231  20.284  25.005  1.00  0.00    -0.376 OA
BRANCH  28  29
ATOM     29  C   UNL A   1      43.690  21.531  25.522  1.00  0.00     0.202 C 
BRANCH  29  30
ATOM     30  C   UNL A   1      43.013  22.836  25.087  1.00  0.00     0.261 C 
BRANCH  30  31
ATOM     31  O   UNL A   1      43.882  23.716  24.350  1.00  0.00    -0.460 OA
BRANCH  31  32
ATOM     32  C   UNL A   1      44.780  24.381  25.118  1.00  0.00     0.338 C 
ATOM     33  O   UNL A   1      45.994  24.280  25.073  1.00  0.00    -0.246 OA
BRANCH  32  34
ATOM     34  C   UNL A   1      44.122  25.383  25.976  1.00  0.00     0.060 A 
ATOM     35  C   UNL A   1      43.713  26.577  25.371  1.00  0.00     0.016 A 
ATOM     36  C   UNL A   1      44.101  25.246  27.366  1.00  0.00     0.016 A 
ATOM     37  C   UNL A   1      43.356  27.670  26.157  1.00  0.00     0.010 A 
ATOM     38  C   UNL A   1      43.753  26.351  28.156  1.00  0.00     0.010 A 
ATOM     39  C   UNL A   1      43.434  27.583  27.554  1.00  0.00    -0.014 A 
BRANCH  39  40
ATOM     40  C   UNL A   1      43.415  28.842  28.344  1.00  0.00     0.031 A 
ATOM     41  C   UNL A   1      44.688  29.644  28.449  1.00  0.00     0.074 A 
ATOM     42  C   UNL A   1      42.274  29.322  28.869  1.00  0.00     0.049 A 
ATOM     43  N   UNL A   1      44.899  30.791  29.041  1.00  0.00    -0.248 NA
ATOM     44  C   UNL A   1      45.880  29.079  27.793  1.00  0.00     0.031 C 
ATOM     45  C   UNL A   1      40.965  28.675  28.781  1.00  0.00     0.029 A 
ATOM     46  N   UNL A   1      42.030  30.481  29.565  1.00  0.00    -0.354 N 
ATOM     47  C   UNL A   1      46.241  31.089  28.821  1.00  0.00     0.074 A 
ATOM     48  C   UNL A   1      46.803  29.987  28.075  1.00  0.00     0.031 C 
ATOM     49  C   UNL A   1      40.053  29.454  29.389  1.00  0.00     0.029 A 
ATOM     50  C   UNL A   1      40.715  30.641  29.933  1.00  0.00     0.049 A 
ATOM     51  H   UNL A   1      42.732  31.136  29.780  1.00  0.00     0.167 HD
ATOM     52  C   UNL A   1      46.939  32.189  29.193  1.00  0.00     0.034 A 
ATOM     53  C   UNL A   1      40.116  31.624  30.635  1.00  0.00     0.034 A 
ATOM     54  C   UNL A   1      46.378  33.292  29.928  1.00  0.00     0.049 A 
ATOM     55  C   UNL A   1      40.935  32.791  31.127  1.00  0.00     0.074 A 
ATOM     56  C   UNL A   1      47.001  34.457  30.337  1.00  0.00     0.029 A 
ATOM     57  N   UNL A   1      45.066  33.364  30.369  1.00  0.00    -0.354 N 
ATOM     58  N   UNL A   1      42.208  33.043  30.933  1.00  0.00    -0.248 NA
ATOM     59  C   UNL A   1      40.241  33.803  31.938  1.00  0.00     0.031 C 
ATOM     60  C   UNL A   1      46.082  35.209  31.074  1.00  0.00     0.029 A 
ATOM     61  C   UNL A   1      44.870  34.537  31.076  1.00  0.00     0.049 A 
ATOM     62  H   UNL A   1      44.375  32.682  30.203  1.00  0.00     0.167 HD
ATOM     63  C   UNL A   1      42.462  34.246  31.587  1.00  0.00     0.074 A 
ATOM     64  C   UNL A   1      41.212  34.672  32.179  1.00  0.00     0.031 C 
ATOM     65  C   UNL A   1      43.624  34.938  31.681  1.00  0.00     0.034 A 
BRANCH  52  66
ATOM     66  C   UNL A   1      48.399  32.238  28.839  1.00  0.00     0.023 A 
ATOM     67  C   UNL A   1      48.848  32.844  27.655  1.00  0.00     0.031 A 
ATOM     68  C   UNL A   1      49.353  31.683  29.710  1.00  0.00     0.131 A 
ATOM     69  C   UNL A   1      50.218  32.850  27.355  1.00  0.00     0.055 A 
ATOM     70  C   UNL A   1      50.719  31.741  29.431  1.00  0.00     0.041 A 
ATOM     71  F   UNL A   1      48.969  31.077  30.844  1.00  0.00    -0.206 F 
ATOM     72  C   UNL A   1      51.158  32.322  28.245  1.00  0.00     0.022 A 
BRANCH  69  73
ATOM     73  S   UNL A   1      50.759  33.506  25.753  1.00  0.00     0.124 S 
ATOM     74  O   UNL A   1      51.910  34.317  26.140  1.00  0.00    -0.237 OA
ATOM     75  O   UNL A   1      51.056  32.296  24.996  1.00  0.00    -0.237 OA
ATOM     76  O   UNL A   1      49.599  34.263  25.285  1.00  0.00    -0.744 OA
ENDBRANCH  69  73
ENDBRANCH  52  66
BRANCH  53  77
ATOM     77  C   UNL A   1      38.667  31.529  30.964  1.00  0.00     0.023 A 
ATOM     78  C   UNL A   1      37.697  32.180  30.186  1.00  0.00     0.031 A 
ATOM     79  C   UNL A   1      38.237  30.804  32.089  1.00  0.00     0.131 A 
ATOM     80  C   UNL A   1      36.345  32.110  30.557  1.00  0.00     0.055 A 
ATOM     81  C   UNL A   1      36.889  30.708  32.434  1.00  0.00     0.041 A 
ATOM     82  F   UNL A   1      39.130  30.167  32.865  1.00  0.00    -0.206 F 
ATOM     83  C   UNL A   1      35.934  31.369  31.668  1.00  0.00     0.022 A 
BRANCH  80  84
ATOM     84  S   UNL A   1      35.120  33.029  29.582  1.00  0.00     0.124 S 
ATOM     85  O   UNL A   1      34.585  31.984  28.718  1.00  0.00    -0.237 OA
ATOM     86  O   UNL A   1      34.222  33.532  30.616  1.00  0.00    -0.237 OA
ATOM     87  O   UNL A   1      35.921  34.049  28.908  1.00  0.00    -0.744 OA
ENDBRANCH  80  84
ENDBRANCH  53  77
BRANCH  65  88
ATOM     88  C   UNL A   1      43.609  36.235  32.441  1.00  0.00     0.023 A 
ATOM     89  C   UNL A   1      43.674  37.470  31.776  1.00  0.00     0.031 A 
ATOM     90  C   UNL A   1      43.449  36.233  33.837  1.00  0.00     0.131 A 
ATOM     91  C   UNL A   1      43.593  38.661  32.513  1.00  0.00     0.055 A 
ATOM     92  C   UNL A   1      43.333  37.420  34.561  1.00  0.00     0.041 A 
ATOM     93  F   UNL A   1      43.373  35.076  34.513  1.00  0.00    -0.206 F 
ATOM     94  C   UNL A   1      43.405  38.642  33.899  1.00  0.00     0.022 A 
BRANCH  91  95
ATOM     95  S   UNL A   1      43.725  40.245  31.639  1.00  0.00     0.124 S 
ATOM     96  O   UNL A   1      42.728  40.090  30.584  1.00  0.00    -0.237 OA
ATOM     97  O   UNL A   1      43.402  41.214  32.682  1.00  0.00    -0.237 OA
ATOM     98  O   UNL A   1      45.113  40.270  31.182  1.00  0.00    -0.744 OA
ENDBRANCH  91  95
ENDBRANCH  65  88
ENDBRANCH  39  40
ENDBRANCH  32  34
ENDBRANCH  31  32
ENDBRANCH  30  31
ENDBRANCH  29  30
ENDBRANCH  28  29
ENDBRANCH  27  28
ENDBRANCH   1  27
TORSDOF 25
ENDMDL
