MODEL 1
REMARK VINA RESULT:      -8.1      0.000      0.000
REMARK SMILES O=C(OCCOCCOCCOC(=O)[C@@H](Cc1ccccc1)N1C(=O)/C(=C/c2ccncc2)SC1=S)c1ccc(-c2c3nc(c(-c4cc(S(=O)(=O)[O-])ccc4F)c4ccc([nH]4)c(-c4cc(S(=O)(=O)[O-])ccc4F)c4nc(c(-c5cc(S(=O)(=O)[O-])ccc5F)c5ccc2[nH]5)C=C4)C=C3)cc1
REMARK SMILES IDX 7 1 6 2 5 3 4 4 3 5 2 6 1 7 37 8 38 9 99 10 39 11 98 12
REMARK SMILES IDX 40 13 41 14 42 15 92 16 43 17 97 18 91 19 93 20 44 21 96 22
REMARK SMILES IDX 90 23 89 24 45 26 77 27 57 28 76 29 58 30 61 31 75 32 94 33
REMARK SMILES IDX 59 34 60 35 74 37 95 38 62 39 46 40 47 41 55 42 48 43 54 44
REMARK SMILES IDX 56 45 53 46 49 47 50 48 51 49 52 50 78 51 79 52 87 53 80 54
REMARK SMILES IDX 86 55 88 56 85 57 81 58 82 59 83 60 84 61 63 62 64 63 72 64
REMARK SMILES IDX 65 65 71 66 73 67 70 68 66 69 67 70 68 71 69 72 8 73 9 74
REMARK SMILES IDX 10 75 11 76 12 77 13 78 14 79 15 80 16 81 17 82 18 83 22 84
REMARK SMILES IDX 19 85 21 86 20 87 23 88 24 89 35 90 25 91 26 92 34 93 36 94
REMARK SMILES IDX 27 95 28 96 29 97 33 98 30 99 32 100 31 101
REMARK H PARENT 93 25 61 36
REMARK Flexibility Score: inf
ROOT
ATOM      1  C   UNL A   1      40.288  33.203  37.941  1.00  0.00     0.188 C 
ENDROOT
BRANCH   1   2
ATOM      2  O   UNL A   1      41.352  33.560  38.826  1.00  0.00    -0.376 OA
BRANCH   2   3
ATOM      3  C   UNL A   1      41.671  34.952  38.864  1.00  0.00     0.202 C 
BRANCH   3   4
ATOM      4  C   UNL A   1      40.811  35.922  38.032  1.00  0.00     0.261 C 
BRANCH   4   5
ATOM      5  O   UNL A   1      41.474  36.626  36.968  1.00  0.00    -0.460 OA
BRANCH   5   6
ATOM      6  C   UNL A   1      42.681  36.459  36.383  1.00  0.00     0.338 C 
ATOM      7  O   UNL A   1      43.599  37.190  36.759  1.00  0.00    -0.246 OA
BRANCH   6   8
ATOM      8  C   UNL A   1      42.970  35.493  35.277  1.00  0.00     0.060 A 
ATOM      9  C   UNL A   1      42.100  35.171  34.243  1.00  0.00     0.016 A 
ATOM     10  C   UNL A   1      44.221  34.834  35.308  1.00  0.00     0.016 A 
ATOM     11  C   UNL A   1      42.442  34.221  33.288  1.00  0.00     0.010 A 
ATOM     12  C   UNL A   1      44.564  33.855  34.364  1.00  0.00     0.010 A 
ATOM     13  C   UNL A   1      43.656  33.530  33.360  1.00  0.00    -0.014 A 
BRANCH  13  14
ATOM     14  C   UNL A   1      43.760  32.308  32.532  1.00  0.00     0.031 A 
ATOM     15  C   UNL A   1      44.436  32.463  31.200  1.00  0.00     0.074 A 
ATOM     16  C   UNL A   1      43.460  31.097  33.034  1.00  0.00     0.049 A 
ATOM     17  N   UNL A   1      44.821  31.552  30.350  1.00  0.00    -0.248 NA
ATOM     18  C   UNL A   1      44.724  33.846  30.778  1.00  0.00     0.031 C 
ATOM     19  C   UNL A   1      42.845  30.858  34.337  1.00  0.00     0.029 A 
ATOM     20  N   UNL A   1      43.730  29.839  32.560  1.00  0.00    -0.354 N 
ATOM     21  C   UNL A   1      45.343  32.252  29.268  1.00  0.00     0.074 A 
ATOM     22  C   UNL A   1      45.294  33.658  29.602  1.00  0.00     0.031 C 
ATOM     23  C   UNL A   1      42.927  29.547  34.623  1.00  0.00     0.029 A 
ATOM     24  C   UNL A   1      43.488  28.837  33.478  1.00  0.00     0.049 A 
ATOM     25  H   UNL A   1      44.062  29.667  31.650  1.00  0.00     0.167 HD
ATOM     26  C   UNL A   1      45.754  31.762  28.075  1.00  0.00     0.034 A 
ATOM     27  C   UNL A   1      43.695  27.506  33.379  1.00  0.00     0.034 A 
ATOM     28  C   UNL A   1      45.706  30.359  27.756  1.00  0.00     0.049 A 
ATOM     29  C   UNL A   1      44.158  26.981  32.037  1.00  0.00     0.074 A 
ATOM     30  C   UNL A   1      45.943  29.734  26.546  1.00  0.00     0.029 A 
ATOM     31  N   UNL A   1      45.371  29.361  28.665  1.00  0.00    -0.354 N 
ATOM     32  N   UNL A   1      44.549  27.651  30.975  1.00  0.00    -0.248 NA
ATOM     33  C   UNL A   1      44.144  25.523  31.856  1.00  0.00     0.031 C 
ATOM     34  C   UNL A   1      45.676  28.369  26.706  1.00  0.00     0.029 A 
ATOM     35  C   UNL A   1      45.370  28.128  28.038  1.00  0.00     0.049 A 
ATOM     36  H   UNL A   1      45.164  29.510  29.616  1.00  0.00     0.167 HD
ATOM     37  C   UNL A   1      44.789  26.696  29.992  1.00  0.00     0.074 A 
ATOM     38  C   UNL A   1      44.571  25.403  30.608  1.00  0.00     0.031 C 
ATOM     39  C   UNL A   1      45.124  26.863  28.686  1.00  0.00     0.034 A 
BRANCH  26  40
ATOM     40  C   UNL A   1      46.078  32.780  27.010  1.00  0.00     0.023 A 
ATOM     41  C   UNL A   1      47.386  33.248  26.795  1.00  0.00     0.031 A 
ATOM     42  C   UNL A   1      45.030  33.405  26.310  1.00  0.00     0.131 A 
ATOM     43  C   UNL A   1      47.595  34.379  25.988  1.00  0.00     0.055 A 
ATOM     44  C   UNL A   1      45.258  34.465  25.432  1.00  0.00     0.041 A 
ATOM     45  F   UNL A   1      43.756  33.031  26.509  1.00  0.00    -0.206 F 
ATOM     46  C   UNL A   1      46.544  34.974  25.285  1.00  0.00     0.022 A 
BRANCH  43  47
ATOM     47  S   UNL A   1      49.217  35.192  26.045  1.00  0.00     0.124 S 
ATOM     48  O   UNL A   1      49.324  35.728  24.689  1.00  0.00    -0.237 OA
ATOM     49  O   UNL A   1      49.040  36.176  27.106  1.00  0.00    -0.237 OA
ATOM     50  O   UNL A   1      50.138  34.100  26.350  1.00  0.00    -0.744 OA
ENDBRANCH  43  47
ENDBRANCH  26  40
BRANCH  27  51
ATOM     51  C   UNL A   1      43.367  26.552  34.487  1.00  0.00     0.023 A 
ATOM     52  C   UNL A   1      44.377  25.839  35.162  1.00  0.00     0.031 A 
ATOM     53  C   UNL A   1      42.033  26.237  34.807  1.00  0.00     0.131 A 
ATOM     54  C   UNL A   1      44.038  24.811  36.059  1.00  0.00     0.055 A 
ATOM     55  C   UNL A   1      41.702  25.271  35.760  1.00  0.00     0.041 A 
ATOM     56  F   UNL A   1      41.019  26.858  34.185  1.00  0.00    -0.206 F 
ATOM     57  C   UNL A   1      42.707  24.537  36.378  1.00  0.00     0.022 A 
BRANCH  54  58
ATOM     58  S   UNL A   1      45.364  23.781  36.755  1.00  0.00     0.124 S 
ATOM     59  O   UNL A   1      46.556  24.467  36.275  1.00  0.00    -0.237 OA
ATOM     60  O   UNL A   1      45.099  23.877  38.188  1.00  0.00    -0.237 OA
ATOM     61  O   UNL A   1      45.116  22.466  36.172  1.00  0.00    -0.744 OA
ENDBRANCH  54  58
ENDBRANCH  27  51
BRANCH  39  62
ATOM     62  C   UNL A   1      45.278  25.613  27.858  1.00  0.00     0.023 A 
ATOM     63  C   UNL A   1      44.168  24.960  27.295  1.00  0.00     0.031 A 
ATOM     64  C   UNL A   1      46.556  25.081  27.623  1.00  0.00     0.131 A 
ATOM     65  C   UNL A   1      44.356  23.778  26.563  1.00  0.00     0.055 A 
ATOM     66  C   UNL A   1      46.743  23.943  26.841  1.00  0.00     0.041 A 
ATOM     67  F   UNL A   1      47.647  25.668  28.142  1.00  0.00    -0.206 F 
ATOM     68  C   UNL A   1      45.637  23.278  26.316  1.00  0.00     0.022 A 
BRANCH  65  69
ATOM     69  S   UNL A   1      42.897  22.853  26.013  1.00  0.00     0.124 S 
ATOM     70  O   UNL A   1      43.398  22.178  24.820  1.00  0.00    -0.237 OA
ATOM     71  O   UNL A   1      42.617  21.997  27.160  1.00  0.00    -0.237 OA
ATOM     72  O   UNL A   1      41.904  23.897  25.763  1.00  0.00    -0.744 OA
ENDBRANCH  65  69
ENDBRANCH  39  62
ENDBRANCH  13  14
ENDBRANCH   6   8
ENDBRANCH   5   6
ENDBRANCH   4   5
ENDBRANCH   3   4
ENDBRANCH   2   3
ENDBRANCH   1   2
BRANCH   1  73
ATOM     73  C   UNL A   1      40.729  32.391  36.724  1.00  0.00     0.188 C 
BRANCH  73  74
ATOM     74  O   UNL A   1      39.999  31.191  36.482  1.00  0.00    -0.376 OA
BRANCH  74  75
ATOM     75  C   UNL A   1      39.196  31.146  35.309  1.00  0.00     0.202 C 
BRANCH  75  76
ATOM     76  C   UNL A   1      37.843  31.838  35.399  1.00  0.00     0.261 C 
BRANCH  76  77
ATOM     77  O   UNL A   1      37.662  32.845  34.394  1.00  0.00    -0.462 OA
BRANCH  77  78
ATOM     78  C   UNL A   1      36.392  33.082  33.974  1.00  0.00     0.329 C 
ATOM     79  O   UNL A   1      35.436  33.295  34.713  1.00  0.00    -0.250 OA
BRANCH  78  80
ATOM     80  C   UNL A   1      36.257  32.924  32.462  1.00  0.00     0.206 C 
BRANCH  80  81
ATOM     81  C   UNL A   1      35.758  34.155  31.677  1.00  0.00     0.073 C 
BRANCH  81  82
ATOM     82  C   UNL A   1      34.810  34.015  30.507  1.00  0.00    -0.045 A 
ATOM     83  C   UNL A   1      34.975  33.099  29.471  1.00  0.00     0.004 A 
ATOM     84  C   UNL A   1      33.787  34.963  30.364  1.00  0.00     0.004 A 
ATOM     85  C   UNL A   1      34.186  33.171  28.318  1.00  0.00     0.000 A 
ATOM     86  C   UNL A   1      33.005  35.055  29.216  1.00  0.00     0.000 A 
ATOM     87  C   UNL A   1      33.218  34.163  28.179  1.00  0.00     0.000 A 
ENDBRANCH  81  82
ENDBRANCH  80  81
BRANCH  80  88
ATOM     88  N   UNL A   1      37.327  32.153  31.806  1.00  0.00    -0.278 N 
ATOM     89  C   UNL A   1      37.065  30.805  31.574  1.00  0.00     0.267 C 
ATOM     90  C   UNL A   1      38.512  32.639  31.281  1.00  0.00     0.149 C 
ATOM     91  O   UNL A   1      36.103  30.178  31.989  1.00  0.00    -0.268 OA
ATOM     92  C   UNL A   1      38.143  30.207  30.756  1.00  0.00     0.081 C 
ATOM     93  S   UNL A   1      39.416  31.337  30.544  1.00  0.00    -0.054 SA
ATOM     94  S   UNL A   1      39.189  34.163  31.297  1.00  0.00    -0.052 S 
ATOM     95  C   UNL A   1      38.102  28.965  30.257  1.00  0.00     0.029 C 
BRANCH  95  96
ATOM     96  C   UNL A   1      39.243  28.423  29.518  1.00  0.00    -0.021 A 
ATOM     97  C   UNL A   1      39.170  28.340  28.129  1.00  0.00     0.028 A 
ATOM     98  C   UNL A   1      40.320  27.843  30.179  1.00  0.00     0.028 A 
ATOM     99  C   UNL A   1      40.164  27.647  27.463  1.00  0.00     0.111 A 
ATOM    100  C   UNL A   1      41.288  27.207  29.419  1.00  0.00     0.111 A 
ATOM    101  N   UNL A   1      41.216  27.067  28.073  1.00  0.00    -0.265 NA
ENDBRANCH  95  96
ENDBRANCH  80  88
ENDBRANCH  78  80
ENDBRANCH  77  78
ENDBRANCH  76  77
ENDBRANCH  75  76
ENDBRANCH  74  75
ENDBRANCH  73  74
ENDBRANCH   1  73
TORSDOF 24
ENDMDL
MODEL 2
REMARK VINA RESULT:      -7.4      2.666      3.431
REMARK SMILES O=C(OCCOCCOCCOC(=O)[C@@H](Cc1ccccc1)N1C(=O)/C(=C/c2ccncc2)SC1=S)c1ccc(-c2c3nc(c(-c4cc(S(=O)(=O)[O-])ccc4F)c4ccc([nH]4)c(-c4cc(S(=O)(=O)[O-])ccc4F)c4nc(c(-c5cc(S(=O)(=O)[O-])ccc5F)c5ccc2[nH]5)C=C4)C=C3)cc1
REMARK SMILES IDX 7 1 6 2 5 3 4 4 3 5 2 6 1 7 37 8 38 9 99 10 39 11 98 12
REMARK SMILES IDX 40 13 41 14 42 15 92 16 43 17 97 18 91 19 93 20 44 21 96 22
REMARK SMILES IDX 90 23 89 24 45 26 77 27 57 28 76 29 58 30 61 31 75 32 94 33
REMARK SMILES IDX 59 34 60 35 74 37 95 38 62 39 46 40 47 41 55 42 48 43 54 44
REMARK SMILES IDX 56 45 53 46 49 47 50 48 51 49 52 50 78 51 79 52 87 53 80 54
REMARK SMILES IDX 86 55 88 56 85 57 81 58 82 59 83 60 84 61 63 62 64 63 72 64
REMARK SMILES IDX 65 65 71 66 73 67 70 68 66 69 67 70 68 71 69 72 8 73 9 74
REMARK SMILES IDX 10 75 11 76 12 77 13 78 14 79 15 80 16 81 17 82 18 83 22 84
REMARK SMILES IDX 19 85 21 86 20 87 23 88 24 89 35 90 25 91 26 92 34 93 36 94
REMARK SMILES IDX 27 95 28 96 29 97 33 98 30 99 32 100 31 101
REMARK H PARENT 93 25 61 36
REMARK Flexibility Score: inf
ROOT
ATOM      1  C   UNL A   1      39.263  33.547  38.368  1.00  0.00     0.188 C 
ENDROOT
BRANCH   1   2
ATOM      2  O   UNL A   1      39.507  33.743  39.763  1.00  0.00    -0.376 OA
BRANCH   2   3
ATOM      3  C   UNL A   1      39.904  35.064  40.131  1.00  0.00     0.202 C 
BRANCH   3   4
ATOM      4  C   UNL A   1      39.234  36.255  39.420  1.00  0.00     0.261 C 
BRANCH   4   5
ATOM      5  O   UNL A   1      40.080  37.085  38.606  1.00  0.00    -0.460 OA
BRANCH   5   6
ATOM      6  C   UNL A   1      41.339  36.917  38.141  1.00  0.00     0.338 C 
ATOM      7  O   UNL A   1      42.262  37.341  38.837  1.00  0.00    -0.246 OA
BRANCH   6   8
ATOM      8  C   UNL A   1      41.688  36.304  36.820  1.00  0.00     0.060 A 
ATOM      9  C   UNL A   1      40.778  35.943  35.835  1.00  0.00     0.016 A 
ATOM     10  C   UNL A   1      43.056  36.049  36.571  1.00  0.00     0.016 A 
ATOM     11  C   UNL A   1      41.198  35.333  34.659  1.00  0.00     0.010 A 
ATOM     12  C   UNL A   1      43.487  35.411  35.398  1.00  0.00     0.010 A 
ATOM     13  C   UNL A   1      42.546  35.029  34.446  1.00  0.00    -0.014 A 
BRANCH  13  14
ATOM     14  C   UNL A   1      42.833  34.070  33.356  1.00  0.00     0.031 A 
ATOM     15  C   UNL A   1      43.156  34.666  32.015  1.00  0.00     0.074 A 
ATOM     16  C   UNL A   1      43.003  32.760  33.605  1.00  0.00     0.049 A 
ATOM     17  N   UNL A   1      43.611  34.092  30.937  1.00  0.00    -0.248 NA
ATOM     18  C   UNL A   1      42.940  36.118  31.884  1.00  0.00     0.031 C 
ATOM     19  C   UNL A   1      42.756  32.112  34.890  1.00  0.00     0.029 A 
ATOM     20  N   UNL A   1      43.526  31.761  32.825  1.00  0.00    -0.354 N 
ATOM     21  C   UNL A   1      43.682  35.101  29.982  1.00  0.00     0.074 A 
ATOM     22  C   UNL A   1      43.295  36.333  30.631  1.00  0.00     0.031 C 
ATOM     23  C   UNL A   1      43.270  30.869  34.856  1.00  0.00     0.029 A 
ATOM     24  C   UNL A   1      43.773  30.591  33.515  1.00  0.00     0.049 A 
ATOM     25  H   UNL A   1      43.707  31.867  31.863  1.00  0.00     0.167 HD
ATOM     26  C   UNL A   1      43.971  34.986  28.664  1.00  0.00     0.034 A 
ATOM     27  C   UNL A   1      44.333  29.438  33.090  1.00  0.00     0.034 A 
ATOM     28  C   UNL A   1      44.270  33.722  28.044  1.00  0.00     0.049 A 
ATOM     29  C   UNL A   1      44.652  29.333  31.613  1.00  0.00     0.074 A 
ATOM     30  C   UNL A   1      44.432  33.427  26.703  1.00  0.00     0.029 A 
ATOM     31  N   UNL A   1      44.427  32.526  28.739  1.00  0.00    -0.354 N 
ATOM     32  N   UNL A   1      44.613  30.268  30.689  1.00  0.00    -0.248 NA
ATOM     33  C   UNL A   1      45.026  28.005  31.109  1.00  0.00     0.031 C 
ATOM     34  C   UNL A   1      44.610  32.044  26.583  1.00  0.00     0.029 A 
ATOM     35  C   UNL A   1      44.658  31.490  27.854  1.00  0.00     0.049 A 
ATOM     36  H   UNL A   1      44.379  32.432  29.718  1.00  0.00     0.167 HD
ATOM     37  C   UNL A   1      44.919  29.630  29.491  1.00  0.00     0.074 A 
ATOM     38  C   UNL A   1      45.212  28.249  29.821  1.00  0.00     0.031 C 
ATOM     39  C   UNL A   1      44.924  30.120  28.224  1.00  0.00     0.034 A 
BRANCH  26  40
ATOM     40  C   UNL A   1      43.768  36.223  27.825  1.00  0.00     0.023 A 
ATOM     41  C   UNL A   1      44.824  37.096  27.509  1.00  0.00     0.031 A 
ATOM     42  C   UNL A   1      42.462  36.612  27.474  1.00  0.00     0.131 A 
ATOM     43  C   UNL A   1      44.541  38.358  26.963  1.00  0.00     0.055 A 
ATOM     44  C   UNL A   1      42.200  37.826  26.841  1.00  0.00     0.041 A 
ATOM     45  F   UNL A   1      41.410  35.841  27.792  1.00  0.00    -0.206 F 
ATOM     46  C   UNL A   1      43.240  38.719  26.603  1.00  0.00     0.022 A 
BRANCH  43  47
ATOM     47  S   UNL A   1      45.863  39.602  26.935  1.00  0.00     0.124 S 
ATOM     48  O   UNL A   1      46.925  38.886  26.230  1.00  0.00    -0.237 OA
ATOM     49  O   UNL A   1      45.246  40.703  26.206  1.00  0.00    -0.237 OA
ATOM     50  O   UNL A   1      46.126  39.856  28.350  1.00  0.00    -0.744 OA
ENDBRANCH  43  47
ENDBRANCH  26  40
BRANCH  27  51
ATOM     51  C   UNL A   1      44.523  28.252  33.985  1.00  0.00     0.023 A 
ATOM     52  C   UNL A   1      43.421  27.548  34.509  1.00  0.00     0.031 A 
ATOM     53  C   UNL A   1      45.801  27.878  34.439  1.00  0.00     0.131 A 
ATOM     54  C   UNL A   1      43.615  26.565  35.496  1.00  0.00     0.055 A 
ATOM     55  C   UNL A   1      45.994  26.844  35.359  1.00  0.00     0.041 A 
ATOM     56  F   UNL A   1      46.894  28.522  34.003  1.00  0.00    -0.206 F 
ATOM     57  C   UNL A   1      44.896  26.195  35.909  1.00  0.00     0.022 A 
BRANCH  54  58
ATOM     58  S   UNL A   1      42.159  25.822  36.291  1.00  0.00     0.124 S 
ATOM     59  O   UNL A   1      42.747  25.210  37.476  1.00  0.00    -0.237 OA
ATOM     60  O   UNL A   1      41.313  26.989  36.522  1.00  0.00    -0.237 OA
ATOM     61  O   UNL A   1      41.658  24.891  35.285  1.00  0.00    -0.744 OA
ENDBRANCH  54  58
ENDBRANCH  27  51
BRANCH  39  62
ATOM     62  C   UNL A   1      45.266  29.152  27.121  1.00  0.00     0.023 A 
ATOM     63  C   UNL A   1      46.598  28.843  26.797  1.00  0.00     0.031 A 
ATOM     64  C   UNL A   1      44.240  28.524  26.397  1.00  0.00     0.131 A 
ATOM     65  C   UNL A   1      46.869  27.965  25.738  1.00  0.00     0.055 A 
ATOM     66  C   UNL A   1      44.514  27.603  25.388  1.00  0.00     0.041 A 
ATOM     67  F   UNL A   1      42.951  28.789  26.668  1.00  0.00    -0.206 F 
ATOM     68  C   UNL A   1      45.835  27.329  25.046  1.00  0.00     0.022 A 
BRANCH  65  69
ATOM     69  S   UNL A   1      48.590  27.734  25.217  1.00  0.00     0.124 S 
ATOM     70  O   UNL A   1      48.947  26.492  25.894  1.00  0.00    -0.237 OA
ATOM     71  O   UNL A   1      48.471  27.659  23.766  1.00  0.00    -0.237 OA
ATOM     72  O   UNL A   1      49.264  28.930  25.721  1.00  0.00    -0.744 OA
ENDBRANCH  65  69
ENDBRANCH  39  62
ENDBRANCH  13  14
ENDBRANCH   6   8
ENDBRANCH   5   6
ENDBRANCH   4   5
ENDBRANCH   3   4
ENDBRANCH   2   3
ENDBRANCH   1   2
BRANCH   1  73
ATOM     73  C   UNL A   1      40.256  32.610  37.682  1.00  0.00     0.188 C 
BRANCH  73  74
ATOM     74  O   UNL A   1      39.685  31.593  36.863  1.00  0.00    -0.376 OA
BRANCH  74  75
ATOM     75  C   UNL A   1      39.339  31.951  35.531  1.00  0.00     0.202 C 
BRANCH  75  76
ATOM     76  C   UNL A   1      37.938  32.515  35.333  1.00  0.00     0.261 C 
BRANCH  76  77
ATOM     77  O   UNL A   1      37.709  32.988  33.998  1.00  0.00    -0.462 OA
BRANCH  77  78
ATOM     78  C   UNL A   1      36.442  32.902  33.518  1.00  0.00     0.329 C 
ATOM     79  O   UNL A   1      35.430  32.858  34.211  1.00  0.00    -0.250 OA
BRANCH  78  80
ATOM     80  C   UNL A   1      36.422  32.734  32.001  1.00  0.00     0.206 C 
BRANCH  80  81
ATOM     81  C   UNL A   1      36.096  33.990  31.168  1.00  0.00     0.073 C 
BRANCH  81  82
ATOM     82  C   UNL A   1      34.972  33.997  30.155  1.00  0.00    -0.045 A 
ATOM     83  C   UNL A   1      34.972  33.250  28.981  1.00  0.00     0.004 A 
ATOM     84  C   UNL A   1      33.935  34.927  30.320  1.00  0.00     0.004 A 
ATOM     85  C   UNL A   1      34.007  33.468  27.991  1.00  0.00     0.000 A 
ATOM     86  C   UNL A   1      32.979  35.165  29.337  1.00  0.00     0.000 A 
ATOM     87  C   UNL A   1      33.025  34.442  28.157  1.00  0.00     0.000 A 
ENDBRANCH  81  82
ENDBRANCH  80  81
BRANCH  80  88
ATOM     88  N   UNL A   1      37.474  31.867  31.444  1.00  0.00    -0.278 N 
ATOM     89  C   UNL A   1      37.218  30.498  31.454  1.00  0.00     0.267 C 
ATOM     90  C   UNL A   1      38.634  32.261  30.799  1.00  0.00     0.149 C 
ATOM     91  O   UNL A   1      36.279  29.947  32.007  1.00  0.00    -0.268 OA
ATOM     92  C   UNL A   1      38.271  29.774  30.708  1.00  0.00     0.081 C 
ATOM     93  S   UNL A   1      39.523  30.857  30.258  1.00  0.00    -0.054 SA
ATOM     94  S   UNL A   1      39.294  33.769  30.530  1.00  0.00    -0.052 S 
ATOM     95  C   UNL A   1      38.223  28.466  30.428  1.00  0.00     0.029 C 
BRANCH  95  96
ATOM     96  C   UNL A   1      39.341  27.811  29.748  1.00  0.00    -0.021 A 
ATOM     97  C   UNL A   1      40.555  27.675  30.420  1.00  0.00     0.028 A 
ATOM     98  C   UNL A   1      39.268  27.474  28.401  1.00  0.00     0.028 A 
ATOM     99  C   UNL A   1      41.654  27.239  29.704  1.00  0.00     0.111 A 
ATOM    100  C   UNL A   1      40.416  27.006  27.781  1.00  0.00     0.111 A 
ATOM    101  N   UNL A   1      41.619  26.912  28.397  1.00  0.00    -0.265 NA
ENDBRANCH  95  96
ENDBRANCH  80  88
ENDBRANCH  78  80
ENDBRANCH  77  78
ENDBRANCH  76  77
ENDBRANCH  75  76
ENDBRANCH  74  75
ENDBRANCH  73  74
ENDBRANCH   1  73
TORSDOF 24
ENDMDL
MODEL 3
REMARK VINA RESULT:      -7.1      3.733      7.423
REMARK SMILES O=C(OCCOCCOCCOC(=O)[C@@H](Cc1ccccc1)N1C(=O)/C(=C/c2ccncc2)SC1=S)c1ccc(-c2c3nc(c(-c4cc(S(=O)(=O)[O-])ccc4F)c4ccc([nH]4)c(-c4cc(S(=O)(=O)[O-])ccc4F)c4nc(c(-c5cc(S(=O)(=O)[O-])ccc5F)c5ccc2[nH]5)C=C4)C=C3)cc1
REMARK SMILES IDX 7 1 6 2 5 3 4 4 3 5 2 6 1 7 37 8 38 9 99 10 39 11 98 12
REMARK SMILES IDX 40 13 41 14 42 15 92 16 43 17 97 18 91 19 93 20 44 21 96 22
REMARK SMILES IDX 90 23 89 24 45 26 77 27 57 28 76 29 58 30 61 31 75 32 94 33
REMARK SMILES IDX 59 34 60 35 74 37 95 38 62 39 46 40 47 41 55 42 48 43 54 44
REMARK SMILES IDX 56 45 53 46 49 47 50 48 51 49 52 50 78 51 79 52 87 53 80 54
REMARK SMILES IDX 86 55 88 56 85 57 81 58 82 59 83 60 84 61 63 62 64 63 72 64
REMARK SMILES IDX 65 65 71 66 73 67 70 68 66 69 67 70 68 71 69 72 8 73 9 74
REMARK SMILES IDX 10 75 11 76 12 77 13 78 14 79 15 80 16 81 17 82 18 83 22 84
REMARK SMILES IDX 19 85 21 86 20 87 23 88 24 89 35 90 25 91 26 92 34 93 36 94
REMARK SMILES IDX 27 95 28 96 29 97 33 98 30 99 32 100 31 101
REMARK H PARENT 93 25 61 36
REMARK Flexibility Score: inf
ROOT
ATOM      1  C   UNL A   1      48.841  36.506  34.362  1.00  0.00     0.188 C 
ENDROOT
BRANCH   1   2
ATOM      2  O   UNL A   1      47.955  37.412  33.701  1.00  0.00    -0.376 OA
BRANCH   2   3
ATOM      3  C   UNL A   1      48.486  38.037  32.532  1.00  0.00     0.202 C 
BRANCH   3   4
ATOM      4  C   UNL A   1      49.040  37.139  31.409  1.00  0.00     0.261 C 
BRANCH   4   5
ATOM      5  O   UNL A   1      48.085  36.347  30.682  1.00  0.00    -0.460 OA
BRANCH   5   6
ATOM      6  C   UNL A   1      48.202  35.189  29.995  1.00  0.00     0.338 C 
ATOM      7  O   UNL A   1      49.290  34.950  29.469  1.00  0.00    -0.246 OA
BRANCH   6   8
ATOM      8  C   UNL A   1      47.094  34.205  29.780  1.00  0.00     0.060 A 
ATOM      9  C   UNL A   1      46.772  33.157  30.633  1.00  0.00     0.016 A 
ATOM     10  C   UNL A   1      46.334  34.341  28.595  1.00  0.00     0.016 A 
ATOM     11  C   UNL A   1      45.754  32.265  30.319  1.00  0.00     0.010 A 
ATOM     12  C   UNL A   1      45.322  33.431  28.258  1.00  0.00     0.010 A 
ATOM     13  C   UNL A   1      45.047  32.370  29.117  1.00  0.00    -0.014 A 
BRANCH  13  14
ATOM     14  C   UNL A   1      44.259  31.183  28.720  1.00  0.00     0.031 A 
ATOM     15  C   UNL A   1      45.027  30.054  28.093  1.00  0.00     0.074 A 
ATOM     16  C   UNL A   1      42.975  31.041  29.092  1.00  0.00     0.049 A 
ATOM     17  N   UNL A   1      44.642  28.841  27.809  1.00  0.00    -0.248 NA
ATOM     18  C   UNL A   1      46.431  30.340  27.750  1.00  0.00     0.031 C 
ATOM     19  C   UNL A   1      42.172  32.071  29.746  1.00  0.00     0.029 A 
ATOM     20  N   UNL A   1      42.153  29.943  29.075  1.00  0.00    -0.354 N 
ATOM     21  C   UNL A   1      45.738  28.237  27.201  1.00  0.00     0.074 A 
ATOM     22  C   UNL A   1      46.822  29.193  27.228  1.00  0.00     0.031 C 
ATOM     23  C   UNL A   1      41.037  31.513  30.204  1.00  0.00     0.029 A 
ATOM     24  C   UNL A   1      40.976  30.120  29.774  1.00  0.00     0.049 A 
ATOM     25  H   UNL A   1      42.381  29.107  28.606  1.00  0.00     0.167 HD
ATOM     26  C   UNL A   1      45.800  27.022  26.609  1.00  0.00     0.034 A 
ATOM     27  C   UNL A   1      39.975  29.246  30.017  1.00  0.00     0.034 A 
ATOM     28  C   UNL A   1      44.667  26.137  26.534  1.00  0.00     0.049 A 
ATOM     29  C   UNL A   1      40.068  27.891  29.347  1.00  0.00     0.074 A 
ATOM     30  C   UNL A   1      44.535  24.949  25.840  1.00  0.00     0.029 A 
ATOM     31  N   UNL A   1      43.450  26.368  27.168  1.00  0.00    -0.354 N 
ATOM     32  N   UNL A   1      41.071  27.365  28.678  1.00  0.00    -0.248 NA
ATOM     33  C   UNL A   1      38.873  27.039  29.407  1.00  0.00     0.031 C 
ATOM     34  C   UNL A   1      43.217  24.504  25.992  1.00  0.00     0.029 A 
ATOM     35  C   UNL A   1      42.556  25.360  26.861  1.00  0.00     0.049 A 
ATOM     36  H   UNL A   1      43.254  27.138  27.749  1.00  0.00     0.167 HD
ATOM     37  C   UNL A   1      40.610  26.140  28.207  1.00  0.00     0.074 A 
ATOM     38  C   UNL A   1      39.269  25.973  28.730  1.00  0.00     0.031 C 
ATOM     39  C   UNL A   1      41.217  25.243  27.387  1.00  0.00     0.034 A 
BRANCH  26  40
ATOM     40  C   UNL A   1      47.065  26.715  25.846  1.00  0.00     0.023 A 
ATOM     41  C   UNL A   1      48.141  26.022  26.428  1.00  0.00     0.031 A 
ATOM     42  C   UNL A   1      47.250  27.268  24.566  1.00  0.00     0.131 A 
ATOM     43  C   UNL A   1      49.385  25.998  25.776  1.00  0.00     0.055 A 
ATOM     44  C   UNL A   1      48.460  27.153  23.881  1.00  0.00     0.041 A 
ATOM     45  F   UNL A   1      46.274  27.978  23.980  1.00  0.00    -0.206 F 
ATOM     46  C   UNL A   1      49.544  26.535  24.496  1.00  0.00     0.022 A 
BRANCH  43  47
ATOM     47  S   UNL A   1      50.840  25.452  26.713  1.00  0.00     0.124 S 
ATOM     48  O   UNL A   1      50.268  24.406  27.560  1.00  0.00    -0.237 OA
ATOM     49  O   UNL A   1      51.741  24.998  25.662  1.00  0.00    -0.237 OA
ATOM     50  O   UNL A   1      51.263  26.657  27.424  1.00  0.00    -0.744 OA
ENDBRANCH  43  47
ENDBRANCH  26  40
BRANCH  27  51
ATOM     51  C   UNL A   1      38.753  29.615  30.801  1.00  0.00     0.023 A 
ATOM     52  C   UNL A   1      37.753  30.440  30.252  1.00  0.00     0.031 A 
ATOM     53  C   UNL A   1      38.620  29.257  32.156  1.00  0.00     0.131 A 
ATOM     54  C   UNL A   1      36.715  30.931  31.064  1.00  0.00     0.055 A 
ATOM     55  C   UNL A   1      37.543  29.680  32.937  1.00  0.00     0.041 A 
ATOM     56  F   UNL A   1      39.548  28.494  32.753  1.00  0.00    -0.206 F 
ATOM     57  C   UNL A   1      36.593  30.539  32.398  1.00  0.00     0.022 A 
BRANCH  54  58
ATOM     58  S   UNL A   1      35.561  32.151  30.371  1.00  0.00     0.124 S 
ATOM     59  O   UNL A   1      36.425  33.311  30.192  1.00  0.00    -0.237 OA
ATOM     60  O   UNL A   1      35.115  31.486  29.151  1.00  0.00    -0.237 OA
ATOM     61  O   UNL A   1      34.540  32.282  31.407  1.00  0.00    -0.744 OA
ENDBRANCH  54  58
ENDBRANCH  27  51
BRANCH  39  62
ATOM     62  C   UNL A   1      40.429  24.011  27.024  1.00  0.00     0.023 A 
ATOM     63  C   UNL A   1      39.242  24.087  26.275  1.00  0.00     0.031 A 
ATOM     64  C   UNL A   1      40.885  22.744  27.425  1.00  0.00     0.131 A 
ATOM     65  C   UNL A   1      38.523  22.917  25.994  1.00  0.00     0.055 A 
ATOM     66  C   UNL A   1      40.200  21.579  27.087  1.00  0.00     0.041 A 
ATOM     67  F   UNL A   1      42.012  22.620  28.144  1.00  0.00    -0.206 F 
ATOM     68  C   UNL A   1      39.005  21.663  26.377  1.00  0.00     0.022 A 
BRANCH  65  69
ATOM     69  S   UNL A   1      36.901  23.063  25.196  1.00  0.00     0.124 S 
ATOM     70  O   UNL A   1      37.266  23.440  23.834  1.00  0.00    -0.237 OA
ATOM     71  O   UNL A   1      36.348  21.724  25.362  1.00  0.00    -0.237 OA
ATOM     72  O   UNL A   1      36.232  24.109  25.969  1.00  0.00    -0.744 OA
ENDBRANCH  65  69
ENDBRANCH  39  62
ENDBRANCH  13  14
ENDBRANCH   6   8
ENDBRANCH   5   6
ENDBRANCH   4   5
ENDBRANCH   3   4
ENDBRANCH   2   3
ENDBRANCH   1   2
BRANCH   1  73
ATOM     73  C   UNL A   1      48.140  35.478  35.248  1.00  0.00     0.188 C 
BRANCH  73  74
ATOM     74  O   UNL A   1      47.539  35.989  36.435  1.00  0.00    -0.376 OA
BRANCH  74  75
ATOM     75  C   UNL A   1      46.226  35.538  36.743  1.00  0.00     0.202 C 
BRANCH  75  76
ATOM     76  C   UNL A   1      45.240  35.511  35.583  1.00  0.00     0.261 C 
BRANCH  76  77
ATOM     77  O   UNL A   1      44.264  36.559  35.654  1.00  0.00    -0.462 OA
BRANCH  77  78
ATOM     78  C   UNL A   1      43.160  36.434  34.872  1.00  0.00     0.329 C 
ATOM     79  O   UNL A   1      42.947  37.077  33.849  1.00  0.00    -0.250 OA
BRANCH  78  80
ATOM     80  C   UNL A   1      42.137  35.481  35.485  1.00  0.00     0.206 C 
BRANCH  80  81
ATOM     81  C   UNL A   1      40.652  35.873  35.345  1.00  0.00     0.073 C 
BRANCH  81  82
ATOM     82  C   UNL A   1      39.545  34.871  35.587  1.00  0.00    -0.045 A 
ATOM     83  C   UNL A   1      38.803  34.266  34.576  1.00  0.00     0.004 A 
ATOM     84  C   UNL A   1      39.124  34.652  36.906  1.00  0.00     0.004 A 
ATOM     85  C   UNL A   1      37.657  33.520  34.875  1.00  0.00     0.000 A 
ATOM     86  C   UNL A   1      37.977  33.925  37.216  1.00  0.00     0.000 A 
ATOM     87  C   UNL A   1      37.230  33.370  36.192  1.00  0.00     0.000 A 
ENDBRANCH  81  82
ENDBRANCH  80  81
BRANCH  80  88
ATOM     88  N   UNL A   1      42.426  34.046  35.318  1.00  0.00    -0.278 N 
ATOM     89  C   UNL A   1      42.510  33.580  34.009  1.00  0.00     0.267 C 
ATOM     90  C   UNL A   1      42.745  33.133  36.308  1.00  0.00     0.149 C 
ATOM     91  O   UNL A   1      42.227  34.211  33.002  1.00  0.00    -0.268 OA
ATOM     92  C   UNL A   1      42.978  32.177  33.993  1.00  0.00     0.081 C 
ATOM     93  S   UNL A   1      43.071  31.570  35.595  1.00  0.00    -0.054 SA
ATOM     94  S   UNL A   1      42.805  33.273  37.969  1.00  0.00    -0.052 S 
ATOM     95  C   UNL A   1      43.289  31.505  32.877  1.00  0.00     0.029 C 
BRANCH  95  96
ATOM     96  C   UNL A   1      43.675  30.095  32.943  1.00  0.00    -0.021 A 
ATOM     97  C   UNL A   1      45.029  29.766  32.979  1.00  0.00     0.028 A 
ATOM     98  C   UNL A   1      42.732  29.081  32.806  1.00  0.00     0.028 A 
ATOM     99  C   UNL A   1      45.383  28.437  32.840  1.00  0.00     0.111 A 
ATOM    100  C   UNL A   1      43.185  27.775  32.716  1.00  0.00     0.111 A 
ATOM    101  N   UNL A   1      44.496  27.433  32.697  1.00  0.00    -0.265 NA
ENDBRANCH  95  96
ENDBRANCH  80  88
ENDBRANCH  78  80
ENDBRANCH  77  78
ENDBRANCH  76  77
ENDBRANCH  75  76
ENDBRANCH  74  75
ENDBRANCH  73  74
ENDBRANCH   1  73
TORSDOF 24
ENDMDL
