MODEL 1
REMARK VINA RESULT:     -11.0      0.000      0.000
REMARK SMILES Cc1cccc(-n2c(C)cc(/C=N\c3ccc(O)c(C(=O)OCCOCCOCCOC(=O)c4ccc(-c5c6nc(c(-c7cc(S(=O)(=O)[O-])ccc7F)c7ccc([nH]7)c(-c7cc(S(=O)(=O)[O-])ccc7F)c7nc(c(-c8cc(S(=O)(=O)[O-])ccc8F)c8ccc5[nH]8)C=C7)C=C6)cc4)c3)c2C)c1
REMARK SMILES IDX 26 1 25 2 24 3 23 4 22 5 20 6 21 7 19 8 14 9 15 10 97 11
REMARK SMILES IDX 16 12 17 13 13 14 12 15 11 16 7 17 8 18 98 19 9 20 10 21
REMARK SMILES IDX 99 22 6 23 1 24 2 25 3 26 100 27 4 28 5 29 18 30 27 32 28 33
REMARK SMILES IDX 29 34 30 35 31 36 32 37 33 38 34 39 35 40 96 41 36 42 95 43
REMARK SMILES IDX 37 44 38 45 39 46 89 47 40 48 94 49 88 50 90 51 41 52 93 53
REMARK SMILES IDX 87 54 86 55 42 57 74 58 54 59 73 60 55 61 58 62 72 63 91 64
REMARK SMILES IDX 56 65 57 66 71 68 92 69 59 70 43 71 44 72 52 73 45 74 51 75
REMARK SMILES IDX 53 76 50 77 46 78 47 79 48 80 49 81 75 82 76 83 84 84 77 85
REMARK SMILES IDX 83 86 85 87 82 88 78 89 79 90 80 91 81 92 60 93 61 94 69 95
REMARK SMILES IDX 62 96 68 97 70 98 67 99 63 100 64 101 65 102 66 103
REMARK H PARENT 18 31 90 56 58 67
REMARK Flexibility Score: inf
ROOT
ATOM      1  C   UNL A   1      31.406  28.622  23.962  1.00  0.00     0.188 C 
ENDROOT
BRANCH   1   2
ATOM      2  O   UNL A   1      30.789  27.324  23.901  1.00  0.00    -0.376 OA
BRANCH   2   3
ATOM      3  C   UNL A   1      30.877  26.437  22.780  1.00  0.00     0.202 C 
BRANCH   3   4
ATOM      4  C   UNL A   1      31.961  26.633  21.598  1.00  0.00     0.261 C 
BRANCH   4   5
ATOM      5  O   UNL A   1      32.333  25.493  20.670  1.00  0.00    -0.460 OA
BRANCH   5   6
ATOM      6  C   UNL A   1      33.016  24.330  20.865  1.00  0.00     0.342 C 
ATOM      7  O   UNL A   1      33.277  23.597  19.912  1.00  0.00    -0.246 OA
BRANCH   6   8
ATOM      8  C   UNL A   1      33.453  23.829  22.367  1.00  0.00     0.103 A 
ATOM      9  C   UNL A   1      34.764  23.779  24.603  1.00  0.00     0.064 A 
ATOM     10  C   UNL A   1      34.171  22.573  24.903  1.00  0.00     0.032 A 
ATOM     11  C   UNL A   1      34.310  24.402  23.392  1.00  0.00     0.048 A 
ATOM     12  C   UNL A   1      33.271  21.994  23.996  1.00  0.00     0.049 A 
ATOM     13  C   UNL A   1      32.955  22.584  22.750  1.00  0.00     0.130 A 
BRANCH   9  14
ATOM     14  N   UNL A   1      35.576  24.450  25.557  1.00  0.00    -0.256 NA
ATOM     15  C   UNL A   1      36.687  24.092  26.158  1.00  0.00     0.121 C 
BRANCH  15  16
ATOM     16  C   UNL A   1      37.607  22.957  25.980  1.00  0.00     0.014 A 
ATOM     17  N   UNL A   1      39.445  21.637  26.205  1.00  0.00    -0.318 N 
ATOM     18  C   UNL A   1      38.538  20.909  25.461  1.00  0.00     0.021 A 
ATOM     19  C   UNL A   1      38.826  22.801  26.604  1.00  0.00     0.029 A 
ATOM     20  C   UNL A   1      38.837  19.525  24.994  1.00  0.00     0.065 C 
ATOM     21  C   UNL A   1      37.383  21.683  25.353  1.00  0.00     0.033 A 
ATOM     22  C   UNL A   1      39.432  23.736  27.542  1.00  0.00     0.065 C 
BRANCH  17  23
ATOM     23  C   UNL A   1      40.841  21.412  26.362  1.00  0.00     0.046 A 
ATOM     24  C   UNL A   1      42.967  18.267  26.476  1.00  0.00     0.044 C 
ATOM     25  C   UNL A   1      42.538  19.690  26.289  1.00  0.00    -0.049 A 
ATOM     26  C   UNL A   1      43.411  20.602  25.676  1.00  0.00     0.003 A 
ATOM     27  C   UNL A   1      41.246  20.102  26.640  1.00  0.00     0.030 A 
ATOM     28  C   UNL A   1      43.028  21.927  25.474  1.00  0.00     0.002 A 
ATOM     29  C   UNL A   1      41.751  22.342  25.843  1.00  0.00     0.026 A 
ENDBRANCH  17  23
ENDBRANCH  15  16
ENDBRANCH   9  14
BRANCH  13  30
ATOM     30  O   UNL A   1      32.121  21.836  21.958  1.00  0.00    -0.507 OA
ATOM     31  H   UNL A   1      32.326  20.940  21.777  1.00  0.00     0.293 HD
ENDBRANCH  13  30
ENDBRANCH   6   8
ENDBRANCH   5   6
ENDBRANCH   4   5
ENDBRANCH   3   4
ENDBRANCH   2   3
ENDBRANCH   1   2
BRANCH   1  32
ATOM     32  C   UNL A   1      30.648  29.925  24.179  1.00  0.00     0.188 C 
BRANCH  32  33
ATOM     33  O   UNL A   1      31.168  30.621  25.304  1.00  0.00    -0.376 OA
BRANCH  33  34
ATOM     34  C   UNL A   1      32.426  30.154  25.764  1.00  0.00     0.202 C 
BRANCH  34  35
ATOM     35  C   UNL A   1      33.093  31.057  26.825  1.00  0.00     0.261 C 
BRANCH  35  36
ATOM     36  O   UNL A   1      34.179  30.379  27.509  1.00  0.00    -0.460 OA
BRANCH  36  37
ATOM     37  C   UNL A   1      35.367  31.077  27.668  1.00  0.00     0.338 C 
ATOM     38  O   UNL A   1      35.456  32.264  27.585  1.00  0.00    -0.246 OA
BRANCH  37  39
ATOM     39  C   UNL A   1      36.479  30.131  28.070  1.00  0.00     0.060 A 
ATOM     40  C   UNL A   1      36.579  29.412  29.273  1.00  0.00     0.016 A 
ATOM     41  C   UNL A   1      37.578  30.115  27.273  1.00  0.00     0.016 A 
ATOM     42  C   UNL A   1      37.837  28.819  29.711  1.00  0.00     0.010 A 
ATOM     43  C   UNL A   1      38.787  29.778  27.864  1.00  0.00     0.010 A 
ATOM     44  C   UNL A   1      39.042  29.046  29.033  1.00  0.00    -0.014 A 
BRANCH  44  45
ATOM     45  C   UNL A   1      40.532  28.773  29.489  1.00  0.00     0.031 A 
ATOM     46  C   UNL A   1      41.624  27.741  28.984  1.00  0.00     0.074 A 
ATOM     47  C   UNL A   1      41.078  29.772  30.217  1.00  0.00     0.049 A 
ATOM     48  N   UNL A   1      42.911  27.958  28.909  1.00  0.00    -0.248 NA
ATOM     49  C   UNL A   1      41.411  26.402  28.444  1.00  0.00     0.031 C 
ATOM     50  C   UNL A   1      42.475  30.107  30.484  1.00  0.00     0.029 A 
ATOM     51  N   UNL A   1      40.387  30.617  31.072  1.00  0.00    -0.354 N 
ATOM     52  C   UNL A   1      43.555  26.937  28.225  1.00  0.00     0.074 A 
ATOM     53  C   UNL A   1      42.552  25.992  27.892  1.00  0.00     0.031 C 
ATOM     54  C   UNL A   1      42.547  30.770  31.647  1.00  0.00     0.029 A 
ATOM     55  C   UNL A   1      41.211  30.782  32.200  1.00  0.00     0.049 A 
ATOM     56  H   UNL A   1      39.501  31.018  30.921  1.00  0.00     0.167 HD
ATOM     57  C   UNL A   1      44.906  26.797  28.205  1.00  0.00     0.034 A 
ATOM     58  C   UNL A   1      40.766  30.199  33.346  1.00  0.00     0.034 A 
ATOM     59  C   UNL A   1      45.403  27.301  29.472  1.00  0.00     0.049 A 
ATOM     60  C   UNL A   1      41.612  28.964  33.660  1.00  0.00     0.074 A 
ATOM     61  C   UNL A   1      45.888  28.495  29.961  1.00  0.00     0.029 A 
ATOM     62  N   UNL A   1      45.009  26.570  30.581  1.00  0.00    -0.354 N 
ATOM     63  N   UNL A   1      42.633  28.569  32.936  1.00  0.00    -0.248 NA
ATOM     64  C   UNL A   1      41.390  28.074  34.794  1.00  0.00     0.031 C 
ATOM     65  C   UNL A   1      45.552  28.538  31.360  1.00  0.00     0.029 A 
ATOM     66  C   UNL A   1      44.923  27.351  31.714  1.00  0.00     0.049 A 
ATOM     67  H   UNL A   1      44.812  25.606  30.562  1.00  0.00     0.167 HD
ATOM     68  C   UNL A   1      43.179  27.429  33.444  1.00  0.00     0.074 A 
ATOM     69  C   UNL A   1      42.346  27.145  34.608  1.00  0.00     0.031 C 
ATOM     70  C   UNL A   1      44.264  26.793  32.896  1.00  0.00     0.034 A 
BRANCH  57  71
ATOM     71  C   UNL A   1      45.731  26.059  27.168  1.00  0.00     0.023 A 
ATOM     72  C   UNL A   1      46.449  26.818  26.217  1.00  0.00     0.031 A 
ATOM     73  C   UNL A   1      45.730  24.661  26.938  1.00  0.00     0.131 A 
ATOM     74  C   UNL A   1      47.105  26.207  25.125  1.00  0.00     0.055 A 
ATOM     75  C   UNL A   1      46.428  24.051  25.880  1.00  0.00     0.041 A 
ATOM     76  F   UNL A   1      45.018  23.812  27.691  1.00  0.00    -0.206 F 
ATOM     77  C   UNL A   1      47.114  24.825  24.960  1.00  0.00     0.022 A 
BRANCH  74  78
ATOM     78  S   UNL A   1      47.877  27.255  23.857  1.00  0.00     0.124 S 
ATOM     79  O   UNL A   1      48.937  27.918  24.610  1.00  0.00    -0.237 OA
ATOM     80  O   UNL A   1      48.302  26.276  22.865  1.00  0.00    -0.237 OA
ATOM     81  O   UNL A   1      46.787  28.133  23.430  1.00  0.00    -0.744 OA
ENDBRANCH  74  78
ENDBRANCH  57  71
BRANCH  58  82
ATOM     82  C   UNL A   1      39.277  30.473  33.483  1.00  0.00     0.023 A 
ATOM     83  C   UNL A   1      38.911  31.852  33.629  1.00  0.00     0.031 A 
ATOM     84  C   UNL A   1      38.266  29.607  33.057  1.00  0.00     0.131 A 
ATOM     85  C   UNL A   1      37.687  32.341  33.145  1.00  0.00     0.055 A 
ATOM     86  C   UNL A   1      36.987  30.090  32.699  1.00  0.00     0.041 A 
ATOM     87  F   UNL A   1      38.520  28.310  32.834  1.00  0.00    -0.206 F 
ATOM     88  C   UNL A   1      36.714  31.462  32.685  1.00  0.00     0.022 A 
BRANCH  85  89
ATOM     89  S   UNL A   1      37.490  34.130  32.817  1.00  0.00     0.124 S 
ATOM     90  O   UNL A   1      36.478  34.139  31.768  1.00  0.00    -0.237 OA
ATOM     91  O   UNL A   1      37.074  34.671  34.109  1.00  0.00    -0.237 OA
ATOM     92  O   UNL A   1      38.832  34.545  32.410  1.00  0.00    -0.744 OA
ENDBRANCH  85  89
ENDBRANCH  58  82
BRANCH  70  93
ATOM     93  C   UNL A   1      44.785  25.528  33.513  1.00  0.00     0.023 A 
ATOM     94  C   UNL A   1      45.581  25.597  34.660  1.00  0.00     0.031 A 
ATOM     95  C   UNL A   1      44.530  24.243  32.988  1.00  0.00     0.131 A 
ATOM     96  C   UNL A   1      45.981  24.425  35.309  1.00  0.00     0.055 A 
ATOM     97  C   UNL A   1      45.067  23.084  33.553  1.00  0.00     0.041 A 
ATOM     98  F   UNL A   1      43.702  24.056  31.949  1.00  0.00    -0.206 F 
ATOM     99  C   UNL A   1      45.778  23.169  34.739  1.00  0.00     0.022 A 
BRANCH  96 100
ATOM    100  S   UNL A   1      46.579  24.578  37.006  1.00  0.00     0.124 S 
ATOM    101  O   UNL A   1      48.009  24.331  36.870  1.00  0.00    -0.237 OA
ATOM    102  O   UNL A   1      46.200  25.956  37.317  1.00  0.00    -0.237 OA
ATOM    103  O   UNL A   1      45.830  23.551  37.726  1.00  0.00    -0.744 OA
ENDBRANCH  96 100
ENDBRANCH  70  93
ENDBRANCH  44  45
ENDBRANCH  37  39
ENDBRANCH  36  37
ENDBRANCH  35  36
ENDBRANCH  34  35
ENDBRANCH  33  34
ENDBRANCH  32  33
ENDBRANCH   1  32
TORSDOF 24
ENDMDL
MODEL 2
REMARK VINA RESULT:     -10.9      3.691     10.739
REMARK SMILES Cc1cccc(-n2c(C)cc(/C=N\c3ccc(O)c(C(=O)OCCOCCOCCOC(=O)c4ccc(-c5c6nc(c(-c7cc(S(=O)(=O)[O-])ccc7F)c7ccc([nH]7)c(-c7cc(S(=O)(=O)[O-])ccc7F)c7nc(c(-c8cc(S(=O)(=O)[O-])ccc8F)c8ccc5[nH]8)C=C7)C=C6)cc4)c3)c2C)c1
REMARK SMILES IDX 26 1 25 2 24 3 23 4 22 5 20 6 21 7 19 8 14 9 15 10 97 11
REMARK SMILES IDX 16 12 17 13 13 14 12 15 11 16 7 17 8 18 98 19 9 20 10 21
REMARK SMILES IDX 99 22 6 23 1 24 2 25 3 26 100 27 4 28 5 29 18 30 27 32 28 33
REMARK SMILES IDX 29 34 30 35 31 36 32 37 33 38 34 39 35 40 96 41 36 42 95 43
REMARK SMILES IDX 37 44 38 45 39 46 89 47 40 48 94 49 88 50 90 51 41 52 93 53
REMARK SMILES IDX 87 54 86 55 42 57 74 58 54 59 73 60 55 61 58 62 72 63 91 64
REMARK SMILES IDX 56 65 57 66 71 68 92 69 59 70 43 71 44 72 52 73 45 74 51 75
REMARK SMILES IDX 53 76 50 77 46 78 47 79 48 80 49 81 75 82 76 83 84 84 77 85
REMARK SMILES IDX 83 86 85 87 82 88 78 89 79 90 80 91 81 92 60 93 61 94 69 95
REMARK SMILES IDX 62 96 68 97 70 98 67 99 63 100 64 101 65 102 66 103
REMARK H PARENT 18 31 90 56 58 67
REMARK Flexibility Score: inf
ROOT
ATOM      1  C   UNL A   1      34.635  24.849  25.084  1.00  0.00     0.188 C 
ENDROOT
BRANCH   1   2
ATOM      2  O   UNL A   1      34.040  25.711  24.098  1.00  0.00    -0.376 OA
BRANCH   2   3
ATOM      3  C   UNL A   1      32.672  26.134  24.112  1.00  0.00     0.202 C 
BRANCH   3   4
ATOM      4  C   UNL A   1      31.799  26.215  25.470  1.00  0.00     0.261 C 
BRANCH   4   5
ATOM      5  O   UNL A   1      31.597  27.527  26.202  1.00  0.00    -0.460 OA
BRANCH   5   6
ATOM      6  C   UNL A   1      31.847  28.822  25.859  1.00  0.00     0.342 C 
ATOM      7  O   UNL A   1      31.175  29.373  24.987  1.00  0.00    -0.246 OA
BRANCH   6   8
ATOM      8  C   UNL A   1      33.080  29.670  26.536  1.00  0.00     0.103 A 
ATOM      9  C   UNL A   1      35.404  30.109  27.599  1.00  0.00     0.064 A 
ATOM     10  C   UNL A   1      34.993  31.380  27.929  1.00  0.00     0.032 A 
ATOM     11  C   UNL A   1      34.464  29.338  26.833  1.00  0.00     0.048 A 
ATOM     12  C   UNL A   1      33.693  31.799  27.604  1.00  0.00     0.049 A 
ATOM     13  C   UNL A   1      32.755  30.956  26.965  1.00  0.00     0.130 A 
BRANCH   9  14
ATOM     14  N   UNL A   1      36.751  29.701  27.797  1.00  0.00    -0.256 NA
ATOM     15  C   UNL A   1      37.703  30.190  28.558  1.00  0.00     0.121 C 
BRANCH  15  16
ATOM     16  C   UNL A   1      37.723  31.223  29.607  1.00  0.00     0.014 A 
ATOM     17  N   UNL A   1      37.348  32.260  31.595  1.00  0.00    -0.318 N 
ATOM     18  C   UNL A   1      38.208  33.079  30.891  1.00  0.00     0.021 A 
ATOM     19  C   UNL A   1      37.169  31.107  30.863  1.00  0.00     0.029 A 
ATOM     20  C   UNL A   1      38.729  34.351  31.467  1.00  0.00     0.065 C 
ATOM     21  C   UNL A   1      38.489  32.436  29.686  1.00  0.00     0.033 A 
ATOM     22  C   UNL A   1      36.451  29.949  31.379  1.00  0.00     0.065 C 
BRANCH  17  23
ATOM     23  C   UNL A   1      36.564  32.579  32.739  1.00  0.00     0.046 A 
ATOM     24  C   UNL A   1      37.434  33.298  36.365  1.00  0.00     0.044 C 
ATOM     25  C   UNL A   1      36.716  33.275  35.050  1.00  0.00    -0.049 A 
ATOM     26  C   UNL A   1      35.599  34.102  34.855  1.00  0.00     0.003 A 
ATOM     27  C   UNL A   1      37.197  32.503  33.984  1.00  0.00     0.030 A 
ATOM     28  C   UNL A   1      34.925  34.112  33.635  1.00  0.00     0.002 A 
ATOM     29  C   UNL A   1      35.391  33.328  32.582  1.00  0.00     0.026 A 
ENDBRANCH  17  23
ENDBRANCH  15  16
ENDBRANCH   9  14
BRANCH  13  30
ATOM     30  O   UNL A   1      31.509  31.507  26.802  1.00  0.00    -0.507 OA
ATOM     31  H   UNL A   1      31.186  31.688  25.942  1.00  0.00     0.293 HD
ENDBRANCH  13  30
ENDBRANCH   6   8
ENDBRANCH   5   6
ENDBRANCH   4   5
ENDBRANCH   3   4
ENDBRANCH   2   3
ENDBRANCH   1   2
BRANCH   1  32
ATOM     32  C   UNL A   1      34.901  23.364  24.878  1.00  0.00     0.188 C 
BRANCH  32  33
ATOM     33  O   UNL A   1      36.220  23.158  24.389  1.00  0.00    -0.376 OA
BRANCH  33  34
ATOM     34  C   UNL A   1      36.493  21.838  23.949  1.00  0.00     0.202 C 
BRANCH  34  35
ATOM     35  C   UNL A   1      37.523  21.078  24.812  1.00  0.00     0.261 C 
BRANCH  35  36
ATOM     36  O   UNL A   1      38.239  21.965  25.710  1.00  0.00    -0.460 OA
BRANCH  36  37
ATOM     37  C   UNL A   1      39.440  21.510  26.235  1.00  0.00     0.338 C 
ATOM     38  O   UNL A   1      39.941  20.468  25.939  1.00  0.00    -0.246 OA
BRANCH  37  39
ATOM     39  C   UNL A   1      40.055  22.567  27.127  1.00  0.00     0.060 A 
ATOM     40  C   UNL A   1      39.784  23.945  27.110  1.00  0.00     0.016 A 
ATOM     41  C   UNL A   1      41.106  22.176  27.894  1.00  0.00     0.016 A 
ATOM     42  C   UNL A   1      40.671  24.911  27.748  1.00  0.00     0.010 A 
ATOM     43  C   UNL A   1      42.040  23.144  28.233  1.00  0.00     0.010 A 
ATOM     44  C   UNL A   1      41.908  24.539  28.291  1.00  0.00    -0.014 A 
BRANCH  44  45
ATOM     45  C   UNL A   1      43.133  25.434  28.736  1.00  0.00     0.031 A 
ATOM     46  C   UNL A   1      43.214  26.801  29.536  1.00  0.00     0.074 A 
ATOM     47  C   UNL A   1      44.323  24.795  28.704  1.00  0.00     0.049 A 
ATOM     48  N   UNL A   1      44.146  27.138  30.389  1.00  0.00    -0.248 NA
ATOM     49  C   UNL A   1      42.252  27.897  29.539  1.00  0.00     0.031 C 
ATOM     50  C   UNL A   1      45.586  25.091  29.379  1.00  0.00     0.029 A 
ATOM     51  N   UNL A   1      44.672  23.785  27.821  1.00  0.00    -0.354 N 
ATOM     52  C   UNL A   1      43.807  28.298  31.072  1.00  0.00     0.074 A 
ATOM     53  C   UNL A   1      42.562  28.717  30.542  1.00  0.00     0.031 C 
ATOM     54  C   UNL A   1      46.593  24.581  28.655  1.00  0.00     0.029 A 
ATOM     55  C   UNL A   1      46.005  24.039  27.450  1.00  0.00     0.049 A 
ATOM     56  H   UNL A   1      44.103  23.043  27.514  1.00  0.00     0.167 HD
ATOM     57  C   UNL A   1      44.690  28.988  31.839  1.00  0.00     0.034 A 
ATOM     58  C   UNL A   1      46.193  24.442  26.164  1.00  0.00     0.034 A 
ATOM     59  C   UNL A   1      46.002  28.806  31.246  1.00  0.00     0.049 A 
ATOM     60  C   UNL A   1      46.536  25.932  26.134  1.00  0.00     0.074 A 
ATOM     61  C   UNL A   1      47.071  27.952  31.409  1.00  0.00     0.029 A 
ATOM     62  N   UNL A   1      46.149  29.362  29.986  1.00  0.00    -0.354 N 
ATOM     63  N   UNL A   1      46.661  26.680  27.206  1.00  0.00    -0.248 NA
ATOM     64  C   UNL A   1      46.763  26.706  24.919  1.00  0.00     0.031 C 
ATOM     65  C   UNL A   1      47.717  27.846  30.126  1.00  0.00     0.029 A 
ATOM     66  C   UNL A   1      47.070  28.678  29.221  1.00  0.00     0.049 A 
ATOM     67  H   UNL A   1      45.654  30.153  29.672  1.00  0.00     0.167 HD
ATOM     68  C   UNL A   1      46.948  27.968  26.871  1.00  0.00     0.074 A 
ATOM     69  C   UNL A   1      46.984  27.939  25.413  1.00  0.00     0.031 C 
ATOM     70  C   UNL A   1      47.140  28.970  27.788  1.00  0.00     0.034 A 
BRANCH  57  71
ATOM     71  C   UNL A   1      44.361  29.949  32.967  1.00  0.00     0.023 A 
ATOM     72  C   UNL A   1      43.657  29.454  34.086  1.00  0.00     0.031 A 
ATOM     73  C   UNL A   1      44.539  31.355  32.948  1.00  0.00     0.131 A 
ATOM     74  C   UNL A   1      43.172  30.315  35.097  1.00  0.00     0.055 A 
ATOM     75  C   UNL A   1      44.101  32.203  33.981  1.00  0.00     0.041 A 
ATOM     76  F   UNL A   1      45.099  31.991  31.911  1.00  0.00    -0.206 F 
ATOM     77  C   UNL A   1      43.406  31.686  35.060  1.00  0.00     0.022 A 
BRANCH  74  78
ATOM     78  S   UNL A   1      42.142  29.627  36.427  1.00  0.00     0.124 S 
ATOM     79  O   UNL A   1      42.019  30.760  37.338  1.00  0.00    -0.237 OA
ATOM     80  O   UNL A   1      40.933  29.238  35.710  1.00  0.00    -0.237 OA
ATOM     81  O   UNL A   1      42.941  28.513  36.937  1.00  0.00    -0.744 OA
ENDBRANCH  74  78
ENDBRANCH  57  71
BRANCH  58  82
ATOM     82  C   UNL A   1      45.335  23.577  25.255  1.00  0.00     0.023 A 
ATOM     83  C   UNL A   1      45.845  22.265  24.985  1.00  0.00     0.031 A 
ATOM     84  C   UNL A   1      43.968  23.767  25.036  1.00  0.00     0.131 A 
ATOM     85  C   UNL A   1      44.986  21.178  24.748  1.00  0.00     0.055 A 
ATOM     86  C   UNL A   1      43.128  22.693  24.664  1.00  0.00     0.041 A 
ATOM     87  F   UNL A   1      43.382  24.940  25.313  1.00  0.00    -0.206 F 
ATOM     88  C   UNL A   1      43.623  21.388  24.578  1.00  0.00     0.022 A 
BRANCH  85  89
ATOM     89  S   UNL A   1      45.598  19.471  24.983  1.00  0.00     0.124 S 
ATOM     90  O   UNL A   1      44.515  18.860  25.744  1.00  0.00    -0.237 OA
ATOM     91  O   UNL A   1      45.773  18.979  23.618  1.00  0.00    -0.237 OA
ATOM     92  O   UNL A   1      46.855  19.661  25.705  1.00  0.00    -0.744 OA
ENDBRANCH  85  89
ENDBRANCH  58  82
BRANCH  70  93
ATOM     93  C   UNL A   1      47.432  30.368  27.326  1.00  0.00     0.023 A 
ATOM     94  C   UNL A   1      46.402  31.144  26.786  1.00  0.00     0.031 A 
ATOM     95  C   UNL A   1      48.712  30.958  27.386  1.00  0.00     0.131 A 
ATOM     96  C   UNL A   1      46.631  32.482  26.454  1.00  0.00     0.055 A 
ATOM     97  C   UNL A   1      48.968  32.244  26.904  1.00  0.00     0.041 A 
ATOM     98  F   UNL A   1      49.749  30.338  27.973  1.00  0.00    -0.206 F 
ATOM     99  C   UNL A   1      47.915  33.026  26.457  1.00  0.00     0.022 A 
BRANCH  96 100
ATOM    100  S   UNL A   1      45.186  33.541  26.225  1.00  0.00     0.124 S 
ATOM    101  O   UNL A   1      45.754  34.883  26.288  1.00  0.00    -0.237 OA
ATOM    102  O   UNL A   1      44.725  33.110  24.907  1.00  0.00    -0.237 OA
ATOM    103  O   UNL A   1      44.314  33.175  27.338  1.00  0.00    -0.744 OA
ENDBRANCH  96 100
ENDBRANCH  70  93
ENDBRANCH  44  45
ENDBRANCH  37  39
ENDBRANCH  36  37
ENDBRANCH  35  36
ENDBRANCH  34  35
ENDBRANCH  33  34
ENDBRANCH  32  33
ENDBRANCH   1  32
TORSDOF 24
ENDMDL
MODEL 3
REMARK VINA RESULT:     -10.5      3.722      9.634
REMARK SMILES Cc1cccc(-n2c(C)cc(/C=N\c3ccc(O)c(C(=O)OCCOCCOCCOC(=O)c4ccc(-c5c6nc(c(-c7cc(S(=O)(=O)[O-])ccc7F)c7ccc([nH]7)c(-c7cc(S(=O)(=O)[O-])ccc7F)c7nc(c(-c8cc(S(=O)(=O)[O-])ccc8F)c8ccc5[nH]8)C=C7)C=C6)cc4)c3)c2C)c1
REMARK SMILES IDX 26 1 25 2 24 3 23 4 22 5 20 6 21 7 19 8 14 9 15 10 97 11
REMARK SMILES IDX 16 12 17 13 13 14 12 15 11 16 7 17 8 18 98 19 9 20 10 21
REMARK SMILES IDX 99 22 6 23 1 24 2 25 3 26 100 27 4 28 5 29 18 30 27 32 28 33
REMARK SMILES IDX 29 34 30 35 31 36 32 37 33 38 34 39 35 40 96 41 36 42 95 43
REMARK SMILES IDX 37 44 38 45 39 46 89 47 40 48 94 49 88 50 90 51 41 52 93 53
REMARK SMILES IDX 87 54 86 55 42 57 74 58 54 59 73 60 55 61 58 62 72 63 91 64
REMARK SMILES IDX 56 65 57 66 71 68 92 69 59 70 43 71 44 72 52 73 45 74 51 75
REMARK SMILES IDX 53 76 50 77 46 78 47 79 48 80 49 81 75 82 76 83 84 84 77 85
REMARK SMILES IDX 83 86 85 87 82 88 78 89 79 90 80 91 81 92 60 93 61 94 69 95
REMARK SMILES IDX 62 96 68 97 70 98 67 99 63 100 64 101 65 102 66 103
REMARK H PARENT 18 31 90 56 58 67
REMARK Flexibility Score: inf
ROOT
ATOM      1  C   UNL A   1      36.282  23.988  26.161  1.00  0.00     0.188 C 
ENDROOT
BRANCH   1   2
ATOM      2  O   UNL A   1      34.869  23.880  26.405  1.00  0.00    -0.376 OA
BRANCH   2   3
ATOM      3  C   UNL A   1      33.907  24.883  26.053  1.00  0.00     0.202 C 
BRANCH   3   4
ATOM      4  C   UNL A   1      32.534  25.098  26.877  1.00  0.00     0.261 C 
BRANCH   4   5
ATOM      5  O   UNL A   1      31.856  26.453  26.943  1.00  0.00    -0.460 OA
BRANCH   5   6
ATOM      6  C   UNL A   1      32.143  27.656  26.371  1.00  0.00     0.342 C 
ATOM      7  O   UNL A   1      31.962  28.700  26.997  1.00  0.00    -0.246 OA
BRANCH   6   8
ATOM      8  C   UNL A   1      32.671  27.768  24.819  1.00  0.00     0.103 A 
ATOM      9  C   UNL A   1      33.304  26.991  22.428  1.00  0.00     0.064 A 
ATOM     10  C   UNL A   1      33.878  28.222  22.199  1.00  0.00     0.032 A 
ATOM     11  C   UNL A   1      32.642  26.848  23.694  1.00  0.00     0.048 A 
ATOM     12  C   UNL A   1      33.875  29.191  23.214  1.00  0.00     0.049 A 
ATOM     13  C   UNL A   1      33.326  28.956  24.496  1.00  0.00     0.130 A 
BRANCH   9  14
ATOM     14  N   UNL A   1      33.175  26.039  21.380  1.00  0.00    -0.256 NA
ATOM     15  C   UNL A   1      32.962  24.744  21.405  1.00  0.00     0.121 C 
BRANCH  15  16
ATOM     16  C   UNL A   1      32.614  23.802  22.481  1.00  0.00     0.014 A 
ATOM     17  N   UNL A   1      32.821  22.136  24.015  1.00  0.00    -0.318 N 
ATOM     18  C   UNL A   1      31.589  22.717  24.241  1.00  0.00     0.021 A 
ATOM     19  C   UNL A   1      33.463  22.874  23.045  1.00  0.00     0.029 A 
ATOM     20  C   UNL A   1      30.692  22.253  25.338  1.00  0.00     0.065 C 
ATOM     21  C   UNL A   1      31.464  23.774  23.341  1.00  0.00     0.033 A 
ATOM     22  C   UNL A   1      34.852  22.646  22.671  1.00  0.00     0.065 C 
BRANCH  17  23
ATOM     23  C   UNL A   1      33.302  20.878  24.474  1.00  0.00     0.046 A 
ATOM     24  C   UNL A   1      32.907  17.323  23.198  1.00  0.00     0.044 C 
ATOM     25  C   UNL A   1      33.453  18.538  23.885  1.00  0.00    -0.049 A 
ATOM     26  C   UNL A   1      34.746  18.503  24.430  1.00  0.00     0.003 A 
ATOM     27  C   UNL A   1      32.725  19.734  23.914  1.00  0.00     0.030 A 
ATOM     28  C   UNL A   1      35.284  19.625  25.057  1.00  0.00     0.002 A 
ATOM     29  C   UNL A   1      34.551  20.809  25.105  1.00  0.00     0.026 A 
ENDBRANCH  17  23
ENDBRANCH  15  16
ENDBRANCH   9  14
BRANCH  13  30
ATOM     30  O   UNL A   1      33.489  29.987  25.386  1.00  0.00    -0.507 OA
ATOM     31  H   UNL A   1      34.332  30.377  25.502  1.00  0.00     0.293 HD
ENDBRANCH  13  30
ENDBRANCH   6   8
ENDBRANCH   5   6
ENDBRANCH   4   5
ENDBRANCH   3   4
ENDBRANCH   2   3
ENDBRANCH   1   2
BRANCH   1  32
ATOM     32  C   UNL A   1      37.123  22.910  25.491  1.00  0.00     0.188 C 
BRANCH  32  33
ATOM     33  O   UNL A   1      38.388  22.798  26.129  1.00  0.00    -0.376 OA
BRANCH  33  34
ATOM     34  C   UNL A   1      38.901  21.478  26.210  1.00  0.00     0.202 C 
BRANCH  34  35
ATOM     35  C   UNL A   1      40.283  21.288  25.548  1.00  0.00     0.261 C 
BRANCH  35  36
ATOM     36  O   UNL A   1      41.362  21.352  26.517  1.00  0.00    -0.460 OA
BRANCH  36  37
ATOM     37  C   UNL A   1      42.386  22.256  26.274  1.00  0.00     0.338 C 
ATOM     38  O   UNL A   1      43.431  21.958  25.781  1.00  0.00    -0.246 OA
BRANCH  37  39
ATOM     39  C   UNL A   1      41.936  23.660  26.614  1.00  0.00     0.060 A 
ATOM     40  C   UNL A   1      42.401  24.856  26.042  1.00  0.00     0.016 A 
ATOM     41  C   UNL A   1      41.138  23.793  27.705  1.00  0.00     0.016 A 
ATOM     42  C   UNL A   1      42.173  26.150  26.674  1.00  0.00     0.010 A 
ATOM     43  C   UNL A   1      41.194  24.998  28.391  1.00  0.00     0.010 A 
ATOM     44  C   UNL A   1      41.602  26.265  27.948  1.00  0.00    -0.014 A 
BRANCH  44  45
ATOM     45  C   UNL A   1      41.548  27.503  28.930  1.00  0.00     0.031 A 
ATOM     46  C   UNL A   1      40.501  28.681  29.097  1.00  0.00     0.074 A 
ATOM     47  C   UNL A   1      42.356  27.388  30.007  1.00  0.00     0.049 A 
ATOM     48  N   UNL A   1      40.151  29.246  30.223  1.00  0.00    -0.248 NA
ATOM     49  C   UNL A   1      39.682  29.307  28.064  1.00  0.00     0.031 C 
ATOM     50  C   UNL A   1      42.325  28.065  31.302  1.00  0.00     0.029 A 
ATOM     51  N   UNL A   1      43.566  26.713  30.038  1.00  0.00    -0.354 N 
ATOM     52  C   UNL A   1      39.060  30.086  30.048  1.00  0.00     0.074 A 
ATOM     53  C   UNL A   1      38.753  30.049  28.665  1.00  0.00     0.031 C 
ATOM     54  C   UNL A   1      43.565  28.083  31.811  1.00  0.00     0.029 A 
ATOM     55  C   UNL A   1      44.434  27.510  30.806  1.00  0.00     0.049 A 
ATOM     56  H   UNL A   1      43.777  25.852  29.609  1.00  0.00     0.167 HD
ATOM     57  C   UNL A   1      38.644  30.964  30.997  1.00  0.00     0.034 A 
ATOM     58  C   UNL A   1      45.444  28.113  30.121  1.00  0.00     0.034 A 
ATOM     59  C   UNL A   1      39.821  31.383  31.734  1.00  0.00     0.049 A 
ATOM     60  C   UNL A   1      45.160  29.610  29.991  1.00  0.00     0.074 A 
ATOM     61  C   UNL A   1      40.480  31.000  32.882  1.00  0.00     0.029 A 
ATOM     62  N   UNL A   1      40.741  32.106  30.993  1.00  0.00    -0.354 N 
ATOM     63  N   UNL A   1      44.108  30.206  30.504  1.00  0.00    -0.248 NA
ATOM     64  C   UNL A   1      46.012  30.557  29.281  1.00  0.00     0.031 C 
ATOM     65  C   UNL A   1      41.871  31.316  32.688  1.00  0.00     0.029 A 
ATOM     66  C   UNL A   1      42.029  31.936  31.455  1.00  0.00     0.049 A 
ATOM     67  H   UNL A   1      40.504  32.674  30.224  1.00  0.00     0.167 HD
ATOM     68  C   UNL A   1      44.109  31.536  30.209  1.00  0.00     0.074 A 
ATOM     69  C   UNL A   1      45.323  31.706  29.417  1.00  0.00     0.031 C 
ATOM     70  C   UNL A   1      43.136  32.410  30.623  1.00  0.00     0.034 A 
BRANCH  57  71
ATOM     71  C   UNL A   1      37.259  31.571  31.133  1.00  0.00     0.023 A 
ATOM     72  C   UNL A   1      36.521  31.828  29.957  1.00  0.00     0.031 A 
ATOM     73  C   UNL A   1      36.679  32.073  32.324  1.00  0.00     0.131 A 
ATOM     74  C   UNL A   1      35.300  32.539  29.989  1.00  0.00     0.055 A 
ATOM     75  C   UNL A   1      35.438  32.734  32.360  1.00  0.00     0.041 A 
ATOM     76  F   UNL A   1      37.299  31.998  33.509  1.00  0.00    -0.206 F 
ATOM     77  C   UNL A   1      34.744  32.979  31.187  1.00  0.00     0.022 A 
BRANCH  74  78
ATOM     78  S   UNL A   1      34.483  32.968  28.424  1.00  0.00     0.124 S 
ATOM     79  O   UNL A   1      33.547  34.007  28.841  1.00  0.00    -0.237 OA
ATOM     80  O   UNL A   1      35.606  33.400  27.600  1.00  0.00    -0.237 OA
ATOM     81  O   UNL A   1      33.861  31.712  28.008  1.00  0.00    -0.744 OA
ENDBRANCH  74  78
ENDBRANCH  57  71
BRANCH  58  82
ATOM     82  C   UNL A   1      46.043  27.103  29.156  1.00  0.00     0.023 A 
ATOM     83  C   UNL A   1      45.663  27.258  27.782  1.00  0.00     0.031 A 
ATOM     84  C   UNL A   1      47.207  26.367  29.396  1.00  0.00     0.131 A 
ATOM     85  C   UNL A   1      46.529  26.900  26.736  1.00  0.00     0.055 A 
ATOM     86  C   UNL A   1      48.007  25.890  28.334  1.00  0.00     0.041 A 
ATOM     87  F   UNL A   1      47.680  26.214  30.641  1.00  0.00    -0.206 F 
ATOM     88  C   UNL A   1      47.703  26.206  27.006  1.00  0.00     0.022 A 
BRANCH  85  89
ATOM     89  S   UNL A   1      46.286  27.617  25.071  1.00  0.00     0.124 S 
ATOM     90  O   UNL A   1      46.986  26.661  24.222  1.00  0.00    -0.237 OA
ATOM     91  O   UNL A   1      44.833  27.655  24.924  1.00  0.00    -0.237 OA
ATOM     92  O   UNL A   1      46.901  28.939  25.183  1.00  0.00    -0.744 OA
ENDBRANCH  85  89
ENDBRANCH  58  82
BRANCH  70  93
ATOM     93  C   UNL A   1      43.208  33.857  30.230  1.00  0.00     0.023 A 
ATOM     94  C   UNL A   1      43.109  34.211  28.882  1.00  0.00     0.031 A 
ATOM     95  C   UNL A   1      43.391  34.907  31.155  1.00  0.00     0.131 A 
ATOM     96  C   UNL A   1      43.063  35.557  28.510  1.00  0.00     0.055 A 
ATOM     97  C   UNL A   1      43.504  36.242  30.759  1.00  0.00     0.041 A 
ATOM     98  F   UNL A   1      43.403  34.688  32.479  1.00  0.00    -0.206 F 
ATOM     99  C   UNL A   1      43.312  36.577  29.428  1.00  0.00     0.022 A 
BRANCH  96 100
ATOM    100  S   UNL A   1      42.461  35.942  26.852  1.00  0.00     0.124 S 
ATOM    101  O   UNL A   1      43.103  34.924  26.029  1.00  0.00    -0.237 OA
ATOM    102  O   UNL A   1      41.018  35.792  27.033  1.00  0.00    -0.237 OA
ATOM    103  O   UNL A   1      42.920  37.311  26.630  1.00  0.00    -0.744 OA
ENDBRANCH  96 100
ENDBRANCH  70  93
ENDBRANCH  44  45
ENDBRANCH  37  39
ENDBRANCH  36  37
ENDBRANCH  35  36
ENDBRANCH  34  35
ENDBRANCH  33  34
ENDBRANCH  32  33
ENDBRANCH   1  32
TORSDOF 24
ENDMDL
