MODEL 1
REMARK VINA RESULT:      -9.4      0.000      0.000
REMARK SMILES CC[C@](C)([NH2+]CCC(=O)Nc1ccccc1)C(=O)OCCOCCOCCOC(=O)c1ccc(-c2c3nc(c(-c4cc(S(=O)(=O)[O-])ccc4F)c4ccc([nH]4)c(-c4cc(S(=O)(=O)[O-])ccc4F)c4nc(c(-c5cc(S(=O)(=O)[O-])ccc5F)c5ccc2[nH]5)C=C4)C=C3)cc1
REMARK SMILES IDX 23 1 22 2 21 3 20 4 19 5 17 6 18 7 3 8 4 9 2 10 1 11 5 12
REMARK SMILES IDX 6 15 7 16 8 17 9 18 10 19 11 21 12 22 16 23 13 24 15 25
REMARK SMILES IDX 14 26 24 27 25 28 26 29 27 30 28 31 29 32 30 33 31 34 32 35
REMARK SMILES IDX 93 36 33 37 92 38 34 39 35 40 36 41 86 42 37 43 91 44 85 45
REMARK SMILES IDX 87 46 38 47 90 48 84 49 83 50 39 52 71 53 51 54 70 55 52 56
REMARK SMILES IDX 55 57 69 58 88 59 53 60 54 61 68 63 89 64 56 65 40 66 41 67
REMARK SMILES IDX 49 68 42 69 48 70 50 71 47 72 43 73 44 74 45 75 46 76 72 77
REMARK SMILES IDX 73 78 81 79 74 80 80 81 82 82 79 83 75 84 76 85 77 86 78 87
REMARK SMILES IDX 57 88 58 89 66 90 59 91 65 92 67 93 64 94 60 95 61 96 62 97
REMARK SMILES IDX 63 98
REMARK H PARENT 5 13 5 14 10 20 87 51 55 62
REMARK Flexibility Score: inf
ROOT
ATOM      1  C   UNL A   1      35.458  23.561  25.559  1.00  0.00     0.188 C 
ENDROOT
BRANCH   1   2
ATOM      2  O   UNL A   1      34.333  23.631  26.425  1.00  0.00    -0.376 OA
BRANCH   2   3
ATOM      3  C   UNL A   1      33.125  24.057  25.798  1.00  0.00     0.202 C 
BRANCH   3   4
ATOM      4  C   UNL A   1      32.518  25.322  26.411  1.00  0.00     0.261 C 
BRANCH   4   5
ATOM      5  O   UNL A   1      33.065  26.523  25.836  1.00  0.00    -0.459 OA
BRANCH   5   6
ATOM      6  C   UNL A   1      32.425  27.686  26.103  1.00  0.00     0.367 C 
ATOM      7  O   UNL A   1      31.239  27.738  26.421  1.00  0.00    -0.245 OA
BRANCH   6   8
ATOM      8  C   UNL A   1      33.339  28.944  26.041  1.00  0.00     0.191 C 
ATOM      9  C   UNL A   1      34.546  28.586  26.946  1.00  0.00     0.092 C 
BRANCH   8  10
ATOM     10  C   UNL A   1      32.562  30.157  26.600  1.00  0.00     0.077 C 
ATOM     11  C   UNL A   1      33.412  31.239  27.256  1.00  0.00     0.011 C 
ENDBRANCH   8  10
BRANCH   8  12
ATOM     12  N   UNL A   1      33.981  29.233  24.741  1.00  0.00    -0.332 N 
ATOM     13  H   UNL A   1      34.757  28.576  24.666  1.00  0.00     0.347 HD
ATOM     14  H   UNL A   1      34.145  30.236  24.830  1.00  0.00     0.347 HD
BRANCH  12  15
ATOM     15  C   UNL A   1      33.297  29.182  23.459  1.00  0.00     0.271 C 
BRANCH  15  16
ATOM     16  C   UNL A   1      33.669  28.127  22.428  1.00  0.00     0.161 C 
BRANCH  16  17
ATOM     17  C   UNL A   1      33.114  26.707  22.309  1.00  0.00     0.230 C 
ATOM     18  O   UNL A   1      33.876  25.827  21.880  1.00  0.00    -0.275 OA
ATOM     19  N   UNL A   1      31.982  26.271  22.919  1.00  0.00    -0.326 N 
ATOM     20  H   UNL A   1      32.086  25.397  23.360  1.00  0.00     0.169 HD
BRANCH  19  21
ATOM     21  C   UNL A   1      30.701  26.810  23.047  1.00  0.00     0.041 A 
ATOM     22  C   UNL A   1      29.748  26.037  23.722  1.00  0.00     0.026 A 
ATOM     23  C   UNL A   1      30.329  28.035  22.498  1.00  0.00     0.026 A 
ATOM     24  C   UNL A   1      28.467  26.539  23.954  1.00  0.00     0.002 A 
ATOM     25  C   UNL A   1      29.032  28.519  22.702  1.00  0.00     0.002 A 
ATOM     26  C   UNL A   1      28.112  27.786  23.451  1.00  0.00     0.000 A 
ENDBRANCH  19  21
ENDBRANCH  16  17
ENDBRANCH  15  16
ENDBRANCH  12  15
ENDBRANCH   8  12
ENDBRANCH   6   8
ENDBRANCH   5   6
ENDBRANCH   4   5
ENDBRANCH   3   4
ENDBRANCH   2   3
ENDBRANCH   1   2
BRANCH   1  27
ATOM     27  C   UNL A   1      35.340  22.529  24.422  1.00  0.00     0.188 C 
BRANCH  27  28
ATOM     28  O   UNL A   1      36.467  21.757  24.033  1.00  0.00    -0.376 OA
BRANCH  28  29
ATOM     29  C   UNL A   1      36.649  20.495  24.662  1.00  0.00     0.202 C 
BRANCH  29  30
ATOM     30  C   UNL A   1      38.029  20.141  25.242  1.00  0.00     0.261 C 
BRANCH  30  31
ATOM     31  O   UNL A   1      38.880  21.268  25.524  1.00  0.00    -0.460 OA
BRANCH  31  32
ATOM     32  C   UNL A   1      39.876  21.037  26.412  1.00  0.00     0.338 C 
ATOM     33  O   UNL A   1      40.444  19.966  26.625  1.00  0.00    -0.246 OA
BRANCH  32  34
ATOM     34  C   UNL A   1      40.345  22.303  27.001  1.00  0.00     0.060 A 
ATOM     35  C   UNL A   1      39.881  23.512  26.459  1.00  0.00     0.016 A 
ATOM     36  C   UNL A   1      41.309  22.308  28.007  1.00  0.00     0.016 A 
ATOM     37  C   UNL A   1      40.382  24.732  26.912  1.00  0.00     0.010 A 
ATOM     38  C   UNL A   1      41.832  23.530  28.440  1.00  0.00     0.010 A 
ATOM     39  C   UNL A   1      41.390  24.746  27.880  1.00  0.00    -0.014 A 
BRANCH  39  40
ATOM     40  C   UNL A   1      42.128  25.995  28.187  1.00  0.00     0.031 A 
ATOM     41  C   UNL A   1      41.405  27.081  28.930  1.00  0.00     0.074 A 
ATOM     42  C   UNL A   1      43.395  26.181  27.782  1.00  0.00     0.049 A 
ATOM     43  N   UNL A   1      41.726  28.337  29.093  1.00  0.00    -0.248 NA
ATOM     44  C   UNL A   1      40.135  26.690  29.559  1.00  0.00     0.031 C 
ATOM     45  C   UNL A   1      44.230  25.173  27.133  1.00  0.00     0.029 A 
ATOM     46  N   UNL A   1      44.186  27.302  27.824  1.00  0.00    -0.354 N 
ATOM     47  C   UNL A   1      40.677  28.901  29.811  1.00  0.00     0.074 A 
ATOM     48  C   UNL A   1      39.711  27.847  30.041  1.00  0.00     0.031 C 
ATOM     49  C   UNL A   1      45.401  25.737  26.790  1.00  0.00     0.029 A 
ATOM     50  C   UNL A   1      45.369  27.157  27.138  1.00  0.00     0.049 A 
ATOM     51  H   UNL A   1      43.932  28.128  28.298  1.00  0.00     0.167 HD
ATOM     52  C   UNL A   1      40.531  30.186  30.224  1.00  0.00     0.034 A 
ATOM     53  C   UNL A   1      46.284  28.077  26.770  1.00  0.00     0.034 A 
ATOM     54  C   UNL A   1      41.506  31.218  29.970  1.00  0.00     0.049 A 
ATOM     55  C   UNL A   1      46.067  29.523  27.150  1.00  0.00     0.074 A 
ATOM     56  C   UNL A   1      41.475  32.549  30.344  1.00  0.00     0.029 A 
ATOM     57  N   UNL A   1      42.687  31.036  29.257  1.00  0.00    -0.354 N 
ATOM     58  N   UNL A   1      45.060  30.065  27.798  1.00  0.00    -0.248 NA
ATOM     59  C   UNL A   1      47.105  30.481  26.744  1.00  0.00     0.031 C 
ATOM     60  C   UNL A   1      42.592  33.186  29.795  1.00  0.00     0.029 A 
ATOM     61  C   UNL A   1      43.370  32.237  29.150  1.00  0.00     0.049 A 
ATOM     62  H   UNL A   1      42.992  30.179  28.882  1.00  0.00     0.167 HD
ATOM     63  C   UNL A   1      45.358  31.422  27.899  1.00  0.00     0.074 A 
ATOM     64  C   UNL A   1      46.638  31.616  27.248  1.00  0.00     0.031 C 
ATOM     65  C   UNL A   1      44.644  32.415  28.489  1.00  0.00     0.034 A 
BRANCH  52  66
ATOM     66  C   UNL A   1      39.232  30.543  30.906  1.00  0.00     0.023 A 
ATOM     67  C   UNL A   1      38.184  31.187  30.225  1.00  0.00     0.031 A 
ATOM     68  C   UNL A   1      39.072  30.310  32.284  1.00  0.00     0.131 A 
ATOM     69  C   UNL A   1      37.074  31.664  30.938  1.00  0.00     0.055 A 
ATOM     70  C   UNL A   1      37.922  30.704  32.970  1.00  0.00     0.041 A 
ATOM     71  F   UNL A   1      40.047  29.720  32.996  1.00  0.00    -0.206 F 
ATOM     72  C   UNL A   1      36.924  31.406  32.302  1.00  0.00     0.022 A 
BRANCH  69  73
ATOM     73  S   UNL A   1      35.927  32.791  30.098  1.00  0.00     0.124 S 
ATOM     74  O   UNL A   1      36.404  32.724  28.718  1.00  0.00    -0.237 OA
ATOM     75  O   UNL A   1      34.632  32.172  30.356  1.00  0.00    -0.237 OA
ATOM     76  O   UNL A   1      36.154  34.071  30.765  1.00  0.00    -0.744 OA
ENDBRANCH  69  73
ENDBRANCH  52  66
BRANCH  53  77
ATOM     77  C   UNL A   1      47.438  27.675  25.916  1.00  0.00     0.023 A 
ATOM     78  C   UNL A   1      47.431  27.882  24.529  1.00  0.00     0.031 A 
ATOM     79  C   UNL A   1      48.568  27.061  26.487  1.00  0.00     0.131 A 
ATOM     80  C   UNL A   1      48.525  27.461  23.756  1.00  0.00     0.055 A 
ATOM     81  C   UNL A   1      49.672  26.685  25.721  1.00  0.00     0.041 A 
ATOM     82  F   UNL A   1      48.624  26.839  27.810  1.00  0.00    -0.206 F 
ATOM     83  C   UNL A   1      49.651  26.879  24.345  1.00  0.00     0.022 A 
BRANCH  80  84
ATOM     84  S   UNL A   1      48.441  27.647  21.953  1.00  0.00     0.124 S 
ATOM     85  O   UNL A   1      47.097  28.183  21.773  1.00  0.00    -0.237 OA
ATOM     86  O   UNL A   1      49.541  28.570  21.691  1.00  0.00    -0.237 OA
ATOM     87  O   UNL A   1      48.644  26.286  21.461  1.00  0.00    -0.744 OA
ENDBRANCH  80  84
ENDBRANCH  53  77
BRANCH  65  88
ATOM     88  C   UNL A   1      45.258  33.795  28.513  1.00  0.00     0.023 A 
ATOM     89  C   UNL A   1      46.150  34.199  29.521  1.00  0.00     0.031 A 
ATOM     90  C   UNL A   1      44.962  34.707  27.484  1.00  0.00     0.131 A 
ATOM     91  C   UNL A   1      46.691  35.496  29.494  1.00  0.00     0.055 A 
ATOM     92  C   UNL A   1      45.542  35.975  27.435  1.00  0.00     0.041 A 
ATOM     93  F   UNL A   1      44.114  34.373  26.498  1.00  0.00    -0.206 F 
ATOM     94  C   UNL A   1      46.407  36.378  28.448  1.00  0.00     0.022 A 
BRANCH  91  95
ATOM     95  S   UNL A   1      47.730  36.042  30.877  1.00  0.00     0.124 S 
ATOM     96  O   UNL A   1      46.748  36.217  31.943  1.00  0.00    -0.237 OA
ATOM     97  O   UNL A   1      48.653  34.922  31.038  1.00  0.00    -0.237 OA
ATOM     98  O   UNL A   1      48.336  37.277  30.385  1.00  0.00    -0.744 OA
ENDBRANCH  91  95
ENDBRANCH  65  88
ENDBRANCH  39  40
ENDBRANCH  32  34
ENDBRANCH  31  32
ENDBRANCH  30  31
ENDBRANCH  29  30
ENDBRANCH  28  29
ENDBRANCH  27  28
ENDBRANCH   1  27
TORSDOF 26
ENDMDL
MODEL 2
REMARK VINA RESULT:      -8.9      5.165      8.594
REMARK SMILES CC[C@](C)([NH2+]CCC(=O)Nc1ccccc1)C(=O)OCCOCCOCCOC(=O)c1ccc(-c2c3nc(c(-c4cc(S(=O)(=O)[O-])ccc4F)c4ccc([nH]4)c(-c4cc(S(=O)(=O)[O-])ccc4F)c4nc(c(-c5cc(S(=O)(=O)[O-])ccc5F)c5ccc2[nH]5)C=C4)C=C3)cc1
REMARK SMILES IDX 23 1 22 2 21 3 20 4 19 5 17 6 18 7 3 8 4 9 2 10 1 11 5 12
REMARK SMILES IDX 6 15 7 16 8 17 9 18 10 19 11 21 12 22 16 23 13 24 15 25
REMARK SMILES IDX 14 26 24 27 25 28 26 29 27 30 28 31 29 32 30 33 31 34 32 35
REMARK SMILES IDX 93 36 33 37 92 38 34 39 35 40 36 41 86 42 37 43 91 44 85 45
REMARK SMILES IDX 87 46 38 47 90 48 84 49 83 50 39 52 71 53 51 54 70 55 52 56
REMARK SMILES IDX 55 57 69 58 88 59 53 60 54 61 68 63 89 64 56 65 40 66 41 67
REMARK SMILES IDX 49 68 42 69 48 70 50 71 47 72 43 73 44 74 45 75 46 76 72 77
REMARK SMILES IDX 73 78 81 79 74 80 80 81 82 82 79 83 75 84 76 85 77 86 78 87
REMARK SMILES IDX 57 88 58 89 66 90 59 91 65 92 67 93 64 94 60 95 61 96 62 97
REMARK SMILES IDX 63 98
REMARK H PARENT 5 13 5 14 10 20 87 51 55 62
REMARK Flexibility Score: inf
ROOT
ATOM      1  C   UNL A   1      30.471  29.308  23.736  1.00  0.00     0.188 C 
ENDROOT
BRANCH   1   2
ATOM      2  O   UNL A   1      30.759  28.281  22.797  1.00  0.00    -0.376 OA
BRANCH   2   3
ATOM      3  C   UNL A   1      32.147  28.089  22.531  1.00  0.00     0.202 C 
BRANCH   3   4
ATOM      4  C   UNL A   1      32.705  26.766  23.062  1.00  0.00     0.261 C 
BRANCH   4   5
ATOM      5  O   UNL A   1      31.667  25.809  23.342  1.00  0.00    -0.459 OA
BRANCH   5   6
ATOM      6  C   UNL A   1      31.477  25.460  24.637  1.00  0.00     0.367 C 
ATOM      7  O   UNL A   1      30.777  26.112  25.408  1.00  0.00    -0.245 OA
BRANCH   6   8
ATOM      8  C   UNL A   1      32.164  24.124  25.043  1.00  0.00     0.191 C 
ATOM      9  C   UNL A   1      32.004  23.216  23.797  1.00  0.00     0.092 C 
BRANCH   8  10
ATOM     10  C   UNL A   1      31.426  23.532  26.265  1.00  0.00     0.077 C 
ATOM     11  C   UNL A   1      30.621  22.265  25.999  1.00  0.00     0.011 C 
ENDBRANCH   8  10
BRANCH   8  12
ATOM     12  N   UNL A   1      33.630  24.163  25.231  1.00  0.00    -0.332 N 
ATOM     13  H   UNL A   1      33.803  24.935  25.875  1.00  0.00     0.347 HD
ATOM     14  H   UNL A   1      33.944  24.203  24.262  1.00  0.00     0.347 HD
BRANCH  12  15
ATOM     15  C   UNL A   1      34.423  23.051  25.728  1.00  0.00     0.271 C 
BRANCH  15  16
ATOM     16  C   UNL A   1      35.353  22.289  24.796  1.00  0.00     0.161 C 
BRANCH  16  17
ATOM     17  C   UNL A   1      36.114  20.997  25.095  1.00  0.00     0.230 C 
ATOM     18  O   UNL A   1      37.289  21.100  25.482  1.00  0.00    -0.275 OA
ATOM     19  N   UNL A   1      35.530  19.785  25.276  1.00  0.00    -0.326 N 
ATOM     20  H   UNL A   1      35.877  19.295  26.055  1.00  0.00     0.169 HD
BRANCH  19  21
ATOM     21  C   UNL A   1      34.538  19.092  24.580  1.00  0.00     0.041 A 
ATOM     22  C   UNL A   1      33.375  19.800  24.253  1.00  0.00     0.026 A 
ATOM     23  C   UNL A   1      34.638  17.743  24.249  1.00  0.00     0.026 A 
ATOM     24  C   UNL A   1      32.371  19.198  23.495  1.00  0.00     0.002 A 
ATOM     25  C   UNL A   1      33.612  17.132  23.520  1.00  0.00     0.002 A 
ATOM     26  C   UNL A   1      32.495  17.864  23.120  1.00  0.00     0.000 A 
ENDBRANCH  19  21
ENDBRANCH  16  17
ENDBRANCH  15  16
ENDBRANCH  12  15
ENDBRANCH   8  12
ENDBRANCH   6   8
ENDBRANCH   5   6
ENDBRANCH   4   5
ENDBRANCH   3   4
ENDBRANCH   2   3
ENDBRANCH   1   2
BRANCH   1  27
ATOM     27  C   UNL A   1      31.488  29.441  24.885  1.00  0.00     0.188 C 
BRANCH  27  28
ATOM     28  O   UNL A   1      31.506  30.607  25.697  1.00  0.00    -0.376 OA
BRANCH  28  29
ATOM     29  C   UNL A   1      32.050  30.489  27.005  1.00  0.00     0.202 C 
BRANCH  29  30
ATOM     30  C   UNL A   1      33.223  31.397  27.411  1.00  0.00     0.261 C 
BRANCH  30  31
ATOM     31  O   UNL A   1      33.071  32.785  27.059  1.00  0.00    -0.460 OA
BRANCH  31  32
ATOM     32  C   UNL A   1      33.361  33.670  28.042  1.00  0.00     0.338 C 
ATOM     33  O   UNL A   1      32.727  34.681  28.339  1.00  0.00    -0.246 OA
BRANCH  32  34
ATOM     34  C   UNL A   1      34.477  33.175  28.867  1.00  0.00     0.060 A 
ATOM     35  C   UNL A   1      35.774  33.195  28.331  1.00  0.00     0.016 A 
ATOM     36  C   UNL A   1      34.241  32.600  30.114  1.00  0.00     0.016 A 
ATOM     37  C   UNL A   1      36.841  32.635  29.032  1.00  0.00     0.010 A 
ATOM     38  C   UNL A   1      35.307  32.014  30.804  1.00  0.00     0.010 A 
ATOM     39  C   UNL A   1      36.606  32.007  30.258  1.00  0.00    -0.014 A 
BRANCH  39  40
ATOM     40  C   UNL A   1      37.656  31.175  30.895  1.00  0.00     0.031 A 
ATOM     41  C   UNL A   1      38.072  31.512  32.298  1.00  0.00     0.074 A 
ATOM     42  C   UNL A   1      38.255  30.170  30.234  1.00  0.00     0.049 A 
ATOM     43  N   UNL A   1      39.118  31.119  32.975  1.00  0.00    -0.248 NA
ATOM     44  C   UNL A   1      37.188  32.434  33.024  1.00  0.00     0.031 C 
ATOM     45  C   UNL A   1      37.880  29.691  28.907  1.00  0.00     0.029 A 
ATOM     46  N   UNL A   1      39.336  29.399  30.582  1.00  0.00    -0.354 N 
ATOM     47  C   UNL A   1      39.042  31.779  34.197  1.00  0.00     0.074 A 
ATOM     48  C   UNL A   1      37.851  32.600  34.157  1.00  0.00     0.031 C 
ATOM     49  C   UNL A   1      38.751  28.741  28.528  1.00  0.00     0.029 A 
ATOM     50  C   UNL A   1      39.778  28.593  29.559  1.00  0.00     0.049 A 
ATOM     51  H   UNL A   1      39.754  29.421  31.474  1.00  0.00     0.167 HD
ATOM     52  C   UNL A   1      39.900  31.713  35.247  1.00  0.00     0.034 A 
ATOM     53  C   UNL A   1      40.915  27.877  29.440  1.00  0.00     0.034 A 
ATOM     54  C   UNL A   1      41.087  30.894  35.253  1.00  0.00     0.049 A 
ATOM     55  C   UNL A   1      41.912  27.885  30.574  1.00  0.00     0.074 A 
ATOM     56  C   UNL A   1      42.026  30.738  36.257  1.00  0.00     0.029 A 
ATOM     57  N   UNL A   1      41.510  30.102  34.190  1.00  0.00    -0.354 N 
ATOM     58  N   UNL A   1      41.860  28.535  31.715  1.00  0.00    -0.248 NA
ATOM     59  C   UNL A   1      43.123  27.071  30.402  1.00  0.00     0.031 C 
ATOM     60  C   UNL A   1      43.051  29.916  35.777  1.00  0.00     0.029 A 
ATOM     61  C   UNL A   1      42.712  29.486  34.503  1.00  0.00     0.049 A 
ATOM     62  H   UNL A   1      41.026  29.995  33.340  1.00  0.00     0.167 HD
ATOM     63  C   UNL A   1      43.018  28.186  32.406  1.00  0.00     0.074 A 
ATOM     64  C   UNL A   1      43.748  27.268  31.555  1.00  0.00     0.031 C 
ATOM     65  C   UNL A   1      43.433  28.578  33.638  1.00  0.00     0.034 A 
BRANCH  52  66
ATOM     66  C   UNL A   1      39.619  32.622  36.420  1.00  0.00     0.023 A 
ATOM     67  C   UNL A   1      38.872  32.195  37.532  1.00  0.00     0.031 A 
ATOM     68  C   UNL A   1      40.035  33.965  36.386  1.00  0.00     0.131 A 
ATOM     69  C   UNL A   1      38.480  33.122  38.509  1.00  0.00     0.055 A 
ATOM     70  C   UNL A   1      39.720  34.861  37.409  1.00  0.00     0.041 A 
ATOM     71  F   UNL A   1      40.731  34.439  35.340  1.00  0.00    -0.206 F 
ATOM     72  C   UNL A   1      38.919  34.448  38.469  1.00  0.00     0.022 A 
BRANCH  69  73
ATOM     73  S   UNL A   1      37.231  32.618  39.726  1.00  0.00     0.124 S 
ATOM     74  O   UNL A   1      37.617  31.234  39.989  1.00  0.00    -0.237 OA
ATOM     75  O   UNL A   1      37.455  33.562  40.815  1.00  0.00    -0.237 OA
ATOM     76  O   UNL A   1      35.969  32.779  39.008  1.00  0.00    -0.744 OA
ENDBRANCH  69  73
ENDBRANCH  52  66
BRANCH  53  77
ATOM     77  C   UNL A   1      41.215  27.171  28.161  1.00  0.00     0.023 A 
ATOM     78  C   UNL A   1      41.071  25.781  28.040  1.00  0.00     0.031 A 
ATOM     79  C   UNL A   1      41.663  27.890  27.037  1.00  0.00     0.131 A 
ATOM     80  C   UNL A   1      41.393  25.151  26.826  1.00  0.00     0.055 A 
ATOM     81  C   UNL A   1      41.938  27.265  25.821  1.00  0.00     0.041 A 
ATOM     82  F   UNL A   1      41.817  29.223  27.102  1.00  0.00    -0.206 F 
ATOM     83  C   UNL A   1      41.810  25.885  25.713  1.00  0.00     0.022 A 
BRANCH  80  84
ATOM     84  S   UNL A   1      41.300  23.341  26.733  1.00  0.00     0.124 S 
ATOM     85  O   UNL A   1      42.125  23.062  25.564  1.00  0.00    -0.237 OA
ATOM     86  O   UNL A   1      41.856  22.942  28.021  1.00  0.00    -0.237 OA
ATOM     87  O   UNL A   1      39.871  23.082  26.568  1.00  0.00    -0.744 OA
ENDBRANCH  80  84
ENDBRANCH  53  77
BRANCH  65  88
ATOM     88  C   UNL A   1      44.708  27.969  34.170  1.00  0.00     0.023 A 
ATOM     89  C   UNL A   1      44.705  26.863  35.037  1.00  0.00     0.031 A 
ATOM     90  C   UNL A   1      45.951  28.495  33.771  1.00  0.00     0.131 A 
ATOM     91  C   UNL A   1      45.922  26.338  35.502  1.00  0.00     0.055 A 
ATOM     92  C   UNL A   1      47.157  27.936  34.195  1.00  0.00     0.041 A 
ATOM     93  F   UNL A   1      46.011  29.552  32.945  1.00  0.00    -0.206 F 
ATOM     94  C   UNL A   1      47.147  26.856  35.072  1.00  0.00     0.022 A 
BRANCH  91  95
ATOM     95  S   UNL A   1      45.889  25.000  36.727  1.00  0.00     0.124 S 
ATOM     96  O   UNL A   1      45.561  23.842  35.902  1.00  0.00    -0.237 OA
ATOM     97  O   UNL A   1      47.246  25.036  37.266  1.00  0.00    -0.237 OA
ATOM     98  O   UNL A   1      44.843  25.413  37.659  1.00  0.00    -0.744 OA
ENDBRANCH  91  95
ENDBRANCH  65  88
ENDBRANCH  39  40
ENDBRANCH  32  34
ENDBRANCH  31  32
ENDBRANCH  30  31
ENDBRANCH  29  30
ENDBRANCH  28  29
ENDBRANCH  27  28
ENDBRANCH   1  27
TORSDOF 26
ENDMDL
MODEL 3
REMARK VINA RESULT:      -8.4      2.084      2.675
REMARK SMILES CC[C@](C)([NH2+]CCC(=O)Nc1ccccc1)C(=O)OCCOCCOCCOC(=O)c1ccc(-c2c3nc(c(-c4cc(S(=O)(=O)[O-])ccc4F)c4ccc([nH]4)c(-c4cc(S(=O)(=O)[O-])ccc4F)c4nc(c(-c5cc(S(=O)(=O)[O-])ccc5F)c5ccc2[nH]5)C=C4)C=C3)cc1
REMARK SMILES IDX 23 1 22 2 21 3 20 4 19 5 17 6 18 7 3 8 4 9 2 10 1 11 5 12
REMARK SMILES IDX 6 15 7 16 8 17 9 18 10 19 11 21 12 22 16 23 13 24 15 25
REMARK SMILES IDX 14 26 24 27 25 28 26 29 27 30 28 31 29 32 30 33 31 34 32 35
REMARK SMILES IDX 93 36 33 37 92 38 34 39 35 40 36 41 86 42 37 43 91 44 85 45
REMARK SMILES IDX 87 46 38 47 90 48 84 49 83 50 39 52 71 53 51 54 70 55 52 56
REMARK SMILES IDX 55 57 69 58 88 59 53 60 54 61 68 63 89 64 56 65 40 66 41 67
REMARK SMILES IDX 49 68 42 69 48 70 50 71 47 72 43 73 44 74 45 75 46 76 72 77
REMARK SMILES IDX 73 78 81 79 74 80 80 81 82 82 79 83 75 84 76 85 77 86 78 87
REMARK SMILES IDX 57 88 58 89 66 90 59 91 65 92 67 93 64 94 60 95 61 96 62 97
REMARK SMILES IDX 63 98
REMARK H PARENT 5 13 5 14 10 20 87 51 55 62
REMARK Flexibility Score: inf
ROOT
ATOM      1  C   UNL A   1      35.787  23.735  25.667  1.00  0.00     0.188 C 
ENDROOT
BRANCH   1   2
ATOM      2  O   UNL A   1      34.649  23.613  26.510  1.00  0.00    -0.376 OA
BRANCH   2   3
ATOM      3  C   UNL A   1      33.411  23.960  25.892  1.00  0.00     0.202 C 
BRANCH   3   4
ATOM      4  C   UNL A   1      32.721  25.174  26.520  1.00  0.00     0.261 C 
BRANCH   4   5
ATOM      5  O   UNL A   1      32.661  26.295  25.618  1.00  0.00    -0.459 OA
BRANCH   5   6
ATOM      6  C   UNL A   1      32.033  27.412  26.056  1.00  0.00     0.367 C 
ATOM      7  O   UNL A   1      31.306  27.424  27.047  1.00  0.00    -0.245 OA
BRANCH   6   8
ATOM      8  C   UNL A   1      32.371  28.693  25.240  1.00  0.00     0.191 C 
ATOM      9  C   UNL A   1      33.857  28.511  24.837  1.00  0.00     0.092 C 
BRANCH   8  10
ATOM     10  C   UNL A   1      32.186  29.930  26.148  1.00  0.00     0.077 C 
ATOM     11  C   UNL A   1      33.212  30.089  27.263  1.00  0.00     0.011 C 
ENDBRANCH   8  10
BRANCH   8  12
ATOM     12  N   UNL A   1      31.696  28.843  23.933  1.00  0.00    -0.332 N 
ATOM     13  H   UNL A   1      32.046  28.081  23.354  1.00  0.00     0.347 HD
ATOM     14  H   UNL A   1      31.915  29.816  23.717  1.00  0.00     0.347 HD
BRANCH  12  15
ATOM     15  C   UNL A   1      30.253  28.844  23.752  1.00  0.00     0.271 C 
BRANCH  15  16
ATOM     16  C   UNL A   1      29.551  27.639  23.144  1.00  0.00     0.161 C 
BRANCH  16  17
ATOM     17  C   UNL A   1      29.218  26.314  23.832  1.00  0.00     0.230 C 
ATOM     18  O   UNL A   1      28.269  26.306  24.632  1.00  0.00    -0.275 OA
ATOM     19  N   UNL A   1      29.657  25.100  23.414  1.00  0.00    -0.326 N 
ATOM     20  H   UNL A   1      28.952  24.413  23.394  1.00  0.00     0.169 HD
BRANCH  19  21
ATOM     21  C   UNL A   1      30.906  24.626  23.007  1.00  0.00     0.041 A 
ATOM     22  C   UNL A   1      31.170  23.266  23.211  1.00  0.00     0.026 A 
ATOM     23  C   UNL A   1      31.894  25.445  22.466  1.00  0.00     0.026 A 
ATOM     24  C   UNL A   1      32.366  22.704  22.764  1.00  0.00     0.002 A 
ATOM     25  C   UNL A   1      33.107  24.885  22.052  1.00  0.00     0.002 A 
ATOM     26  C   UNL A   1      33.332  23.514  22.175  1.00  0.00     0.000 A 
ENDBRANCH  19  21
ENDBRANCH  16  17
ENDBRANCH  15  16
ENDBRANCH  12  15
ENDBRANCH   8  12
ENDBRANCH   6   8
ENDBRANCH   5   6
ENDBRANCH   4   5
ENDBRANCH   3   4
ENDBRANCH   2   3
ENDBRANCH   1   2
BRANCH   1  27
ATOM     27  C   UNL A   1      35.881  22.685  24.545  1.00  0.00     0.188 C 
BRANCH  27  28
ATOM     28  O   UNL A   1      37.129  22.087  24.225  1.00  0.00    -0.376 OA
BRANCH  28  29
ATOM     29  C   UNL A   1      37.382  20.782  24.732  1.00  0.00     0.202 C 
BRANCH  29  30
ATOM     30  C   UNL A   1      38.699  20.515  25.480  1.00  0.00     0.261 C 
BRANCH  30  31
ATOM     31  O   UNL A   1      39.404  21.692  25.916  1.00  0.00    -0.460 OA
BRANCH  31  32
ATOM     32  C   UNL A   1      40.453  21.470  26.742  1.00  0.00     0.338 C 
ATOM     33  O   UNL A   1      41.048  20.406  26.913  1.00  0.00    -0.246 OA
BRANCH  32  34
ATOM     34  C   UNL A   1      40.938  22.738  27.313  1.00  0.00     0.060 A 
ATOM     35  C   UNL A   1      40.657  23.934  26.634  1.00  0.00     0.016 A 
ATOM     36  C   UNL A   1      41.748  22.747  28.446  1.00  0.00     0.016 A 
ATOM     37  C   UNL A   1      41.189  25.145  27.078  1.00  0.00     0.010 A 
ATOM     38  C   UNL A   1      42.304  23.956  28.874  1.00  0.00     0.010 A 
ATOM     39  C   UNL A   1      42.048  25.156  28.180  1.00  0.00    -0.014 A 
BRANCH  39  40
ATOM     40  C   UNL A   1      42.837  26.367  28.512  1.00  0.00     0.031 A 
ATOM     41  C   UNL A   1      42.141  27.494  29.221  1.00  0.00     0.074 A 
ATOM     42  C   UNL A   1      44.128  26.485  28.159  1.00  0.00     0.049 A 
ATOM     43  N   UNL A   1      42.520  28.732  29.393  1.00  0.00    -0.248 NA
ATOM     44  C   UNL A   1      40.828  27.173  29.799  1.00  0.00     0.031 C 
ATOM     45  C   UNL A   1      44.935  25.432  27.549  1.00  0.00     0.029 A 
ATOM     46  N   UNL A   1      44.972  27.565  28.230  1.00  0.00    -0.354 N 
ATOM     47  C   UNL A   1      41.473  29.354  30.065  1.00  0.00     0.074 A 
ATOM     48  C   UNL A   1      40.445  28.353  30.259  1.00  0.00     0.031 C 
ATOM     49  C   UNL A   1      46.146  25.932  27.252  1.00  0.00     0.029 A 
ATOM     50  C   UNL A   1      46.173  27.355  27.594  1.00  0.00     0.049 A 
ATOM     51  H   UNL A   1      44.743  28.405  28.690  1.00  0.00     0.167 HD
ATOM     52  C   UNL A   1      41.378  30.647  30.468  1.00  0.00     0.034 A 
ATOM     53  C   UNL A   1      47.149  28.224  27.261  1.00  0.00     0.034 A 
ATOM     54  C   UNL A   1      42.414  31.626  30.250  1.00  0.00     0.049 A 
ATOM     55  C   UNL A   1      46.993  29.681  27.626  1.00  0.00     0.074 A 
ATOM     56  C   UNL A   1      42.436  32.959  30.618  1.00  0.00     0.029 A 
ATOM     57  N   UNL A   1      43.612  31.379  29.586  1.00  0.00    -0.354 N 
ATOM     58  N   UNL A   1      45.990  30.279  28.230  1.00  0.00    -0.248 NA
ATOM     59  C   UNL A   1      48.094  30.582  27.260  1.00  0.00     0.031 C 
ATOM     60  C   UNL A   1      43.607  33.534  30.113  1.00  0.00     0.029 A 
ATOM     61  C   UNL A   1      44.360  32.543  29.504  1.00  0.00     0.049 A 
ATOM     62  H   UNL A   1      43.887  30.505  29.228  1.00  0.00     0.167 HD
ATOM     63  C   UNL A   1      46.352  31.619  28.339  1.00  0.00     0.074 A 
ATOM     64  C   UNL A   1      47.667  31.743  27.740  1.00  0.00     0.031 C 
ATOM     65  C   UNL A   1      45.668  32.651  28.895  1.00  0.00     0.034 A 
BRANCH  52  66
ATOM     66  C   UNL A   1      40.072  31.075  31.095  1.00  0.00     0.023 A 
ATOM     67  C   UNL A   1      39.930  31.242  32.483  1.00  0.00     0.031 A 
ATOM     68  C   UNL A   1      38.926  31.237  30.294  1.00  0.00     0.131 A 
ATOM     69  C   UNL A   1      38.659  31.460  33.036  1.00  0.00     0.055 A 
ATOM     70  C   UNL A   1      37.681  31.546  30.843  1.00  0.00     0.041 A 
ATOM     71  F   UNL A   1      38.992  31.067  28.964  1.00  0.00    -0.206 F 
ATOM     72  C   UNL A   1      37.536  31.637  32.224  1.00  0.00     0.022 A 
BRANCH  69  73
ATOM     73  S   UNL A   1      38.463  31.314  34.834  1.00  0.00     0.124 S 
ATOM     74  O   UNL A   1      37.325  32.198  35.080  1.00  0.00    -0.237 OA
ATOM     75  O   UNL A   1      38.212  29.887  35.008  1.00  0.00    -0.237 OA
ATOM     76  O   UNL A   1      39.739  31.794  35.359  1.00  0.00    -0.744 OA
ENDBRANCH  69  73
ENDBRANCH  52  66
BRANCH  53  77
ATOM     77  C   UNL A   1      48.315  27.758  26.456  1.00  0.00     0.023 A 
ATOM     78  C   UNL A   1      48.277  27.737  25.054  1.00  0.00     0.031 A 
ATOM     79  C   UNL A   1      49.489  27.313  27.093  1.00  0.00     0.131 A 
ATOM     80  C   UNL A   1      49.385  27.262  24.334  1.00  0.00     0.055 A 
ATOM     81  C   UNL A   1      50.603  26.884  26.371  1.00  0.00     0.041 A 
ATOM     82  F   UNL A   1      49.575  27.312  28.432  1.00  0.00    -0.206 F 
ATOM     83  C   UNL A   1      50.552  26.851  24.983  1.00  0.00     0.022 A 
BRANCH  80  84
ATOM     84  S   UNL A   1      49.266  27.147  22.527  1.00  0.00     0.124 S 
ATOM     85  O   UNL A   1      48.394  25.990  22.361  1.00  0.00    -0.237 OA
ATOM     86  O   UNL A   1      48.689  28.441  22.178  1.00  0.00    -0.237 OA
ATOM     87  O   UNL A   1      50.652  26.953  22.106  1.00  0.00    -0.744 OA
ENDBRANCH  80  84
ENDBRANCH  53  77
BRANCH  65  88
ATOM     88  C   UNL A   1      46.351  33.997  28.940  1.00  0.00     0.023 A 
ATOM     89  C   UNL A   1      46.097  34.997  27.985  1.00  0.00     0.031 A 
ATOM     90  C   UNL A   1      47.251  34.287  29.982  1.00  0.00     0.131 A 
ATOM     91  C   UNL A   1      46.762  36.231  28.075  1.00  0.00     0.055 A 
ATOM     92  C   UNL A   1      47.869  35.533  30.095  1.00  0.00     0.041 A 
ATOM     93  F   UNL A   1      47.531  33.367  30.918  1.00  0.00    -0.206 F 
ATOM     94  C   UNL A   1      47.632  36.511  29.134  1.00  0.00     0.022 A 
BRANCH  91  95
ATOM     95  S   UNL A   1      46.524  37.455  26.757  1.00  0.00     0.124 S 
ATOM     96  O   UNL A   1      47.438  38.518  27.163  1.00  0.00    -0.237 OA
ATOM     97  O   UNL A   1      46.905  36.707  25.563  1.00  0.00    -0.237 OA
ATOM     98  O   UNL A   1      45.104  37.789  26.852  1.00  0.00    -0.744 OA
ENDBRANCH  91  95
ENDBRANCH  65  88
ENDBRANCH  39  40
ENDBRANCH  32  34
ENDBRANCH  31  32
ENDBRANCH  30  31
ENDBRANCH  29  30
ENDBRANCH  28  29
ENDBRANCH  27  28
ENDBRANCH   1  27
TORSDOF 26
ENDMDL
