MODEL 1
REMARK VINA RESULT:     -11.1      0.000      0.000
REMARK SMILES Cc1cc(Cl)cc2c1O[C@H](C(F)(F)F)C(C(=O)OCCOCCOCCOC(=O)c1ccc(-c3c4nc(c(-c5cc(S(=O)(=O)[O-])ccc5F)c5ccc([nH]5)c(-c5cc(S(=O)(=O)[O-])ccc5F)c5nc(c(-c6cc(S(=O)(=O)[O-])ccc6F)c6ccc3[nH]6)C=C5)C=C4)cc1)=C2
REMARK SMILES IDX 23 1 22 2 21 3 20 4 19 5 18 6 16 7 17 8 15 9 1 10 2 11 3 12
REMARK SMILES IDX 8 13 4 14 7 15 9 16 5 17 6 18 93 19 10 20 11 21 12 22 13 23
REMARK SMILES IDX 14 24 24 25 25 26 26 27 27 28 28 29 29 30 30 31 31 32 92 33
REMARK SMILES IDX 32 34 91 35 33 36 34 37 35 38 85 39 36 40 90 41 84 42 86 43
REMARK SMILES IDX 37 44 89 45 83 46 82 47 38 49 70 50 50 51 69 52 51 53 54 54
REMARK SMILES IDX 68 55 87 56 52 57 53 58 67 60 88 61 55 62 39 63 40 64 48 65
REMARK SMILES IDX 41 66 47 67 49 68 46 69 42 70 43 71 44 72 45 73 71 74 72 75
REMARK SMILES IDX 80 76 73 77 79 78 81 79 78 80 74 81 75 82 76 83 77 84 56 85
REMARK SMILES IDX 57 86 65 87 58 88 64 89 66 90 63 91 59 92 60 93 61 94 62 95
REMARK H PARENT 86 48 54 59
REMARK Flexibility Score: inf
ROOT
ATOM      1  C   UNL A   1      36.716  21.986  25.158  1.00  0.00     0.188 C 
ENDROOT
BRANCH   1   2
ATOM      2  C   UNL A   1      35.521  21.441  25.969  1.00  0.00     0.188 C 
BRANCH   2   3
ATOM      3  O   UNL A   1      34.413  20.845  25.319  1.00  0.00    -0.376 OA
BRANCH   3   4
ATOM      4  C   UNL A   1      33.780  21.502  24.234  1.00  0.00     0.202 C 
BRANCH   4   5
ATOM      5  C   UNL A   1      32.258  21.627  24.192  1.00  0.00     0.261 C 
BRANCH   5   6
ATOM      6  O   UNL A   1      31.808  22.984  24.080  1.00  0.00    -0.460 OA
BRANCH   6   7
ATOM      7  C   UNL A   1      31.130  23.449  25.156  1.00  0.00     0.338 C 
ATOM      8  O   UNL A   1      30.688  22.790  26.083  1.00  0.00    -0.246 OA
BRANCH   7   9
ATOM      9  C   UNL A   1      31.080  24.921  25.111  1.00  0.00     0.087 C 
ATOM     10  C   UNL A   1      32.214  29.906  25.280  1.00  0.00     0.048 C 
ATOM     11  C   UNL A   1      31.162  29.066  24.610  1.00  0.00    -0.007 A 
ATOM     12  C   UNL A   1      30.244  29.664  23.735  1.00  0.00     0.027 A 
ATOM     13  C   UNL A   1      31.090  27.681  24.836  1.00  0.00     0.131 A 
ATOM     14  C   UNL A   1      29.281  28.890  23.091  1.00  0.00     0.042 A 
ATOM     15  C   UNL A   1      30.146  26.904  24.157  1.00  0.00     0.019 A 
ATOM     16  O   UNL A   1      31.987  27.160  25.728  1.00  0.00    -0.475 OA
ATOM     17  Cl  UNL A   1      28.169  29.639  22.016  1.00  0.00    -0.084 Cl
ATOM     18  C   UNL A   1      29.229  27.514  23.294  1.00  0.00     0.032 A 
ATOM     19  C   UNL A   1      30.166  25.458  24.293  1.00  0.00     0.027 C 
ATOM     20  C   UNL A   1      32.035  25.725  25.945  1.00  0.00     0.316 C 
BRANCH  20  21
ATOM     21  C   UNL A   1      33.495  25.278  25.776  1.00  0.00     0.430 C 
ATOM     22  F   UNL A   1      34.354  26.265  26.134  1.00  0.00    -0.167 F 
ATOM     23  F   UNL A   1      33.796  24.214  26.558  1.00  0.00    -0.167 F 
ATOM     24  F   UNL A   1      33.783  24.936  24.501  1.00  0.00    -0.167 F 
ENDBRANCH  20  21
ENDBRANCH   7   9
ENDBRANCH   6   7
ENDBRANCH   5   6
ENDBRANCH   4   5
ENDBRANCH   3   4
ENDBRANCH   2   3
ENDBRANCH   1   2
BRANCH   1  25
ATOM     25  O   UNL A   1      37.617  21.119  24.500  1.00  0.00    -0.376 OA
BRANCH  25  26
ATOM     26  C   UNL A   1      37.767  19.774  24.927  1.00  0.00     0.202 C 
BRANCH  26  27
ATOM     27  C   UNL A   1      39.024  19.260  25.641  1.00  0.00     0.261 C 
BRANCH  27  28
ATOM     28  O   UNL A   1      40.149  20.141  25.620  1.00  0.00    -0.460 OA
BRANCH  28  29
ATOM     29  C   UNL A   1      40.848  20.195  26.783  1.00  0.00     0.338 C 
ATOM     30  O   UNL A   1      41.405  19.272  27.350  1.00  0.00    -0.246 OA
BRANCH  29  31
ATOM     31  C   UNL A   1      41.000  21.603  27.186  1.00  0.00     0.060 A 
ATOM     32  C   UNL A   1      40.449  22.592  26.361  1.00  0.00     0.016 A 
ATOM     33  C   UNL A   1      41.707  21.946  28.340  1.00  0.00     0.016 A 
ATOM     34  C   UNL A   1      40.621  23.936  26.681  1.00  0.00     0.010 A 
ATOM     35  C   UNL A   1      41.903  23.296  28.643  1.00  0.00     0.010 A 
ATOM     36  C   UNL A   1      41.383  24.295  27.801  1.00  0.00    -0.014 A 
BRANCH  36  37
ATOM     37  C   UNL A   1      41.798  25.705  27.978  1.00  0.00     0.031 A 
ATOM     38  C   UNL A   1      43.128  26.132  27.418  1.00  0.00     0.074 A 
ATOM     39  C   UNL A   1      40.997  26.599  28.586  1.00  0.00     0.049 A 
ATOM     40  N   UNL A   1      43.719  27.295  27.483  1.00  0.00    -0.248 NA
ATOM     41  C   UNL A   1      43.887  25.107  26.682  1.00  0.00     0.031 C 
ATOM     42  C   UNL A   1      39.661  26.318  29.109  1.00  0.00     0.029 A 
ATOM     43  N   UNL A   1      41.196  27.928  28.861  1.00  0.00    -0.354 N 
ATOM     44  C   UNL A   1      44.913  27.148  26.787  1.00  0.00     0.074 A 
ATOM     45  C   UNL A   1      44.977  25.774  26.337  1.00  0.00     0.031 C 
ATOM     46  C   UNL A   1      39.159  27.446  29.642  1.00  0.00     0.029 A 
ATOM     47  C   UNL A   1      40.151  28.516  29.532  1.00  0.00     0.049 A 
ATOM     48  H   UNL A   1      42.011  28.415  28.603  1.00  0.00     0.167 HD
ATOM     49  C   UNL A   1      45.866  28.076  26.536  1.00  0.00     0.034 A 
ATOM     50  C   UNL A   1      40.021  29.767  30.020  1.00  0.00     0.034 A 
ATOM     51  C   UNL A   1      45.807  29.436  27.005  1.00  0.00     0.049 A 
ATOM     52  C   UNL A   1      41.151  30.751  29.838  1.00  0.00     0.074 A 
ATOM     53  C   UNL A   1      46.729  30.450  26.823  1.00  0.00     0.029 A 
ATOM     54  N   UNL A   1      44.772  29.970  27.760  1.00  0.00    -0.354 N 
ATOM     55  N   UNL A   1      42.295  30.588  29.213  1.00  0.00    -0.248 NA
ATOM     56  C   UNL A   1      40.979  32.082  30.435  1.00  0.00     0.031 C 
ATOM     57  C   UNL A   1      46.282  31.579  27.517  1.00  0.00     0.029 A 
ATOM     58  C   UNL A   1      45.048  31.289  28.076  1.00  0.00     0.049 A 
ATOM     59  H   UNL A   1      43.961  29.481  28.031  1.00  0.00     0.167 HD
ATOM     60  C   UNL A   1      42.965  31.802  29.324  1.00  0.00     0.074 A 
ATOM     61  C   UNL A   1      42.100  32.690  30.072  1.00  0.00     0.031 C 
ATOM     62  C   UNL A   1      44.183  32.156  28.840  1.00  0.00     0.034 A 
BRANCH  49  63
ATOM     63  C   UNL A   1      47.071  27.636  25.753  1.00  0.00     0.023 A 
ATOM     64  C   UNL A   1      47.194  27.912  24.380  1.00  0.00     0.031 A 
ATOM     65  C   UNL A   1      48.110  26.933  26.386  1.00  0.00     0.131 A 
ATOM     66  C   UNL A   1      48.316  27.451  23.676  1.00  0.00     0.055 A 
ATOM     67  C   UNL A   1      49.251  26.529  25.692  1.00  0.00     0.041 A 
ATOM     68  F   UNL A   1      48.029  26.624  27.690  1.00  0.00    -0.206 F 
ATOM     69  C   UNL A   1      49.356  26.781  24.327  1.00  0.00     0.022 A 
BRANCH  66  70
ATOM     70  S   UNL A   1      48.362  27.664  21.876  1.00  0.00     0.124 S 
ATOM     71  O   UNL A   1      47.033  28.209  21.610  1.00  0.00    -0.237 OA
ATOM     72  O   UNL A   1      49.478  28.586  21.693  1.00  0.00    -0.237 OA
ATOM     73  O   UNL A   1      48.586  26.309  21.376  1.00  0.00    -0.744 OA
ENDBRANCH  66  70
ENDBRANCH  49  63
BRANCH  50  74
ATOM     74  C   UNL A   1      38.793  30.157  30.765  1.00  0.00     0.023 A 
ATOM     75  C   UNL A   1      37.767  30.886  30.142  1.00  0.00     0.031 A 
ATOM     76  C   UNL A   1      38.642  29.833  32.125  1.00  0.00     0.131 A 
ATOM     77  C   UNL A   1      36.646  31.287  30.884  1.00  0.00     0.055 A 
ATOM     78  C   UNL A   1      37.507  30.200  32.849  1.00  0.00     0.041 A 
ATOM     79  F   UNL A   1      39.595  29.138  32.765  1.00  0.00    -0.206 F 
ATOM     80  C   UNL A   1      36.503  30.938  32.230  1.00  0.00     0.022 A 
BRANCH  77  81
ATOM     81  S   UNL A   1      35.383  32.307  30.075  1.00  0.00     0.124 S 
ATOM     82  O   UNL A   1      34.386  32.436  31.132  1.00  0.00    -0.237 OA
ATOM     83  O   UNL A   1      36.131  33.515  29.745  1.00  0.00    -0.237 OA
ATOM     84  O   UNL A   1      34.976  31.496  28.928  1.00  0.00    -0.744 OA
ENDBRANCH  77  81
ENDBRANCH  50  74
BRANCH  62  85
ATOM     85  C   UNL A   1      44.649  33.567  29.082  1.00  0.00     0.023 A 
ATOM     86  C   UNL A   1      45.437  33.902  30.195  1.00  0.00     0.031 A 
ATOM     87  C   UNL A   1      44.345  34.580  28.153  1.00  0.00     0.131 A 
ATOM     88  C   UNL A   1      45.876  35.223  30.366  1.00  0.00     0.055 A 
ATOM     89  C   UNL A   1      44.821  35.882  28.305  1.00  0.00     0.041 A 
ATOM     90  F   UNL A   1      43.599  34.309  27.070  1.00  0.00    -0.206 F 
ATOM     91  C   UNL A   1      45.587  36.210  29.420  1.00  0.00     0.022 A 
BRANCH  88  92
ATOM     92  S   UNL A   1      46.812  35.647  31.861  1.00  0.00     0.124 S 
ATOM     93  O   UNL A   1      47.834  34.606  31.884  1.00  0.00    -0.237 OA
ATOM     94  O   UNL A   1      47.284  36.997  31.566  1.00  0.00    -0.237 OA
ATOM     95  O   UNL A   1      45.815  35.562  32.926  1.00  0.00    -0.744 OA
ENDBRANCH  88  92
ENDBRANCH  62  85
ENDBRANCH  36  37
ENDBRANCH  29  31
ENDBRANCH  28  29
ENDBRANCH  27  28
ENDBRANCH  26  27
ENDBRANCH  25  26
ENDBRANCH   1  25
TORSDOF 21
ENDMDL
MODEL 2
REMARK VINA RESULT:     -11.1      2.261      7.848
REMARK SMILES Cc1cc(Cl)cc2c1O[C@H](C(F)(F)F)C(C(=O)OCCOCCOCCOC(=O)c1ccc(-c3c4nc(c(-c5cc(S(=O)(=O)[O-])ccc5F)c5ccc([nH]5)c(-c5cc(S(=O)(=O)[O-])ccc5F)c5nc(c(-c6cc(S(=O)(=O)[O-])ccc6F)c6ccc3[nH]6)C=C5)C=C4)cc1)=C2
REMARK SMILES IDX 23 1 22 2 21 3 20 4 19 5 18 6 16 7 17 8 15 9 1 10 2 11 3 12
REMARK SMILES IDX 8 13 4 14 7 15 9 16 5 17 6 18 93 19 10 20 11 21 12 22 13 23
REMARK SMILES IDX 14 24 24 25 25 26 26 27 27 28 28 29 29 30 30 31 31 32 92 33
REMARK SMILES IDX 32 34 91 35 33 36 34 37 35 38 85 39 36 40 90 41 84 42 86 43
REMARK SMILES IDX 37 44 89 45 83 46 82 47 38 49 70 50 50 51 69 52 51 53 54 54
REMARK SMILES IDX 68 55 87 56 52 57 53 58 67 60 88 61 55 62 39 63 40 64 48 65
REMARK SMILES IDX 41 66 47 67 49 68 46 69 42 70 43 71 44 72 45 73 71 74 72 75
REMARK SMILES IDX 80 76 73 77 79 78 81 79 78 80 74 81 75 82 76 83 77 84 56 85
REMARK SMILES IDX 57 86 65 87 58 88 64 89 66 90 63 91 59 92 60 93 61 94 62 95
REMARK H PARENT 86 48 54 59
REMARK Flexibility Score: inf
ROOT
ATOM      1  C   UNL A   1      35.527  24.119  24.287  1.00  0.00     0.188 C 
ENDROOT
BRANCH   1   2
ATOM      2  C   UNL A   1      34.579  23.546  25.364  1.00  0.00     0.188 C 
BRANCH   2   3
ATOM      3  O   UNL A   1      33.340  22.963  25.003  1.00  0.00    -0.376 OA
BRANCH   3   4
ATOM      4  C   UNL A   1      32.996  22.797  23.638  1.00  0.00     0.202 C 
BRANCH   4   5
ATOM      5  C   UNL A   1      32.143  23.845  22.926  1.00  0.00     0.261 C 
BRANCH   5   6
ATOM      6  O   UNL A   1      32.115  25.106  23.609  1.00  0.00    -0.460 OA
BRANCH   6   7
ATOM      7  C   UNL A   1      32.564  26.157  22.884  1.00  0.00     0.338 C 
ATOM      8  O   UNL A   1      32.801  26.172  21.687  1.00  0.00    -0.246 OA
BRANCH   7   9
ATOM      9  C   UNL A   1      32.636  27.355  23.740  1.00  0.00     0.087 C 
ATOM     10  C   UNL A   1      31.558  31.555  26.453  1.00  0.00     0.048 C 
ATOM     11  C   UNL A   1      32.640  30.512  26.473  1.00  0.00    -0.007 A 
ATOM     12  C   UNL A   1      33.621  30.544  27.474  1.00  0.00     0.027 A 
ATOM     13  C   UNL A   1      32.679  29.491  25.509  1.00  0.00     0.131 A 
ATOM     14  C   UNL A   1      34.615  29.568  27.515  1.00  0.00     0.042 A 
ATOM     15  C   UNL A   1      33.656  28.492  25.578  1.00  0.00     0.019 A 
ATOM     16  O   UNL A   1      31.719  29.532  24.535  1.00  0.00    -0.475 OA
ATOM     17  Cl  UNL A   1      35.806  29.619  28.754  1.00  0.00    -0.084 Cl
ATOM     18  C   UNL A   1      34.636  28.541  26.576  1.00  0.00     0.032 A 
ATOM     19  C   UNL A   1      33.608  27.368  24.660  1.00  0.00     0.027 C 
ATOM     20  C   UNL A   1      31.637  28.462  23.558  1.00  0.00     0.316 C 
BRANCH  20  21
ATOM     21  C   UNL A   1      30.187  27.959  23.539  1.00  0.00     0.430 C 
ATOM     22  F   UNL A   1      29.310  28.986  23.665  1.00  0.00    -0.167 F 
ATOM     23  F   UNL A   1      29.877  27.339  22.375  1.00  0.00    -0.167 F 
ATOM     24  F   UNL A   1      29.933  27.087  24.539  1.00  0.00    -0.167 F 
ENDBRANCH  20  21
ENDBRANCH   7   9
ENDBRANCH   6   7
ENDBRANCH   5   6
ENDBRANCH   4   5
ENDBRANCH   3   4
ENDBRANCH   2   3
ENDBRANCH   1   2
BRANCH   1  25
ATOM     25  O   UNL A   1      36.770  23.511  24.001  1.00  0.00    -0.376 OA
BRANCH  25  26
ATOM     26  C   UNL A   1      36.846  22.123  23.722  1.00  0.00     0.202 C 
BRANCH  26  27
ATOM     27  C   UNL A   1      37.287  21.086  24.763  1.00  0.00     0.261 C 
BRANCH  27  28
ATOM     28  O   UNL A   1      37.754  21.617  26.005  1.00  0.00    -0.460 OA
BRANCH  28  29
ATOM     29  C   UNL A   1      39.079  21.435  26.237  1.00  0.00     0.338 C 
ATOM     30  O   UNL A   1      39.752  20.466  25.935  1.00  0.00    -0.246 OA
BRANCH  29  31
ATOM     31  C   UNL A   1      39.651  22.687  26.760  1.00  0.00     0.060 A 
ATOM     32  C   UNL A   1      39.154  23.900  26.267  1.00  0.00     0.016 A 
ATOM     33  C   UNL A   1      40.688  22.665  27.694  1.00  0.00     0.016 A 
ATOM     34  C   UNL A   1      39.708  25.103  26.697  1.00  0.00     0.010 A 
ATOM     35  C   UNL A   1      41.263  23.872  28.102  1.00  0.00     0.010 A 
ATOM     36  C   UNL A   1      40.792  25.093  27.586  1.00  0.00    -0.014 A 
BRANCH  36  37
ATOM     37  C   UNL A   1      41.554  26.341  27.818  1.00  0.00     0.031 A 
ATOM     38  C   UNL A   1      40.901  27.436  28.617  1.00  0.00     0.074 A 
ATOM     39  C   UNL A   1      42.812  26.486  27.366  1.00  0.00     0.049 A 
ATOM     40  N   UNL A   1      41.351  28.625  28.914  1.00  0.00    -0.248 NA
ATOM     41  C   UNL A   1      39.561  27.144  29.154  1.00  0.00     0.031 C 
ATOM     42  C   UNL A   1      43.572  25.470  26.639  1.00  0.00     0.029 A 
ATOM     43  N   UNL A   1      43.673  27.550  27.458  1.00  0.00    -0.354 N 
ATOM     44  C   UNL A   1      40.358  29.221  29.684  1.00  0.00     0.074 A 
ATOM     45  C   UNL A   1      39.268  28.274  29.778  1.00  0.00     0.031 C 
ATOM     46  C   UNL A   1      44.790  25.963  26.352  1.00  0.00     0.029 A 
ATOM     47  C   UNL A   1      44.882  27.339  26.840  1.00  0.00     0.049 A 
ATOM     48  H   UNL A   1      43.446  28.388  27.923  1.00  0.00     0.167 HD
ATOM     49  C   UNL A   1      40.359  30.442  30.268  1.00  0.00     0.034 A 
ATOM     50  C   UNL A   1      45.932  28.169  26.671  1.00  0.00     0.034 A 
ATOM     51  C   UNL A   1      41.437  31.388  30.151  1.00  0.00     0.049 A 
ATOM     52  C   UNL A   1      45.859  29.573  27.223  1.00  0.00     0.074 A 
ATOM     53  C   UNL A   1      41.528  32.660  30.687  1.00  0.00     0.029 A 
ATOM     54  N   UNL A   1      42.609  31.171  29.441  1.00  0.00    -0.354 N 
ATOM     55  N   UNL A   1      44.897  30.139  27.914  1.00  0.00    -0.248 NA
ATOM     56  C   UNL A   1      47.008  30.451  26.963  1.00  0.00     0.031 C 
ATOM     57  C   UNL A   1      42.727  33.234  30.252  1.00  0.00     0.029 A 
ATOM     58  C   UNL A   1      43.414  32.296  29.500  1.00  0.00     0.049 A 
ATOM     59  H   UNL A   1      42.835  30.339  28.964  1.00  0.00     0.167 HD
ATOM     60  C   UNL A   1      45.336  31.431  28.190  1.00  0.00     0.074 A 
ATOM     61  C   UNL A   1      46.649  31.561  27.594  1.00  0.00     0.031 C 
ATOM     62  C   UNL A   1      44.714  32.417  28.884  1.00  0.00     0.034 A 
BRANCH  49  63
ATOM     63  C   UNL A   1      39.136  30.835  31.049  1.00  0.00     0.023 A 
ATOM     64  C   UNL A   1      38.120  31.619  30.474  1.00  0.00     0.031 A 
ATOM     65  C   UNL A   1      38.983  30.422  32.383  1.00  0.00     0.131 A 
ATOM     66  C   UNL A   1      37.013  31.998  31.247  1.00  0.00     0.055 A 
ATOM     67  C   UNL A   1      37.850  30.752  33.127  1.00  0.00     0.041 A 
ATOM     68  F   UNL A   1      39.936  29.692  32.984  1.00  0.00    -0.206 F 
ATOM     69  C   UNL A   1      36.860  31.550  32.562  1.00  0.00     0.022 A 
BRANCH  66  70
ATOM     70  S   UNL A   1      35.810  33.154  30.536  1.00  0.00     0.124 S 
ATOM     71  O   UNL A   1      36.469  33.535  29.289  1.00  0.00    -0.237 OA
ATOM     72  O   UNL A   1      34.616  32.327  30.401  1.00  0.00    -0.237 OA
ATOM     73  O   UNL A   1      35.722  34.215  31.538  1.00  0.00    -0.744 OA
ENDBRANCH  66  70
ENDBRANCH  49  63
BRANCH  50  74
ATOM     74  C   UNL A   1      47.130  27.718  25.911  1.00  0.00     0.023 A 
ATOM     75  C   UNL A   1      47.228  27.921  24.525  1.00  0.00     0.031 A 
ATOM     76  C   UNL A   1      48.183  27.048  26.559  1.00  0.00     0.131 A 
ATOM     77  C   UNL A   1      48.346  27.437  23.828  1.00  0.00     0.055 A 
ATOM     78  C   UNL A   1      49.309  26.603  25.866  1.00  0.00     0.041 A 
ATOM     79  F   UNL A   1      48.134  26.829  27.882  1.00  0.00    -0.206 F 
ATOM     80  C   UNL A   1      49.392  26.791  24.490  1.00  0.00     0.022 A 
BRANCH  77  81
ATOM     81  S   UNL A   1      48.400  27.633  22.025  1.00  0.00     0.124 S 
ATOM     82  O   UNL A   1      47.102  28.241  21.755  1.00  0.00    -0.237 OA
ATOM     83  O   UNL A   1      49.564  28.493  21.846  1.00  0.00    -0.237 OA
ATOM     84  O   UNL A   1      48.561  26.263  21.539  1.00  0.00    -0.744 OA
ENDBRANCH  77  81
ENDBRANCH  50  74
BRANCH  62  85
ATOM     85  C   UNL A   1      45.449  33.719  29.060  1.00  0.00     0.023 A 
ATOM     86  C   UNL A   1      45.261  34.796  28.177  1.00  0.00     0.031 A 
ATOM     87  C   UNL A   1      46.308  33.902  30.160  1.00  0.00     0.131 A 
ATOM     88  C   UNL A   1      45.942  36.003  28.395  1.00  0.00     0.055 A 
ATOM     89  C   UNL A   1      46.948  35.118  30.396  1.00  0.00     0.041 A 
ATOM     90  F   UNL A   1      46.516  32.906  31.034  1.00  0.00    -0.206 F 
ATOM     91  C   UNL A   1      46.770  36.176  29.508  1.00  0.00     0.022 A 
BRANCH  88  92
ATOM     92  S   UNL A   1      45.754  37.343  27.188  1.00  0.00     0.124 S 
ATOM     93  O   UNL A   1      44.324  37.295  26.902  1.00  0.00    -0.237 OA
ATOM     94  O   UNL A   1      46.216  38.509  27.936  1.00  0.00    -0.237 OA
ATOM     95  O   UNL A   1      46.622  36.936  26.085  1.00  0.00    -0.744 OA
ENDBRANCH  88  92
ENDBRANCH  62  85
ENDBRANCH  36  37
ENDBRANCH  29  31
ENDBRANCH  28  29
ENDBRANCH  27  28
ENDBRANCH  26  27
ENDBRANCH  25  26
ENDBRANCH   1  25
TORSDOF 21
ENDMDL
MODEL 3
REMARK VINA RESULT:     -10.8      1.956      2.270
REMARK SMILES Cc1cc(Cl)cc2c1O[C@H](C(F)(F)F)C(C(=O)OCCOCCOCCOC(=O)c1ccc(-c3c4nc(c(-c5cc(S(=O)(=O)[O-])ccc5F)c5ccc([nH]5)c(-c5cc(S(=O)(=O)[O-])ccc5F)c5nc(c(-c6cc(S(=O)(=O)[O-])ccc6F)c6ccc3[nH]6)C=C5)C=C4)cc1)=C2
REMARK SMILES IDX 23 1 22 2 21 3 20 4 19 5 18 6 16 7 17 8 15 9 1 10 2 11 3 12
REMARK SMILES IDX 8 13 4 14 7 15 9 16 5 17 6 18 93 19 10 20 11 21 12 22 13 23
REMARK SMILES IDX 14 24 24 25 25 26 26 27 27 28 28 29 29 30 30 31 31 32 92 33
REMARK SMILES IDX 32 34 91 35 33 36 34 37 35 38 85 39 36 40 90 41 84 42 86 43
REMARK SMILES IDX 37 44 89 45 83 46 82 47 38 49 70 50 50 51 69 52 51 53 54 54
REMARK SMILES IDX 68 55 87 56 52 57 53 58 67 60 88 61 55 62 39 63 40 64 48 65
REMARK SMILES IDX 41 66 47 67 49 68 46 69 42 70 43 71 44 72 45 73 71 74 72 75
REMARK SMILES IDX 80 76 73 77 79 78 81 79 78 80 74 81 75 82 76 83 77 84 56 85
REMARK SMILES IDX 57 86 65 87 58 88 64 89 66 90 63 91 59 92 60 93 61 94 62 95
REMARK H PARENT 86 48 54 59
REMARK Flexibility Score: inf
ROOT
ATOM      1  C   UNL A   1      35.463  21.018  25.410  1.00  0.00     0.188 C 
ENDROOT
BRANCH   1   2
ATOM      2  C   UNL A   1      34.274  20.116  25.014  1.00  0.00     0.188 C 
BRANCH   2   3
ATOM      3  O   UNL A   1      33.477  20.421  23.883  1.00  0.00    -0.376 OA
BRANCH   3   4
ATOM      4  C   UNL A   1      32.332  21.247  24.015  1.00  0.00     0.202 C 
BRANCH   4   5
ATOM      5  C   UNL A   1      31.742  21.531  25.394  1.00  0.00     0.261 C 
BRANCH   5   6
ATOM      6  O   UNL A   1      30.815  22.625  25.395  1.00  0.00    -0.460 OA
BRANCH   6   7
ATOM      7  C   UNL A   1      30.962  23.496  26.422  1.00  0.00     0.338 C 
ATOM      8  O   UNL A   1      31.021  23.222  27.610  1.00  0.00    -0.246 OA
BRANCH   7   9
ATOM      9  C   UNL A   1      31.150  24.858  25.892  1.00  0.00     0.087 C 
ATOM     10  C   UNL A   1      33.105  29.220  24.073  1.00  0.00     0.048 C 
ATOM     11  C   UNL A   1      31.770  28.533  24.008  1.00  0.00    -0.007 A 
ATOM     12  C   UNL A   1      30.738  29.085  23.237  1.00  0.00     0.027 A 
ATOM     13  C   UNL A   1      31.540  27.333  24.702  1.00  0.00     0.131 A 
ATOM     14  C   UNL A   1      29.503  28.442  23.153  1.00  0.00     0.042 A 
ATOM     15  C   UNL A   1      30.312  26.674  24.583  1.00  0.00     0.019 A 
ATOM     16  O   UNL A   1      32.571  26.862  25.468  1.00  0.00    -0.475 OA
ATOM     17  Cl  UNL A   1      28.252  29.129  22.195  1.00  0.00    -0.084 Cl
ATOM     18  C   UNL A   1      29.286  27.239  23.818  1.00  0.00     0.032 A 
ATOM     19  C   UNL A   1      30.129  25.368  25.193  1.00  0.00     0.027 C 
ATOM     20  C   UNL A   1      32.442  25.582  26.142  1.00  0.00     0.316 C 
BRANCH  20  21
ATOM     21  C   UNL A   1      33.675  24.741  25.781  1.00  0.00     0.430 C 
ATOM     22  F   UNL A   1      34.792  25.510  25.717  1.00  0.00    -0.167 F 
ATOM     23  F   UNL A   1      33.928  23.784  26.706  1.00  0.00    -0.167 F 
ATOM     24  F   UNL A   1      33.544  24.123  24.587  1.00  0.00    -0.167 F 
ENDBRANCH  20  21
ENDBRANCH   7   9
ENDBRANCH   6   7
ENDBRANCH   5   6
ENDBRANCH   4   5
ENDBRANCH   3   4
ENDBRANCH   2   3
ENDBRANCH   1   2
BRANCH   1  25
ATOM     25  O   UNL A   1      36.654  21.046  24.650  1.00  0.00    -0.376 OA
BRANCH  25  26
ATOM     26  C   UNL A   1      37.493  19.904  24.584  1.00  0.00     0.202 C 
BRANCH  26  27
ATOM     27  C   UNL A   1      38.527  19.564  25.665  1.00  0.00     0.261 C 
BRANCH  27  28
ATOM     28  O   UNL A   1      39.787  20.228  25.544  1.00  0.00    -0.460 OA
BRANCH  28  29
ATOM     29  C   UNL A   1      40.549  20.206  26.668  1.00  0.00     0.338 C 
ATOM     30  O   UNL A   1      41.096  19.238  27.167  1.00  0.00    -0.246 OA
BRANCH  29  31
ATOM     31  C   UNL A   1      40.781  21.588  27.117  1.00  0.00     0.060 A 
ATOM     32  C   UNL A   1      40.143  22.626  26.426  1.00  0.00     0.016 A 
ATOM     33  C   UNL A   1      41.644  21.861  28.180  1.00  0.00     0.016 A 
ATOM     34  C   UNL A   1      40.383  23.950  26.787  1.00  0.00     0.010 A 
ATOM     35  C   UNL A   1      41.906  23.191  28.521  1.00  0.00     0.010 A 
ATOM     36  C   UNL A   1      41.296  24.240  27.810  1.00  0.00    -0.014 A 
BRANCH  36  37
ATOM     37  C   UNL A   1      41.759  25.633  27.999  1.00  0.00     0.031 A 
ATOM     38  C   UNL A   1      43.145  25.993  27.537  1.00  0.00     0.074 A 
ATOM     39  C   UNL A   1      40.954  26.570  28.531  1.00  0.00     0.049 A 
ATOM     40  N   UNL A   1      43.781  27.130  27.632  1.00  0.00    -0.248 NA
ATOM     41  C   UNL A   1      43.912  24.924  26.876  1.00  0.00     0.031 C 
ATOM     42  C   UNL A   1      39.571  26.357  28.953  1.00  0.00     0.029 A 
ATOM     43  N   UNL A   1      41.190  27.894  28.803  1.00  0.00    -0.354 N 
ATOM     44  C   UNL A   1      45.017  26.920  27.032  1.00  0.00     0.074 A 
ATOM     45  C   UNL A   1      45.054  25.537  26.607  1.00  0.00     0.031 C 
ATOM     46  C   UNL A   1      39.080  27.514  29.432  1.00  0.00     0.029 A 
ATOM     47  C   UNL A   1      40.124  28.538  29.384  1.00  0.00     0.049 A 
ATOM     48  H   UNL A   1      42.044  28.342  28.602  1.00  0.00     0.167 HD
ATOM     49  C   UNL A   1      46.026  27.802  26.843  1.00  0.00     0.034 A 
ATOM     50  C   UNL A   1      40.013  29.801  29.843  1.00  0.00     0.034 A 
ATOM     51  C   UNL A   1      45.992  29.170  27.289  1.00  0.00     0.049 A 
ATOM     52  C   UNL A   1      41.197  30.732  29.737  1.00  0.00     0.074 A 
ATOM     53  C   UNL A   1      46.970  30.140  27.164  1.00  0.00     0.029 A 
ATOM     54  N   UNL A   1      44.927  29.761  27.954  1.00  0.00    -0.354 N 
ATOM     55  N   UNL A   1      42.376  30.510  29.203  1.00  0.00    -0.248 NA
ATOM     56  C   UNL A   1      41.038  32.080  30.301  1.00  0.00     0.031 C 
ATOM     57  C   UNL A   1      46.521  31.299  27.807  1.00  0.00     0.029 A 
ATOM     58  C   UNL A   1      45.237  31.072  28.273  1.00  0.00     0.049 A 
ATOM     59  H   UNL A   1      44.076  29.313  28.169  1.00  0.00     0.167 HD
ATOM     60  C   UNL A   1      43.089  31.696  29.349  1.00  0.00     0.074 A 
ATOM     61  C   UNL A   1      42.210  32.633  30.017  1.00  0.00     0.031 C 
ATOM     62  C   UNL A   1      44.355  31.988  28.957  1.00  0.00     0.034 A 
BRANCH  49  63
ATOM     63  C   UNL A   1      47.267  27.297  26.161  1.00  0.00     0.023 A 
ATOM     64  C   UNL A   1      48.252  26.582  26.866  1.00  0.00     0.031 A 
ATOM     65  C   UNL A   1      47.468  27.530  24.790  1.00  0.00     0.131 A 
ATOM     66  C   UNL A   1      49.414  26.161  26.203  1.00  0.00     0.055 A 
ATOM     67  C   UNL A   1      48.598  27.056  24.124  1.00  0.00     0.041 A 
ATOM     68  F   UNL A   1      46.568  28.228  24.078  1.00  0.00    -0.206 F 
ATOM     69  C   UNL A   1      49.583  26.374  24.832  1.00  0.00     0.022 A 
BRANCH  66  70
ATOM     70  S   UNL A   1      50.743  25.403  27.175  1.00  0.00     0.124 S 
ATOM     71  O   UNL A   1      50.047  24.284  27.805  1.00  0.00    -0.237 OA
ATOM     72  O   UNL A   1      51.723  25.051  26.153  1.00  0.00    -0.237 OA
ATOM     73  O   UNL A   1      51.152  26.470  28.087  1.00  0.00    -0.744 OA
ENDBRANCH  66  70
ENDBRANCH  49  63
BRANCH  50  74
ATOM     74  C   UNL A   1      38.750  30.257  30.487  1.00  0.00     0.023 A 
ATOM     75  C   UNL A   1      37.802  31.006  29.772  1.00  0.00     0.031 A 
ATOM     76  C   UNL A   1      38.488  29.975  31.839  1.00  0.00     0.131 A 
ATOM     77  C   UNL A   1      36.646  31.468  30.420  1.00  0.00     0.055 A 
ATOM     78  C   UNL A   1      37.319  30.404  32.468  1.00  0.00     0.041 A 
ATOM     79  F   UNL A   1      39.365  29.263  32.565  1.00  0.00    -0.206 F 
ATOM     80  C   UNL A   1      36.392  31.161  31.759  1.00  0.00     0.022 A 
BRANCH  77  81
ATOM     81  S   UNL A   1      35.485  32.511  29.495  1.00  0.00     0.124 S 
ATOM     82  O   UNL A   1      36.386  33.245  28.613  1.00  0.00    -0.237 OA
ATOM     83  O   UNL A   1      34.625  31.520  28.858  1.00  0.00    -0.237 OA
ATOM     84  O   UNL A   1      34.843  33.311  30.537  1.00  0.00    -0.744 OA
ENDBRANCH  77  81
ENDBRANCH  50  74
BRANCH  62  85
ATOM     85  C   UNL A   1      44.863  33.382  29.215  1.00  0.00     0.023 A 
ATOM     86  C   UNL A   1      44.431  34.477  28.448  1.00  0.00     0.031 A 
ATOM     87  C   UNL A   1      45.750  33.623  30.280  1.00  0.00     0.131 A 
ATOM     88  C   UNL A   1      44.906  35.764  28.742  1.00  0.00     0.055 A 
ATOM     89  C   UNL A   1      46.184  34.911  30.595  1.00  0.00     0.041 A 
ATOM     90  F   UNL A   1      46.188  32.611  31.045  1.00  0.00    -0.206 F 
ATOM     91  C   UNL A   1      45.766  35.989  29.821  1.00  0.00     0.022 A 
BRANCH  88  92
ATOM     92  S   UNL A   1      44.407  37.144  27.678  1.00  0.00     0.124 S 
ATOM     93  O   UNL A   1      43.448  36.505  26.782  1.00  0.00    -0.237 OA
ATOM     94  O   UNL A   1      43.848  38.095  28.634  1.00  0.00    -0.237 OA
ATOM     95  O   UNL A   1      45.658  37.565  27.050  1.00  0.00    -0.744 OA
ENDBRANCH  88  92
ENDBRANCH  62  85
ENDBRANCH  36  37
ENDBRANCH  29  31
ENDBRANCH  28  29
ENDBRANCH  27  28
ENDBRANCH  26  27
ENDBRANCH  25  26
ENDBRANCH   1  25
TORSDOF 21
ENDMDL
