MODEL 1
REMARK VINA RESULT:      -9.5      0.000      0.000
REMARK SMILES O=CN1CCC[C@@H](C(=O)OCCOCCOCCOC(=O)c2ccc(-c3c4nc(c(-c5cc(S(=O)(=O)[O-])ccc5F)c5ccc([nH]5)c(-c5cc(S(=O)(=O)[O-])ccc5F)c5nc(c(-c6cc(S(=O)(=O)[O-])ccc6F)c6ccc3[nH]6)C=C5)C=C4)cc2)C1
REMARK SMILES IDX 15 1 14 2 13 3 12 4 11 5 10 6 8 7 9 8 7 9 3 10 4 11 85 12
REMARK SMILES IDX 5 13 6 14 2 15 1 16 16 17 17 18 18 19 19 20 20 21 21 22
REMARK SMILES IDX 22 23 23 24 84 25 24 26 83 27 25 28 26 29 27 30 77 31 28 32
REMARK SMILES IDX 82 33 76 34 78 35 29 36 81 37 75 38 74 39 30 41 62 42 42 43
REMARK SMILES IDX 61 44 43 45 46 46 60 47 79 48 44 49 45 50 59 52 80 53 47 54
REMARK SMILES IDX 31 55 32 56 40 57 33 58 39 59 41 60 38 61 34 62 35 63 36 64
REMARK SMILES IDX 37 65 63 66 64 67 72 68 65 69 71 70 73 71 70 72 66 73 67 74
REMARK SMILES IDX 68 75 69 76 48 77 49 78 57 79 50 80 56 81 58 82 55 83 51 84
REMARK SMILES IDX 52 85 53 86 54 87
REMARK H PARENT 78 40 46 51
REMARK Flexibility Score: inf
ROOT
ATOM      1  C   UNL A   1      32.294  28.830  23.807  1.00  0.00     0.188 C 
ENDROOT
BRANCH   1   2
ATOM      2  C   UNL A   1      32.435  27.929  22.563  1.00  0.00     0.188 C 
BRANCH   2   3
ATOM      3  O   UNL A   1      33.606  27.131  22.543  1.00  0.00    -0.376 OA
BRANCH   3   4
ATOM      4  C   UNL A   1      33.410  25.734  22.711  1.00  0.00     0.202 C 
BRANCH   4   5
ATOM      5  C   UNL A   1      31.956  25.275  22.548  1.00  0.00     0.261 C 
BRANCH   5   6
ATOM      6  O   UNL A   1      31.669  24.000  23.157  1.00  0.00    -0.463 OA
BRANCH   6   7
ATOM      7  C   UNL A   1      31.596  24.001  24.515  1.00  0.00     0.310 C 
ATOM      8  O   UNL A   1      30.974  24.823  25.173  1.00  0.00    -0.252 OA
BRANCH   7   9
ATOM      9  C   UNL A   1      32.430  22.883  25.098  1.00  0.00     0.119 C 
ATOM     10  N   UNL A   1      33.548  20.802  24.483  1.00  0.00    -0.344 N 
ATOM     11  C   UNL A   1      34.826  21.170  25.072  1.00  0.00     0.119 C 
ATOM     12  C   UNL A   1      32.740  21.895  23.974  1.00  0.00     0.134 C 
ATOM     13  C   UNL A   1      34.610  22.182  26.198  1.00  0.00     0.022 C 
ATOM     14  C   UNL A   1      33.736  23.365  25.751  1.00  0.00     0.019 C 
BRANCH  10  15
ATOM     15  C   UNL A   1      33.073  19.512  24.476  1.00  0.00     0.339 C 
ATOM     16  O   UNL A   1      32.169  19.079  25.180  1.00  0.00    -0.279 OA
ENDBRANCH  10  15
ENDBRANCH   7   9
ENDBRANCH   6   7
ENDBRANCH   5   6
ENDBRANCH   4   5
ENDBRANCH   3   4
ENDBRANCH   2   3
ENDBRANCH   1   2
BRANCH   1  17
ATOM     17  O   UNL A   1      31.366  28.505  24.837  1.00  0.00    -0.376 OA
BRANCH  17  18
ATOM     18  C   UNL A   1      31.771  28.558  26.197  1.00  0.00     0.202 C 
BRANCH  18  19
ATOM     19  C   UNL A   1      31.989  29.927  26.853  1.00  0.00     0.261 C 
BRANCH  19  20
ATOM     20  O   UNL A   1      33.186  30.603  26.434  1.00  0.00    -0.460 OA
BRANCH  20  21
ATOM     21  C   UNL A   1      33.603  31.599  27.256  1.00  0.00     0.338 C 
ATOM     22  O   UNL A   1      32.965  32.578  27.601  1.00  0.00    -0.246 OA
BRANCH  21  23
ATOM     23  C   UNL A   1      34.918  31.261  27.841  1.00  0.00     0.060 A 
ATOM     24  C   UNL A   1      35.117  29.947  28.284  1.00  0.00     0.016 A 
ATOM     25  C   UNL A   1      35.916  32.223  28.015  1.00  0.00     0.016 A 
ATOM     26  C   UNL A   1      36.301  29.597  28.934  1.00  0.00     0.010 A 
ATOM     27  C   UNL A   1      37.095  31.875  28.687  1.00  0.00     0.010 A 
ATOM     28  C   UNL A   1      37.282  30.569  29.175  1.00  0.00    -0.014 A 
BRANCH  28  29
ATOM     29  C   UNL A   1      38.417  30.257  30.082  1.00  0.00     0.031 A 
ATOM     30  C   UNL A   1      39.442  29.249  29.638  1.00  0.00     0.074 A 
ATOM     31  C   UNL A   1      38.551  30.876  31.269  1.00  0.00     0.049 A 
ATOM     32  N   UNL A   1      40.488  28.789  30.275  1.00  0.00    -0.248 NA
ATOM     33  C   UNL A   1      39.256  28.683  28.293  1.00  0.00     0.031 C 
ATOM     34  C   UNL A   1      37.655  31.906  31.791  1.00  0.00     0.029 A 
ATOM     35  N   UNL A   1      39.494  30.719  32.255  1.00  0.00    -0.354 N 
ATOM     36  C   UNL A   1      41.089  27.881  29.410  1.00  0.00     0.074 A 
ATOM     37  C   UNL A   1      40.270  27.834  28.217  1.00  0.00     0.031 C 
ATOM     38  C   UNL A   1      38.081  32.275  33.013  1.00  0.00     0.029 A 
ATOM     39  C   UNL A   1      39.258  31.485  33.373  1.00  0.00     0.049 A 
ATOM     40  H   UNL A   1      40.266  30.114  32.170  1.00  0.00     0.167 HD
ATOM     41  C   UNL A   1      42.223  27.158  29.589  1.00  0.00     0.034 A 
ATOM     42  C   UNL A   1      39.899  31.521  34.560  1.00  0.00     0.034 A 
ATOM     43  C   UNL A   1      43.019  27.194  30.791  1.00  0.00     0.049 A 
ATOM     44  C   UNL A   1      41.100  30.630  34.777  1.00  0.00     0.074 A 
ATOM     45  C   UNL A   1      44.187  26.506  31.073  1.00  0.00     0.029 A 
ATOM     46  N   UNL A   1      42.719  27.943  31.923  1.00  0.00    -0.354 N 
ATOM     47  N   UNL A   1      41.666  29.784  33.948  1.00  0.00    -0.248 NA
ATOM     48  C   UNL A   1      41.752  30.706  36.092  1.00  0.00     0.031 C 
ATOM     49  C   UNL A   1      44.554  26.785  32.394  1.00  0.00     0.029 A 
ATOM     50  C   UNL A   1      43.660  27.707  32.914  1.00  0.00     0.049 A 
ATOM     51  H   UNL A   1      41.952  28.553  32.008  1.00  0.00     0.167 HD
ATOM     52  C   UNL A   1      42.756  29.251  34.631  1.00  0.00     0.074 A 
ATOM     53  C   UNL A   1      42.776  29.879  35.936  1.00  0.00     0.031 C 
ATOM     54  C   UNL A   1      43.665  28.330  34.217  1.00  0.00     0.034 A 
BRANCH  41  55
ATOM     55  C   UNL A   1      42.628  26.226  28.475  1.00  0.00     0.023 A 
ATOM     56  C   UNL A   1      41.961  25.008  28.251  1.00  0.00     0.031 A 
ATOM     57  C   UNL A   1      43.717  26.545  27.645  1.00  0.00     0.131 A 
ATOM     58  C   UNL A   1      42.433  24.124  27.269  1.00  0.00     0.055 A 
ATOM     59  C   UNL A   1      44.134  25.694  26.620  1.00  0.00     0.041 A 
ATOM     60  F   UNL A   1      44.404  27.684  27.827  1.00  0.00    -0.206 F 
ATOM     61  C   UNL A   1      43.500  24.468  26.436  1.00  0.00     0.022 A 
BRANCH  58  62
ATOM     62  S   UNL A   1      41.718  22.459  27.185  1.00  0.00     0.124 S 
ATOM     63  O   UNL A   1      42.589  21.717  28.095  1.00  0.00    -0.237 OA
ATOM     64  O   UNL A   1      40.352  22.678  27.646  1.00  0.00    -0.237 OA
ATOM     65  O   UNL A   1      41.851  22.099  25.775  1.00  0.00    -0.744 OA
ENDBRANCH  58  62
ENDBRANCH  41  55
BRANCH  42  66
ATOM     66  C   UNL A   1      39.397  32.388  35.664  1.00  0.00     0.023 A 
ATOM     67  C   UNL A   1      39.814  33.723  35.789  1.00  0.00     0.031 A 
ATOM     68  C   UNL A   1      38.542  31.869  36.653  1.00  0.00     0.131 A 
ATOM     69  C   UNL A   1      39.411  34.479  36.901  1.00  0.00     0.055 A 
ATOM     70  C   UNL A   1      38.104  32.641  37.731  1.00  0.00     0.041 A 
ATOM     71  F   UNL A   1      38.115  30.598  36.583  1.00  0.00    -0.206 F 
ATOM     72  C   UNL A   1      38.551  33.951  37.866  1.00  0.00     0.022 A 
BRANCH  69  73
ATOM     73  S   UNL A   1      40.098  36.145  37.112  1.00  0.00     0.124 S 
ATOM     74  O   UNL A   1      41.502  35.855  37.385  1.00  0.00    -0.237 OA
ATOM     75  O   UNL A   1      39.809  36.756  35.820  1.00  0.00    -0.237 OA
ATOM     76  O   UNL A   1      39.340  36.686  38.238  1.00  0.00    -0.744 OA
ENDBRANCH  69  73
ENDBRANCH  42  66
BRANCH  54  77
ATOM     77  C   UNL A   1      44.784  27.987  35.170  1.00  0.00     0.023 A 
ATOM     78  C   UNL A   1      44.655  26.971  36.134  1.00  0.00     0.031 A 
ATOM     79  C   UNL A   1      45.999  28.695  35.115  1.00  0.00     0.131 A 
ATOM     80  C   UNL A   1      45.703  26.726  37.036  1.00  0.00     0.055 A 
ATOM     81  C   UNL A   1      47.058  28.409  35.978  1.00  0.00     0.041 A 
ATOM     82  F   UNL A   1      46.177  29.676  34.216  1.00  0.00    -0.206 F 
ATOM     83  C   UNL A   1      46.908  27.429  36.955  1.00  0.00     0.022 A 
BRANCH  80  84
ATOM     84  S   UNL A   1      45.438  25.535  38.378  1.00  0.00     0.124 S 
ATOM     85  O   UNL A   1      44.735  26.343  39.369  1.00  0.00    -0.237 OA
ATOM     86  O   UNL A   1      44.647  24.498  37.724  1.00  0.00    -0.237 OA
ATOM     87  O   UNL A   1      46.793  25.134  38.754  1.00  0.00    -0.744 OA
ENDBRANCH  80  84
ENDBRANCH  54  77
ENDBRANCH  28  29
ENDBRANCH  21  23
ENDBRANCH  20  21
ENDBRANCH  19  20
ENDBRANCH  18  19
ENDBRANCH  17  18
ENDBRANCH   1  17
TORSDOF 21
ENDMDL
MODEL 2
REMARK VINA RESULT:      -9.3      4.799     10.595
REMARK SMILES O=CN1CCC[C@@H](C(=O)OCCOCCOCCOC(=O)c2ccc(-c3c4nc(c(-c5cc(S(=O)(=O)[O-])ccc5F)c5ccc([nH]5)c(-c5cc(S(=O)(=O)[O-])ccc5F)c5nc(c(-c6cc(S(=O)(=O)[O-])ccc6F)c6ccc3[nH]6)C=C5)C=C4)cc2)C1
REMARK SMILES IDX 15 1 14 2 13 3 12 4 11 5 10 6 8 7 9 8 7 9 3 10 4 11 85 12
REMARK SMILES IDX 5 13 6 14 2 15 1 16 16 17 17 18 18 19 19 20 20 21 21 22
REMARK SMILES IDX 22 23 23 24 84 25 24 26 83 27 25 28 26 29 27 30 77 31 28 32
REMARK SMILES IDX 82 33 76 34 78 35 29 36 81 37 75 38 74 39 30 41 62 42 42 43
REMARK SMILES IDX 61 44 43 45 46 46 60 47 79 48 44 49 45 50 59 52 80 53 47 54
REMARK SMILES IDX 31 55 32 56 40 57 33 58 39 59 41 60 38 61 34 62 35 63 36 64
REMARK SMILES IDX 37 65 63 66 64 67 72 68 65 69 71 70 73 71 70 72 66 73 67 74
REMARK SMILES IDX 68 75 69 76 48 77 49 78 57 79 50 80 56 81 58 82 55 83 51 84
REMARK SMILES IDX 52 85 53 86 54 87
REMARK H PARENT 78 40 46 51
REMARK Flexibility Score: inf
ROOT
ATOM      1  C   UNL A   1      34.943  34.976  33.193  1.00  0.00     0.188 C 
ENDROOT
BRANCH   1   2
ATOM      2  C   UNL A   1      35.507  33.789  34.001  1.00  0.00     0.188 C 
BRANCH   2   3
ATOM      3  O   UNL A   1      35.494  33.973  35.406  1.00  0.00    -0.376 OA
BRANCH   3   4
ATOM      4  C   UNL A   1      36.614  33.457  36.111  1.00  0.00     0.202 C 
BRANCH   4   5
ATOM      5  C   UNL A   1      37.766  32.989  35.213  1.00  0.00     0.261 C 
BRANCH   5   6
ATOM      6  O   UNL A   1      38.115  31.600  35.378  1.00  0.00    -0.463 OA
BRANCH   6   7
ATOM      7  C   UNL A   1      38.349  30.913  34.227  1.00  0.00     0.310 C 
ATOM      8  O   UNL A   1      37.494  30.653  33.392  1.00  0.00    -0.252 OA
BRANCH   7   9
ATOM      9  C   UNL A   1      39.792  30.470  34.150  1.00  0.00     0.119 C 
ATOM     10  N   UNL A   1      41.644  29.714  35.549  1.00  0.00    -0.344 N 
ATOM     11  C   UNL A   1      41.932  28.536  34.747  1.00  0.00     0.119 C 
ATOM     12  C   UNL A   1      40.260  30.153  35.570  1.00  0.00     0.134 C 
ATOM     13  C   UNL A   1      41.469  28.759  33.307  1.00  0.00     0.022 C 
ATOM     14  C   UNL A   1      40.015  29.253  33.237  1.00  0.00     0.019 C 
BRANCH  10  15
ATOM     15  C   UNL A   1      42.623  30.439  36.188  1.00  0.00     0.339 C 
ATOM     16  O   UNL A   1      43.818  30.175  36.196  1.00  0.00    -0.279 OA
ENDBRANCH  10  15
ENDBRANCH   7   9
ENDBRANCH   6   7
ENDBRANCH   5   6
ENDBRANCH   4   5
ENDBRANCH   3   4
ENDBRANCH   2   3
ENDBRANCH   1   2
BRANCH   1  17
ATOM     17  O   UNL A   1      33.593  34.968  32.738  1.00  0.00    -0.376 OA
BRANCH  17  18
ATOM     18  C   UNL A   1      33.037  36.138  32.154  1.00  0.00     0.202 C 
BRANCH  18  19
ATOM     19  C   UNL A   1      32.627  36.104  30.677  1.00  0.00     0.261 C 
BRANCH  19  20
ATOM     20  O   UNL A   1      33.674  35.704  29.778  1.00  0.00    -0.460 OA
BRANCH  20  21
ATOM     21  C   UNL A   1      33.534  34.464  29.246  1.00  0.00     0.338 C 
ATOM     22  O   UNL A   1      32.557  34.021  28.668  1.00  0.00    -0.246 OA
BRANCH  21  23
ATOM     23  C   UNL A   1      34.820  33.735  29.303  1.00  0.00     0.060 A 
ATOM     24  C   UNL A   1      34.946  32.708  30.248  1.00  0.00     0.016 A 
ATOM     25  C   UNL A   1      35.904  34.090  28.498  1.00  0.00     0.016 A 
ATOM     26  C   UNL A   1      36.166  32.053  30.414  1.00  0.00     0.010 A 
ATOM     27  C   UNL A   1      37.135  33.446  28.681  1.00  0.00     0.010 A 
ATOM     28  C   UNL A   1      37.280  32.445  29.659  1.00  0.00    -0.014 A 
BRANCH  28  29
ATOM     29  C   UNL A   1      38.627  31.927  30.014  1.00  0.00     0.031 A 
ATOM     30  C   UNL A   1      39.433  32.658  31.054  1.00  0.00     0.074 A 
ATOM     31  C   UNL A   1      39.118  30.813  29.443  1.00  0.00     0.049 A 
ATOM     32  N   UNL A   1      40.641  32.417  31.492  1.00  0.00    -0.248 NA
ATOM     33  C   UNL A   1      38.783  33.819  31.682  1.00  0.00     0.031 C 
ATOM     34  C   UNL A   1      38.418  29.988  28.460  1.00  0.00     0.029 A 
ATOM     35  N   UNL A   1      40.331  30.188  29.604  1.00  0.00    -0.354 N 
ATOM     36  C   UNL A   1      40.900  33.394  32.448  1.00  0.00     0.074 A 
ATOM     37  C   UNL A   1      39.732  34.248  32.500  1.00  0.00     0.031 C 
ATOM     38  C   UNL A   1      39.221  28.974  28.091  1.00  0.00     0.029 A 
ATOM     39  C   UNL A   1      40.504  29.098  28.783  1.00  0.00     0.049 A 
ATOM     40  H   UNL A   1      41.012  30.492  30.246  1.00  0.00     0.167 HD
ATOM     41  C   UNL A   1      42.005  33.560  33.217  1.00  0.00     0.034 A 
ATOM     42  C   UNL A   1      41.583  28.310  28.591  1.00  0.00     0.034 A 
ATOM     43  C   UNL A   1      43.173  32.719  33.140  1.00  0.00     0.049 A 
ATOM     44  C   UNL A   1      42.842  28.577  29.384  1.00  0.00     0.074 A 
ATOM     45  C   UNL A   1      44.343  32.797  33.877  1.00  0.00     0.029 A 
ATOM     46  N   UNL A   1      43.332  31.655  32.260  1.00  0.00    -0.354 N 
ATOM     47  N   UNL A   1      43.070  29.497  30.293  1.00  0.00    -0.248 NA
ATOM     48  C   UNL A   1      43.987  27.692  29.126  1.00  0.00     0.031 C 
ATOM     49  C   UNL A   1      45.232  31.828  33.397  1.00  0.00     0.029 A 
ATOM     50  C   UNL A   1      44.591  31.094  32.412  1.00  0.00     0.049 A 
ATOM     51  H   UNL A   1      42.650  31.345  31.622  1.00  0.00     0.167 HD
ATOM     52  C   UNL A   1      44.373  29.280  30.735  1.00  0.00     0.074 A 
ATOM     53  C   UNL A   1      44.877  28.137  30.003  1.00  0.00     0.031 C 
ATOM     54  C   UNL A   1      45.088  29.961  31.668  1.00  0.00     0.034 A 
BRANCH  41  55
ATOM     55  C   UNL A   1      42.014  34.735  34.163  1.00  0.00     0.023 A 
ATOM     56  C   UNL A   1      42.599  35.964  33.810  1.00  0.00     0.031 A 
ATOM     57  C   UNL A   1      41.458  34.614  35.449  1.00  0.00     0.131 A 
ATOM     58  C   UNL A   1      42.676  36.999  34.755  1.00  0.00     0.055 A 
ATOM     59  C   UNL A   1      41.471  35.673  36.359  1.00  0.00     0.041 A 
ATOM     60  F   UNL A   1      40.906  33.457  35.848  1.00  0.00    -0.206 F 
ATOM     61  C   UNL A   1      42.095  36.870  36.019  1.00  0.00     0.022 A 
BRANCH  58  62
ATOM     62  S   UNL A   1      43.664  38.466  34.356  1.00  0.00     0.124 S 
ATOM     63  O   UNL A   1      44.104  38.895  35.682  1.00  0.00    -0.237 OA
ATOM     64  O   UNL A   1      44.700  37.923  33.486  1.00  0.00    -0.237 OA
ATOM     65  O   UNL A   1      42.707  39.359  33.706  1.00  0.00    -0.744 OA
ENDBRANCH  58  62
ENDBRANCH  41  55
BRANCH  42  66
ATOM     66  C   UNL A   1      41.554  27.224  27.570  1.00  0.00     0.023 A 
ATOM     67  C   UNL A   1      41.349  25.885  27.938  1.00  0.00     0.031 A 
ATOM     68  C   UNL A   1      41.800  27.505  26.214  1.00  0.00     0.131 A 
ATOM     69  C   UNL A   1      41.438  24.872  26.968  1.00  0.00     0.055 A 
ATOM     70  C   UNL A   1      41.838  26.501  25.246  1.00  0.00     0.041 A 
ATOM     71  F   UNL A   1      42.005  28.769  25.810  1.00  0.00    -0.206 F 
ATOM     72  C   UNL A   1      41.670  25.173  25.624  1.00  0.00     0.022 A 
BRANCH  69  73
ATOM     73  S   UNL A   1      41.328  23.144  27.506  1.00  0.00     0.124 S 
ATOM     74  O   UNL A   1      39.885  22.928  27.520  1.00  0.00    -0.237 OA
ATOM     75  O   UNL A   1      42.070  22.453  26.457  1.00  0.00    -0.237 OA
ATOM     76  O   UNL A   1      41.972  23.153  28.818  1.00  0.00    -0.744 OA
ENDBRANCH  69  73
ENDBRANCH  42  66
BRANCH  54  77
ATOM     77  C   UNL A   1      46.475  29.451  31.982  1.00  0.00     0.023 A 
ATOM     78  C   UNL A   1      46.708  28.508  32.998  1.00  0.00     0.031 A 
ATOM     79  C   UNL A   1      47.581  29.923  31.253  1.00  0.00     0.131 A 
ATOM     80  C   UNL A   1      48.021  28.105  33.291  1.00  0.00     0.055 A 
ATOM     81  C   UNL A   1      48.878  29.477  31.511  1.00  0.00     0.041 A 
ATOM     82  F   UNL A   1      47.418  30.826  30.272  1.00  0.00    -0.206 F 
ATOM     83  C   UNL A   1      49.105  28.573  32.545  1.00  0.00     0.022 A 
BRANCH  80  84
ATOM     84  S   UNL A   1      48.305  27.026  34.721  1.00  0.00     0.124 S 
ATOM     85  O   UNL A   1      49.491  26.283  34.311  1.00  0.00    -0.237 OA
ATOM     86  O   UNL A   1      48.497  27.986  35.804  1.00  0.00    -0.237 OA
ATOM     87  O   UNL A   1      47.077  26.236  34.806  1.00  0.00    -0.744 OA
ENDBRANCH  80  84
ENDBRANCH  54  77
ENDBRANCH  28  29
ENDBRANCH  21  23
ENDBRANCH  20  21
ENDBRANCH  19  20
ENDBRANCH  18  19
ENDBRANCH  17  18
ENDBRANCH   1  17
TORSDOF 21
ENDMDL
MODEL 3
REMARK VINA RESULT:      -9.1      4.322     10.633
REMARK SMILES O=CN1CCC[C@@H](C(=O)OCCOCCOCCOC(=O)c2ccc(-c3c4nc(c(-c5cc(S(=O)(=O)[O-])ccc5F)c5ccc([nH]5)c(-c5cc(S(=O)(=O)[O-])ccc5F)c5nc(c(-c6cc(S(=O)(=O)[O-])ccc6F)c6ccc3[nH]6)C=C5)C=C4)cc2)C1
REMARK SMILES IDX 15 1 14 2 13 3 12 4 11 5 10 6 8 7 9 8 7 9 3 10 4 11 85 12
REMARK SMILES IDX 5 13 6 14 2 15 1 16 16 17 17 18 18 19 19 20 20 21 21 22
REMARK SMILES IDX 22 23 23 24 84 25 24 26 83 27 25 28 26 29 27 30 77 31 28 32
REMARK SMILES IDX 82 33 76 34 78 35 29 36 81 37 75 38 74 39 30 41 62 42 42 43
REMARK SMILES IDX 61 44 43 45 46 46 60 47 79 48 44 49 45 50 59 52 80 53 47 54
REMARK SMILES IDX 31 55 32 56 40 57 33 58 39 59 41 60 38 61 34 62 35 63 36 64
REMARK SMILES IDX 37 65 63 66 64 67 72 68 65 69 71 70 73 71 70 72 66 73 67 74
REMARK SMILES IDX 68 75 69 76 48 77 49 78 57 79 50 80 56 81 58 82 55 83 51 84
REMARK SMILES IDX 52 85 53 86 54 87
REMARK H PARENT 78 40 46 51
REMARK Flexibility Score: inf
ROOT
ATOM      1  C   UNL A   1      35.263  35.451  32.247  1.00  0.00     0.188 C 
ENDROOT
BRANCH   1   2
ATOM      2  C   UNL A   1      36.109  34.430  33.036  1.00  0.00     0.188 C 
BRANCH   2   3
ATOM      3  O   UNL A   1      36.369  34.794  34.381  1.00  0.00    -0.376 OA
BRANCH   3   4
ATOM      4  C   UNL A   1      37.620  34.376  34.908  1.00  0.00     0.202 C 
BRANCH   4   5
ATOM      5  C   UNL A   1      38.813  35.226  34.455  1.00  0.00     0.261 C 
BRANCH   5   6
ATOM      6  O   UNL A   1      39.637  34.597  33.452  1.00  0.00    -0.463 OA
BRANCH   6   7
ATOM      7  C   UNL A   1      40.979  34.665  33.667  1.00  0.00     0.310 C 
ATOM      8  O   UNL A   1      41.542  35.596  34.225  1.00  0.00    -0.252 OA
BRANCH   7   9
ATOM      9  C   UNL A   1      41.679  33.462  33.077  1.00  0.00     0.119 C 
ATOM     10  N   UNL A   1      42.632  32.629  30.990  1.00  0.00    -0.344 N 
ATOM     11  C   UNL A   1      43.908  32.253  31.579  1.00  0.00     0.119 C 
ATOM     12  C   UNL A   1      41.951  33.756  31.603  1.00  0.00     0.134 C 
ATOM     13  C   UNL A   1      43.729  31.964  33.070  1.00  0.00     0.022 C 
ATOM     14  C   UNL A   1      42.990  33.099  33.794  1.00  0.00     0.019 C 
BRANCH  10  15
ATOM     15  C   UNL A   1      42.042  31.920  29.970  1.00  0.00     0.339 C 
ATOM     16  O   UNL A   1      42.481  30.893  29.467  1.00  0.00    -0.279 OA
ENDBRANCH  10  15
ENDBRANCH   7   9
ENDBRANCH   6   7
ENDBRANCH   5   6
ENDBRANCH   4   5
ENDBRANCH   3   4
ENDBRANCH   2   3
ENDBRANCH   1   2
BRANCH   1  17
ATOM     17  O   UNL A   1      33.899  35.179  31.940  1.00  0.00    -0.376 OA
BRANCH  17  18
ATOM     18  C   UNL A   1      33.203  36.007  31.019  1.00  0.00     0.202 C 
BRANCH  18  19
ATOM     19  C   UNL A   1      32.914  35.470  29.612  1.00  0.00     0.261 C 
BRANCH  19  20
ATOM     20  O   UNL A   1      34.075  35.007  28.902  1.00  0.00    -0.460 OA
BRANCH  20  21
ATOM     21  C   UNL A   1      33.936  33.802  28.294  1.00  0.00     0.338 C 
ATOM     22  O   UNL A   1      33.066  33.475  27.506  1.00  0.00    -0.246 OA
BRANCH  21  23
ATOM     23  C   UNL A   1      35.108  32.948  28.582  1.00  0.00     0.060 A 
ATOM     24  C   UNL A   1      34.869  31.659  29.075  1.00  0.00     0.016 A 
ATOM     25  C   UNL A   1      36.416  33.417  28.437  1.00  0.00     0.016 A 
ATOM     26  C   UNL A   1      35.936  30.845  29.457  1.00  0.00     0.010 A 
ATOM     27  C   UNL A   1      37.484  32.607  28.841  1.00  0.00     0.010 A 
ATOM     28  C   UNL A   1      37.249  31.328  29.380  1.00  0.00    -0.014 A 
BRANCH  28  29
ATOM     29  C   UNL A   1      38.352  30.564  30.019  1.00  0.00     0.031 A 
ATOM     30  C   UNL A   1      38.647  30.802  31.476  1.00  0.00     0.074 A 
ATOM     31  C   UNL A   1      39.064  29.657  29.327  1.00  0.00     0.049 A 
ATOM     32  N   UNL A   1      39.582  30.285  32.231  1.00  0.00    -0.248 NA
ATOM     33  C   UNL A   1      37.766  31.753  32.171  1.00  0.00     0.031 C 
ATOM     34  C   UNL A   1      38.844  29.299  27.927  1.00  0.00     0.029 A 
ATOM     35  N   UNL A   1      40.126  28.874  29.712  1.00  0.00    -0.354 N 
ATOM     36  C   UNL A   1      39.404  30.846  33.492  1.00  0.00     0.074 A 
ATOM     37  C   UNL A   1      38.290  31.765  33.387  1.00  0.00     0.031 C 
ATOM     38  C   UNL A   1      39.758  28.381  27.564  1.00  0.00     0.029 A 
ATOM     39  C   UNL A   1      40.647  28.111  28.693  1.00  0.00     0.049 A 
ATOM     40  H   UNL A   1      40.481  28.862  30.630  1.00  0.00     0.167 HD
ATOM     41  C   UNL A   1      40.099  30.611  34.632  1.00  0.00     0.034 A 
ATOM     42  C   UNL A   1      41.734  27.311  28.668  1.00  0.00     0.034 A 
ATOM     43  C   UNL A   1      41.222  29.712  34.721  1.00  0.00     0.049 A 
ATOM     44  C   UNL A   1      42.557  27.144  29.925  1.00  0.00     0.074 A 
ATOM     45  C   UNL A   1      41.991  29.398  35.828  1.00  0.00     0.029 A 
ATOM     46  N   UNL A   1      41.754  28.995  33.655  1.00  0.00    -0.354 N 
ATOM     47  N   UNL A   1      42.371  27.671  31.113  1.00  0.00    -0.248 NA
ATOM     48  C   UNL A   1      43.733  26.268  29.834  1.00  0.00     0.031 C 
ATOM     49  C   UNL A   1      43.026  28.548  35.420  1.00  0.00     0.029 A 
ATOM     50  C   UNL A   1      42.860  28.269  34.073  1.00  0.00     0.049 A 
ATOM     51  H   UNL A   1      41.397  29.001  32.738  1.00  0.00     0.167 HD
ATOM     52  C   UNL A   1      43.390  27.165  31.917  1.00  0.00     0.074 A 
ATOM     53  C   UNL A   1      44.179  26.283  31.083  1.00  0.00     0.031 C 
ATOM     54  C   UNL A   1      43.648  27.401  33.230  1.00  0.00     0.034 A 
BRANCH  41  55
ATOM     55  C   UNL A   1      39.691  31.390  35.858  1.00  0.00     0.023 A 
ATOM     56  C   UNL A   1      40.488  32.427  36.375  1.00  0.00     0.031 A 
ATOM     57  C   UNL A   1      38.504  31.068  36.540  1.00  0.00     0.131 A 
ATOM     58  C   UNL A   1      40.123  33.059  37.573  1.00  0.00     0.055 A 
ATOM     59  C   UNL A   1      38.108  31.752  37.691  1.00  0.00     0.041 A 
ATOM     60  F   UNL A   1      37.715  30.072  36.105  1.00  0.00    -0.206 F 
ATOM     61  C   UNL A   1      38.927  32.744  38.222  1.00  0.00     0.022 A 
BRANCH  58  62
ATOM     62  S   UNL A   1      41.301  34.202  38.345  1.00  0.00     0.124 S 
ATOM     63  O   UNL A   1      41.624  33.500  39.586  1.00  0.00    -0.237 OA
ATOM     64  O   UNL A   1      42.369  34.271  37.355  1.00  0.00    -0.237 OA
ATOM     65  O   UNL A   1      40.526  35.429  38.516  1.00  0.00    -0.744 OA
ENDBRANCH  58  62
ENDBRANCH  41  55
BRANCH  42  66
ATOM     66  C   UNL A   1      42.151  26.643  27.402  1.00  0.00     0.023 A 
ATOM     67  C   UNL A   1      42.031  25.254  27.238  1.00  0.00     0.031 A 
ATOM     68  C   UNL A   1      42.742  27.381  26.361  1.00  0.00     0.131 A 
ATOM     69  C   UNL A   1      42.535  24.641  26.080  1.00  0.00     0.055 A 
ATOM     70  C   UNL A   1      43.196  26.773  25.189  1.00  0.00     0.041 A 
ATOM     71  F   UNL A   1      42.883  28.712  26.467  1.00  0.00    -0.206 F 
ATOM     72  C   UNL A   1      43.106  25.392  25.051  1.00  0.00     0.022 A 
BRANCH  69  73
ATOM     73  S   UNL A   1      42.507  22.830  25.975  1.00  0.00     0.124 S 
ATOM     74  O   UNL A   1      41.085  22.545  26.132  1.00  0.00    -0.237 OA
ATOM     75  O   UNL A   1      43.066  22.597  24.647  1.00  0.00    -0.237 OA
ATOM     76  O   UNL A   1      43.356  22.411  27.087  1.00  0.00    -0.744 OA
ENDBRANCH  69  73
ENDBRANCH  42  66
BRANCH  54  77
ATOM     77  C   UNL A   1      44.803  26.654  33.852  1.00  0.00     0.023 A 
ATOM     78  C   UNL A   1      44.639  25.388  34.441  1.00  0.00     0.031 A 
ATOM     79  C   UNL A   1      46.089  27.225  33.860  1.00  0.00     0.131 A 
ATOM     80  C   UNL A   1      45.731  24.757  35.058  1.00  0.00     0.055 A 
ATOM     81  C   UNL A   1      47.183  26.567  34.424  1.00  0.00     0.041 A 
ATOM     82  F   UNL A   1      46.304  28.432  33.313  1.00  0.00    -0.206 F 
ATOM     83  C   UNL A   1      47.004  25.332  35.040  1.00  0.00     0.022 A 
BRANCH  80  84
ATOM     84  S   UNL A   1      45.449  23.210  35.962  1.00  0.00     0.124 S 
ATOM     85  O   UNL A   1      44.269  22.676  35.290  1.00  0.00    -0.237 OA
ATOM     86  O   UNL A   1      46.694  22.484  35.736  1.00  0.00    -0.237 OA
ATOM     87  O   UNL A   1      45.231  23.652  37.339  1.00  0.00    -0.744 OA
ENDBRANCH  80  84
ENDBRANCH  54  77
ENDBRANCH  28  29
ENDBRANCH  21  23
ENDBRANCH  20  21
ENDBRANCH  19  20
ENDBRANCH  18  19
ENDBRANCH  17  18
ENDBRANCH   1  17
TORSDOF 21
ENDMDL
