MODEL 1
REMARK VINA RESULT:      -9.5      0.000      0.000
REMARK SMILES O=C(CNS(=O)(=O)c1ccc(F)c(F)c1)OCCOCCOCCOC(=O)c1ccc(-c2c3nc(c(-c4cc(S(=O)(=O)[O-])ccc4F)c4ccc([nH]4)c(-c4cc(S(=O)(=O)[O-])ccc4F)c4nc(c(-c5cc(S(=O)(=O)[O-])ccc5F)c5ccc2[nH]5)C=C4)C=C3)cc1
REMARK SMILES IDX 20 1 19 2 18 3 17 4 16 5 2 6 1 7 3 8 4 9 5 11 6 12 7 13 8 14
REMARK SMILES IDX 9 15 15 16 10 17 13 18 11 19 14 20 12 21 21 22 22 23 23 24
REMARK SMILES IDX 24 25 25 26 26 27 27 28 28 29 29 30 90 31 30 32 89 33 31 34
REMARK SMILES IDX 32 35 33 36 83 37 34 38 88 39 82 40 84 41 35 42 87 43 81 44
REMARK SMILES IDX 80 45 36 47 68 48 48 49 67 50 49 51 52 52 66 53 85 54 50 55
REMARK SMILES IDX 51 56 65 58 86 59 53 60 37 61 38 62 46 63 39 64 45 65 47 66
REMARK SMILES IDX 44 67 40 68 41 69 42 70 43 71 69 72 70 73 78 74 71 75 77 76
REMARK SMILES IDX 79 77 76 78 72 79 73 80 74 81 75 82 54 83 55 84 63 85 56 86
REMARK SMILES IDX 62 87 64 88 61 89 57 90 58 91 59 92 60 93
REMARK H PARENT 4 10 84 46 52 57
REMARK Flexibility Score: inf
ROOT
ATOM      1  C   UNL A   1      32.688  21.788  25.970  1.00  0.00     0.188 C 
ENDROOT
BRANCH   1   2
ATOM      2  O   UNL A   1      31.918  21.997  24.787  1.00  0.00    -0.376 OA
BRANCH   2   3
ATOM      3  C   UNL A   1      32.684  22.003  23.583  1.00  0.00     0.202 C 
BRANCH   3   4
ATOM      4  C   UNL A   1      33.455  23.296  23.298  1.00  0.00     0.261 C 
BRANCH   4   5
ATOM      5  O   UNL A   1      32.796  24.202  22.400  1.00  0.00    -0.462 OA
BRANCH   5   6
ATOM      6  C   UNL A   1      33.023  25.529  22.267  1.00  0.00     0.321 C 
ATOM      7  O   UNL A   1      33.522  25.928  21.214  1.00  0.00    -0.251 OA
BRANCH   6   8
ATOM      8  C   UNL A   1      32.761  26.496  23.403  1.00  0.00     0.221 C 
BRANCH   8   9
ATOM      9  N   UNL A   1      31.601  26.228  24.271  1.00  0.00    -0.200 NA
ATOM     10  H   UNL A   1      31.224  25.316  24.014  1.00  0.00     0.142 HD
BRANCH   9  11
ATOM     11  S   UNL A   1      31.899  26.212  25.940  1.00  0.00     0.241 S 
ATOM     12  O   UNL A   1      30.624  26.131  26.613  1.00  0.00    -0.207 OA
ATOM     13  O   UNL A   1      32.942  25.231  26.111  1.00  0.00    -0.207 OA
BRANCH  11  14
ATOM     14  C   UNL A   1      32.618  27.783  26.338  1.00  0.00     0.085 A 
ATOM     15  C   UNL A   1      33.989  27.934  26.549  1.00  0.00     0.025 A 
ATOM     16  C   UNL A   1      31.762  28.887  26.439  1.00  0.00     0.064 A 
ATOM     17  C   UNL A   1      34.520  29.193  26.840  1.00  0.00     0.044 A 
ATOM     18  C   UNL A   1      32.298  30.132  26.752  1.00  0.00     0.160 A 
ATOM     19  C   UNL A   1      33.668  30.286  26.945  1.00  0.00     0.158 A 
ATOM     20  F   UNL A   1      31.484  31.187  26.882  1.00  0.00    -0.204 F 
ATOM     21  F   UNL A   1      34.181  31.487  27.246  1.00  0.00    -0.204 F 
ENDBRANCH  11  14
ENDBRANCH   9  11
ENDBRANCH   8   9
ENDBRANCH   6   8
ENDBRANCH   5   6
ENDBRANCH   4   5
ENDBRANCH   3   4
ENDBRANCH   2   3
ENDBRANCH   1   2
BRANCH   1  22
ATOM     22  C   UNL A   1      33.991  20.986  25.859  1.00  0.00     0.188 C 
BRANCH  22  23
ATOM     23  O   UNL A   1      35.222  21.682  25.912  1.00  0.00    -0.376 OA
BRANCH  23  24
ATOM     24  C   UNL A   1      36.175  21.441  24.883  1.00  0.00     0.202 C 
BRANCH  24  25
ATOM     25  C   UNL A   1      37.311  22.441  24.609  1.00  0.00     0.261 C 
BRANCH  25  26
ATOM     26  O   UNL A   1      37.642  23.318  25.703  1.00  0.00    -0.460 OA
BRANCH  26  27
ATOM     27  C   UNL A   1      38.805  23.016  26.338  1.00  0.00     0.338 C 
ATOM     28  O   UNL A   1      39.337  21.921  26.414  1.00  0.00    -0.246 OA
BRANCH  27  29
ATOM     29  C   UNL A   1      39.418  24.224  26.917  1.00  0.00     0.060 A 
ATOM     30  C   UNL A   1      39.217  24.534  28.269  1.00  0.00     0.016 A 
ATOM     31  C   UNL A   1      40.044  25.139  26.070  1.00  0.00     0.016 A 
ATOM     32  C   UNL A   1      39.647  25.766  28.774  1.00  0.00     0.010 A 
ATOM     33  C   UNL A   1      40.469  26.371  26.578  1.00  0.00     0.010 A 
ATOM     34  C   UNL A   1      40.261  26.703  27.930  1.00  0.00    -0.014 A 
BRANCH  34  35
ATOM     35  C   UNL A   1      40.649  28.052  28.427  1.00  0.00     0.031 A 
ATOM     36  C   UNL A   1      42.100  28.379  28.664  1.00  0.00     0.074 A 
ATOM     37  C   UNL A   1      39.700  28.966  28.708  1.00  0.00     0.049 A 
ATOM     38  N   UNL A   1      42.631  29.440  29.217  1.00  0.00    -0.248 NA
ATOM     39  C   UNL A   1      43.082  27.378  28.219  1.00  0.00     0.031 C 
ATOM     40  C   UNL A   1      38.266  28.786  28.483  1.00  0.00     0.029 A 
ATOM     41  N   UNL A   1      39.797  30.219  29.265  1.00  0.00    -0.354 N 
ATOM     42  C   UNL A   1      44.007  29.233  29.203  1.00  0.00     0.074 A 
ATOM     43  C   UNL A   1      44.226  27.936  28.597  1.00  0.00     0.031 C 
ATOM     44  C   UNL A   1      37.616  29.877  28.920  1.00  0.00     0.029 A 
ATOM     45  C   UNL A   1      38.576  30.810  29.506  1.00  0.00     0.049 A 
ATOM     46  H   UNL A   1      40.656  30.652  29.472  1.00  0.00     0.167 HD
ATOM     47  C   UNL A   1      44.990  30.049  29.656  1.00  0.00     0.034 A 
ATOM     48  C   UNL A   1      38.265  31.946  30.166  1.00  0.00     0.034 A 
ATOM     49  C   UNL A   1      44.757  31.338  30.263  1.00  0.00     0.049 A 
ATOM     50  C   UNL A   1      39.378  32.785  30.753  1.00  0.00     0.074 A 
ATOM     51  C   UNL A   1      45.691  32.258  30.713  1.00  0.00     0.029 A 
ATOM     52  N   UNL A   1      43.509  31.885  30.529  1.00  0.00    -0.354 N 
ATOM     53  N   UNL A   1      40.677  32.594  30.699  1.00  0.00    -0.248 NA
ATOM     54  C   UNL A   1      38.985  33.995  31.491  1.00  0.00     0.031 C 
ATOM     55  C   UNL A   1      45.010  33.309  31.333  1.00  0.00     0.029 A 
ATOM     56  C   UNL A   1      43.650  33.097  31.186  1.00  0.00     0.049 A 
ATOM     57  H   UNL A   1      42.649  31.470  30.286  1.00  0.00     0.167 HD
ATOM     58  C   UNL A   1      41.249  33.673  31.371  1.00  0.00     0.074 A 
ATOM     59  C   UNL A   1      40.159  34.524  31.795  1.00  0.00     0.031 C 
ATOM     60  C   UNL A   1      42.557  33.937  31.617  1.00  0.00     0.034 A 
BRANCH  47  61
ATOM     61  C   UNL A   1      46.417  29.560  29.573  1.00  0.00     0.023 A 
ATOM     62  C   UNL A   1      47.219  29.783  28.442  1.00  0.00     0.031 A 
ATOM     63  C   UNL A   1      46.995  28.898  30.673  1.00  0.00     0.131 A 
ATOM     64  C   UNL A   1      48.544  29.317  28.423  1.00  0.00     0.055 A 
ATOM     65  C   UNL A   1      48.332  28.500  30.674  1.00  0.00     0.041 A 
ATOM     66  F   UNL A   1      46.270  28.640  31.773  1.00  0.00    -0.206 F 
ATOM     67  C   UNL A   1      49.113  28.702  29.541  1.00  0.00     0.022 A 
BRANCH  64  68
ATOM     68  S   UNL A   1      49.487  29.437  26.879  1.00  0.00     0.124 S 
ATOM     69  O   UNL A   1      49.397  30.865  26.586  1.00  0.00    -0.237 OA
ATOM     70  O   UNL A   1      50.804  28.948  27.274  1.00  0.00    -0.237 OA
ATOM     71  O   UNL A   1      48.752  28.572  25.959  1.00  0.00    -0.744 OA
ENDBRANCH  64  68
ENDBRANCH  47  61
BRANCH  48  72
ATOM     72  C   UNL A   1      36.838  32.335  30.387  1.00  0.00     0.023 A 
ATOM     73  C   UNL A   1      36.122  33.047  29.411  1.00  0.00     0.031 A 
ATOM     74  C   UNL A   1      36.203  32.094  31.620  1.00  0.00     0.131 A 
ATOM     75  C   UNL A   1      34.847  33.555  29.708  1.00  0.00     0.055 A 
ATOM     76  C   UNL A   1      34.905  32.535  31.883  1.00  0.00     0.041 A 
ATOM     77  F   UNL A   1      36.843  31.434  32.598  1.00  0.00    -0.206 F 
ATOM     78  C   UNL A   1      34.227  33.288  30.931  1.00  0.00     0.022 A 
BRANCH  75  79
ATOM     79  S   UNL A   1      34.073  34.696  28.528  1.00  0.00     0.124 S 
ATOM     80  O   UNL A   1      34.992  34.621  27.399  1.00  0.00    -0.237 OA
ATOM     81  O   UNL A   1      32.762  34.086  28.331  1.00  0.00    -0.237 OA
ATOM     82  O   UNL A   1      34.065  35.972  29.244  1.00  0.00    -0.744 OA
ENDBRANCH  75  79
ENDBRANCH  48  72
BRANCH  60  83
ATOM     83  C   UNL A   1      42.882  35.218  32.352  1.00  0.00     0.023 A 
ATOM     84  C   UNL A   1      43.402  36.342  31.684  1.00  0.00     0.031 A 
ATOM     85  C   UNL A   1      42.673  35.316  33.740  1.00  0.00     0.131 A 
ATOM     86  C   UNL A   1      43.746  37.493  32.411  1.00  0.00     0.055 A 
ATOM     87  C   UNL A   1      42.952  36.488  34.446  1.00  0.00     0.041 A 
ATOM     88  F   UNL A   1      42.183  34.276  34.433  1.00  0.00    -0.206 F 
ATOM     89  C   UNL A   1      43.505  37.580  33.784  1.00  0.00     0.022 A 
BRANCH  86  90
ATOM     90  S   UNL A   1      44.601  38.844  31.554  1.00  0.00     0.124 S 
ATOM     91  O   UNL A   1      45.710  38.143  30.915  1.00  0.00    -0.237 OA
ATOM     92  O   UNL A   1      43.566  39.350  30.658  1.00  0.00    -0.237 OA
ATOM     93  O   UNL A   1      44.980  39.750  32.636  1.00  0.00    -0.744 OA
ENDBRANCH  86  90
ENDBRANCH  60  83
ENDBRANCH  34  35
ENDBRANCH  27  29
ENDBRANCH  26  27
ENDBRANCH  25  26
ENDBRANCH  24  25
ENDBRANCH  23  24
ENDBRANCH  22  23
ENDBRANCH   1  22
TORSDOF 23
ENDMDL
MODEL 2
REMARK VINA RESULT:      -9.5      2.637      3.433
REMARK SMILES O=C(CNS(=O)(=O)c1ccc(F)c(F)c1)OCCOCCOCCOC(=O)c1ccc(-c2c3nc(c(-c4cc(S(=O)(=O)[O-])ccc4F)c4ccc([nH]4)c(-c4cc(S(=O)(=O)[O-])ccc4F)c4nc(c(-c5cc(S(=O)(=O)[O-])ccc5F)c5ccc2[nH]5)C=C4)C=C3)cc1
REMARK SMILES IDX 20 1 19 2 18 3 17 4 16 5 2 6 1 7 3 8 4 9 5 11 6 12 7 13 8 14
REMARK SMILES IDX 9 15 15 16 10 17 13 18 11 19 14 20 12 21 21 22 22 23 23 24
REMARK SMILES IDX 24 25 25 26 26 27 27 28 28 29 29 30 90 31 30 32 89 33 31 34
REMARK SMILES IDX 32 35 33 36 83 37 34 38 88 39 82 40 84 41 35 42 87 43 81 44
REMARK SMILES IDX 80 45 36 47 68 48 48 49 67 50 49 51 52 52 66 53 85 54 50 55
REMARK SMILES IDX 51 56 65 58 86 59 53 60 37 61 38 62 46 63 39 64 45 65 47 66
REMARK SMILES IDX 44 67 40 68 41 69 42 70 43 71 69 72 70 73 78 74 71 75 77 76
REMARK SMILES IDX 79 77 76 78 72 79 73 80 74 81 75 82 54 83 55 84 63 85 56 86
REMARK SMILES IDX 62 87 64 88 61 89 57 90 58 91 59 92 60 93
REMARK H PARENT 4 10 84 46 52 57
REMARK Flexibility Score: inf
ROOT
ATOM      1  C   UNL A   1      32.964  21.993  25.159  1.00  0.00     0.188 C 
ENDROOT
BRANCH   1   2
ATOM      2  O   UNL A   1      32.042  22.075  24.073  1.00  0.00    -0.376 OA
BRANCH   2   3
ATOM      3  C   UNL A   1      32.657  22.127  22.786  1.00  0.00     0.202 C 
BRANCH   3   4
ATOM      4  C   UNL A   1      33.637  23.285  22.570  1.00  0.00     0.261 C 
BRANCH   4   5
ATOM      5  O   UNL A   1      33.258  24.207  21.537  1.00  0.00    -0.462 OA
BRANCH   5   6
ATOM      6  C   UNL A   1      32.934  25.512  21.686  1.00  0.00     0.321 C 
ATOM      7  O   UNL A   1      33.841  26.344  21.628  1.00  0.00    -0.251 OA
BRANCH   6   8
ATOM      8  C   UNL A   1      31.519  25.946  22.005  1.00  0.00     0.221 C 
BRANCH   8   9
ATOM      9  N   UNL A   1      31.154  27.345  21.716  1.00  0.00    -0.200 NA
ATOM     10  H   UNL A   1      30.728  27.370  20.789  1.00  0.00     0.142 HD
BRANCH   9  11
ATOM     11  S   UNL A   1      30.078  28.080  22.800  1.00  0.00     0.241 S 
ATOM     12  O   UNL A   1      29.547  29.261  22.159  1.00  0.00    -0.207 OA
ATOM     13  O   UNL A   1      29.246  27.000  23.271  1.00  0.00    -0.207 OA
BRANCH  11  14
ATOM     14  C   UNL A   1      31.045  28.611  24.188  1.00  0.00     0.085 A 
ATOM     15  C   UNL A   1      31.029  29.933  24.635  1.00  0.00     0.025 A 
ATOM     16  C   UNL A   1      31.840  27.656  24.834  1.00  0.00     0.064 A 
ATOM     17  C   UNL A   1      31.788  30.307  25.746  1.00  0.00     0.044 A 
ATOM     18  C   UNL A   1      32.611  28.045  25.925  1.00  0.00     0.160 A 
ATOM     19  C   UNL A   1      32.581  29.359  26.382  1.00  0.00     0.158 A 
ATOM     20  F   UNL A   1      33.398  27.146  26.530  1.00  0.00    -0.204 F 
ATOM     21  F   UNL A   1      33.324  29.730  27.434  1.00  0.00    -0.204 F 
ENDBRANCH  11  14
ENDBRANCH   9  11
ENDBRANCH   8   9
ENDBRANCH   6   8
ENDBRANCH   5   6
ENDBRANCH   4   5
ENDBRANCH   3   4
ENDBRANCH   2   3
ENDBRANCH   1   2
BRANCH   1  22
ATOM     22  C   UNL A   1      33.847  20.744  25.274  1.00  0.00     0.188 C 
BRANCH  22  23
ATOM     23  O   UNL A   1      35.252  20.903  25.243  1.00  0.00    -0.376 OA
BRANCH  23  24
ATOM     24  C   UNL A   1      36.054  19.752  25.001  1.00  0.00     0.202 C 
BRANCH  24  25
ATOM     25  C   UNL A   1      37.585  19.859  24.916  1.00  0.00     0.261 C 
BRANCH  25  26
ATOM     26  O   UNL A   1      38.139  21.133  25.297  1.00  0.00    -0.460 OA
BRANCH  26  27
ATOM     27  C   UNL A   1      39.186  21.060  26.161  1.00  0.00     0.338 C 
ATOM     28  O   UNL A   1      39.765  20.051  26.527  1.00  0.00    -0.246 OA
BRANCH  27  29
ATOM     29  C   UNL A   1      39.605  22.404  26.597  1.00  0.00     0.060 A 
ATOM     30  C   UNL A   1      38.929  23.536  26.125  1.00  0.00     0.016 A 
ATOM     31  C   UNL A   1      40.781  22.540  27.334  1.00  0.00     0.016 A 
ATOM     32  C   UNL A   1      39.434  24.813  26.395  1.00  0.00     0.010 A 
ATOM     33  C   UNL A   1      41.285  23.819  27.598  1.00  0.00     0.010 A 
ATOM     34  C   UNL A   1      40.626  24.966  27.119  1.00  0.00    -0.014 A 
BRANCH  34  35
ATOM     35  C   UNL A   1      41.225  26.310  27.344  1.00  0.00     0.031 A 
ATOM     36  C   UNL A   1      42.623  26.601  26.864  1.00  0.00     0.074 A 
ATOM     37  C   UNL A   1      40.535  27.253  28.014  1.00  0.00     0.049 A 
ATOM     38  N   UNL A   1      43.370  27.655  27.079  1.00  0.00    -0.248 NA
ATOM     39  C   UNL A   1      43.264  25.570  26.035  1.00  0.00     0.031 C 
ATOM     40  C   UNL A   1      39.160  27.108  28.492  1.00  0.00     0.029 A 
ATOM     41  N   UNL A   1      40.904  28.509  28.431  1.00  0.00    -0.354 N 
ATOM     42  C   UNL A   1      44.574  27.411  26.426  1.00  0.00     0.074 A 
ATOM     43  C   UNL A   1      44.461  26.102  25.819  1.00  0.00     0.031 C 
ATOM     44  C   UNL A   1      38.810  28.222  29.157  1.00  0.00     0.029 A 
ATOM     45  C   UNL A   1      39.949  29.136  29.202  1.00  0.00     0.049 A 
ATOM     46  H   UNL A   1      41.767  28.922  28.201  1.00  0.00     0.167 HD
ATOM     47  C   UNL A   1      45.670  28.207  26.346  1.00  0.00     0.034 A 
ATOM     48  C   UNL A   1      40.004  30.288  29.904  1.00  0.00     0.034 A 
ATOM     49  C   UNL A   1      45.771  29.510  26.961  1.00  0.00     0.049 A 
ATOM     50  C   UNL A   1      41.277  31.105  29.880  1.00  0.00     0.074 A 
ATOM     51  C   UNL A   1      46.822  30.409  26.898  1.00  0.00     0.029 A 
ATOM     52  N   UNL A   1      44.803  30.092  27.767  1.00  0.00    -0.354 N 
ATOM     53  N   UNL A   1      42.395  30.878  29.228  1.00  0.00    -0.248 NA
ATOM     54  C   UNL A   1      41.297  32.334  30.687  1.00  0.00     0.031 C 
ATOM     55  C   UNL A   1      46.531  31.487  27.739  1.00  0.00     0.029 A 
ATOM     56  C   UNL A   1      45.257  31.309  28.252  1.00  0.00     0.049 A 
ATOM     57  H   UNL A   1      43.923  29.698  27.966  1.00  0.00     0.167 HD
ATOM     58  C   UNL A   1      43.234  31.951  29.527  1.00  0.00     0.074 A 
ATOM     59  C   UNL A   1      42.485  32.836  30.392  1.00  0.00     0.031 C 
ATOM     60  C   UNL A   1      44.509  32.183  29.126  1.00  0.00     0.034 A 
BRANCH  47  61
ATOM     61  C   UNL A   1      46.882  27.679  25.615  1.00  0.00     0.023 A 
ATOM     62  C   UNL A   1      47.166  28.033  24.287  1.00  0.00     0.031 A 
ATOM     63  C   UNL A   1      47.794  26.842  26.286  1.00  0.00     0.131 A 
ATOM     64  C   UNL A   1      48.314  27.522  23.659  1.00  0.00     0.055 A 
ATOM     65  C   UNL A   1      48.968  26.395  25.679  1.00  0.00     0.041 A 
ATOM     66  F   UNL A   1      47.563  26.456  27.551  1.00  0.00    -0.206 F 
ATOM     67  C   UNL A   1      49.231  26.729  24.355  1.00  0.00     0.022 A 
BRANCH  64  68
ATOM     68  S   UNL A   1      48.548  27.828  21.887  1.00  0.00     0.124 S 
ATOM     69  O   UNL A   1      47.522  28.835  21.622  1.00  0.00    -0.237 OA
ATOM     70  O   UNL A   1      49.929  28.293  21.825  1.00  0.00    -0.237 OA
ATOM     71  O   UNL A   1      48.301  26.523  21.277  1.00  0.00    -0.744 OA
ENDBRANCH  64  68
ENDBRANCH  47  61
BRANCH  48  72
ATOM     72  C   UNL A   1      38.855  30.718  30.758  1.00  0.00     0.023 A 
ATOM     73  C   UNL A   1      37.808  31.491  30.230  1.00  0.00     0.031 A 
ATOM     74  C   UNL A   1      38.840  30.452  32.140  1.00  0.00     0.131 A 
ATOM     75  C   UNL A   1      36.834  32.032  31.085  1.00  0.00     0.055 A 
ATOM     76  C   UNL A   1      37.826  30.927  32.974  1.00  0.00     0.041 A 
ATOM     77  F   UNL A   1      39.821  29.733  32.707  1.00  0.00    -0.206 F 
ATOM     78  C   UNL A   1      36.826  31.740  32.451  1.00  0.00     0.022 A 
BRANCH  75  79
ATOM     79  S   UNL A   1      35.664  33.244  30.410  1.00  0.00     0.124 S 
ATOM     80  O   UNL A   1      34.539  32.393  30.040  1.00  0.00    -0.237 OA
ATOM     81  O   UNL A   1      35.452  34.129  31.550  1.00  0.00    -0.237 OA
ATOM     82  O   UNL A   1      36.395  33.835  29.290  1.00  0.00    -0.744 OA
ENDBRANCH  75  79
ENDBRANCH  48  72
BRANCH  60  83
ATOM     83  C   UNL A   1      45.163  33.465  29.591  1.00  0.00     0.023 A 
ATOM     84  C   UNL A   1      45.014  34.671  28.882  1.00  0.00     0.031 A 
ATOM     85  C   UNL A   1      45.950  33.480  30.758  1.00  0.00     0.131 A 
ATOM     86  C   UNL A   1      45.685  35.826  29.315  1.00  0.00     0.055 A 
ATOM     87  C   UNL A   1      46.558  34.648  31.221  1.00  0.00     0.041 A 
ATOM     88  F   UNL A   1      46.133  32.359  31.474  1.00  0.00    -0.206 F 
ATOM     89  C   UNL A   1      46.439  35.827  30.491  1.00  0.00     0.022 A 
BRANCH  86  90
ATOM     90  S   UNL A   1      45.636  37.307  28.269  1.00  0.00     0.124 S 
ATOM     91  O   UNL A   1      45.930  36.755  26.950  1.00  0.00    -0.237 OA
ATOM     92  O   UNL A   1      44.274  37.787  28.470  1.00  0.00    -0.237 OA
ATOM     93  O   UNL A   1      46.682  38.159  28.832  1.00  0.00    -0.744 OA
ENDBRANCH  86  90
ENDBRANCH  60  83
ENDBRANCH  34  35
ENDBRANCH  27  29
ENDBRANCH  26  27
ENDBRANCH  25  26
ENDBRANCH  24  25
ENDBRANCH  23  24
ENDBRANCH  22  23
ENDBRANCH   1  22
TORSDOF 23
ENDMDL
MODEL 3
REMARK VINA RESULT:      -9.1      1.948      2.264
REMARK SMILES O=C(CNS(=O)(=O)c1ccc(F)c(F)c1)OCCOCCOCCOC(=O)c1ccc(-c2c3nc(c(-c4cc(S(=O)(=O)[O-])ccc4F)c4ccc([nH]4)c(-c4cc(S(=O)(=O)[O-])ccc4F)c4nc(c(-c5cc(S(=O)(=O)[O-])ccc5F)c5ccc2[nH]5)C=C4)C=C3)cc1
REMARK SMILES IDX 20 1 19 2 18 3 17 4 16 5 2 6 1 7 3 8 4 9 5 11 6 12 7 13 8 14
REMARK SMILES IDX 9 15 15 16 10 17 13 18 11 19 14 20 12 21 21 22 22 23 23 24
REMARK SMILES IDX 24 25 25 26 26 27 27 28 28 29 29 30 90 31 30 32 89 33 31 34
REMARK SMILES IDX 32 35 33 36 83 37 34 38 88 39 82 40 84 41 35 42 87 43 81 44
REMARK SMILES IDX 80 45 36 47 68 48 48 49 67 50 49 51 52 52 66 53 85 54 50 55
REMARK SMILES IDX 51 56 65 58 86 59 53 60 37 61 38 62 46 63 39 64 45 65 47 66
REMARK SMILES IDX 44 67 40 68 41 69 42 70 43 71 69 72 70 73 78 74 71 75 77 76
REMARK SMILES IDX 79 77 76 78 72 79 73 80 74 81 75 82 54 83 55 84 63 85 56 86
REMARK SMILES IDX 62 87 64 88 61 89 57 90 58 91 59 92 60 93
REMARK H PARENT 4 10 84 46 52 57
REMARK Flexibility Score: inf
ROOT
ATOM      1  C   UNL A   1      32.800  22.248  25.693  1.00  0.00     0.188 C 
ENDROOT
BRANCH   1   2
ATOM      2  O   UNL A   1      32.215  22.259  24.392  1.00  0.00    -0.376 OA
BRANCH   2   3
ATOM      3  C   UNL A   1      33.162  22.298  23.324  1.00  0.00     0.202 C 
BRANCH   3   4
ATOM      4  C   UNL A   1      33.659  23.694  22.935  1.00  0.00     0.261 C 
BRANCH   4   5
ATOM      5  O   UNL A   1      33.287  24.117  21.615  1.00  0.00    -0.462 OA
BRANCH   5   6
ATOM      6  C   UNL A   1      32.892  25.354  21.234  1.00  0.00     0.321 C 
ATOM      7  O   UNL A   1      32.925  25.628  20.033  1.00  0.00    -0.251 OA
BRANCH   6   8
ATOM      8  C   UNL A   1      32.505  26.409  22.249  1.00  0.00     0.221 C 
BRANCH   8   9
ATOM      9  N   UNL A   1      31.167  27.015  22.124  1.00  0.00    -0.200 NA
ATOM     10  H   UNL A   1      30.709  26.594  21.316  1.00  0.00     0.142 HD
BRANCH   9  11
ATOM     11  S   UNL A   1      30.134  26.834  23.456  1.00  0.00     0.241 S 
ATOM     12  O   UNL A   1      28.897  27.515  23.148  1.00  0.00    -0.207 OA
ATOM     13  O   UNL A   1      30.198  25.429  23.775  1.00  0.00    -0.207 OA
BRANCH  11  14
ATOM     14  C   UNL A   1      30.898  27.692  24.806  1.00  0.00     0.085 A 
ATOM     15  C   UNL A   1      31.268  27.036  25.982  1.00  0.00     0.025 A 
ATOM     16  C   UNL A   1      31.124  29.066  24.664  1.00  0.00     0.064 A 
ATOM     17  C   UNL A   1      31.888  27.743  27.014  1.00  0.00     0.044 A 
ATOM     18  C   UNL A   1      31.720  29.766  25.709  1.00  0.00     0.160 A 
ATOM     19  C   UNL A   1      32.105  29.108  26.873  1.00  0.00     0.158 A 
ATOM     20  F   UNL A   1      31.911  31.086  25.594  1.00  0.00    -0.204 F 
ATOM     21  F   UNL A   1      32.680  29.784  27.877  1.00  0.00    -0.204 F 
ENDBRANCH  11  14
ENDBRANCH   9  11
ENDBRANCH   8   9
ENDBRANCH   6   8
ENDBRANCH   5   6
ENDBRANCH   4   5
ENDBRANCH   3   4
ENDBRANCH   2   3
ENDBRANCH   1   2
BRANCH   1  22
ATOM     22  C   UNL A   1      33.901  21.222  25.988  1.00  0.00     0.188 C 
BRANCH  22  23
ATOM     23  O   UNL A   1      35.245  21.664  26.027  1.00  0.00    -0.376 OA
BRANCH  23  24
ATOM     24  C   UNL A   1      36.210  20.949  25.263  1.00  0.00     0.202 C 
BRANCH  24  25
ATOM     25  C   UNL A   1      37.566  21.583  24.911  1.00  0.00     0.261 C 
BRANCH  25  26
ATOM     26  O   UNL A   1      38.010  22.628  25.797  1.00  0.00    -0.460 OA
BRANCH  26  27
ATOM     27  C   UNL A   1      39.226  22.412  26.364  1.00  0.00     0.338 C 
ATOM     28  O   UNL A   1      39.784  21.337  26.513  1.00  0.00    -0.246 OA
BRANCH  27  29
ATOM     29  C   UNL A   1      39.858  23.682  26.758  1.00  0.00     0.060 A 
ATOM     30  C   UNL A   1      40.148  23.934  28.105  1.00  0.00     0.016 A 
ATOM     31  C   UNL A   1      39.999  24.693  25.806  1.00  0.00     0.016 A 
ATOM     32  C   UNL A   1      40.581  25.204  28.500  1.00  0.00     0.010 A 
ATOM     33  C   UNL A   1      40.429  25.963  26.206  1.00  0.00     0.010 A 
ATOM     34  C   UNL A   1      40.709  26.235  27.558  1.00  0.00    -0.014 A 
BRANCH  34  35
ATOM     35  C   UNL A   1      41.087  27.615  27.970  1.00  0.00     0.031 A 
ATOM     36  C   UNL A   1      42.538  28.009  28.041  1.00  0.00     0.074 A 
ATOM     37  C   UNL A   1      40.133  28.499  28.321  1.00  0.00     0.049 A 
ATOM     38  N   UNL A   1      43.077  29.110  28.502  1.00  0.00    -0.248 NA
ATOM     39  C   UNL A   1      43.512  27.035  27.526  1.00  0.00     0.031 C 
ATOM     40  C   UNL A   1      38.693  28.253  28.255  1.00  0.00     0.029 A 
ATOM     41  N   UNL A   1      40.232  29.773  28.827  1.00  0.00    -0.354 N 
ATOM     42  C   UNL A   1      44.451  28.959  28.349  1.00  0.00     0.074 A 
ATOM     43  C   UNL A   1      44.663  27.652  27.763  1.00  0.00     0.031 C 
ATOM     44  C   UNL A   1      38.044  29.331  28.725  1.00  0.00     0.029 A 
ATOM     45  C   UNL A   1      39.018  30.322  29.177  1.00  0.00     0.049 A 
ATOM     46  H   UNL A   1      41.087  30.248  28.928  1.00  0.00     0.167 HD
ATOM     47  C   UNL A   1      45.440  29.830  28.670  1.00  0.00     0.034 A 
ATOM     48  C   UNL A   1      38.727  31.467  29.832  1.00  0.00     0.034 A 
ATOM     49  C   UNL A   1      45.214  31.129  29.259  1.00  0.00     0.049 A 
ATOM     50  C   UNL A   1      39.858  32.371  30.272  1.00  0.00     0.074 A 
ATOM     51  C   UNL A   1      46.149  32.101  29.579  1.00  0.00     0.029 A 
ATOM     52  N   UNL A   1      43.978  31.633  29.638  1.00  0.00    -0.354 N 
ATOM     53  N   UNL A   1      41.151  32.231  30.086  1.00  0.00    -0.248 NA
ATOM     54  C   UNL A   1      39.490  33.589  31.010  1.00  0.00     0.031 C 
ATOM     55  C   UNL A   1      45.491  33.145  30.235  1.00  0.00     0.029 A 
ATOM     56  C   UNL A   1      44.133  32.873  30.240  1.00  0.00     0.049 A 
ATOM     57  H   UNL A   1      43.116  31.176  29.501  1.00  0.00     0.167 HD
ATOM     58  C   UNL A   1      41.741  33.356  30.660  1.00  0.00     0.074 A 
ATOM     59  C   UNL A   1      40.665  34.176  31.171  1.00  0.00     0.031 C 
ATOM     60  C   UNL A   1      43.055  33.681  30.759  1.00  0.00     0.034 A 
BRANCH  47  61
ATOM     61  C   UNL A   1      46.871  29.397  28.451  1.00  0.00     0.023 A 
ATOM     62  C   UNL A   1      47.578  28.646  29.404  1.00  0.00     0.031 A 
ATOM     63  C   UNL A   1      47.518  29.705  27.240  1.00  0.00     0.131 A 
ATOM     64  C   UNL A   1      48.903  28.259  29.145  1.00  0.00     0.055 A 
ATOM     65  C   UNL A   1      48.810  29.258  26.960  1.00  0.00     0.041 A 
ATOM     66  F   UNL A   1      46.898  30.437  26.302  1.00  0.00    -0.206 F 
ATOM     67  C   UNL A   1      49.513  28.537  27.918  1.00  0.00     0.022 A 
BRANCH  64  68
ATOM     68  S   UNL A   1      49.857  27.471  30.471  1.00  0.00     0.124 S 
ATOM     69  O   UNL A   1      49.864  26.075  30.041  1.00  0.00    -0.237 OA
ATOM     70  O   UNL A   1      51.136  28.168  30.397  1.00  0.00    -0.237 OA
ATOM     71  O   UNL A   1      49.067  27.742  31.670  1.00  0.00    -0.744 OA
ENDBRANCH  64  68
ENDBRANCH  47  61
BRANCH  48  72
ATOM     72  C   UNL A   1      37.316  31.806  30.191  1.00  0.00     0.023 A 
ATOM     73  C   UNL A   1      36.441  32.361  29.243  1.00  0.00     0.031 A 
ATOM     74  C   UNL A   1      36.853  31.677  31.514  1.00  0.00     0.131 A 
ATOM     75  C   UNL A   1      35.181  32.834  29.645  1.00  0.00     0.055 A 
ATOM     76  C   UNL A   1      35.571  32.077  31.892  1.00  0.00     0.041 A 
ATOM     77  F   UNL A   1      37.649  31.168  32.468  1.00  0.00    -0.206 F 
ATOM     78  C   UNL A   1      34.733  32.679  30.959  1.00  0.00     0.022 A 
BRANCH  75  79
ATOM     79  S   UNL A   1      34.195  33.789  28.458  1.00  0.00     0.124 S 
ATOM     80  O   UNL A   1      35.225  34.297  27.560  1.00  0.00    -0.237 OA
ATOM     81  O   UNL A   1      33.311  32.768  27.907  1.00  0.00    -0.237 OA
ATOM     82  O   UNL A   1      33.540  34.796  29.291  1.00  0.00    -0.744 OA
ENDBRANCH  75  79
ENDBRANCH  48  72
BRANCH  60  83
ATOM     83  C   UNL A   1      43.398  35.000  31.415  1.00  0.00     0.023 A 
ATOM     84  C   UNL A   1      43.549  35.115  32.809  1.00  0.00     0.031 A 
ATOM     85  C   UNL A   1      43.573  36.159  30.637  1.00  0.00     0.131 A 
ATOM     86  C   UNL A   1      43.809  36.368  33.385  1.00  0.00     0.055 A 
ATOM     87  C   UNL A   1      43.900  37.389  31.210  1.00  0.00     0.041 A 
ATOM     88  F   UNL A   1      43.437  36.113  29.302  1.00  0.00    -0.206 F 
ATOM     89  C   UNL A   1      44.007  37.502  32.593  1.00  0.00     0.022 A 
BRANCH  86  90
ATOM     90  S   UNL A   1      43.796  36.518  35.193  1.00  0.00     0.124 S 
ATOM     91  O   UNL A   1      43.316  37.884  35.380  1.00  0.00    -0.237 OA
ATOM     92  O   UNL A   1      42.873  35.459  35.588  1.00  0.00    -0.237 OA
ATOM     93  O   UNL A   1      45.191  36.294  35.566  1.00  0.00    -0.744 OA
ENDBRANCH  86  90
ENDBRANCH  60  83
ENDBRANCH  34  35
ENDBRANCH  27  29
ENDBRANCH  26  27
ENDBRANCH  25  26
ENDBRANCH  24  25
ENDBRANCH  23  24
ENDBRANCH  22  23
ENDBRANCH   1  22
TORSDOF 23
ENDMDL
