MODEL 1
REMARK VINA RESULT:     -10.4      0.000      0.000
REMARK SMILES COc1cc(OC)cc(-c2cc3nc(C)c(CCC(=O)OCCOCCOCCOC(=O)c4ccc(-c5c6nc(c(-c7cc(S(=O)(=O)[O-])ccc7F)c7ccc([nH]7)c(-c7cc(S(=O)(=O)[O-])ccc7F)c7nc(c(-c8cc(S(=O)(=O)[O-])ccc8F)c8ccc5[nH]8)C=C7)C=C6)cc4)c(C)n3n2)c1
REMARK SMILES IDX 25 1 24 2 23 3 22 4 21 5 19 6 20 7 18 8 17 9 16 10 10 11
REMARK SMILES IDX 11 12 99 13 12 14 98 15 13 16 96 17 14 18 97 19 15 20 9 21
REMARK SMILES IDX 3 22 4 23 100 24 5 25 8 26 2 27 1 28 6 29 7 30 26 31 27 32
REMARK SMILES IDX 28 33 29 34 30 35 31 36 32 37 33 38 34 39 95 40 35 41 94 42
REMARK SMILES IDX 36 43 37 44 38 45 88 46 39 47 93 48 87 49 89 50 40 51 92 52
REMARK SMILES IDX 86 53 85 54 41 56 73 57 53 58 72 59 54 60 57 61 71 62 90 63
REMARK SMILES IDX 55 64 56 65 70 67 91 68 58 69 42 70 43 71 51 72 44 73 50 74
REMARK SMILES IDX 52 75 49 76 45 77 46 78 47 79 48 80 74 81 75 82 83 83 76 84
REMARK SMILES IDX 82 85 84 86 81 87 77 88 78 89 79 90 80 91 59 92 60 93 68 94
REMARK SMILES IDX 61 95 67 96 69 97 66 98 62 99 63 100 64 101 65 102
REMARK H PARENT 89 55 57 66
REMARK Flexibility Score: inf
ROOT
ATOM      1  C   UNL A   1      32.368  28.964  26.309  1.00  0.00     0.188 C 
ENDROOT
BRANCH   1   2
ATOM      2  O   UNL A   1      33.471  28.072  26.429  1.00  0.00    -0.376 OA
BRANCH   2   3
ATOM      3  C   UNL A   1      33.734  27.257  25.292  1.00  0.00     0.202 C 
BRANCH   3   4
ATOM      4  C   UNL A   1      33.886  25.758  25.630  1.00  0.00     0.261 C 
BRANCH   4   5
ATOM      5  O   UNL A   1      34.909  25.085  24.848  1.00  0.00    -0.463 OA
BRANCH   5   6
ATOM      6  C   UNL A   1      34.837  23.752  24.634  1.00  0.00     0.306 C 
ATOM      7  O   UNL A   1      34.933  22.910  25.518  1.00  0.00    -0.252 OA
BRANCH   6   8
ATOM      8  C   UNL A   1      34.664  23.395  23.155  1.00  0.00     0.127 C 
BRANCH   8   9
ATOM      9  C   UNL A   1      33.240  23.165  22.587  1.00  0.00     0.051 C 
BRANCH   9  10
ATOM     10  C   UNL A   1      32.158  24.155  23.005  1.00  0.00    -0.005 A 
ATOM     11  C   UNL A   1      29.850  28.015  22.993  1.00  0.00     0.095 A 
ATOM     12  C   UNL A   1      29.415  27.138  24.021  1.00  0.00     0.080 A 
ATOM     13  N   UNL A   1      30.776  27.425  22.249  1.00  0.00    -0.166 NA
ATOM     14  C   UNL A   1      30.158  25.976  23.868  1.00  0.00     0.156 A 
ATOM     15  N   UNL A   1      31.028  26.251  22.840  1.00  0.00    -0.219 N 
ATOM     16  N   UNL A   1      30.230  24.782  24.529  1.00  0.00    -0.234 NA
ATOM     17  C   UNL A   1      32.037  25.385  22.466  1.00  0.00     0.046 A 
ATOM     18  C   UNL A   1      31.169  23.940  24.158  1.00  0.00     0.045 A 
ATOM     19  C   UNL A   1      32.955  26.017  21.495  1.00  0.00     0.067 C 
ATOM     20  C   UNL A   1      31.252  22.671  24.984  1.00  0.00     0.067 C 
BRANCH  11  21
ATOM     21  C   UNL A   1      29.514  29.381  22.611  1.00  0.00     0.009 A 
ATOM     22  C   UNL A   1      29.249  31.692  23.341  1.00  0.00     0.123 A 
ATOM     23  C   UNL A   1      28.528  31.950  22.178  1.00  0.00     0.092 A 
ATOM     24  C   UNL A   1      29.727  30.404  23.559  1.00  0.00     0.057 A 
ATOM     25  C   UNL A   1      28.295  30.943  21.235  1.00  0.00     0.123 A 
ATOM     26  C   UNL A   1      28.802  29.656  21.444  1.00  0.00     0.057 A 
BRANCH  22  27
ATOM     27  O   UNL A   1      29.376  32.742  24.210  1.00  0.00    -0.497 OA
ATOM     28  C   UNL A   1      29.764  33.985  23.632  1.00  0.00     0.278 C 
ENDBRANCH  22  27
BRANCH  25  29
ATOM     29  O   UNL A   1      27.554  31.340  20.154  1.00  0.00    -0.497 OA
ATOM     30  C   UNL A   1      27.536  32.737  19.884  1.00  0.00     0.278 C 
ENDBRANCH  25  29
ENDBRANCH  11  21
ENDBRANCH   9  10
ENDBRANCH   8   9
ENDBRANCH   6   8
ENDBRANCH   5   6
ENDBRANCH   4   5
ENDBRANCH   3   4
ENDBRANCH   2   3
ENDBRANCH   1   2
BRANCH   1  31
ATOM     31  C   UNL A   1      32.461  30.175  27.228  1.00  0.00     0.188 C 
BRANCH  31  32
ATOM     32  O   UNL A   1      33.488  31.122  26.916  1.00  0.00    -0.376 OA
BRANCH  32  33
ATOM     33  C   UNL A   1      33.690  32.166  27.884  1.00  0.00     0.202 C 
BRANCH  33  34
ATOM     34  C   UNL A   1      35.125  32.430  28.338  1.00  0.00     0.261 C 
BRANCH  34  35
ATOM     35  O   UNL A   1      35.547  31.419  29.220  1.00  0.00    -0.460 OA
BRANCH  35  36
ATOM     36  C   UNL A   1      36.547  31.780  30.056  1.00  0.00     0.338 C 
ATOM     37  O   UNL A   1      36.477  32.329  31.140  1.00  0.00    -0.246 OA
BRANCH  36  38
ATOM     38  C   UNL A   1      37.768  31.308  29.400  1.00  0.00     0.060 A 
ATOM     39  C   UNL A   1      37.627  30.217  28.559  1.00  0.00     0.016 A 
ATOM     40  C   UNL A   1      39.024  31.772  29.858  1.00  0.00     0.016 A 
ATOM     41  C   UNL A   1      38.699  29.372  28.495  1.00  0.00     0.010 A 
ATOM     42  C   UNL A   1      40.101  30.948  29.767  1.00  0.00     0.010 A 
ATOM     43  C   UNL A   1      39.848  29.703  29.231  1.00  0.00    -0.014 A 
BRANCH  43  44
ATOM     44  C   UNL A   1      40.751  28.641  29.549  1.00  0.00     0.031 A 
ATOM     45  C   UNL A   1      40.957  28.499  30.982  1.00  0.00     0.074 A 
ATOM     46  C   UNL A   1      41.376  27.926  28.603  1.00  0.00     0.049 A 
ATOM     47  N   UNL A   1      41.905  29.050  31.654  1.00  0.00    -0.248 NA
ATOM     48  C   UNL A   1      39.881  27.913  31.782  1.00  0.00     0.031 C 
ATOM     49  C   UNL A   1      41.105  27.823  27.167  1.00  0.00     0.029 A 
ATOM     50  N   UNL A   1      42.402  27.068  28.792  1.00  0.00    -0.354 N 
ATOM     51  C   UNL A   1      41.680  28.671  32.959  1.00  0.00     0.074 A 
ATOM     52  C   UNL A   1      40.324  28.185  33.011  1.00  0.00     0.031 C 
ATOM     53  C   UNL A   1      41.820  26.789  26.661  1.00  0.00     0.029 A 
ATOM     54  C   UNL A   1      42.693  26.268  27.703  1.00  0.00     0.049 A 
ATOM     55  H   UNL A   1      42.902  27.016  29.638  1.00  0.00     0.167 HD
ATOM     56  C   UNL A   1      42.719  28.557  33.822  1.00  0.00     0.034 A 
ATOM     57  C   UNL A   1      43.537  25.209  27.716  1.00  0.00     0.034 A 
ATOM     58  C   UNL A   1      43.913  29.193  33.303  1.00  0.00     0.049 A 
ATOM     59  C   UNL A   1      44.508  25.447  28.821  1.00  0.00     0.074 A 
ATOM     60  C   UNL A   1      44.227  30.487  32.929  1.00  0.00     0.029 A 
ATOM     61  N   UNL A   1      44.865  28.394  32.706  1.00  0.00    -0.354 N 
ATOM     62  N   UNL A   1      45.372  26.428  28.802  1.00  0.00    -0.248 NA
ATOM     63  C   UNL A   1      44.197  24.945  30.155  1.00  0.00     0.031 C 
ATOM     64  C   UNL A   1      45.045  30.353  31.767  1.00  0.00     0.029 A 
ATOM     65  C   UNL A   1      45.235  28.991  31.522  1.00  0.00     0.049 A 
ATOM     66  H   UNL A   1      45.217  27.546  33.063  1.00  0.00     0.167 HD
ATOM     67  C   UNL A   1      45.368  26.950  30.089  1.00  0.00     0.074 A 
ATOM     68  C   UNL A   1      44.713  25.928  30.903  1.00  0.00     0.031 C 
ATOM     69  C   UNL A   1      45.635  28.271  30.324  1.00  0.00     0.034 A 
BRANCH  56  70
ATOM     70  C   UNL A   1      42.740  27.579  34.956  1.00  0.00     0.023 A 
ATOM     71  C   UNL A   1      43.493  26.410  34.782  1.00  0.00     0.031 A 
ATOM     72  C   UNL A   1      41.868  27.605  36.070  1.00  0.00     0.131 A 
ATOM     73  C   UNL A   1      43.318  25.318  35.642  1.00  0.00     0.055 A 
ATOM     74  C   UNL A   1      41.757  26.546  36.969  1.00  0.00     0.041 A 
ATOM     75  F   UNL A   1      40.999  28.601  36.290  1.00  0.00    -0.206 F 
ATOM     76  C   UNL A   1      42.465  25.380  36.742  1.00  0.00     0.022 A 
BRANCH  73  77
ATOM     77  S   UNL A   1      44.093  23.748  35.188  1.00  0.00     0.124 S 
ATOM     78  O   UNL A   1      45.002  24.162  34.124  1.00  0.00    -0.237 OA
ATOM     79  O   UNL A   1      44.713  23.346  36.446  1.00  0.00    -0.237 OA
ATOM     80  O   UNL A   1      42.962  22.929  34.758  1.00  0.00    -0.744 OA
ENDBRANCH  73  77
ENDBRANCH  56  70
BRANCH  57  81
ATOM     81  C   UNL A   1      43.265  23.891  27.090  1.00  0.00     0.023 A 
ATOM     82  C   UNL A   1      44.187  23.253  26.239  1.00  0.00     0.031 A 
ATOM     83  C   UNL A   1      42.152  23.124  27.511  1.00  0.00     0.131 A 
ATOM     84  C   UNL A   1      43.974  21.912  25.842  1.00  0.00     0.055 A 
ATOM     85  C   UNL A   1      41.941  21.806  27.108  1.00  0.00     0.041 A 
ATOM     86  F   UNL A   1      41.270  23.605  28.403  1.00  0.00    -0.206 F 
ATOM     87  C   UNL A   1      42.859  21.190  26.276  1.00  0.00     0.022 A 
BRANCH  84  88
ATOM     88  S   UNL A   1      45.214  21.054  24.825  1.00  0.00     0.124 S 
ATOM     89  O   UNL A   1      44.656  21.180  23.484  1.00  0.00    -0.237 OA
ATOM     90  O   UNL A   1      46.425  21.819  25.098  1.00  0.00    -0.237 OA
ATOM     91  O   UNL A   1      45.217  19.694  25.366  1.00  0.00    -0.744 OA
ENDBRANCH  84  88
ENDBRANCH  57  81
BRANCH  69  92
ATOM     92  C   UNL A   1      46.183  29.096  29.172  1.00  0.00     0.023 A 
ATOM     93  C   UNL A   1      45.486  30.156  28.548  1.00  0.00     0.031 A 
ATOM     94  C   UNL A   1      47.509  28.868  28.769  1.00  0.00     0.131 A 
ATOM     95  C   UNL A   1      46.110  30.925  27.546  1.00  0.00     0.055 A 
ATOM     96  C   UNL A   1      48.133  29.644  27.792  1.00  0.00     0.041 A 
ATOM     97  F   UNL A   1      48.239  27.899  29.347  1.00  0.00    -0.206 F 
ATOM     98  C   UNL A   1      47.433  30.673  27.171  1.00  0.00     0.022 A 
BRANCH  95  99
ATOM     99  S   UNL A   1      45.204  32.270  26.713  1.00  0.00     0.124 S 
ATOM    100  O   UNL A   1      45.906  33.472  27.148  1.00  0.00    -0.237 OA
ATOM    101  O   UNL A   1      45.345  31.920  25.302  1.00  0.00    -0.237 OA
ATOM    102  O   UNL A   1      43.842  32.138  27.236  1.00  0.00    -0.744 OA
ENDBRANCH  95  99
ENDBRANCH  69  92
ENDBRANCH  43  44
ENDBRANCH  36  38
ENDBRANCH  35  36
ENDBRANCH  34  35
ENDBRANCH  33  34
ENDBRANCH  32  33
ENDBRANCH  31  32
ENDBRANCH   1  31
TORSDOF 25
ENDMDL
MODEL 2
REMARK VINA RESULT:     -10.0      2.986      6.052
REMARK SMILES COc1cc(OC)cc(-c2cc3nc(C)c(CCC(=O)OCCOCCOCCOC(=O)c4ccc(-c5c6nc(c(-c7cc(S(=O)(=O)[O-])ccc7F)c7ccc([nH]7)c(-c7cc(S(=O)(=O)[O-])ccc7F)c7nc(c(-c8cc(S(=O)(=O)[O-])ccc8F)c8ccc5[nH]8)C=C7)C=C6)cc4)c(C)n3n2)c1
REMARK SMILES IDX 25 1 24 2 23 3 22 4 21 5 19 6 20 7 18 8 17 9 16 10 10 11
REMARK SMILES IDX 11 12 99 13 12 14 98 15 13 16 96 17 14 18 97 19 15 20 9 21
REMARK SMILES IDX 3 22 4 23 100 24 5 25 8 26 2 27 1 28 6 29 7 30 26 31 27 32
REMARK SMILES IDX 28 33 29 34 30 35 31 36 32 37 33 38 34 39 95 40 35 41 94 42
REMARK SMILES IDX 36 43 37 44 38 45 88 46 39 47 93 48 87 49 89 50 40 51 92 52
REMARK SMILES IDX 86 53 85 54 41 56 73 57 53 58 72 59 54 60 57 61 71 62 90 63
REMARK SMILES IDX 55 64 56 65 70 67 91 68 58 69 42 70 43 71 51 72 44 73 50 74
REMARK SMILES IDX 52 75 49 76 45 77 46 78 47 79 48 80 74 81 75 82 83 83 76 84
REMARK SMILES IDX 82 85 84 86 81 87 77 88 78 89 79 90 80 91 59 92 60 93 68 94
REMARK SMILES IDX 61 95 67 96 69 97 66 98 62 99 63 100 64 101 65 102
REMARK H PARENT 89 55 57 66
REMARK Flexibility Score: inf
ROOT
ATOM      1  C   UNL A   1      32.644  28.410  25.216  1.00  0.00     0.188 C 
ENDROOT
BRANCH   1   2
ATOM      2  O   UNL A   1      33.650  27.599  25.815  1.00  0.00    -0.376 OA
BRANCH   2   3
ATOM      3  C   UNL A   1      33.522  26.197  25.601  1.00  0.00     0.202 C 
BRANCH   3   4
ATOM      4  C   UNL A   1      32.058  25.726  25.467  1.00  0.00     0.261 C 
BRANCH   4   5
ATOM      5  O   UNL A   1      31.477  25.263  26.716  1.00  0.00    -0.463 OA
BRANCH   5   6
ATOM      6  C   UNL A   1      30.452  24.382  26.707  1.00  0.00     0.306 C 
ATOM      7  O   UNL A   1      29.274  24.703  26.616  1.00  0.00    -0.252 OA
BRANCH   6   8
ATOM      8  C   UNL A   1      30.914  22.930  26.864  1.00  0.00     0.127 C 
BRANCH   8   9
ATOM      9  C   UNL A   1      31.348  22.128  25.611  1.00  0.00     0.051 C 
BRANCH   9  10
ATOM     10  C   UNL A   1      32.774  22.337  25.113  1.00  0.00    -0.005 A 
ATOM     11  C   UNL A   1      37.241  22.774  25.411  1.00  0.00     0.095 A 
ATOM     12  C   UNL A   1      36.768  23.022  24.095  1.00  0.00     0.080 A 
ATOM     13  N   UNL A   1      36.240  22.395  26.194  1.00  0.00    -0.166 NA
ATOM     14  C   UNL A   1      35.400  22.792  24.134  1.00  0.00     0.156 A 
ATOM     15  N   UNL A   1      35.131  22.508  25.452  1.00  0.00    -0.219 N 
ATOM     16  N   UNL A   1      34.382  22.866  23.225  1.00  0.00    -0.234 NA
ATOM     17  C   UNL A   1      33.846  22.349  25.932  1.00  0.00     0.046 A 
ATOM     18  C   UNL A   1      33.159  22.685  23.670  1.00  0.00     0.045 A 
ATOM     19  C   UNL A   1      33.830  22.276  27.409  1.00  0.00     0.067 C 
ATOM     20  C   UNL A   1      32.068  22.865  22.632  1.00  0.00     0.067 C 
BRANCH  11  21
ATOM     21  C   UNL A   1      38.545  22.861  26.057  1.00  0.00     0.009 A 
ATOM     22  C   UNL A   1      40.469  21.644  26.929  1.00  0.00     0.123 A 
ATOM     23  C   UNL A   1      40.844  22.789  27.628  1.00  0.00     0.092 A 
ATOM     24  C   UNL A   1      39.313  21.682  26.157  1.00  0.00     0.057 A 
ATOM     25  C   UNL A   1      40.084  23.962  27.552  1.00  0.00     0.123 A 
ATOM     26  C   UNL A   1      38.938  24.005  26.751  1.00  0.00     0.057 A 
BRANCH  22  27
ATOM     27  O   UNL A   1      41.263  20.545  27.116  1.00  0.00    -0.497 OA
ATOM     28  C   UNL A   1      41.139  19.515  26.139  1.00  0.00     0.278 C 
ENDBRANCH  22  27
BRANCH  25  29
ATOM     29  O   UNL A   1      40.564  24.997  28.310  1.00  0.00    -0.497 OA
ATOM     30  C   UNL A   1      41.973  25.190  28.288  1.00  0.00     0.278 C 
ENDBRANCH  25  29
ENDBRANCH  11  21
ENDBRANCH   9  10
ENDBRANCH   8   9
ENDBRANCH   6   8
ENDBRANCH   5   6
ENDBRANCH   4   5
ENDBRANCH   3   4
ENDBRANCH   2   3
ENDBRANCH   1   2
BRANCH   1  31
ATOM     31  C   UNL A   1      32.350  29.687  25.990  1.00  0.00     0.188 C 
BRANCH  31  32
ATOM     32  O   UNL A   1      33.477  30.520  26.279  1.00  0.00    -0.376 OA
BRANCH  32  33
ATOM     33  C   UNL A   1      33.668  30.858  27.663  1.00  0.00     0.202 C 
BRANCH  33  34
ATOM     34  C   UNL A   1      35.103  30.877  28.187  1.00  0.00     0.261 C 
BRANCH  34  35
ATOM     35  O   UNL A   1      35.444  29.616  28.710  1.00  0.00    -0.460 OA
BRANCH  35  36
ATOM     36  C   UNL A   1      36.382  29.644  29.684  1.00  0.00     0.338 C 
ATOM     37  O   UNL A   1      36.244  29.486  30.883  1.00  0.00    -0.246 OA
BRANCH  36  38
ATOM     38  C   UNL A   1      37.646  29.849  28.977  1.00  0.00     0.060 A 
ATOM     39  C   UNL A   1      38.019  28.853  28.090  1.00  0.00     0.016 A 
ATOM     40  C   UNL A   1      38.534  30.857  29.422  1.00  0.00     0.016 A 
ATOM     41  C   UNL A   1      39.363  28.644  27.960  1.00  0.00     0.010 A 
ATOM     42  C   UNL A   1      39.871  30.670  29.265  1.00  0.00     0.010 A 
ATOM     43  C   UNL A   1      40.236  29.476  28.681  1.00  0.00    -0.014 A 
BRANCH  43  44
ATOM     44  C   UNL A   1      41.556  28.986  28.927  1.00  0.00     0.031 A 
ATOM     45  C   UNL A   1      41.870  28.927  30.346  1.00  0.00     0.074 A 
ATOM     46  C   UNL A   1      42.407  28.693  27.933  1.00  0.00     0.049 A 
ATOM     47  N   UNL A   1      42.457  29.854  31.015  1.00  0.00    -0.248 NA
ATOM     48  C   UNL A   1      41.255  27.869  31.148  1.00  0.00     0.031 C 
ATOM     49  C   UNL A   1      42.157  28.507  26.502  1.00  0.00     0.029 A 
ATOM     50  N   UNL A   1      43.729  28.444  28.056  1.00  0.00    -0.354 N 
ATOM     51  C   UNL A   1      42.505  29.381  32.308  1.00  0.00     0.074 A 
ATOM     52  C   UNL A   1      41.564  28.291  32.375  1.00  0.00     0.031 C 
ATOM     53  C   UNL A   1      43.261  27.969  25.931  1.00  0.00     0.029 A 
ATOM     54  C   UNL A   1      44.324  27.917  26.925  1.00  0.00     0.049 A 
ATOM     55  H   UNL A   1      44.228  28.622  28.886  1.00  0.00     0.167 HD
ATOM     56  C   UNL A   1      43.506  29.769  33.137  1.00  0.00     0.034 A 
ATOM     57  C   UNL A   1      45.578  27.408  26.868  1.00  0.00     0.034 A 
ATOM     58  C   UNL A   1      44.211  30.922  32.615  1.00  0.00     0.049 A 
ATOM     59  C   UNL A   1      46.358  28.064  27.956  1.00  0.00     0.074 A 
ATOM     60  C   UNL A   1      43.835  32.213  32.289  1.00  0.00     0.029 A 
ATOM     61  N   UNL A   1      45.404  30.707  31.957  1.00  0.00    -0.354 N 
ATOM     62  N   UNL A   1      46.630  29.342  27.958  1.00  0.00    -0.248 NA
ATOM     63  C   UNL A   1      46.392  27.440  29.274  1.00  0.00     0.031 C 
ATOM     64  C   UNL A   1      44.561  32.526  31.101  1.00  0.00     0.029 A 
ATOM     65  C   UNL A   1      45.381  31.439  30.791  1.00  0.00     0.049 A 
ATOM     66  H   UNL A   1      46.142  30.132  32.266  1.00  0.00     0.167 HD
ATOM     67  C   UNL A   1      46.430  29.762  29.266  1.00  0.00     0.074 A 
ATOM     68  C   UNL A   1      46.396  28.530  30.051  1.00  0.00     0.031 C 
ATOM     69  C   UNL A   1      46.027  31.038  29.552  1.00  0.00     0.034 A 
BRANCH  56  70
ATOM     70  C   UNL A   1      44.053  28.898  34.225  1.00  0.00     0.023 A 
ATOM     71  C   UNL A   1      44.677  27.705  33.839  1.00  0.00     0.031 A 
ATOM     72  C   UNL A   1      43.770  29.042  35.604  1.00  0.00     0.131 A 
ATOM     73  C   UNL A   1      44.931  26.698  34.781  1.00  0.00     0.055 A 
ATOM     74  C   UNL A   1      44.097  28.072  36.549  1.00  0.00     0.041 A 
ATOM     75  F   UNL A   1      43.068  30.070  36.098  1.00  0.00    -0.206 F 
ATOM     76  C   UNL A   1      44.657  26.877  36.136  1.00  0.00     0.022 A 
BRANCH  73  77
ATOM     77  S   UNL A   1      45.458  25.080  34.173  1.00  0.00     0.124 S 
ATOM     78  O   UNL A   1      44.997  25.117  32.789  1.00  0.00    -0.237 OA
ATOM     79  O   UNL A   1      46.902  25.142  34.372  1.00  0.00    -0.237 OA
ATOM     80  O   UNL A   1      44.746  24.147  35.042  1.00  0.00    -0.744 OA
ENDBRANCH  73  77
ENDBRANCH  56  70
BRANCH  57  81
ATOM     81  C   UNL A   1      45.957  26.142  26.192  1.00  0.00     0.023 A 
ATOM     82  C   UNL A   1      45.120  25.012  26.179  1.00  0.00     0.031 A 
ATOM     83  C   UNL A   1      47.089  26.106  25.343  1.00  0.00     0.131 A 
ATOM     84  C   UNL A   1      45.429  23.911  25.346  1.00  0.00     0.055 A 
ATOM     85  C   UNL A   1      47.396  25.013  24.533  1.00  0.00     0.041 A 
ATOM     86  F   UNL A   1      47.895  27.172  25.206  1.00  0.00    -0.206 F 
ATOM     87  C   UNL A   1      46.560  23.911  24.525  1.00  0.00     0.022 A 
BRANCH  84  88
ATOM     88  S   UNL A   1      44.295  22.492  25.251  1.00  0.00     0.124 S 
ATOM     89  O   UNL A   1      45.072  21.525  24.483  1.00  0.00    -0.237 OA
ATOM     90  O   UNL A   1      44.073  22.175  26.658  1.00  0.00    -0.237 OA
ATOM     91  O   UNL A   1      43.127  23.034  24.556  1.00  0.00    -0.744 OA
ENDBRANCH  84  88
ENDBRANCH  57  81
BRANCH  69  92
ATOM     92  C   UNL A   1      46.048  32.055  28.423  1.00  0.00     0.023 A 
ATOM     93  C   UNL A   1      47.193  32.786  28.028  1.00  0.00     0.031 A 
ATOM     94  C   UNL A   1      44.887  32.203  27.646  1.00  0.00     0.131 A 
ATOM     95  C   UNL A   1      47.139  33.640  26.910  1.00  0.00     0.055 A 
ATOM     96  C   UNL A   1      44.842  33.034  26.526  1.00  0.00     0.041 A 
ATOM     97  F   UNL A   1      43.775  31.510  27.946  1.00  0.00    -0.206 F 
ATOM     98  C   UNL A   1      45.967  33.762  26.157  1.00  0.00     0.022 A 
BRANCH  95  99
ATOM     99  S   UNL A   1      48.601  34.612  26.419  1.00  0.00     0.124 S 
ATOM    100  O   UNL A   1      49.708  33.906  27.054  1.00  0.00    -0.237 OA
ATOM    101  O   UNL A   1      48.550  34.544  24.961  1.00  0.00    -0.237 OA
ATOM    102  O   UNL A   1      48.329  35.941  26.973  1.00  0.00    -0.744 OA
ENDBRANCH  95  99
ENDBRANCH  69  92
ENDBRANCH  43  44
ENDBRANCH  36  38
ENDBRANCH  35  36
ENDBRANCH  34  35
ENDBRANCH  33  34
ENDBRANCH  32  33
ENDBRANCH  31  32
ENDBRANCH   1  31
TORSDOF 25
ENDMDL
MODEL 3
REMARK VINA RESULT:      -9.3      8.184     14.353
REMARK SMILES COc1cc(OC)cc(-c2cc3nc(C)c(CCC(=O)OCCOCCOCCOC(=O)c4ccc(-c5c6nc(c(-c7cc(S(=O)(=O)[O-])ccc7F)c7ccc([nH]7)c(-c7cc(S(=O)(=O)[O-])ccc7F)c7nc(c(-c8cc(S(=O)(=O)[O-])ccc8F)c8ccc5[nH]8)C=C7)C=C6)cc4)c(C)n3n2)c1
REMARK SMILES IDX 25 1 24 2 23 3 22 4 21 5 19 6 20 7 18 8 17 9 16 10 10 11
REMARK SMILES IDX 11 12 99 13 12 14 98 15 13 16 96 17 14 18 97 19 15 20 9 21
REMARK SMILES IDX 3 22 4 23 100 24 5 25 8 26 2 27 1 28 6 29 7 30 26 31 27 32
REMARK SMILES IDX 28 33 29 34 30 35 31 36 32 37 33 38 34 39 95 40 35 41 94 42
REMARK SMILES IDX 36 43 37 44 38 45 88 46 39 47 93 48 87 49 89 50 40 51 92 52
REMARK SMILES IDX 86 53 85 54 41 56 73 57 53 58 72 59 54 60 57 61 71 62 90 63
REMARK SMILES IDX 55 64 56 65 70 67 91 68 58 69 42 70 43 71 51 72 44 73 50 74
REMARK SMILES IDX 52 75 49 76 45 77 46 78 47 79 48 80 74 81 75 82 83 83 76 84
REMARK SMILES IDX 82 85 84 86 81 87 77 88 78 89 79 90 80 91 59 92 60 93 68 94
REMARK SMILES IDX 61 95 67 96 69 97 66 98 62 99 63 100 64 101 65 102
REMARK H PARENT 89 55 57 66
REMARK Flexibility Score: inf
ROOT
ATOM      1  C   UNL A   1      46.106  43.132  32.833  1.00  0.00     0.188 C 
ENDROOT
BRANCH   1   2
ATOM      2  O   UNL A   1      45.260  42.625  31.807  1.00  0.00    -0.376 OA
BRANCH   2   3
ATOM      3  C   UNL A   1      43.864  42.666  32.080  1.00  0.00     0.202 C 
BRANCH   3   4
ATOM      4  C   UNL A   1      43.338  41.403  32.796  1.00  0.00     0.261 C 
BRANCH   4   5
ATOM      5  O   UNL A   1      42.260  40.736  32.085  1.00  0.00    -0.463 OA
BRANCH   5   6
ATOM      6  C   UNL A   1      42.246  40.711  30.734  1.00  0.00     0.306 C 
ATOM      7  O   UNL A   1      41.448  41.335  30.046  1.00  0.00    -0.252 OA
BRANCH   6   8
ATOM      8  C   UNL A   1      43.313  39.784  30.144  1.00  0.00     0.127 C 
BRANCH   8   9
ATOM      9  C   UNL A   1      43.152  39.258  28.696  1.00  0.00     0.051 C 
BRANCH   9  10
ATOM     10  C   UNL A   1      43.922  39.990  27.602  1.00  0.00    -0.005 A 
ATOM     11  C   UNL A   1      44.497  42.411  23.855  1.00  0.00     0.095 A 
ATOM     12  C   UNL A   1      45.730  41.953  24.388  1.00  0.00     0.080 A 
ATOM     13  N   UNL A   1      43.497  42.070  24.657  1.00  0.00    -0.166 NA
ATOM     14  C   UNL A   1      45.412  41.285  25.562  1.00  0.00     0.156 A 
ATOM     15  N   UNL A   1      44.039  41.310  25.616  1.00  0.00    -0.219 N 
ATOM     16  N   UNL A   1      46.126  40.616  26.516  1.00  0.00    -0.234 NA
ATOM     17  C   UNL A   1      43.319  40.627  26.577  1.00  0.00     0.046 A 
ATOM     18  C   UNL A   1      45.448  39.989  27.451  1.00  0.00     0.045 A 
ATOM     19  C   UNL A   1      41.872  40.641  26.275  1.00  0.00     0.067 C 
ATOM     20  C   UNL A   1      46.292  39.195  28.429  1.00  0.00     0.067 C 
BRANCH  11  21
ATOM     21  C   UNL A   1      44.115  43.137  22.650  1.00  0.00     0.009 A 
ATOM     22  C   UNL A   1      42.400  43.517  20.960  1.00  0.00     0.123 A 
ATOM     23  C   UNL A   1      43.364  44.113  20.152  1.00  0.00     0.092 A 
ATOM     24  C   UNL A   1      42.784  43.018  22.200  1.00  0.00     0.057 A 
ATOM     25  C   UNL A   1      44.693  44.225  20.576  1.00  0.00     0.123 A 
ATOM     26  C   UNL A   1      45.069  43.749  21.837  1.00  0.00     0.057 A 
BRANCH  22  27
ATOM     27  O   UNL A   1      41.145  43.423  20.421  1.00  0.00    -0.497 OA
ATOM     28  C   UNL A   1      41.062  43.575  19.007  1.00  0.00     0.278 C 
ENDBRANCH  22  27
BRANCH  25  29
ATOM     29  O   UNL A   1      45.530  44.815  19.667  1.00  0.00    -0.497 OA
ATOM     30  C   UNL A   1      45.001  45.009  18.361  1.00  0.00     0.278 C 
ENDBRANCH  25  29
ENDBRANCH  11  21
ENDBRANCH   9  10
ENDBRANCH   8   9
ENDBRANCH   6   8
ENDBRANCH   5   6
ENDBRANCH   4   5
ENDBRANCH   3   4
ENDBRANCH   2   3
ENDBRANCH   1   2
BRANCH   1  31
ATOM     31  C   UNL A   1      47.223  42.176  33.230  1.00  0.00     0.188 C 
BRANCH  31  32
ATOM     32  O   UNL A   1      46.818  40.850  33.586  1.00  0.00    -0.376 OA
BRANCH  32  33
ATOM     33  C   UNL A   1      47.235  39.807  32.690  1.00  0.00     0.202 C 
BRANCH  33  34
ATOM     34  C   UNL A   1      47.299  38.387  33.252  1.00  0.00     0.261 C 
BRANCH  34  35
ATOM     35  O   UNL A   1      46.107  37.698  32.965  1.00  0.00    -0.460 OA
BRANCH  35  36
ATOM     36  C   UNL A   1      45.259  37.576  34.012  1.00  0.00     0.338 C 
ATOM     37  O   UNL A   1      45.461  37.806  35.190  1.00  0.00    -0.246 OA
BRANCH  36  38
ATOM     38  C   UNL A   1      43.991  37.155  33.416  1.00  0.00     0.060 A 
ATOM     39  C   UNL A   1      42.899  37.116  34.267  1.00  0.00     0.016 A 
ATOM     40  C   UNL A   1      43.993  36.551  32.135  1.00  0.00     0.016 A 
ATOM     41  C   UNL A   1      41.968  36.154  33.996  1.00  0.00     0.010 A 
ATOM     42  C   UNL A   1      43.049  35.618  31.849  1.00  0.00     0.010 A 
ATOM     43  C   UNL A   1      42.165  35.338  32.870  1.00  0.00    -0.014 A 
BRANCH  43  44
ATOM     44  C   UNL A   1      41.495  34.076  32.849  1.00  0.00     0.031 A 
ATOM     45  C   UNL A   1      40.325  34.083  31.984  1.00  0.00     0.074 A 
ATOM     46  C   UNL A   1      41.888  33.045  33.611  1.00  0.00     0.049 A 
ATOM     47  N   UNL A   1      39.123  34.331  32.366  1.00  0.00    -0.248 NA
ATOM     48  C   UNL A   1      40.534  34.072  30.536  1.00  0.00     0.031 C 
ATOM     49  C   UNL A   1      43.139  32.837  34.343  1.00  0.00     0.029 A 
ATOM     50  N   UNL A   1      41.200  31.903  33.832  1.00  0.00    -0.354 N 
ATOM     51  C   UNL A   1      38.366  34.265  31.216  1.00  0.00     0.074 A 
ATOM     52  C   UNL A   1      39.295  34.337  30.117  1.00  0.00     0.031 C 
ATOM     53  C   UNL A   1      43.197  31.547  34.754  1.00  0.00     0.029 A 
ATOM     54  C   UNL A   1      41.932  30.899  34.440  1.00  0.00     0.049 A 
ATOM     55  H   UNL A   1      40.256  31.794  33.580  1.00  0.00     0.167 HD
ATOM     56  C   UNL A   1      37.063  33.899  31.281  1.00  0.00     0.034 A 
ATOM     57  C   UNL A   1      41.525  29.615  34.583  1.00  0.00     0.034 A 
ATOM     58  C   UNL A   1      36.562  33.954  32.639  1.00  0.00     0.049 A 
ATOM     59  C   UNL A   1      40.034  29.633  34.576  1.00  0.00     0.074 A 
ATOM     60  C   UNL A   1      36.436  34.963  33.577  1.00  0.00     0.029 A 
ATOM     61  N   UNL A   1      36.494  32.776  33.353  1.00  0.00    -0.354 N 
ATOM     62  N   UNL A   1      39.331  30.203  35.519  1.00  0.00    -0.248 NA
ATOM     63  C   UNL A   1      39.332  29.491  33.305  1.00  0.00     0.031 C 
ATOM     64  C   UNL A   1      36.773  34.359  34.826  1.00  0.00     0.029 A 
ATOM     65  C   UNL A   1      37.032  33.006  34.599  1.00  0.00     0.049 A 
ATOM     66  H   UNL A   1      36.126  31.922  33.028  1.00  0.00     0.167 HD
ATOM     67  C   UNL A   1      38.307  30.874  34.864  1.00  0.00     0.074 A 
ATOM     68  C   UNL A   1      38.293  30.308  33.517  1.00  0.00     0.031 C 
ATOM     69  C   UNL A   1      37.759  32.017  35.379  1.00  0.00     0.034 A 
BRANCH  56  70
ATOM     70  C   UNL A   1      36.361  33.166  30.179  1.00  0.00     0.023 A 
ATOM     71  C   UNL A   1      36.711  31.825  29.975  1.00  0.00     0.031 A 
ATOM     72  C   UNL A   1      35.576  33.772  29.169  1.00  0.00     0.131 A 
ATOM     73  C   UNL A   1      36.347  31.168  28.792  1.00  0.00     0.055 A 
ATOM     74  C   UNL A   1      35.148  33.089  28.032  1.00  0.00     0.041 A 
ATOM     75  F   UNL A   1      35.273  35.077  29.169  1.00  0.00    -0.206 F 
ATOM     76  C   UNL A   1      35.558  31.785  27.824  1.00  0.00     0.022 A 
BRANCH  73  77
ATOM     77  S   UNL A   1      37.079  29.548  28.462  1.00  0.00     0.124 S 
ATOM     78  O   UNL A   1      36.077  28.940  27.593  1.00  0.00    -0.237 OA
ATOM     79  O   UNL A   1      38.342  29.915  27.830  1.00  0.00    -0.237 OA
ATOM     80  O   UNL A   1      37.194  28.955  29.792  1.00  0.00    -0.744 OA
ENDBRANCH  73  77
ENDBRANCH  56  70
BRANCH  57  81
ATOM     81  C   UNL A   1      42.363  28.418  34.324  1.00  0.00     0.023 A 
ATOM     82  C   UNL A   1      42.383  27.307  35.187  1.00  0.00     0.031 A 
ATOM     83  C   UNL A   1      43.006  28.262  33.072  1.00  0.00     0.131 A 
ATOM     84  C   UNL A   1      43.028  26.113  34.790  1.00  0.00     0.055 A 
ATOM     85  C   UNL A   1      43.650  27.086  32.690  1.00  0.00     0.041 A 
ATOM     86  F   UNL A   1      42.956  29.226  32.137  1.00  0.00    -0.206 F 
ATOM     87  C   UNL A   1      43.656  26.000  33.546  1.00  0.00     0.022 A 
BRANCH  84  88
ATOM     88  S   UNL A   1      42.969  24.644  35.861  1.00  0.00     0.124 S 
ATOM     89  O   UNL A   1      42.359  25.171  37.076  1.00  0.00    -0.237 OA
ATOM     90  O   UNL A   1      42.159  23.718  35.077  1.00  0.00    -0.237 OA
ATOM     91  O   UNL A   1      44.375  24.261  35.994  1.00  0.00    -0.744 OA
ENDBRANCH  84  88
ENDBRANCH  57  81
BRANCH  69  92
ATOM     92  C   UNL A   1      38.123  32.394  36.805  1.00  0.00     0.023 A 
ATOM     93  C   UNL A   1      37.359  32.043  37.943  1.00  0.00     0.031 A 
ATOM     94  C   UNL A   1      39.353  33.037  37.025  1.00  0.00     0.131 A 
ATOM     95  C   UNL A   1      37.823  32.358  39.234  1.00  0.00     0.055 A 
ATOM     96  C   UNL A   1      39.820  33.329  38.307  1.00  0.00     0.041 A 
ATOM     97  F   UNL A   1      40.143  33.365  35.989  1.00  0.00    -0.206 F 
ATOM     98  C   UNL A   1      39.053  32.997  39.418  1.00  0.00     0.022 A 
BRANCH  95  99
ATOM     99  S   UNL A   1      36.826  31.941  40.702  1.00  0.00     0.124 S 
ATOM    100  O   UNL A   1      37.733  31.135  41.512  1.00  0.00    -0.237 OA
ATOM    101  O   UNL A   1      36.485  33.256  41.238  1.00  0.00    -0.237 OA
ATOM    102  O   UNL A   1      35.691  31.202  40.144  1.00  0.00    -0.744 OA
ENDBRANCH  95  99
ENDBRANCH  69  92
ENDBRANCH  43  44
ENDBRANCH  36  38
ENDBRANCH  35  36
ENDBRANCH  34  35
ENDBRANCH  33  34
ENDBRANCH  32  33
ENDBRANCH  31  32
ENDBRANCH   1  31
TORSDOF 25
ENDMDL
