MODEL 1
REMARK VINA RESULT:      -9.1      0.000      0.000
REMARK SMILES O=C(C[C@@H]1COCCN1C(=O)c1csc(Cc2ccccc2)n1)OCCOCCOCCOC(=O)c1ccc(-c2c3nc(c(-c4cc(S(=O)(=O)[O-])ccc4F)c4ccc([nH]4)c(-c4cc(S(=O)(=O)[O-])ccc4F)c4nc(c(-c5cc(S(=O)(=O)[O-])ccc5F)c5ccc2[nH]5)C=C4)C=C3)cc1
REMARK SMILES IDX 28 1 27 2 26 3 25 4 24 5 2 6 1 7 3 8 4 9 5 10 9 11 6 12 8 13
REMARK SMILES IDX 7 14 10 15 11 16 12 17 13 18 23 19 14 20 15 21 16 22 17 23
REMARK SMILES IDX 18 24 22 25 19 26 21 27 20 28 29 29 30 30 31 31 32 32 33 33
REMARK SMILES IDX 34 34 35 35 36 36 37 37 98 38 38 39 97 40 39 41 40 42 41 43
REMARK SMILES IDX 91 44 42 45 96 46 90 47 92 48 43 49 95 50 89 51 88 52 44 54
REMARK SMILES IDX 76 55 56 56 75 57 57 58 60 59 74 60 93 61 58 62 59 63 73 65
REMARK SMILES IDX 94 66 61 67 45 68 46 69 54 70 47 71 53 72 55 73 52 74 48 75
REMARK SMILES IDX 49 76 50 77 51 78 77 79 78 80 86 81 79 82 85 83 87 84 84 85
REMARK SMILES IDX 80 86 81 87 82 88 83 89 62 90 63 91 71 92 64 93 70 94 72 95
REMARK SMILES IDX 69 96 65 97 66 98 67 99 68 100
REMARK H PARENT 92 53 60 64
REMARK Flexibility Score: inf
ROOT
ATOM      1  C   UNL A   1      35.386  30.092  27.735  1.00  0.00     0.188 C 
ENDROOT
BRANCH   1   2
ATOM      2  O   UNL A   1      34.322  29.200  27.449  1.00  0.00    -0.376 OA
BRANCH   2   3
ATOM      3  C   UNL A   1      33.968  28.965  26.106  1.00  0.00     0.202 C 
BRANCH   3   4
ATOM      4  C   UNL A   1      32.614  28.265  25.930  1.00  0.00     0.261 C 
BRANCH   4   5
ATOM      5  O   UNL A   1      32.274  27.224  26.869  1.00  0.00    -0.463 OA
BRANCH   5   6
ATOM      6  C   UNL A   1      32.316  25.899  26.626  1.00  0.00     0.308 C 
ATOM      7  O   UNL A   1      31.395  25.174  26.991  1.00  0.00    -0.252 OA
BRANCH   6   8
ATOM      8  C   UNL A   1      33.554  25.331  25.990  1.00  0.00     0.150 C 
BRANCH   8   9
ATOM      9  C   UNL A   1      33.451  23.886  25.568  1.00  0.00     0.122 C 
ATOM     10  C   UNL A   1      34.733  23.034  25.701  1.00  0.00     0.185 C 
ATOM     11  N   UNL A   1      32.719  23.499  24.330  1.00  0.00    -0.329 N 
ATOM     12  O   UNL A   1      34.391  21.635  25.748  1.00  0.00    -0.377 OA
ATOM     13  C   UNL A   1      32.418  22.053  24.351  1.00  0.00     0.148 C 
ATOM     14  C   UNL A   1      33.698  21.237  24.556  1.00  0.00     0.181 C 
BRANCH  11  15
ATOM     15  C   UNL A   1      32.326  24.176  23.156  1.00  0.00     0.273 C 
ATOM     16  O   UNL A   1      32.578  23.643  22.070  1.00  0.00    -0.267 OA
BRANCH  15  17
ATOM     17  C   UNL A   1      31.545  25.432  23.112  1.00  0.00     0.139 A 
ATOM     18  C   UNL A   1      30.254  25.445  23.618  1.00  0.00     0.101 A 
ATOM     19  N   UNL A   1      31.900  26.649  22.516  1.00  0.00    -0.236 NA
ATOM     20  S   UNL A   1      29.545  26.983  23.490  1.00  0.00    -0.126 S 
ATOM     21  C   UNL A   1      30.968  27.571  22.727  1.00  0.00     0.098 A 
BRANCH  21  22
ATOM     22  C   UNL A   1      31.161  29.056  22.483  1.00  0.00     0.103 C 
BRANCH  22  23
ATOM     23  C   UNL A   1      29.931  29.943  22.558  1.00  0.00    -0.041 A 
ATOM     24  C   UNL A   1      29.114  30.133  21.437  1.00  0.00     0.004 A 
ATOM     25  C   UNL A   1      29.585  30.602  23.749  1.00  0.00     0.004 A 
ATOM     26  C   UNL A   1      27.976  30.942  21.515  1.00  0.00     0.000 A 
ATOM     27  C   UNL A   1      28.436  31.389  23.836  1.00  0.00     0.000 A 
ATOM     28  C   UNL A   1      27.631  31.560  22.717  1.00  0.00     0.000 A 
ENDBRANCH  22  23
ENDBRANCH  21  22
ENDBRANCH  15  17
ENDBRANCH  11  15
ENDBRANCH   8   9
ENDBRANCH   6   8
ENDBRANCH   5   6
ENDBRANCH   4   5
ENDBRANCH   3   4
ENDBRANCH   2   3
ENDBRANCH   1   2
BRANCH   1  29
ATOM     29  C   UNL A   1      34.955  31.567  27.647  1.00  0.00     0.188 C 
BRANCH  29  30
ATOM     30  O   UNL A   1      35.836  32.560  28.157  1.00  0.00    -0.376 OA
BRANCH  30  31
ATOM     31  C   UNL A   1      35.274  33.769  28.658  1.00  0.00     0.202 C 
BRANCH  31  32
ATOM     32  C   UNL A   1      34.218  33.695  29.775  1.00  0.00     0.261 C 
BRANCH  32  33
ATOM     33  O   UNL A   1      34.396  32.641  30.749  1.00  0.00    -0.460 OA
BRANCH  33  34
ATOM     34  C   UNL A   1      35.123  32.988  31.840  1.00  0.00     0.338 C 
ATOM     35  O   UNL A   1      34.739  33.674  32.779  1.00  0.00    -0.246 OA
BRANCH  34  36
ATOM     36  C   UNL A   1      36.446  32.328  31.866  1.00  0.00     0.060 A 
ATOM     37  C   UNL A   1      37.460  32.922  32.627  1.00  0.00     0.016 A 
ATOM     38  C   UNL A   1      36.753  31.283  30.989  1.00  0.00     0.016 A 
ATOM     39  C   UNL A   1      38.785  32.511  32.472  1.00  0.00     0.010 A 
ATOM     40  C   UNL A   1      38.092  30.887  30.821  1.00  0.00     0.010 A 
ATOM     41  C   UNL A   1      39.121  31.531  31.531  1.00  0.00    -0.014 A 
BRANCH  41  42
ATOM     42  C   UNL A   1      40.553  31.398  31.139  1.00  0.00     0.031 A 
ATOM     43  C   UNL A   1      41.237  32.585  30.511  1.00  0.00     0.074 A 
ATOM     44  C   UNL A   1      41.277  30.303  31.438  1.00  0.00     0.049 A 
ATOM     45  N   UNL A   1      42.474  32.719  30.107  1.00  0.00    -0.248 NA
ATOM     46  C   UNL A   1      40.405  33.782  30.320  1.00  0.00     0.031 C 
ATOM     47  C   UNL A   1      40.760  29.121  32.118  1.00  0.00     0.029 A 
ATOM     48  N   UNL A   1      42.607  30.021  31.236  1.00  0.00    -0.354 N 
ATOM     49  C   UNL A   1      42.566  34.008  29.590  1.00  0.00     0.074 A 
ATOM     50  C   UNL A   1      41.255  34.606  29.731  1.00  0.00     0.031 C 
ATOM     51  C   UNL A   1      41.772  28.257  32.315  1.00  0.00     0.029 A 
ATOM     52  C   UNL A   1      42.998  28.799  31.731  1.00  0.00     0.049 A 
ATOM     53  H   UNL A   1      43.223  30.638  30.778  1.00  0.00     0.167 HD
ATOM     54  C   UNL A   1      43.637  34.630  29.035  1.00  0.00     0.034 A 
ATOM     55  C   UNL A   1      44.199  28.179  31.704  1.00  0.00     0.034 A 
ATOM     56  C   UNL A   1      44.932  34.016  28.872  1.00  0.00     0.049 A 
ATOM     57  C   UNL A   1      45.356  28.857  31.005  1.00  0.00     0.074 A 
ATOM     58  C   UNL A   1      46.065  34.534  28.265  1.00  0.00     0.029 A 
ATOM     59  N   UNL A   1      45.269  32.741  29.307  1.00  0.00    -0.354 N 
ATOM     60  N   UNL A   1      45.411  30.048  30.454  1.00  0.00    -0.248 NA
ATOM     61  C   UNL A   1      46.609  28.093  30.904  1.00  0.00     0.031 C 
ATOM     62  C   UNL A   1      47.060  33.550  28.273  1.00  0.00     0.029 A 
ATOM     63  C   UNL A   1      46.579  32.444  28.956  1.00  0.00     0.049 A 
ATOM     64  H   UNL A   1      44.666  32.134  29.795  1.00  0.00     0.167 HD
ATOM     65  C   UNL A   1      46.706  30.178  29.956  1.00  0.00     0.074 A 
ATOM     66  C   UNL A   1      47.406  28.957  30.293  1.00  0.00     0.031 C 
ATOM     67  C   UNL A   1      47.265  31.214  29.278  1.00  0.00     0.034 A 
BRANCH  54  68
ATOM     68  C   UNL A   1      43.396  36.010  28.471  1.00  0.00     0.023 A 
ATOM     69  C   UNL A   1      43.694  37.175  29.201  1.00  0.00     0.031 A 
ATOM     70  C   UNL A   1      42.762  36.158  27.225  1.00  0.00     0.131 A 
ATOM     71  C   UNL A   1      43.268  38.424  28.725  1.00  0.00     0.055 A 
ATOM     72  C   UNL A   1      42.422  37.412  26.715  1.00  0.00     0.041 A 
ATOM     73  F   UNL A   1      42.429  35.081  26.495  1.00  0.00    -0.206 F 
ATOM     74  C   UNL A   1      42.655  38.553  27.476  1.00  0.00     0.022 A 
BRANCH  71  75
ATOM     75  S   UNL A   1      43.347  39.851  29.845  1.00  0.00     0.124 S 
ATOM     76  O   UNL A   1      42.012  40.425  29.682  1.00  0.00    -0.237 OA
ATOM     77  O   UNL A   1      43.622  39.224  31.132  1.00  0.00    -0.237 OA
ATOM     78  O   UNL A   1      44.434  40.657  29.295  1.00  0.00    -0.744 OA
ENDBRANCH  71  75
ENDBRANCH  54  68
BRANCH  55  79
ATOM     79  C   UNL A   1      44.374  26.818  32.298  1.00  0.00     0.023 A 
ATOM     80  C   UNL A   1      44.646  26.647  33.667  1.00  0.00     0.031 A 
ATOM     81  C   UNL A   1      44.344  25.668  31.489  1.00  0.00     0.131 A 
ATOM     82  C   UNL A   1      44.916  25.365  34.175  1.00  0.00     0.055 A 
ATOM     83  C   UNL A   1      44.551  24.389  32.011  1.00  0.00     0.041 A 
ATOM     84  F   UNL A   1      44.106  25.769  30.172  1.00  0.00    -0.206 F 
ATOM     85  C   UNL A   1      44.852  24.233  33.360  1.00  0.00     0.022 A 
BRANCH  82  86
ATOM     86  S   UNL A   1      45.446  25.199  35.903  1.00  0.00     0.124 S 
ATOM     87  O   UNL A   1      44.826  26.370  36.516  1.00  0.00    -0.237 OA
ATOM     88  O   UNL A   1      44.882  23.906  36.275  1.00  0.00    -0.237 OA
ATOM     89  O   UNL A   1      46.905  25.239  35.818  1.00  0.00    -0.744 OA
ENDBRANCH  82  86
ENDBRANCH  55  79
BRANCH  67  90
ATOM     90  C   UNL A   1      48.718  31.080  28.886  1.00  0.00     0.023 A 
ATOM     91  C   UNL A   1      49.113  30.422  27.705  1.00  0.00     0.031 A 
ATOM     92  C   UNL A   1      49.725  31.611  29.712  1.00  0.00     0.131 A 
ATOM     93  C   UNL A   1      50.478  30.269  27.412  1.00  0.00     0.055 A 
ATOM     94  C   UNL A   1      51.078  31.504  29.386  1.00  0.00     0.041 A 
ATOM     95  F   UNL A   1      49.408  32.248  30.850  1.00  0.00    -0.206 F 
ATOM     96  C   UNL A   1      51.461  30.819  28.237  1.00  0.00     0.022 A 
BRANCH  93  97
ATOM     97  S   UNL A   1      50.958  29.264  25.978  1.00  0.00     0.124 S 
ATOM     98  O   UNL A   1      51.931  28.346  26.560  1.00  0.00    -0.237 OA
ATOM     99  O   UNL A   1      49.687  28.673  25.572  1.00  0.00    -0.237 OA
ATOM    100  O   UNL A   1      51.510  30.243  25.043  1.00  0.00    -0.744 OA
ENDBRANCH  93  97
ENDBRANCH  67  90
ENDBRANCH  41  42
ENDBRANCH  34  36
ENDBRANCH  33  34
ENDBRANCH  32  33
ENDBRANCH  31  32
ENDBRANCH  30  31
ENDBRANCH  29  30
ENDBRANCH   1  29
TORSDOF 25
ENDMDL
MODEL 2
REMARK VINA RESULT:      -8.8      4.539      8.892
REMARK SMILES O=C(C[C@@H]1COCCN1C(=O)c1csc(Cc2ccccc2)n1)OCCOCCOCCOC(=O)c1ccc(-c2c3nc(c(-c4cc(S(=O)(=O)[O-])ccc4F)c4ccc([nH]4)c(-c4cc(S(=O)(=O)[O-])ccc4F)c4nc(c(-c5cc(S(=O)(=O)[O-])ccc5F)c5ccc2[nH]5)C=C4)C=C3)cc1
REMARK SMILES IDX 28 1 27 2 26 3 25 4 24 5 2 6 1 7 3 8 4 9 5 10 9 11 6 12 8 13
REMARK SMILES IDX 7 14 10 15 11 16 12 17 13 18 23 19 14 20 15 21 16 22 17 23
REMARK SMILES IDX 18 24 22 25 19 26 21 27 20 28 29 29 30 30 31 31 32 32 33 33
REMARK SMILES IDX 34 34 35 35 36 36 37 37 98 38 38 39 97 40 39 41 40 42 41 43
REMARK SMILES IDX 91 44 42 45 96 46 90 47 92 48 43 49 95 50 89 51 88 52 44 54
REMARK SMILES IDX 76 55 56 56 75 57 57 58 60 59 74 60 93 61 58 62 59 63 73 65
REMARK SMILES IDX 94 66 61 67 45 68 46 69 54 70 47 71 53 72 55 73 52 74 48 75
REMARK SMILES IDX 49 76 50 77 51 78 77 79 78 80 86 81 79 82 85 83 87 84 84 85
REMARK SMILES IDX 80 86 81 87 82 88 83 89 62 90 63 91 71 92 64 93 70 94 72 95
REMARK SMILES IDX 69 96 65 97 66 98 67 99 68 100
REMARK H PARENT 92 53 60 64
REMARK Flexibility Score: inf
ROOT
ATOM      1  C   UNL A   1      40.645  25.848  27.747  1.00  0.00     0.188 C 
ENDROOT
BRANCH   1   2
ATOM      2  O   UNL A   1      39.914  26.402  28.827  1.00  0.00    -0.376 OA
BRANCH   2   3
ATOM      3  C   UNL A   1      39.773  27.801  28.912  1.00  0.00     0.202 C 
BRANCH   3   4
ATOM      4  C   UNL A   1      38.599  28.259  29.787  1.00  0.00     0.261 C 
BRANCH   4   5
ATOM      5  O   UNL A   1      38.900  28.717  31.121  1.00  0.00    -0.463 OA
BRANCH   5   6
ATOM      6  C   UNL A   1      38.075  28.643  32.185  1.00  0.00     0.308 C 
ATOM      7  O   UNL A   1      38.025  27.618  32.858  1.00  0.00    -0.252 OA
BRANCH   6   8
ATOM      8  C   UNL A   1      37.159  29.803  32.457  1.00  0.00     0.150 C 
BRANCH   8   9
ATOM      9  C   UNL A   1      37.791  30.958  33.194  1.00  0.00     0.122 C 
ATOM     10  C   UNL A   1      38.374  30.650  34.592  1.00  0.00     0.185 C 
ATOM     11  N   UNL A   1      37.151  32.303  33.203  1.00  0.00    -0.329 N 
ATOM     12  O   UNL A   1      39.343  31.654  34.951  1.00  0.00    -0.377 OA
ATOM     13  C   UNL A   1      38.130  33.326  33.628  1.00  0.00     0.148 C 
ATOM     14  C   UNL A   1      38.744  32.957  34.982  1.00  0.00     0.181 C 
BRANCH  11  15
ATOM     15  C   UNL A   1      35.845  32.784  32.969  1.00  0.00     0.273 C 
ATOM     16  O   UNL A   1      35.139  33.040  33.950  1.00  0.00    -0.267 OA
BRANCH  15  17
ATOM     17  C   UNL A   1      35.276  33.104  31.641  1.00  0.00     0.139 A 
ATOM     18  C   UNL A   1      34.526  34.261  31.487  1.00  0.00     0.101 A 
ATOM     19  N   UNL A   1      35.302  32.322  30.480  1.00  0.00    -0.236 NA
ATOM     20  S   UNL A   1      33.985  34.449  29.888  1.00  0.00    -0.126 S 
ATOM     21  C   UNL A   1      34.735  32.963  29.464  1.00  0.00     0.098 A 
BRANCH  21  22
ATOM     22  C   UNL A   1      34.852  32.539  28.011  1.00  0.00     0.103 C 
BRANCH  22  23
ATOM     23  C   UNL A   1      34.252  31.200  27.622  1.00  0.00    -0.041 A 
ATOM     24  C   UNL A   1      32.908  31.099  27.244  1.00  0.00     0.004 A 
ATOM     25  C   UNL A   1      35.026  30.028  27.638  1.00  0.00     0.004 A 
ATOM     26  C   UNL A   1      32.363  29.865  26.877  1.00  0.00     0.000 A 
ATOM     27  C   UNL A   1      34.490  28.799  27.247  1.00  0.00     0.000 A 
ATOM     28  C   UNL A   1      33.157  28.718  26.866  1.00  0.00     0.000 A 
ENDBRANCH  22  23
ENDBRANCH  21  22
ENDBRANCH  15  17
ENDBRANCH  11  15
ENDBRANCH   8   9
ENDBRANCH   6   8
ENDBRANCH   5   6
ENDBRANCH   4   5
ENDBRANCH   3   4
ENDBRANCH   2   3
ENDBRANCH   1   2
BRANCH   1  29
ATOM     29  C   UNL A   1      41.136  24.419  28.042  1.00  0.00     0.188 C 
BRANCH  29  30
ATOM     30  O   UNL A   1      41.263  23.510  26.956  1.00  0.00    -0.376 OA
BRANCH  30  31
ATOM     31  C   UNL A   1      42.095  22.366  27.126  1.00  0.00     0.202 C 
BRANCH  31  32
ATOM     32  C   UNL A   1      42.804  21.769  25.897  1.00  0.00     0.261 C 
BRANCH  32  33
ATOM     33  O   UNL A   1      44.230  21.996  25.813  1.00  0.00    -0.460 OA
BRANCH  33  34
ATOM     34  C   UNL A   1      44.610  22.896  24.873  1.00  0.00     0.338 C 
ATOM     35  O   UNL A   1      44.655  22.708  23.663  1.00  0.00    -0.246 OA
BRANCH  34  36
ATOM     36  C   UNL A   1      44.856  24.237  25.446  1.00  0.00     0.060 A 
ATOM     37  C   UNL A   1      46.015  24.420  26.210  1.00  0.00     0.016 A 
ATOM     38  C   UNL A   1      43.867  25.225  25.429  1.00  0.00     0.016 A 
ATOM     39  C   UNL A   1      46.160  25.564  26.998  1.00  0.00     0.010 A 
ATOM     40  C   UNL A   1      44.009  26.365  26.240  1.00  0.00     0.010 A 
ATOM     41  C   UNL A   1      45.138  26.519  27.064  1.00  0.00    -0.014 A 
BRANCH  41  42
ATOM     42  C   UNL A   1      45.173  27.505  28.181  1.00  0.00     0.031 A 
ATOM     43  C   UNL A   1      45.486  28.943  27.858  1.00  0.00     0.074 A 
ATOM     44  C   UNL A   1      44.818  27.175  29.437  1.00  0.00     0.049 A 
ATOM     45  N   UNL A   1      45.555  29.982  28.650  1.00  0.00    -0.248 NA
ATOM     46  C   UNL A   1      45.754  29.242  26.444  1.00  0.00     0.031 C 
ATOM     47  C   UNL A   1      44.413  25.841  29.867  1.00  0.00     0.029 A 
ATOM     48  N   UNL A   1      44.712  27.942  30.573  1.00  0.00    -0.354 N 
ATOM     49  C   UNL A   1      45.898  31.058  27.836  1.00  0.00     0.074 A 
ATOM     50  C   UNL A   1      46.026  30.536  26.491  1.00  0.00     0.031 C 
ATOM     51  C   UNL A   1      44.061  25.893  31.164  1.00  0.00     0.029 A 
ATOM     52  C   UNL A   1      44.264  27.248  31.673  1.00  0.00     0.049 A 
ATOM     53  H   UNL A   1      44.936  28.900  30.597  1.00  0.00     0.167 HD
ATOM     54  C   UNL A   1      46.102  32.355  28.178  1.00  0.00     0.034 A 
ATOM     55  C   UNL A   1      44.055  27.651  32.946  1.00  0.00     0.034 A 
ATOM     56  C   UNL A   1      46.001  32.861  29.525  1.00  0.00     0.049 A 
ATOM     57  C   UNL A   1      44.371  29.082  33.321  1.00  0.00     0.074 A 
ATOM     58  C   UNL A   1      46.251  34.142  29.989  1.00  0.00     0.029 A 
ATOM     59  N   UNL A   1      45.630  32.108  30.631  1.00  0.00    -0.354 N 
ATOM     60  N   UNL A   1      44.766  30.073  32.555  1.00  0.00    -0.248 NA
ATOM     61  C   UNL A   1      44.237  29.440  34.741  1.00  0.00     0.031 C 
ATOM     62  C   UNL A   1      46.098  34.146  31.380  1.00  0.00     0.029 A 
ATOM     63  C   UNL A   1      45.673  32.888  31.779  1.00  0.00     0.049 A 
ATOM     64  H   UNL A   1      45.372  31.158  30.606  1.00  0.00     0.167 HD
ATOM     65  C   UNL A   1      44.911  31.172  33.399  1.00  0.00     0.074 A 
ATOM     66  C   UNL A   1      44.538  30.729  34.726  1.00  0.00     0.031 C 
ATOM     67  C   UNL A   1      45.319  32.434  33.104  1.00  0.00     0.034 A 
BRANCH  54  68
ATOM     68  C   UNL A   1      46.563  33.277  27.074  1.00  0.00     0.023 A 
ATOM     69  C   UNL A   1      47.926  33.469  26.785  1.00  0.00     0.031 A 
ATOM     70  C   UNL A   1      45.625  34.054  26.371  1.00  0.00     0.131 A 
ATOM     71  C   UNL A   1      48.314  34.481  25.894  1.00  0.00     0.055 A 
ATOM     72  C   UNL A   1      46.014  34.997  25.419  1.00  0.00     0.041 A 
ATOM     73  F   UNL A   1      44.311  33.934  26.624  1.00  0.00    -0.206 F 
ATOM     74  C   UNL A   1      47.367  35.231  25.192  1.00  0.00     0.022 A 
BRANCH  71  75
ATOM     75  S   UNL A   1      50.069  34.939  25.815  1.00  0.00     0.124 S 
ATOM     76  O   UNL A   1      50.567  34.413  27.084  1.00  0.00    -0.237 OA
ATOM     77  O   UNL A   1      50.520  34.246  24.614  1.00  0.00    -0.237 OA
ATOM     78  O   UNL A   1      50.038  36.397  25.723  1.00  0.00    -0.744 OA
ENDBRANCH  71  75
ENDBRANCH  54  68
BRANCH  55  79
ATOM     79  C   UNL A   1      43.579  26.690  33.988  1.00  0.00     0.023 A 
ATOM     80  C   UNL A   1      44.464  25.798  34.620  1.00  0.00     0.031 A 
ATOM     81  C   UNL A   1      42.214  26.599  34.317  1.00  0.00     0.131 A 
ATOM     82  C   UNL A   1      43.970  24.833  35.513  1.00  0.00     0.055 A 
ATOM     83  C   UNL A   1      41.737  25.679  35.252  1.00  0.00     0.041 A 
ATOM     84  F   UNL A   1      41.319  27.412  33.734  1.00  0.00    -0.206 F 
ATOM     85  C   UNL A   1      42.616  24.780  35.847  1.00  0.00     0.022 A 
BRANCH  82  86
ATOM     86  S   UNL A   1      45.108  23.579  36.168  1.00  0.00     0.124 S 
ATOM     87  O   UNL A   1      44.989  23.795  37.606  1.00  0.00    -0.237 OA
ATOM     88  O   UNL A   1      44.528  22.342  35.656  1.00  0.00    -0.237 OA
ATOM     89  O   UNL A   1      46.396  23.949  35.585  1.00  0.00    -0.744 OA
ENDBRANCH  82  86
ENDBRANCH  55  79
BRANCH  67  90
ATOM     90  C   UNL A   1      45.350  33.433  34.237  1.00  0.00     0.023 A 
ATOM     91  C   UNL A   1      44.234  34.228  34.560  1.00  0.00     0.031 A 
ATOM     92  C   UNL A   1      46.519  33.599  35.000  1.00  0.00     0.131 A 
ATOM     93  C   UNL A   1      44.328  35.187  35.582  1.00  0.00     0.055 A 
ATOM     94  C   UNL A   1      46.589  34.515  36.053  1.00  0.00     0.041 A 
ATOM     95  F   UNL A   1      47.615  32.869  34.738  1.00  0.00    -0.206 F 
ATOM     96  C   UNL A   1      45.493  35.323  36.339  1.00  0.00     0.022 A 
BRANCH  93  97
ATOM     97  S   UNL A   1      42.933  36.315  35.855  1.00  0.00     0.124 S 
ATOM     98  O   UNL A   1      43.087  37.263  34.756  1.00  0.00    -0.237 OA
ATOM     99  O   UNL A   1      41.785  35.419  35.768  1.00  0.00    -0.237 OA
ATOM    100  O   UNL A   1      43.190  36.862  37.186  1.00  0.00    -0.744 OA
ENDBRANCH  93  97
ENDBRANCH  67  90
ENDBRANCH  41  42
ENDBRANCH  34  36
ENDBRANCH  33  34
ENDBRANCH  32  33
ENDBRANCH  31  32
ENDBRANCH  30  31
ENDBRANCH  29  30
ENDBRANCH   1  29
TORSDOF 25
ENDMDL
MODEL 3
REMARK VINA RESULT:      -8.8      1.585      1.997
REMARK SMILES O=C(C[C@@H]1COCCN1C(=O)c1csc(Cc2ccccc2)n1)OCCOCCOCCOC(=O)c1ccc(-c2c3nc(c(-c4cc(S(=O)(=O)[O-])ccc4F)c4ccc([nH]4)c(-c4cc(S(=O)(=O)[O-])ccc4F)c4nc(c(-c5cc(S(=O)(=O)[O-])ccc5F)c5ccc2[nH]5)C=C4)C=C3)cc1
REMARK SMILES IDX 28 1 27 2 26 3 25 4 24 5 2 6 1 7 3 8 4 9 5 10 9 11 6 12 8 13
REMARK SMILES IDX 7 14 10 15 11 16 12 17 13 18 23 19 14 20 15 21 16 22 17 23
REMARK SMILES IDX 18 24 22 25 19 26 21 27 20 28 29 29 30 30 31 31 32 32 33 33
REMARK SMILES IDX 34 34 35 35 36 36 37 37 98 38 38 39 97 40 39 41 40 42 41 43
REMARK SMILES IDX 91 44 42 45 96 46 90 47 92 48 43 49 95 50 89 51 88 52 44 54
REMARK SMILES IDX 76 55 56 56 75 57 57 58 60 59 74 60 93 61 58 62 59 63 73 65
REMARK SMILES IDX 94 66 61 67 45 68 46 69 54 70 47 71 53 72 55 73 52 74 48 75
REMARK SMILES IDX 49 76 50 77 51 78 77 79 78 80 86 81 79 82 85 83 87 84 84 85
REMARK SMILES IDX 80 86 81 87 82 88 83 89 62 90 63 91 71 92 64 93 70 94 72 95
REMARK SMILES IDX 69 96 65 97 66 98 67 99 68 100
REMARK H PARENT 92 53 60 64
REMARK Flexibility Score: inf
ROOT
ATOM      1  C   UNL A   1      35.606  30.006  27.771  1.00  0.00     0.188 C 
ENDROOT
BRANCH   1   2
ATOM      2  O   UNL A   1      34.437  29.251  27.509  1.00  0.00    -0.376 OA
BRANCH   2   3
ATOM      3  C   UNL A   1      33.979  29.136  26.182  1.00  0.00     0.202 C 
BRANCH   3   4
ATOM      4  C   UNL A   1      32.620  28.435  26.048  1.00  0.00     0.261 C 
BRANCH   4   5
ATOM      5  O   UNL A   1      32.355  27.321  26.925  1.00  0.00    -0.463 OA
BRANCH   5   6
ATOM      6  C   UNL A   1      32.407  26.018  26.583  1.00  0.00     0.308 C 
ATOM      7  O   UNL A   1      31.495  25.260  26.897  1.00  0.00    -0.252 OA
BRANCH   6   8
ATOM      8  C   UNL A   1      33.646  25.512  25.899  1.00  0.00     0.150 C 
BRANCH   8   9
ATOM      9  C   UNL A   1      33.614  24.053  25.515  1.00  0.00     0.122 C 
ATOM     10  C   UNL A   1      34.949  23.281  25.619  1.00  0.00     0.185 C 
ATOM     11  N   UNL A   1      32.861  23.593  24.315  1.00  0.00    -0.329 N 
ATOM     12  O   UNL A   1      34.692  21.867  25.711  1.00  0.00    -0.377 OA
ATOM     13  C   UNL A   1      32.648  22.132  24.381  1.00  0.00     0.148 C 
ATOM     14  C   UNL A   1      33.981  21.398  24.556  1.00  0.00     0.181 C 
BRANCH  11  15
ATOM     15  C   UNL A   1      32.386  24.216  23.142  1.00  0.00     0.273 C 
ATOM     16  O   UNL A   1      32.574  23.640  22.065  1.00  0.00    -0.267 OA
BRANCH  15  17
ATOM     17  C   UNL A   1      31.589  25.462  23.096  1.00  0.00     0.139 A 
ATOM     18  C   UNL A   1      30.301  25.461  23.611  1.00  0.00     0.101 A 
ATOM     19  N   UNL A   1      31.925  26.679  22.490  1.00  0.00    -0.236 NA
ATOM     20  S   UNL A   1      29.573  26.990  23.478  1.00  0.00    -0.126 S 
ATOM     21  C   UNL A   1      30.983  27.591  22.703  1.00  0.00     0.098 A 
BRANCH  21  22
ATOM     22  C   UNL A   1      31.155  29.077  22.447  1.00  0.00     0.103 C 
BRANCH  22  23
ATOM     23  C   UNL A   1      29.916  29.949  22.530  1.00  0.00    -0.041 A 
ATOM     24  C   UNL A   1      29.576  30.602  23.721  1.00  0.00     0.004 A 
ATOM     25  C   UNL A   1      29.074  30.119  21.418  1.00  0.00     0.004 A 
ATOM     26  C   UNL A   1      28.439  31.413  23.788  1.00  0.00     0.000 A 
ATOM     27  C   UNL A   1      27.953  30.949  21.476  1.00  0.00     0.000 A 
ATOM     28  C   UNL A   1      27.635  31.596  22.663  1.00  0.00     0.000 A 
ENDBRANCH  22  23
ENDBRANCH  21  22
ENDBRANCH  15  17
ENDBRANCH  11  15
ENDBRANCH   8   9
ENDBRANCH   6   8
ENDBRANCH   5   6
ENDBRANCH   4   5
ENDBRANCH   3   4
ENDBRANCH   2   3
ENDBRANCH   1   2
BRANCH   1  29
ATOM     29  C   UNL A   1      35.345  31.522  27.739  1.00  0.00     0.188 C 
BRANCH  29  30
ATOM     30  O   UNL A   1      36.204  32.372  28.489  1.00  0.00    -0.376 OA
BRANCH  30  31
ATOM     31  C   UNL A   1      35.714  33.650  28.884  1.00  0.00     0.202 C 
BRANCH  31  32
ATOM     32  C   UNL A   1      34.431  33.728  29.731  1.00  0.00     0.261 C 
BRANCH  32  33
ATOM     33  O   UNL A   1      34.365  32.836  30.868  1.00  0.00    -0.460 OA
BRANCH  33  34
ATOM     34  C   UNL A   1      34.907  33.326  32.010  1.00  0.00     0.338 C 
ATOM     35  O   UNL A   1      34.371  34.100  32.794  1.00  0.00    -0.246 OA
BRANCH  34  36
ATOM     36  C   UNL A   1      36.218  32.715  32.317  1.00  0.00     0.060 A 
ATOM     37  C   UNL A   1      37.157  33.490  33.008  1.00  0.00     0.016 A 
ATOM     38  C   UNL A   1      36.602  31.498  31.744  1.00  0.00     0.016 A 
ATOM     39  C   UNL A   1      38.488  33.077  33.080  1.00  0.00     0.010 A 
ATOM     40  C   UNL A   1      37.949  31.097  31.802  1.00  0.00     0.010 A 
ATOM     41  C   UNL A   1      38.909  31.909  32.433  1.00  0.00    -0.014 A 
BRANCH  41  42
ATOM     42  C   UNL A   1      40.371  31.714  32.221  1.00  0.00     0.031 A 
ATOM     43  C   UNL A   1      41.110  32.707  31.361  1.00  0.00     0.074 A 
ATOM     44  C   UNL A   1      41.065  30.758  32.866  1.00  0.00     0.049 A 
ATOM     45  N   UNL A   1      42.379  32.760  31.048  1.00  0.00    -0.248 NA
ATOM     46  C   UNL A   1      40.297  33.787  30.782  1.00  0.00     0.031 C 
ATOM     47  C   UNL A   1      40.488  29.787  33.789  1.00  0.00     0.029 A 
ATOM     48  N   UNL A   1      42.408  30.466  32.867  1.00  0.00    -0.354 N 
ATOM     49  C   UNL A   1      42.517  33.866  30.214  1.00  0.00     0.074 A 
ATOM     50  C   UNL A   1      41.198  34.446  30.072  1.00  0.00     0.031 C 
ATOM     51  C   UNL A   1      41.479  29.034  34.300  1.00  0.00     0.029 A 
ATOM     52  C   UNL A   1      42.753  29.431  33.704  1.00  0.00     0.049 A 
ATOM     53  H   UNL A   1      43.064  30.954  32.317  1.00  0.00     0.167 HD
ATOM     54  C   UNL A   1      43.634  34.345  29.611  1.00  0.00     0.034 A 
ATOM     55  C   UNL A   1      43.952  28.858  33.952  1.00  0.00     0.034 A 
ATOM     56  C   UNL A   1      44.940  33.744  29.735  1.00  0.00     0.049 A 
ATOM     57  C   UNL A   1      45.169  29.354  33.203  1.00  0.00     0.074 A 
ATOM     58  C   UNL A   1      46.123  34.110  29.115  1.00  0.00     0.029 A 
ATOM     59  N   UNL A   1      45.236  32.640  30.524  1.00  0.00    -0.354 N 
ATOM     60  N   UNL A   1      45.273  30.356  32.360  1.00  0.00    -0.248 NA
ATOM     61  C   UNL A   1      46.425  28.624  33.423  1.00  0.00     0.031 C 
ATOM     62  C   UNL A   1      47.114  33.190  29.475  1.00  0.00     0.029 A 
ATOM     63  C   UNL A   1      46.573  32.294  30.384  1.00  0.00     0.049 A 
ATOM     64  H   UNL A   1      44.591  32.170  31.101  1.00  0.00     0.167 HD
ATOM     65  C   UNL A   1      46.608  30.382  31.963  1.00  0.00     0.074 A 
ATOM     66  C   UNL A   1      47.275  29.313  32.677  1.00  0.00     0.031 C 
ATOM     67  C   UNL A   1      47.228  31.213  31.084  1.00  0.00     0.034 A 
BRANCH  54  68
ATOM     68  C   UNL A   1      43.445  35.518  28.678  1.00  0.00     0.023 A 
ATOM     69  C   UNL A   1      43.538  36.847  29.126  1.00  0.00     0.031 A 
ATOM     70  C   UNL A   1      43.064  35.297  27.342  1.00  0.00     0.131 A 
ATOM     71  C   UNL A   1      43.157  37.898  28.277  1.00  0.00     0.055 A 
ATOM     72  C   UNL A   1      42.774  36.352  26.475  1.00  0.00     0.041 A 
ATOM     73  F   UNL A   1      42.933  34.049  26.866  1.00  0.00    -0.206 F 
ATOM     74  C   UNL A   1      42.798  37.660  26.948  1.00  0.00     0.022 A 
BRANCH  71  75
ATOM     75  S   UNL A   1      42.946  39.554  28.989  1.00  0.00     0.124 S 
ATOM     76  O   UNL A   1      43.910  40.332  28.212  1.00  0.00    -0.237 OA
ATOM     77  O   UNL A   1      41.539  39.831  28.726  1.00  0.00    -0.237 OA
ATOM     78  O   UNL A   1      43.296  39.369  30.395  1.00  0.00    -0.744 OA
ENDBRANCH  71  75
ENDBRANCH  54  68
BRANCH  55  79
ATOM     79  C   UNL A   1      44.073  27.710  34.902  1.00  0.00     0.023 A 
ATOM     80  C   UNL A   1      43.870  26.385  34.479  1.00  0.00     0.031 A 
ATOM     81  C   UNL A   1      44.323  27.928  36.270  1.00  0.00     0.131 A 
ATOM     82  C   UNL A   1      43.881  25.338  35.417  1.00  0.00     0.055 A 
ATOM     83  C   UNL A   1      44.395  26.878  37.187  1.00  0.00     0.041 A 
ATOM     84  F   UNL A   1      44.508  29.173  36.737  1.00  0.00    -0.206 F 
ATOM     85  C   UNL A   1      44.161  25.574  36.764  1.00  0.00     0.022 A 
BRANCH  82  86
ATOM     86  S   UNL A   1      43.432  23.666  34.870  1.00  0.00     0.124 S 
ATOM     87  O   UNL A   1      42.021  23.604  35.240  1.00  0.00    -0.237 OA
ATOM     88  O   UNL A   1      43.718  23.723  33.441  1.00  0.00    -0.237 OA
ATOM     89  O   UNL A   1      44.318  22.803  35.648  1.00  0.00    -0.744 OA
ENDBRANCH  82  86
ENDBRANCH  55  79
BRANCH  67  90
ATOM     90  C   UNL A   1      48.711  31.016  30.874  1.00  0.00     0.023 A 
ATOM     91  C   UNL A   1      49.214  30.163  29.874  1.00  0.00     0.031 A 
ATOM     92  C   UNL A   1      49.635  31.688  31.694  1.00  0.00     0.131 A 
ATOM     93  C   UNL A   1      50.600  29.965  29.755  1.00  0.00     0.055 A 
ATOM     94  C   UNL A   1      51.013  31.529  31.533  1.00  0.00     0.041 A 
ATOM     95  F   UNL A   1      49.213  32.514  32.664  1.00  0.00    -0.206 F 
ATOM     96  C   UNL A   1      51.501  30.654  30.568  1.00  0.00     0.022 A 
BRANCH  93  97
ATOM     97  S   UNL A   1      51.208  28.725  28.576  1.00  0.00     0.124 S 
ATOM     98  O   UNL A   1      50.044  28.519  27.722  1.00  0.00    -0.237 OA
ATOM     99  O   UNL A   1      52.338  29.411  27.958  1.00  0.00    -0.237 OA
ATOM    100  O   UNL A   1      51.564  27.590  29.426  1.00  0.00    -0.744 OA
ENDBRANCH  93  97
ENDBRANCH  67  90
ENDBRANCH  41  42
ENDBRANCH  34  36
ENDBRANCH  33  34
ENDBRANCH  32  33
ENDBRANCH  31  32
ENDBRANCH  30  31
ENDBRANCH  29  30
ENDBRANCH   1  29
TORSDOF 25
ENDMDL
