MODEL 1
REMARK VINA RESULT:      -9.8      0.000      0.000
REMARK SMILES O=C(OCCOCCOCCOC(=O)c1cccc(N2CCCCC2)n1)c1ccc(-c2c3nc(c(-c4cc(S(=O)(=O)[O-])ccc4F)c4ccc([nH]4)c(-c4cc(S(=O)(=O)[O-])ccc4F)c4nc(c(-c5cc(S(=O)(=O)[O-])ccc5F)c5ccc2[nH]5)C=C4)C=C3)cc1
REMARK SMILES IDX 7 1 6 2 5 3 4 4 3 5 2 6 1 7 27 8 28 9 89 10 29 11 88 12
REMARK SMILES IDX 30 13 31 14 32 15 82 16 33 17 87 18 81 19 83 20 34 21 86 22
REMARK SMILES IDX 80 23 79 24 35 26 67 27 47 28 66 29 48 30 51 31 65 32 84 33
REMARK SMILES IDX 49 34 50 35 64 37 85 38 52 39 36 40 37 41 45 42 38 43 44 44
REMARK SMILES IDX 46 45 43 46 39 47 40 48 41 49 42 50 68 51 69 52 77 53 70 54
REMARK SMILES IDX 76 55 78 56 75 57 71 58 72 59 73 60 74 61 53 62 54 63 62 64
REMARK SMILES IDX 55 65 61 66 63 67 60 68 56 69 57 70 58 71 59 72 8 73 9 74
REMARK SMILES IDX 10 75 11 76 12 77 13 78 14 79 15 80 16 81 26 82 17 83 19 84
REMARK SMILES IDX 18 85 20 86 21 87 25 88 22 89 24 90 23 91
REMARK H PARENT 83 25 51 36
REMARK Flexibility Score: inf
ROOT
ATOM      1  C   UNL A   1      33.788  29.171  26.800  1.00  0.00     0.188 C 
ENDROOT
BRANCH   1   2
ATOM      2  O   UNL A   1      33.320  30.491  26.498  1.00  0.00    -0.376 OA
BRANCH   2   3
ATOM      3  C   UNL A   1      31.944  30.711  26.812  1.00  0.00     0.202 C 
BRANCH   3   4
ATOM      4  C   UNL A   1      31.516  32.185  26.804  1.00  0.00     0.261 C 
BRANCH   4   5
ATOM      5  O   UNL A   1      32.648  33.076  26.817  1.00  0.00    -0.460 OA
BRANCH   5   6
ATOM      6  C   UNL A   1      33.159  33.742  27.886  1.00  0.00     0.338 C 
ATOM      7  O   UNL A   1      32.581  34.748  28.296  1.00  0.00    -0.246 OA
BRANCH   6   8
ATOM      8  C   UNL A   1      34.365  33.272  28.628  1.00  0.00     0.060 A 
ATOM      9  C   UNL A   1      35.632  33.833  28.488  1.00  0.00     0.016 A 
ATOM     10  C   UNL A   1      34.199  32.238  29.566  1.00  0.00     0.016 A 
ATOM     11  C   UNL A   1      36.735  33.279  29.125  1.00  0.00     0.010 A 
ATOM     12  C   UNL A   1      35.293  31.743  30.290  1.00  0.00     0.010 A 
ATOM     13  C   UNL A   1      36.580  32.233  30.036  1.00  0.00    -0.014 A 
BRANCH  13  14
ATOM     14  C   UNL A   1      37.801  31.637  30.631  1.00  0.00     0.031 A 
ATOM     15  C   UNL A   1      38.133  31.922  32.069  1.00  0.00     0.074 A 
ATOM     16  C   UNL A   1      38.505  30.726  29.931  1.00  0.00     0.049 A 
ATOM     17  N   UNL A   1      39.131  31.485  32.790  1.00  0.00    -0.248 NA
ATOM     18  C   UNL A   1      37.209  32.809  32.794  1.00  0.00     0.031 C 
ATOM     19  C   UNL A   1      38.201  30.307  28.560  1.00  0.00     0.029 A 
ATOM     20  N   UNL A   1      39.577  29.947  30.283  1.00  0.00    -0.354 N 
ATOM     21  C   UNL A   1      38.963  32.048  34.050  1.00  0.00     0.074 A 
ATOM     22  C   UNL A   1      37.784  32.886  33.983  1.00  0.00     0.031 C 
ATOM     23  C   UNL A   1      39.026  29.307  28.215  1.00  0.00     0.029 A 
ATOM     24  C   UNL A   1      39.975  29.076  29.294  1.00  0.00     0.049 A 
ATOM     25  H   UNL A   1      40.022  30.006  31.159  1.00  0.00     0.167 HD
ATOM     26  C   UNL A   1      39.718  31.875  35.162  1.00  0.00     0.034 A 
ATOM     27  C   UNL A   1      41.003  28.205  29.251  1.00  0.00     0.034 A 
ATOM     28  C   UNL A   1      40.896  31.045  35.197  1.00  0.00     0.049 A 
ATOM     29  C   UNL A   1      41.878  28.094  30.472  1.00  0.00     0.074 A 
ATOM     30  C   UNL A   1      41.810  30.874  36.220  1.00  0.00     0.029 A 
ATOM     31  N   UNL A   1      41.318  30.233  34.149  1.00  0.00    -0.354 N 
ATOM     32  N   UNL A   1      41.760  28.711  31.626  1.00  0.00    -0.248 NA
ATOM     33  C   UNL A   1      43.020  27.179  30.387  1.00  0.00     0.031 C 
ATOM     34  C   UNL A   1      42.806  29.994  35.777  1.00  0.00     0.029 A 
ATOM     35  C   UNL A   1      42.482  29.570  34.497  1.00  0.00     0.049 A 
ATOM     36  H   UNL A   1      40.855  30.144  33.284  1.00  0.00     0.167 HD
ATOM     37  C   UNL A   1      42.816  28.257  32.407  1.00  0.00     0.074 A 
ATOM     38  C   UNL A   1      43.532  27.283  31.605  1.00  0.00     0.031 C 
ATOM     39  C   UNL A   1      43.180  28.620  33.663  1.00  0.00     0.034 A 
BRANCH  26  40
ATOM     40  C   UNL A   1      39.318  32.665  36.381  1.00  0.00     0.023 A 
ATOM     41  C   UNL A   1      39.937  33.886  36.706  1.00  0.00     0.031 A 
ATOM     42  C   UNL A   1      38.371  32.146  37.281  1.00  0.00     0.131 A 
ATOM     43  C   UNL A   1      39.661  34.504  37.936  1.00  0.00     0.055 A 
ATOM     44  C   UNL A   1      38.047  32.804  38.470  1.00  0.00     0.041 A 
ATOM     45  F   UNL A   1      37.770  30.970  37.037  1.00  0.00    -0.206 F 
ATOM     46  C   UNL A   1      38.705  33.982  38.810  1.00  0.00     0.022 A 
BRANCH  43  47
ATOM     47  S   UNL A   1      40.676  35.920  38.444  1.00  0.00     0.124 S 
ATOM     48  O   UNL A   1      41.945  35.624  37.785  1.00  0.00    -0.237 OA
ATOM     49  O   UNL A   1      39.928  37.053  37.913  1.00  0.00    -0.237 OA
ATOM     50  O   UNL A   1      40.700  35.818  39.902  1.00  0.00    -0.744 OA
ENDBRANCH  43  47
ENDBRANCH  26  40
BRANCH  27  51
ATOM     51  C   UNL A   1      41.303  27.436  28.006  1.00  0.00     0.023 A 
ATOM     52  C   UNL A   1      41.059  26.056  27.914  1.00  0.00     0.031 A 
ATOM     53  C   UNL A   1      41.897  28.069  26.895  1.00  0.00     0.131 A 
ATOM     54  C   UNL A   1      41.445  25.350  26.762  1.00  0.00     0.055 A 
ATOM     55  C   UNL A   1      42.229  27.373  25.731  1.00  0.00     0.041 A 
ATOM     56  F   UNL A   1      42.152  29.387  26.918  1.00  0.00    -0.206 F 
ATOM     57  C   UNL A   1      42.017  26.001  25.667  1.00  0.00     0.022 A 
BRANCH  54  58
ATOM     58  S   UNL A   1      41.286  23.541  26.751  1.00  0.00     0.124 S 
ATOM     59  O   UNL A   1      39.875  23.367  26.426  1.00  0.00    -0.237 OA
ATOM     60  O   UNL A   1      42.236  23.165  25.710  1.00  0.00    -0.237 OA
ATOM     61  O   UNL A   1      41.666  23.160  28.109  1.00  0.00    -0.744 OA
ENDBRANCH  54  58
ENDBRANCH  27  51
BRANCH  39  62
ATOM     62  C   UNL A   1      44.399  27.940  34.223  1.00  0.00     0.023 A 
ATOM     63  C   UNL A   1      44.295  26.728  34.928  1.00  0.00     0.031 A 
ATOM     64  C   UNL A   1      45.668  28.527  34.087  1.00  0.00     0.131 A 
ATOM     65  C   UNL A   1      45.432  26.172  35.528  1.00  0.00     0.055 A 
ATOM     66  C   UNL A   1      46.806  27.939  34.640  1.00  0.00     0.041 A 
ATOM     67  F   UNL A   1      45.817  29.684  33.424  1.00  0.00    -0.206 F 
ATOM     68  C   UNL A   1      46.690  26.763  35.378  1.00  0.00     0.022 A 
BRANCH  65  69
ATOM     69  S   UNL A   1      45.227  24.718  36.591  1.00  0.00     0.124 S 
ATOM     70  O   UNL A   1      46.148  23.763  35.981  1.00  0.00    -0.237 OA
ATOM     71  O   UNL A   1      45.617  25.232  37.900  1.00  0.00    -0.237 OA
ATOM     72  O   UNL A   1      43.810  24.389  36.451  1.00  0.00    -0.744 OA
ENDBRANCH  65  69
ENDBRANCH  39  62
ENDBRANCH  13  14
ENDBRANCH   6   8
ENDBRANCH   5   6
ENDBRANCH   4   5
ENDBRANCH   3   4
ENDBRANCH   2   3
ENDBRANCH   1   2
BRANCH   1  73
ATOM     73  C   UNL A   1      32.813  28.113  26.274  1.00  0.00     0.188 C 
BRANCH  73  74
ATOM     74  O   UNL A   1      33.241  26.763  26.496  1.00  0.00    -0.376 OA
BRANCH  74  75
ATOM     75  C   UNL A   1      32.387  25.740  25.988  1.00  0.00     0.202 C 
BRANCH  75  76
ATOM     76  C   UNL A   1      32.422  25.541  24.470  1.00  0.00     0.261 C 
BRANCH  76  77
ATOM     77  O   UNL A   1      33.348  24.531  24.038  1.00  0.00    -0.459 OA
BRANCH  77  78
ATOM     78  C   UNL A   1      32.846  23.267  24.027  1.00  0.00     0.357 C 
ATOM     79  O   UNL A   1      31.669  22.944  23.961  1.00  0.00    -0.244 OA
BRANCH  78  80
ATOM     80  C   UNL A   1      33.924  22.275  24.235  1.00  0.00     0.150 A 
ATOM     81  C   UNL A   1      35.165  22.752  24.628  1.00  0.00     0.036 A 
ATOM     82  N   UNL A   1      33.567  20.963  24.233  1.00  0.00    -0.224 NA
ATOM     83  C   UNL A   1      36.103  21.824  25.053  1.00  0.00     0.006 A 
ATOM     84  C   UNL A   1      34.478  20.075  24.686  1.00  0.00     0.129 A 
ATOM     85  C   UNL A   1      35.754  20.476  25.086  1.00  0.00     0.047 A 
BRANCH  84  86
ATOM     86  N   UNL A   1      34.068  18.761  24.808  1.00  0.00    -0.357 N 
ATOM     87  C   UNL A   1      32.639  18.542  24.984  1.00  0.00     0.118 C 
ATOM     88  C   UNL A   1      34.818  17.734  24.102  1.00  0.00     0.118 C 
ATOM     89  C   UNL A   1      32.417  17.208  25.701  1.00  0.00     0.022 C 
ATOM     90  C   UNL A   1      34.654  16.409  24.846  1.00  0.00     0.022 C 
ATOM     91  C   UNL A   1      33.178  16.061  25.033  1.00  0.00     0.004 C 
ENDBRANCH  84  86
ENDBRANCH  78  80
ENDBRANCH  77  78
ENDBRANCH  76  77
ENDBRANCH  75  76
ENDBRANCH  74  75
ENDBRANCH  73  74
ENDBRANCH   1  73
TORSDOF 21
ENDMDL
MODEL 2
REMARK VINA RESULT:      -9.8      3.325      8.833
REMARK SMILES O=C(OCCOCCOCCOC(=O)c1cccc(N2CCCCC2)n1)c1ccc(-c2c3nc(c(-c4cc(S(=O)(=O)[O-])ccc4F)c4ccc([nH]4)c(-c4cc(S(=O)(=O)[O-])ccc4F)c4nc(c(-c5cc(S(=O)(=O)[O-])ccc5F)c5ccc2[nH]5)C=C4)C=C3)cc1
REMARK SMILES IDX 7 1 6 2 5 3 4 4 3 5 2 6 1 7 27 8 28 9 89 10 29 11 88 12
REMARK SMILES IDX 30 13 31 14 32 15 82 16 33 17 87 18 81 19 83 20 34 21 86 22
REMARK SMILES IDX 80 23 79 24 35 26 67 27 47 28 66 29 48 30 51 31 65 32 84 33
REMARK SMILES IDX 49 34 50 35 64 37 85 38 52 39 36 40 37 41 45 42 38 43 44 44
REMARK SMILES IDX 46 45 43 46 39 47 40 48 41 49 42 50 68 51 69 52 77 53 70 54
REMARK SMILES IDX 76 55 78 56 75 57 71 58 72 59 73 60 74 61 53 62 54 63 62 64
REMARK SMILES IDX 55 65 61 66 63 67 60 68 56 69 57 70 58 71 59 72 8 73 9 74
REMARK SMILES IDX 10 75 11 76 12 77 13 78 14 79 15 80 16 81 26 82 17 83 19 84
REMARK SMILES IDX 18 85 20 86 21 87 25 88 22 89 24 90 23 91
REMARK H PARENT 83 25 51 36
REMARK Flexibility Score: inf
ROOT
ATOM      1  C   UNL A   1      31.598  29.997  25.351  1.00  0.00     0.188 C 
ENDROOT
BRANCH   1   2
ATOM      2  O   UNL A   1      31.814  30.405  26.706  1.00  0.00    -0.376 OA
BRANCH   2   3
ATOM      3  C   UNL A   1      31.637  31.805  26.933  1.00  0.00     0.202 C 
BRANCH   3   4
ATOM      4  C   UNL A   1      32.896  32.536  27.416  1.00  0.00     0.261 C 
BRANCH   4   5
ATOM      5  O   UNL A   1      32.598  33.859  27.904  1.00  0.00    -0.460 OA
BRANCH   5   6
ATOM      6  C   UNL A   1      33.408  34.668  28.637  1.00  0.00     0.338 C 
ATOM      7  O   UNL A   1      33.169  35.874  28.679  1.00  0.00    -0.246 OA
BRANCH   6   8
ATOM      8  C   UNL A   1      34.547  34.147  29.448  1.00  0.00     0.060 A 
ATOM      9  C   UNL A   1      35.887  34.329  29.114  1.00  0.00     0.016 A 
ATOM     10  C   UNL A   1      34.250  33.482  30.650  1.00  0.00     0.016 A 
ATOM     11  C   UNL A   1      36.898  33.727  29.851  1.00  0.00     0.010 A 
ATOM     12  C   UNL A   1      35.273  32.961  31.454  1.00  0.00     0.010 A 
ATOM     13  C   UNL A   1      36.606  33.041  31.032  1.00  0.00    -0.014 A 
BRANCH  13  14
ATOM     14  C   UNL A   1      37.718  32.359  31.738  1.00  0.00     0.031 A 
ATOM     15  C   UNL A   1      38.451  31.242  31.050  1.00  0.00     0.074 A 
ATOM     16  C   UNL A   1      38.158  32.849  32.913  1.00  0.00     0.049 A 
ATOM     17  N   UNL A   1      39.463  30.533  31.474  1.00  0.00    -0.248 NA
ATOM     18  C   UNL A   1      37.989  30.886  29.699  1.00  0.00     0.031 C 
ATOM     19  C   UNL A   1      37.574  33.996  33.614  1.00  0.00     0.029 A 
ATOM     20  N   UNL A   1      39.225  32.494  33.698  1.00  0.00    -0.354 N 
ATOM     21  C   UNL A   1      39.755  29.641  30.448  1.00  0.00     0.074 A 
ATOM     22  C   UNL A   1      38.790  29.877  29.396  1.00  0.00     0.031 C 
ATOM     23  C   UNL A   1      38.327  34.284  34.686  1.00  0.00     0.029 A 
ATOM     24  C   UNL A   1      39.388  33.295  34.805  1.00  0.00     0.049 A 
ATOM     25  H   UNL A   1      39.819  31.737  33.489  1.00  0.00     0.167 HD
ATOM     26  C   UNL A   1      40.744  28.716  30.387  1.00  0.00     0.034 A 
ATOM     27  C   UNL A   1      40.275  33.225  35.818  1.00  0.00     0.034 A 
ATOM     28  C   UNL A   1      41.684  28.491  31.456  1.00  0.00     0.049 A 
ATOM     29  C   UNL A   1      41.311  32.134  35.767  1.00  0.00     0.074 A 
ATOM     30  C   UNL A   1      42.657  27.514  31.568  1.00  0.00     0.029 A 
ATOM     31  N   UNL A   1      41.771  29.272  32.604  1.00  0.00    -0.354 N 
ATOM     32  N   UNL A   1      41.511  31.234  34.831  1.00  0.00    -0.248 NA
ATOM     33  C   UNL A   1      42.235  32.045  36.902  1.00  0.00     0.031 C 
ATOM     34  C   UNL A   1      43.302  27.678  32.801  1.00  0.00     0.029 A 
ATOM     35  C   UNL A   1      42.771  28.792  33.433  1.00  0.00     0.049 A 
ATOM     36  H   UNL A   1      41.203  30.052  32.799  1.00  0.00     0.167 HD
ATOM     37  C   UNL A   1      42.586  30.469  35.266  1.00  0.00     0.074 A 
ATOM     38  C   UNL A   1      43.017  31.043  36.526  1.00  0.00     0.031 C 
ATOM     39  C   UNL A   1      43.160  29.380  34.693  1.00  0.00     0.034 A 
BRANCH  26  40
ATOM     40  C   UNL A   1      40.782  27.847  29.156  1.00  0.00     0.023 A 
ATOM     41  C   UNL A   1      41.691  28.088  28.109  1.00  0.00     0.031 A 
ATOM     42  C   UNL A   1      39.834  26.823  28.983  1.00  0.00     0.131 A 
ATOM     43  C   UNL A   1      41.582  27.369  26.909  1.00  0.00     0.055 A 
ATOM     44  C   UNL A   1      39.778  26.062  27.813  1.00  0.00     0.041 A 
ATOM     45  F   UNL A   1      38.923  26.568  29.935  1.00  0.00    -0.206 F 
ATOM     46  C   UNL A   1      40.645  26.344  26.761  1.00  0.00     0.022 A 
BRANCH  43  47
ATOM     47  S   UNL A   1      42.583  27.892  25.488  1.00  0.00     0.124 S 
ATOM     48  O   UNL A   1      43.845  28.249  26.133  1.00  0.00    -0.237 OA
ATOM     49  O   UNL A   1      42.606  26.695  24.658  1.00  0.00    -0.237 OA
ATOM     50  O   UNL A   1      41.833  29.019  24.938  1.00  0.00    -0.744 OA
ENDBRANCH  43  47
ENDBRANCH  26  40
BRANCH  27  51
ATOM     51  C   UNL A   1      40.180  34.156  36.984  1.00  0.00     0.023 A 
ATOM     52  C   UNL A   1      41.140  35.156  37.209  1.00  0.00     0.031 A 
ATOM     53  C   UNL A   1      39.145  34.019  37.930  1.00  0.00     0.131 A 
ATOM     54  C   UNL A   1      41.070  35.946  38.369  1.00  0.00     0.055 A 
ATOM     55  C   UNL A   1      39.050  34.843  39.053  1.00  0.00     0.041 A 
ATOM     56  F   UNL A   1      38.195  33.084  37.770  1.00  0.00    -0.206 F 
ATOM     57  C   UNL A   1      40.026  35.805  39.285  1.00  0.00     0.022 A 
BRANCH  54  58
ATOM     58  S   UNL A   1      42.427  37.101  38.722  1.00  0.00     0.124 S 
ATOM     59  O   UNL A   1      42.869  37.462  37.380  1.00  0.00    -0.237 OA
ATOM     60  O   UNL A   1      41.740  38.144  39.475  1.00  0.00    -0.237 OA
ATOM     61  O   UNL A   1      43.367  36.292  39.493  1.00  0.00    -0.744 OA
ENDBRANCH  54  58
ENDBRANCH  27  51
BRANCH  39  62
ATOM     62  C   UNL A   1      44.314  28.768  35.440  1.00  0.00     0.023 A 
ATOM     63  C   UNL A   1      44.100  27.810  36.445  1.00  0.00     0.031 A 
ATOM     64  C   UNL A   1      45.631  29.175  35.173  1.00  0.00     0.131 A 
ATOM     65  C   UNL A   1      45.185  27.335  37.195  1.00  0.00     0.055 A 
ATOM     66  C   UNL A   1      46.713  28.657  35.885  1.00  0.00     0.041 A 
ATOM     67  F   UNL A   1      45.884  30.088  34.222  1.00  0.00    -0.206 F 
ATOM     68  C   UNL A   1      46.491  27.743  36.913  1.00  0.00     0.022 A 
BRANCH  65  69
ATOM     69  S   UNL A   1      44.851  26.251  38.610  1.00  0.00     0.124 S 
ATOM     70  O   UNL A   1      45.745  26.795  39.627  1.00  0.00    -0.237 OA
ATOM     71  O   UNL A   1      43.424  26.465  38.836  1.00  0.00    -0.237 OA
ATOM     72  O   UNL A   1      45.208  24.923  38.116  1.00  0.00    -0.744 OA
ENDBRANCH  65  69
ENDBRANCH  39  62
ENDBRANCH  13  14
ENDBRANCH   6   8
ENDBRANCH   5   6
ENDBRANCH   4   5
ENDBRANCH   3   4
ENDBRANCH   2   3
ENDBRANCH   1   2
BRANCH   1  73
ATOM     73  C   UNL A   1      32.912  29.550  24.700  1.00  0.00     0.188 C 
BRANCH  73  74
ATOM     74  O   UNL A   1      33.202  28.156  24.871  1.00  0.00    -0.376 OA
BRANCH  74  75
ATOM     75  C   UNL A   1      33.985  27.546  23.846  1.00  0.00     0.202 C 
BRANCH  75  76
ATOM     76  C   UNL A   1      33.888  28.195  22.463  1.00  0.00     0.261 C 
BRANCH  76  77
ATOM     77  O   UNL A   1      33.374  27.320  21.446  1.00  0.00    -0.459 OA
BRANCH  77  78
ATOM     78  C   UNL A   1      32.923  26.121  21.902  1.00  0.00     0.357 C 
ATOM     79  O   UNL A   1      33.489  25.041  21.812  1.00  0.00    -0.244 OA
BRANCH  78  80
ATOM     80  C   UNL A   1      31.551  26.248  22.441  1.00  0.00     0.150 A 
ATOM     81  C   UNL A   1      31.113  25.264  23.313  1.00  0.00     0.036 A 
ATOM     82  N   UNL A   1      30.902  27.421  22.213  1.00  0.00    -0.224 NA
ATOM     83  C   UNL A   1      29.934  25.496  24.002  1.00  0.00     0.006 A 
ATOM     84  C   UNL A   1      29.776  27.650  22.921  1.00  0.00     0.129 A 
ATOM     85  C   UNL A   1      29.263  26.702  23.808  1.00  0.00     0.047 A 
BRANCH  84  86
ATOM     86  N   UNL A   1      29.192  28.896  22.787  1.00  0.00    -0.357 N 
ATOM     87  C   UNL A   1      29.900  29.857  21.953  1.00  0.00     0.118 C 
ATOM     88  C   UNL A   1      27.740  28.987  22.823  1.00  0.00     0.118 C 
ATOM     89  C   UNL A   1      29.519  31.276  22.382  1.00  0.00     0.022 C 
ATOM     90  C   UNL A   1      27.349  30.381  23.312  1.00  0.00     0.022 C 
ATOM     91  C   UNL A   1      28.003  31.467  22.460  1.00  0.00     0.004 C 
ENDBRANCH  84  86
ENDBRANCH  78  80
ENDBRANCH  77  78
ENDBRANCH  76  77
ENDBRANCH  75  76
ENDBRANCH  74  75
ENDBRANCH  73  74
ENDBRANCH   1  73
TORSDOF 21
ENDMDL
MODEL 3
REMARK VINA RESULT:      -9.8      3.603      9.047
REMARK SMILES O=C(OCCOCCOCCOC(=O)c1cccc(N2CCCCC2)n1)c1ccc(-c2c3nc(c(-c4cc(S(=O)(=O)[O-])ccc4F)c4ccc([nH]4)c(-c4cc(S(=O)(=O)[O-])ccc4F)c4nc(c(-c5cc(S(=O)(=O)[O-])ccc5F)c5ccc2[nH]5)C=C4)C=C3)cc1
REMARK SMILES IDX 7 1 6 2 5 3 4 4 3 5 2 6 1 7 27 8 28 9 89 10 29 11 88 12
REMARK SMILES IDX 30 13 31 14 32 15 82 16 33 17 87 18 81 19 83 20 34 21 86 22
REMARK SMILES IDX 80 23 79 24 35 26 67 27 47 28 66 29 48 30 51 31 65 32 84 33
REMARK SMILES IDX 49 34 50 35 64 37 85 38 52 39 36 40 37 41 45 42 38 43 44 44
REMARK SMILES IDX 46 45 43 46 39 47 40 48 41 49 42 50 68 51 69 52 77 53 70 54
REMARK SMILES IDX 76 55 78 56 75 57 71 58 72 59 73 60 74 61 53 62 54 63 62 64
REMARK SMILES IDX 55 65 61 66 63 67 60 68 56 69 57 70 58 71 59 72 8 73 9 74
REMARK SMILES IDX 10 75 11 76 12 77 13 78 14 79 15 80 16 81 26 82 17 83 19 84
REMARK SMILES IDX 18 85 20 86 21 87 25 88 22 89 24 90 23 91
REMARK H PARENT 83 25 51 36
REMARK Flexibility Score: inf
ROOT
ATOM      1  C   UNL A   1      31.991  29.943  25.651  1.00  0.00     0.188 C 
ENDROOT
BRANCH   1   2
ATOM      2  O   UNL A   1      31.614  30.584  26.875  1.00  0.00    -0.376 OA
BRANCH   2   3
ATOM      3  C   UNL A   1      31.580  32.010  26.805  1.00  0.00     0.202 C 
BRANCH   3   4
ATOM      4  C   UNL A   1      32.814  32.707  27.393  1.00  0.00     0.261 C 
BRANCH   4   5
ATOM      5  O   UNL A   1      32.487  33.982  27.978  1.00  0.00    -0.460 OA
BRANCH   5   6
ATOM      6  C   UNL A   1      33.310  34.795  28.693  1.00  0.00     0.338 C 
ATOM      7  O   UNL A   1      33.096  36.007  28.698  1.00  0.00    -0.246 OA
BRANCH   6   8
ATOM      8  C   UNL A   1      34.433  34.275  29.525  1.00  0.00     0.060 A 
ATOM      9  C   UNL A   1      35.777  34.546  29.276  1.00  0.00     0.016 A 
ATOM     10  C   UNL A   1      34.112  33.513  30.661  1.00  0.00     0.016 A 
ATOM     11  C   UNL A   1      36.780  33.943  30.023  1.00  0.00     0.010 A 
ATOM     12  C   UNL A   1      35.120  32.986  31.481  1.00  0.00     0.010 A 
ATOM     13  C   UNL A   1      36.466  33.162  31.136  1.00  0.00    -0.014 A 
BRANCH  13  14
ATOM     14  C   UNL A   1      37.576  32.487  31.853  1.00  0.00     0.031 A 
ATOM     15  C   UNL A   1      38.424  31.486  31.119  1.00  0.00     0.074 A 
ATOM     16  C   UNL A   1      37.911  32.893  33.093  1.00  0.00     0.049 A 
ATOM     17  N   UNL A   1      39.453  30.803  31.545  1.00  0.00    -0.248 NA
ATOM     18  C   UNL A   1      38.069  31.228  29.714  1.00  0.00     0.031 C 
ATOM     19  C   UNL A   1      37.209  33.932  33.851  1.00  0.00     0.029 A 
ATOM     20  N   UNL A   1      38.949  32.533  33.912  1.00  0.00    -0.354 N 
ATOM     21  C   UNL A   1      39.866  30.030  30.466  1.00  0.00     0.074 A 
ATOM     22  C   UNL A   1      38.954  30.303  29.377  1.00  0.00     0.031 C 
ATOM     23  C   UNL A   1      37.875  34.166  34.993  1.00  0.00     0.029 A 
ATOM     24  C   UNL A   1      38.990  33.236  35.095  1.00  0.00     0.049 A 
ATOM     25  H   UNL A   1      39.605  31.836  33.678  1.00  0.00     0.167 HD
ATOM     26  C   UNL A   1      40.917  29.177  30.390  1.00  0.00     0.034 A 
ATOM     27  C   UNL A   1      39.816  33.128  36.154  1.00  0.00     0.034 A 
ATOM     28  C   UNL A   1      41.803  28.912  31.495  1.00  0.00     0.049 A 
ATOM     29  C   UNL A   1      40.925  32.112  36.076  1.00  0.00     0.074 A 
ATOM     30  C   UNL A   1      42.831  27.991  31.586  1.00  0.00     0.029 A 
ATOM     31  N   UNL A   1      41.768  29.587  32.711  1.00  0.00    -0.354 N 
ATOM     32  N   UNL A   1      41.241  31.316  35.080  1.00  0.00    -0.248 NA
ATOM     33  C   UNL A   1      41.782  31.975  37.258  1.00  0.00     0.031 C 
ATOM     34  C   UNL A   1      43.387  28.079  32.868  1.00  0.00     0.029 A 
ATOM     35  C   UNL A   1      42.745  29.096  33.560  1.00  0.00     0.049 A 
ATOM     36  H   UNL A   1      41.138  30.310  32.936  1.00  0.00     0.167 HD
ATOM     37  C   UNL A   1      42.337  30.581  35.517  1.00  0.00     0.074 A 
ATOM     38  C   UNL A   1      42.651  31.062  36.849  1.00  0.00     0.031 C 
ATOM     39  C   UNL A   1      43.016  29.587  34.890  1.00  0.00     0.034 A 
BRANCH  26  40
ATOM     40  C   UNL A   1      41.088  28.430  29.093  1.00  0.00     0.023 A 
ATOM     41  C   UNL A   1      40.585  27.127  28.918  1.00  0.00     0.031 A 
ATOM     42  C   UNL A   1      41.847  28.988  28.049  1.00  0.00     0.131 A 
ATOM     43  C   UNL A   1      40.912  26.400  27.763  1.00  0.00     0.055 A 
ATOM     44  C   UNL A   1      42.108  28.285  26.871  1.00  0.00     0.041 A 
ATOM     45  F   UNL A   1      42.377  30.215  28.172  1.00  0.00    -0.206 F 
ATOM     46  C   UNL A   1      41.653  26.978  26.729  1.00  0.00     0.022 A 
BRANCH  43  47
ATOM     47  S   UNL A   1      40.482  24.638  27.694  1.00  0.00     0.124 S 
ATOM     48  O   UNL A   1      39.107  24.651  28.187  1.00  0.00    -0.237 OA
ATOM     49  O   UNL A   1      40.652  24.326  26.280  1.00  0.00    -0.237 OA
ATOM     50  O   UNL A   1      41.453  24.014  28.591  1.00  0.00    -0.744 OA
ENDBRANCH  43  47
ENDBRANCH  26  40
BRANCH  27  51
ATOM     51  C   UNL A   1      39.589  33.939  37.389  1.00  0.00     0.023 A 
ATOM     52  C   UNL A   1      38.920  33.412  38.505  1.00  0.00     0.031 A 
ATOM     53  C   UNL A   1      39.995  35.288  37.448  1.00  0.00     0.131 A 
ATOM     54  C   UNL A   1      38.640  34.236  39.609  1.00  0.00     0.055 A 
ATOM     55  C   UNL A   1      39.762  36.087  38.568  1.00  0.00     0.041 A 
ATOM     56  F   UNL A   1      40.642  35.850  36.414  1.00  0.00    -0.206 F 
ATOM     57  C   UNL A   1      39.066  35.565  39.653  1.00  0.00     0.022 A 
BRANCH  54  58
ATOM     58  S   UNL A   1      37.613  33.576  40.953  1.00  0.00     0.124 S 
ATOM     59  O   UNL A   1      36.557  32.891  40.215  1.00  0.00    -0.237 OA
ATOM     60  O   UNL A   1      38.561  32.722  41.660  1.00  0.00    -0.237 OA
ATOM     61  O   UNL A   1      37.192  34.773  41.677  1.00  0.00    -0.744 OA
ENDBRANCH  54  58
ENDBRANCH  27  51
BRANCH  39  62
ATOM     62  C   UNL A   1      44.160  28.981  35.655  1.00  0.00     0.023 A 
ATOM     63  C   UNL A   1      43.975  27.839  36.453  1.00  0.00     0.031 A 
ATOM     64  C   UNL A   1      45.434  29.571  35.618  1.00  0.00     0.131 A 
ATOM     65  C   UNL A   1      45.034  27.358  37.236  1.00  0.00     0.055 A 
ATOM     66  C   UNL A   1      46.499  29.055  36.357  1.00  0.00     0.041 A 
ATOM     67  F   UNL A   1      45.659  30.663  34.870  1.00  0.00    -0.206 F 
ATOM     68  C   UNL A   1      46.298  27.952  37.183  1.00  0.00     0.022 A 
BRANCH  65  69
ATOM     69  S   UNL A   1      44.706  26.007  38.400  1.00  0.00     0.124 S 
ATOM     70  O   UNL A   1      43.676  25.246  37.699  1.00  0.00    -0.237 OA
ATOM     71  O   UNL A   1      46.012  25.364  38.506  1.00  0.00    -0.237 OA
ATOM     72  O   UNL A   1      44.254  26.696  39.607  1.00  0.00    -0.744 OA
ENDBRANCH  65  69
ENDBRANCH  39  62
ENDBRANCH  13  14
ENDBRANCH   6   8
ENDBRANCH   5   6
ENDBRANCH   4   5
ENDBRANCH   3   4
ENDBRANCH   2   3
ENDBRANCH   1   2
BRANCH   1  73
ATOM     73  C   UNL A   1      33.315  29.189  25.816  1.00  0.00     0.188 C 
BRANCH  73  74
ATOM     74  O   UNL A   1      33.211  27.776  25.600  1.00  0.00    -0.376 OA
BRANCH  74  75
ATOM     75  C   UNL A   1      33.775  27.281  24.386  1.00  0.00     0.202 C 
BRANCH  75  76
ATOM     76  C   UNL A   1      33.931  28.309  23.261  1.00  0.00     0.261 C 
BRANCH  76  77
ATOM     77  O   UNL A   1      33.188  27.987  22.074  1.00  0.00    -0.459 OA
BRANCH  77  78
ATOM     78  C   UNL A   1      32.458  26.842  22.152  1.00  0.00     0.357 C 
ATOM     79  O   UNL A   1      32.841  25.709  21.896  1.00  0.00    -0.244 OA
BRANCH  78  80
ATOM     80  C   UNL A   1      31.048  27.142  22.483  1.00  0.00     0.150 A 
ATOM     81  C   UNL A   1      30.381  26.248  23.307  1.00  0.00     0.036 A 
ATOM     82  N   UNL A   1      30.577  28.369  22.135  1.00  0.00    -0.224 NA
ATOM     83  C   UNL A   1      29.151  26.638  23.812  1.00  0.00     0.006 A 
ATOM     84  C   UNL A   1      29.395  28.749  22.665  1.00  0.00     0.129 A 
ATOM     85  C   UNL A   1      28.657  27.900  23.492  1.00  0.00     0.047 A 
BRANCH  84  86
ATOM     86  N   UNL A   1      28.983  30.045  22.417  1.00  0.00    -0.357 N 
ATOM     87  C   UNL A   1      28.087  30.233  21.284  1.00  0.00     0.118 C 
ATOM     88  C   UNL A   1      28.831  30.950  23.545  1.00  0.00     0.118 C 
ATOM     89  C   UNL A   1      28.219  31.668  20.769  1.00  0.00     0.022 C 
ATOM     90  C   UNL A   1      29.024  32.384  23.053  1.00  0.00     0.022 C 
ATOM     91  C   UNL A   1      28.083  32.699  21.891  1.00  0.00     0.004 C 
ENDBRANCH  84  86
ENDBRANCH  78  80
ENDBRANCH  77  78
ENDBRANCH  76  77
ENDBRANCH  75  76
ENDBRANCH  74  75
ENDBRANCH  73  74
ENDBRANCH   1  73
TORSDOF 21
ENDMDL
