MODEL 1
REMARK VINA RESULT:     -10.4      0.000      0.000
REMARK SMILES O=C(OCCOCCOCCOC(=O)c1cccc(N2C(=O)C[C@H]([NH+]3CCOCC3)C2=O)c1)c1ccc(-c2c3nc(c(-c4cc(S(=O)(=O)[O-])ccc4F)c4ccc([nH]4)c(-c4cc(S(=O)(=O)[O-])ccc4F)c4nc(c(-c5cc(S(=O)(=O)[O-])ccc5F)c5ccc2[nH]5)C=C4)C=C3)cc1
REMARK SMILES IDX 7 1 6 2 5 3 4 4 3 5 2 6 1 7 34 8 35 9 96 10 36 11 95 12
REMARK SMILES IDX 37 13 38 14 39 15 89 16 40 17 94 18 88 19 90 20 41 21 93 22
REMARK SMILES IDX 87 23 86 24 42 26 74 27 54 28 73 29 55 30 58 31 72 32 91 33
REMARK SMILES IDX 56 34 57 35 71 37 92 38 59 39 43 40 44 41 52 42 45 43 51 44
REMARK SMILES IDX 53 45 50 46 46 47 47 48 48 49 49 50 75 51 76 52 84 53 77 54
REMARK SMILES IDX 83 55 85 56 82 57 78 58 79 59 80 60 81 61 60 62 61 63 69 64
REMARK SMILES IDX 62 65 68 66 70 67 67 68 63 69 64 70 65 71 66 72 8 73 9 74
REMARK SMILES IDX 10 75 11 76 12 77 13 78 14 79 15 80 16 81 33 82 17 83 19 84
REMARK SMILES IDX 18 85 20 86 21 87 31 88 22 89 23 90 24 91 32 92 25 93 26 94
REMARK SMILES IDX 30 95 27 97 29 98 28 99
REMARK H PARENT 90 25 58 36 25 96
REMARK Flexibility Score: inf
ROOT
ATOM      1  C   UNL A   1      40.691  20.010  26.506  1.00  0.00     0.188 C 
ENDROOT
BRANCH   1   2
ATOM      2  O   UNL A   1      41.543  19.656  27.592  1.00  0.00    -0.376 OA
BRANCH   2   3
ATOM      3  C   UNL A   1      42.636  18.795  27.252  1.00  0.00     0.202 C 
BRANCH   3   4
ATOM      4  C   UNL A   1      42.912  18.570  25.752  1.00  0.00     0.261 C 
BRANCH   4   5
ATOM      5  O   UNL A   1      43.242  19.759  25.007  1.00  0.00    -0.460 OA
BRANCH   5   6
ATOM      6  C   UNL A   1      44.190  20.696  25.265  1.00  0.00     0.338 C 
ATOM      7  O   UNL A   1      45.368  20.422  25.038  1.00  0.00    -0.246 OA
BRANCH   6   8
ATOM      8  C   UNL A   1      43.880  22.038  25.833  1.00  0.00     0.060 A 
ATOM      9  C   UNL A   1      43.519  23.145  25.072  1.00  0.00     0.016 A 
ATOM     10  C   UNL A   1      43.870  22.174  27.230  1.00  0.00     0.016 A 
ATOM     11  C   UNL A   1      43.305  24.388  25.644  1.00  0.00     0.010 A 
ATOM     12  C   UNL A   1      43.587  23.410  27.826  1.00  0.00     0.010 A 
ATOM     13  C   UNL A   1      43.357  24.537  27.025  1.00  0.00    -0.014 A 
BRANCH  13  14
ATOM     14  C   UNL A   1      43.346  25.914  27.563  1.00  0.00     0.031 A 
ATOM     15  C   UNL A   1      44.653  26.653  27.643  1.00  0.00     0.074 A 
ATOM     16  C   UNL A   1      42.183  26.537  27.829  1.00  0.00     0.049 A 
ATOM     17  N   UNL A   1      44.906  27.842  28.119  1.00  0.00    -0.248 NA
ATOM     18  C   UNL A   1      45.834  25.955  27.106  1.00  0.00     0.031 C 
ATOM     19  C   UNL A   1      40.846  25.946  27.701  1.00  0.00     0.029 A 
ATOM     20  N   UNL A   1      41.937  27.816  28.252  1.00  0.00    -0.354 N 
ATOM     21  C   UNL A   1      46.275  28.027  27.959  1.00  0.00     0.074 A 
ATOM     22  C   UNL A   1      46.803  26.814  27.376  1.00  0.00     0.031 C 
ATOM     23  C   UNL A   1      39.929  26.861  28.061  1.00  0.00     0.029 A 
ATOM     24  C   UNL A   1      40.605  28.075  28.480  1.00  0.00     0.049 A 
ATOM     25  H   UNL A   1      42.646  28.487  28.379  1.00  0.00     0.167 HD
ATOM     26  C   UNL A   1      47.019  29.117  28.264  1.00  0.00     0.034 A 
ATOM     27  C   UNL A   1      40.022  29.159  29.018  1.00  0.00     0.034 A 
ATOM     28  C   UNL A   1      46.473  30.313  28.849  1.00  0.00     0.049 A 
ATOM     29  C   UNL A   1      40.898  30.302  29.447  1.00  0.00     0.074 A 
ATOM     30  C   UNL A   1      47.132  31.460  29.253  1.00  0.00     0.029 A 
ATOM     31  N   UNL A   1      45.126  30.511  29.116  1.00  0.00    -0.354 N 
ATOM     32  N   UNL A   1      42.198  30.441  29.341  1.00  0.00    -0.248 NA
ATOM     33  C   UNL A   1      40.211  31.438  30.071  1.00  0.00     0.031 C 
ATOM     34  C   UNL A   1      46.193  32.326  29.823  1.00  0.00     0.029 A 
ATOM     35  C   UNL A   1      44.941  31.752  29.702  1.00  0.00     0.049 A 
ATOM     36  H   UNL A   1      44.409  29.866  28.918  1.00  0.00     0.167 HD
ATOM     37  C   UNL A   1      42.473  31.690  29.882  1.00  0.00     0.074 A 
ATOM     38  C   UNL A   1      41.208  32.282  30.251  1.00  0.00     0.031 C 
ATOM     39  C   UNL A   1      43.667  32.297  30.080  1.00  0.00     0.034 A 
BRANCH  26  40
ATOM     40  C   UNL A   1      48.502  29.018  28.033  1.00  0.00     0.023 A 
ATOM     41  C   UNL A   1      49.054  29.066  26.742  1.00  0.00     0.031 A 
ATOM     42  C   UNL A   1      49.371  28.807  29.117  1.00  0.00     0.131 A 
ATOM     43  C   UNL A   1      50.422  28.823  26.561  1.00  0.00     0.055 A 
ATOM     44  C   UNL A   1      50.745  28.656  28.939  1.00  0.00     0.041 A 
ATOM     45  F   UNL A   1      48.893  28.721  30.370  1.00  0.00    -0.206 F 
ATOM     46  C   UNL A   1      51.277  28.647  27.652  1.00  0.00     0.022 A 
BRANCH  43  47
ATOM     47  S   UNL A   1      51.039  28.579  24.873  1.00  0.00     0.124 S 
ATOM     48  O   UNL A   1      52.022  27.517  25.071  1.00  0.00    -0.237 OA
ATOM     49  O   UNL A   1      49.832  28.203  24.145  1.00  0.00    -0.237 OA
ATOM     50  O   UNL A   1      51.600  29.882  24.522  1.00  0.00    -0.744 OA
ENDBRANCH  43  47
ENDBRANCH  26  40
BRANCH  27  51
ATOM     51  C   UNL A   1      38.581  29.243  29.377  1.00  0.00     0.023 A 
ATOM     52  C   UNL A   1      37.698  30.023  28.609  1.00  0.00     0.031 A 
ATOM     53  C   UNL A   1      38.193  28.859  30.672  1.00  0.00     0.131 A 
ATOM     54  C   UNL A   1      36.521  30.506  29.202  1.00  0.00     0.055 A 
ATOM     55  C   UNL A   1      36.987  29.282  31.227  1.00  0.00     0.041 A 
ATOM     56  F   UNL A   1      39.034  28.159  31.449  1.00  0.00    -0.206 F 
ATOM     57  C   UNL A   1      36.158  30.134  30.503  1.00  0.00     0.022 A 
BRANCH  54  58
ATOM     58  S   UNL A   1      35.415  31.605  28.265  1.00  0.00     0.124 S 
ATOM     59  O   UNL A   1      36.339  32.620  27.779  1.00  0.00    -0.237 OA
ATOM     60  O   UNL A   1      34.851  30.715  27.254  1.00  0.00    -0.237 OA
ATOM     61  O   UNL A   1      34.463  32.047  29.286  1.00  0.00    -0.744 OA
ENDBRANCH  54  58
ENDBRANCH  27  51
BRANCH  39  62
ATOM     62  C   UNL A   1      43.603  33.672  30.680  1.00  0.00     0.023 A 
ATOM     63  C   UNL A   1      43.522  34.818  29.869  1.00  0.00     0.031 A 
ATOM     64  C   UNL A   1      43.754  33.838  32.065  1.00  0.00     0.131 A 
ATOM     65  C   UNL A   1      43.695  36.082  30.443  1.00  0.00     0.055 A 
ATOM     66  C   UNL A   1      43.836  35.104  32.640  1.00  0.00     0.041 A 
ATOM     67  F   UNL A   1      43.856  32.772  32.875  1.00  0.00    -0.206 F 
ATOM     68  C   UNL A   1      43.830  36.234  31.825  1.00  0.00     0.022 A 
BRANCH  65  69
ATOM     69  S   UNL A   1      43.900  37.507  29.341  1.00  0.00     0.124 S 
ATOM     70  O   UNL A   1      45.265  37.323  28.862  1.00  0.00    -0.237 OA
ATOM     71  O   UNL A   1      42.844  37.296  28.356  1.00  0.00    -0.237 OA
ATOM     72  O   UNL A   1      43.700  38.654  30.226  1.00  0.00    -0.744 OA
ENDBRANCH  65  69
ENDBRANCH  39  62
ENDBRANCH  13  14
ENDBRANCH   6   8
ENDBRANCH   5   6
ENDBRANCH   4   5
ENDBRANCH   3   4
ENDBRANCH   2   3
ENDBRANCH   1   2
BRANCH   1  73
ATOM     73  C   UNL A   1      40.460  21.511  26.357  1.00  0.00     0.188 C 
BRANCH  73  74
ATOM     74  O   UNL A   1      39.174  21.941  25.928  1.00  0.00    -0.376 OA
BRANCH  74  75
ATOM     75  C   UNL A   1      38.743  23.237  26.329  1.00  0.00     0.202 C 
BRANCH  75  76
ATOM     76  C   UNL A   1      37.305  23.678  26.011  1.00  0.00     0.261 C 
BRANCH  76  77
ATOM     77  O   UNL A   1      36.294  22.663  26.099  1.00  0.00    -0.460 OA
BRANCH  77  78
ATOM     78  C   UNL A   1      35.817  22.263  24.896  1.00  0.00     0.338 C 
ATOM     79  O   UNL A   1      36.391  22.294  23.822  1.00  0.00    -0.246 OA
BRANCH  78  80
ATOM     80  C   UNL A   1      34.408  21.875  25.012  1.00  0.00     0.062 A 
ATOM     81  C   UNL A   1      33.926  20.596  24.738  1.00  0.00     0.016 A 
ATOM     82  C   UNL A   1      33.534  22.934  25.191  1.00  0.00     0.042 A 
ATOM     83  C   UNL A   1      32.540  20.391  24.684  1.00  0.00     0.003 A 
ATOM     84  C   UNL A   1      32.157  22.753  25.059  1.00  0.00     0.053 A 
ATOM     85  C   UNL A   1      31.652  21.465  24.862  1.00  0.00     0.027 A 
BRANCH  84  86
ATOM     86  N   UNL A   1      31.363  23.913  25.045  1.00  0.00    -0.245 N 
ATOM     87  C   UNL A   1      31.005  24.537  23.875  1.00  0.00     0.240 C 
ATOM     88  C   UNL A   1      30.802  24.535  26.131  1.00  0.00     0.292 C 
ATOM     89  O   UNL A   1      31.249  24.199  22.723  1.00  0.00    -0.274 OA
ATOM     90  C   UNL A   1      30.111  25.682  24.197  1.00  0.00     0.176 C 
ATOM     91  C   UNL A   1      30.398  25.935  25.660  1.00  0.00     0.284 C 
ATOM     92  O   UNL A   1      30.643  24.078  27.250  1.00  0.00    -0.267 OA
BRANCH  91  93
ATOM     93  N   UNL A   1      31.402  26.965  25.968  1.00  0.00    -0.320 N 
ATOM     94  C   UNL A   1      31.283  28.197  25.160  1.00  0.00     0.291 C 
ATOM     95  C   UNL A   1      32.825  26.650  26.127  1.00  0.00     0.291 C 
ATOM     96  H   UNL A   1      31.091  27.088  26.932  1.00  0.00     0.348 HD
ATOM     97  C   UNL A   1      32.132  28.266  23.884  1.00  0.00     0.221 C 
ATOM     98  C   UNL A   1      33.650  26.699  24.831  1.00  0.00     0.221 C 
ATOM     99  O   UNL A   1      33.502  27.924  24.114  1.00  0.00    -0.370 OA
ENDBRANCH  91  93
ENDBRANCH  84  86
ENDBRANCH  78  80
ENDBRANCH  77  78
ENDBRANCH  76  77
ENDBRANCH  75  76
ENDBRANCH  74  75
ENDBRANCH  73  74
ENDBRANCH   1  73
TORSDOF 22
ENDMDL
MODEL 2
REMARK VINA RESULT:     -10.3      5.596     10.985
REMARK SMILES O=C(OCCOCCOCCOC(=O)c1cccc(N2C(=O)C[C@H]([NH+]3CCOCC3)C2=O)c1)c1ccc(-c2c3nc(c(-c4cc(S(=O)(=O)[O-])ccc4F)c4ccc([nH]4)c(-c4cc(S(=O)(=O)[O-])ccc4F)c4nc(c(-c5cc(S(=O)(=O)[O-])ccc5F)c5ccc2[nH]5)C=C4)C=C3)cc1
REMARK SMILES IDX 7 1 6 2 5 3 4 4 3 5 2 6 1 7 34 8 35 9 96 10 36 11 95 12
REMARK SMILES IDX 37 13 38 14 39 15 89 16 40 17 94 18 88 19 90 20 41 21 93 22
REMARK SMILES IDX 87 23 86 24 42 26 74 27 54 28 73 29 55 30 58 31 72 32 91 33
REMARK SMILES IDX 56 34 57 35 71 37 92 38 59 39 43 40 44 41 52 42 45 43 51 44
REMARK SMILES IDX 53 45 50 46 46 47 47 48 48 49 49 50 75 51 76 52 84 53 77 54
REMARK SMILES IDX 83 55 85 56 82 57 78 58 79 59 80 60 81 61 60 62 61 63 69 64
REMARK SMILES IDX 62 65 68 66 70 67 67 68 63 69 64 70 65 71 66 72 8 73 9 74
REMARK SMILES IDX 10 75 11 76 12 77 13 78 14 79 15 80 16 81 33 82 17 83 19 84
REMARK SMILES IDX 18 85 20 86 21 87 31 88 22 89 23 90 24 91 32 92 25 93 26 94
REMARK SMILES IDX 30 95 27 97 29 98 28 99
REMARK H PARENT 90 25 58 36 25 96
REMARK Flexibility Score: inf
ROOT
ATOM      1  C   UNL A   1      35.461  33.027  28.050  1.00  0.00     0.188 C 
ENDROOT
BRANCH   1   2
ATOM      2  O   UNL A   1      34.625  34.072  27.561  1.00  0.00    -0.376 OA
BRANCH   2   3
ATOM      3  C   UNL A   1      33.320  34.132  28.149  1.00  0.00     0.202 C 
BRANCH   3   4
ATOM      4  C   UNL A   1      32.946  35.427  28.898  1.00  0.00     0.261 C 
BRANCH   4   5
ATOM      5  O   UNL A   1      32.487  35.237  30.251  1.00  0.00    -0.460 OA
BRANCH   5   6
ATOM      6  C   UNL A   1      33.209  35.179  31.401  1.00  0.00     0.338 C 
ATOM      7  O   UNL A   1      32.865  35.883  32.349  1.00  0.00    -0.246 OA
BRANCH   6   8
ATOM      8  C   UNL A   1      34.414  34.319  31.566  1.00  0.00     0.060 A 
ATOM      9  C   UNL A   1      34.377  32.989  31.971  1.00  0.00     0.016 A 
ATOM     10  C   UNL A   1      35.660  34.860  31.213  1.00  0.00     0.016 A 
ATOM     11  C   UNL A   1      35.533  32.253  32.173  1.00  0.00     0.010 A 
ATOM     12  C   UNL A   1      36.831  34.104  31.346  1.00  0.00     0.010 A 
ATOM     13  C   UNL A   1      36.772  32.810  31.882  1.00  0.00    -0.014 A 
BRANCH  13  14
ATOM     14  C   UNL A   1      37.973  32.071  32.326  1.00  0.00     0.031 A 
ATOM     15  C   UNL A   1      38.524  32.370  33.692  1.00  0.00     0.074 A 
ATOM     16  C   UNL A   1      38.463  31.054  31.591  1.00  0.00     0.049 A 
ATOM     17  N   UNL A   1      39.587  31.893  34.281  1.00  0.00    -0.248 NA
ATOM     18  C   UNL A   1      37.768  33.338  34.506  1.00  0.00     0.031 C 
ATOM     19  C   UNL A   1      37.950  30.614  30.289  1.00  0.00     0.029 A 
ATOM     20  N   UNL A   1      39.499  30.195  31.843  1.00  0.00    -0.354 N 
ATOM     21  C   UNL A   1      39.639  32.514  35.524  1.00  0.00     0.074 A 
ATOM     22  C   UNL A   1      38.522  33.431  35.588  1.00  0.00     0.031 C 
ATOM     23  C   UNL A   1      38.693  29.581  29.855  1.00  0.00     0.029 A 
ATOM     24  C   UNL A   1      39.748  29.315  30.815  1.00  0.00     0.049 A 
ATOM     25  H   UNL A   1      40.016  30.205  32.681  1.00  0.00     0.167 HD
ATOM     26  C   UNL A   1      40.535  32.329  36.522  1.00  0.00     0.034 A 
ATOM     27  C   UNL A   1      40.754  28.436  30.663  1.00  0.00     0.034 A 
ATOM     28  C   UNL A   1      41.643  31.415  36.435  1.00  0.00     0.049 A 
ATOM     29  C   UNL A   1      41.790  28.344  31.747  1.00  0.00     0.074 A 
ATOM     30  C   UNL A   1      42.647  31.178  37.356  1.00  0.00     0.029 A 
ATOM     31  N   UNL A   1      41.891  30.583  35.352  1.00  0.00    -0.354 N 
ATOM     32  N   UNL A   1      41.858  28.979  32.892  1.00  0.00    -0.248 NA
ATOM     33  C   UNL A   1      42.889  27.402  31.504  1.00  0.00     0.031 C 
ATOM     34  C   UNL A   1      43.538  30.252  36.804  1.00  0.00     0.029 A 
ATOM     35  C   UNL A   1      43.046  29.854  35.574  1.00  0.00     0.049 A 
ATOM     36  H   UNL A   1      41.329  30.522  34.546  1.00  0.00     0.167 HD
ATOM     37  C   UNL A   1      43.009  28.499  33.503  1.00  0.00     0.074 A 
ATOM     38  C   UNL A   1      43.562  27.486  32.634  1.00  0.00     0.031 C 
ATOM     39  C   UNL A   1      43.580  28.872  34.673  1.00  0.00     0.034 A 
BRANCH  26  40
ATOM     40  C   UNL A   1      40.380  33.187  37.748  1.00  0.00     0.023 A 
ATOM     41  C   UNL A   1      39.490  32.847  38.780  1.00  0.00     0.031 A 
ATOM     42  C   UNL A   1      41.087  34.397  37.854  1.00  0.00     0.131 A 
ATOM     43  C   UNL A   1      39.269  33.747  39.833  1.00  0.00     0.055 A 
ATOM     44  C   UNL A   1      40.929  35.246  38.948  1.00  0.00     0.041 A 
ATOM     45  F   UNL A   1      41.926  34.786  36.881  1.00  0.00    -0.206 F 
ATOM     46  C   UNL A   1      40.003  34.930  39.939  1.00  0.00     0.022 A 
BRANCH  43  47
ATOM     47  S   UNL A   1      37.893  33.423  40.969  1.00  0.00     0.124 S 
ATOM     48  O   UNL A   1      38.476  32.420  41.857  1.00  0.00    -0.237 OA
ATOM     49  O   UNL A   1      37.654  34.735  41.560  1.00  0.00    -0.237 OA
ATOM     50  O   UNL A   1      36.833  32.931  40.091  1.00  0.00    -0.744 OA
ENDBRANCH  43  47
ENDBRANCH  26  40
BRANCH  27  51
ATOM     51  C   UNL A   1      41.010  27.666  29.416  1.00  0.00     0.023 A 
ATOM     52  C   UNL A   1      41.948  28.124  28.475  1.00  0.00     0.031 A 
ATOM     53  C   UNL A   1      40.060  26.711  29.017  1.00  0.00     0.131 A 
ATOM     54  C   UNL A   1      41.827  27.717  27.137  1.00  0.00     0.055 A 
ATOM     55  C   UNL A   1      39.994  26.255  27.701  1.00  0.00     0.041 A 
ATOM     56  F   UNL A   1      39.119  26.292  29.877  1.00  0.00    -0.206 F 
ATOM     57  C   UNL A   1      40.861  26.782  26.747  1.00  0.00     0.022 A 
BRANCH  54  58
ATOM     58  S   UNL A   1      42.962  28.379  25.879  1.00  0.00     0.124 S 
ATOM     59  O   UNL A   1      44.219  27.740  26.240  1.00  0.00    -0.237 OA
ATOM     60  O   UNL A   1      42.354  27.936  24.627  1.00  0.00    -0.237 OA
ATOM     61  O   UNL A   1      42.891  29.823  26.111  1.00  0.00    -0.744 OA
ENDBRANCH  54  58
ENDBRANCH  27  51
BRANCH  39  62
ATOM     62  C   UNL A   1      44.828  28.127  35.051  1.00  0.00     0.023 A 
ATOM     63  C   UNL A   1      44.769  26.939  35.800  1.00  0.00     0.031 A 
ATOM     64  C   UNL A   1      46.085  28.680  34.766  1.00  0.00     0.131 A 
ATOM     65  C   UNL A   1      45.946  26.398  36.328  1.00  0.00     0.055 A 
ATOM     66  C   UNL A   1      47.260  28.086  35.221  1.00  0.00     0.041 A 
ATOM     67  F   UNL A   1      46.189  29.824  34.071  1.00  0.00    -0.206 F 
ATOM     68  C   UNL A   1      47.193  26.951  36.026  1.00  0.00     0.022 A 
BRANCH  65  69
ATOM     69  S   UNL A   1      45.809  25.058  37.543  1.00  0.00     0.124 S 
ATOM     70  O   UNL A   1      47.206  24.833  37.900  1.00  0.00    -0.237 OA
ATOM     71  O   UNL A   1      44.975  25.658  38.579  1.00  0.00    -0.237 OA
ATOM     72  O   UNL A   1      45.177  23.977  36.788  1.00  0.00    -0.744 OA
ENDBRANCH  65  69
ENDBRANCH  39  62
ENDBRANCH  13  14
ENDBRANCH   6   8
ENDBRANCH   5   6
ENDBRANCH   4   5
ENDBRANCH   3   4
ENDBRANCH   2   3
ENDBRANCH   1   2
BRANCH   1  73
ATOM     73  C   UNL A   1      34.711  31.755  28.437  1.00  0.00     0.188 C 
BRANCH  73  74
ATOM     74  O   UNL A   1      34.566  30.748  27.442  1.00  0.00    -0.376 OA
BRANCH  74  75
ATOM     75  C   UNL A   1      33.257  30.248  27.195  1.00  0.00     0.202 C 
BRANCH  75  76
ATOM     76  C   UNL A   1      32.921  29.693  25.801  1.00  0.00     0.261 C 
BRANCH  76  77
ATOM     77  O   UNL A   1      33.304  28.333  25.549  1.00  0.00    -0.460 OA
BRANCH  77  78
ATOM     78  C   UNL A   1      33.391  28.026  24.233  1.00  0.00     0.338 C 
ATOM     79  O   UNL A   1      34.194  28.454  23.422  1.00  0.00    -0.246 OA
BRANCH  78  80
ATOM     80  C   UNL A   1      32.276  27.161  23.837  1.00  0.00     0.062 A 
ATOM     81  C   UNL A   1      30.957  27.595  23.715  1.00  0.00     0.016 A 
ATOM     82  C   UNL A   1      32.577  25.810  23.817  1.00  0.00     0.042 A 
ATOM     83  C   UNL A   1      29.944  26.644  23.532  1.00  0.00     0.003 A 
ATOM     84  C   UNL A   1      31.566  24.854  23.716  1.00  0.00     0.053 A 
ATOM     85  C   UNL A   1      30.247  25.273  23.514  1.00  0.00     0.027 A 
BRANCH  84  86
ATOM     86  N   UNL A   1      31.937  23.514  23.915  1.00  0.00    -0.245 N 
ATOM     87  C   UNL A   1      31.537  22.803  25.021  1.00  0.00     0.240 C 
ATOM     88  C   UNL A   1      32.664  22.729  23.058  1.00  0.00     0.292 C 
ATOM     89  O   UNL A   1      30.805  23.162  25.936  1.00  0.00    -0.274 OA
ATOM     90  C   UNL A   1      32.032  21.405  24.897  1.00  0.00     0.176 C 
ATOM     91  C   UNL A   1      33.144  21.529  23.879  1.00  0.00     0.284 C 
ATOM     92  O   UNL A   1      32.888  22.927  21.876  1.00  0.00    -0.267 OA
BRANCH  91  93
ATOM     93  N   UNL A   1      34.507  21.691  24.406  1.00  0.00    -0.320 N 
ATOM     94  C   UNL A   1      34.746  21.025  25.705  1.00  0.00     0.291 C 
ATOM     95  C   UNL A   1      35.194  22.986  24.417  1.00  0.00     0.291 C 
ATOM     96  H   UNL A   1      34.949  21.209  23.624  1.00  0.00     0.348 HD
ATOM     97  C   UNL A   1      34.546  21.881  26.962  1.00  0.00     0.221 C 
ATOM     98  C   UNL A   1      34.958  23.837  25.675  1.00  0.00     0.221 C 
ATOM     99  O   UNL A   1      35.228  23.137  26.888  1.00  0.00    -0.370 OA
ENDBRANCH  91  93
ENDBRANCH  84  86
ENDBRANCH  78  80
ENDBRANCH  77  78
ENDBRANCH  76  77
ENDBRANCH  75  76
ENDBRANCH  74  75
ENDBRANCH  73  74
ENDBRANCH   1  73
TORSDOF 22
ENDMDL
MODEL 3
REMARK VINA RESULT:     -10.0      2.851      9.368
REMARK SMILES O=C(OCCOCCOCCOC(=O)c1cccc(N2C(=O)C[C@H]([NH+]3CCOCC3)C2=O)c1)c1ccc(-c2c3nc(c(-c4cc(S(=O)(=O)[O-])ccc4F)c4ccc([nH]4)c(-c4cc(S(=O)(=O)[O-])ccc4F)c4nc(c(-c5cc(S(=O)(=O)[O-])ccc5F)c5ccc2[nH]5)C=C4)C=C3)cc1
REMARK SMILES IDX 7 1 6 2 5 3 4 4 3 5 2 6 1 7 34 8 35 9 96 10 36 11 95 12
REMARK SMILES IDX 37 13 38 14 39 15 89 16 40 17 94 18 88 19 90 20 41 21 93 22
REMARK SMILES IDX 87 23 86 24 42 26 74 27 54 28 73 29 55 30 58 31 72 32 91 33
REMARK SMILES IDX 56 34 57 35 71 37 92 38 59 39 43 40 44 41 52 42 45 43 51 44
REMARK SMILES IDX 53 45 50 46 46 47 47 48 48 49 49 50 75 51 76 52 84 53 77 54
REMARK SMILES IDX 83 55 85 56 82 57 78 58 79 59 80 60 81 61 60 62 61 63 69 64
REMARK SMILES IDX 62 65 68 66 70 67 67 68 63 69 64 70 65 71 66 72 8 73 9 74
REMARK SMILES IDX 10 75 11 76 12 77 13 78 14 79 15 80 16 81 33 82 17 83 19 84
REMARK SMILES IDX 18 85 20 86 21 87 31 88 22 89 23 90 24 91 32 92 25 93 26 94
REMARK SMILES IDX 30 95 27 97 29 98 28 99
REMARK H PARENT 90 25 58 36 25 96
REMARK Flexibility Score: inf
ROOT
ATOM      1  C   UNL A   1      34.466  34.849  28.509  1.00  0.00     0.188 C 
ENDROOT
BRANCH   1   2
ATOM      2  O   UNL A   1      33.897  35.298  29.736  1.00  0.00    -0.376 OA
BRANCH   2   3
ATOM      3  C   UNL A   1      34.054  34.403  30.843  1.00  0.00     0.202 C 
BRANCH   3   4
ATOM      4  C   UNL A   1      34.500  35.016  32.185  1.00  0.00     0.261 C 
BRANCH   4   5
ATOM      5  O   UNL A   1      35.926  35.111  32.369  1.00  0.00    -0.460 OA
BRANCH   5   6
ATOM      6  C   UNL A   1      36.768  34.254  33.002  1.00  0.00     0.338 C 
ATOM      7  O   UNL A   1      36.802  34.260  34.232  1.00  0.00    -0.246 OA
BRANCH   6   8
ATOM      8  C   UNL A   1      37.675  33.317  32.281  1.00  0.00     0.060 A 
ATOM      9  C   UNL A   1      38.430  32.327  32.901  1.00  0.00     0.016 A 
ATOM     10  C   UNL A   1      37.707  33.382  30.879  1.00  0.00     0.016 A 
ATOM     11  C   UNL A   1      39.308  31.525  32.192  1.00  0.00     0.010 A 
ATOM     12  C   UNL A   1      38.539  32.529  30.144  1.00  0.00     0.010 A 
ATOM     13  C   UNL A   1      39.386  31.632  30.808  1.00  0.00    -0.014 A 
BRANCH  13  14
ATOM     14  C   UNL A   1      40.491  30.921  30.131  1.00  0.00     0.031 A 
ATOM     15  C   UNL A   1      41.793  31.649  29.944  1.00  0.00     0.074 A 
ATOM     16  C   UNL A   1      40.382  29.613  29.830  1.00  0.00     0.049 A 
ATOM     17  N   UNL A   1      42.883  31.258  29.341  1.00  0.00    -0.248 NA
ATOM     18  C   UNL A   1      41.876  33.002  30.522  1.00  0.00     0.031 C 
ATOM     19  C   UNL A   1      39.195  28.780  30.051  1.00  0.00     0.029 A 
ATOM     20  N   UNL A   1      41.292  28.748  29.283  1.00  0.00    -0.354 N 
ATOM     21  C   UNL A   1      43.774  32.321  29.449  1.00  0.00     0.074 A 
ATOM     22  C   UNL A   1      43.083  33.386  30.142  1.00  0.00     0.031 C 
ATOM     23  C   UNL A   1      39.452  27.532  29.620  1.00  0.00     0.029 A 
ATOM     24  C   UNL A   1      40.790  27.486  29.061  1.00  0.00     0.049 A 
ATOM     25  H   UNL A   1      42.218  29.005  29.070  1.00  0.00     0.167 HD
ATOM     26  C   UNL A   1      45.054  32.394  29.015  1.00  0.00     0.034 A 
ATOM     27  C   UNL A   1      41.347  26.441  28.428  1.00  0.00     0.034 A 
ATOM     28  C   UNL A   1      45.721  31.324  28.322  1.00  0.00     0.049 A 
ATOM     29  C   UNL A   1      42.730  26.604  27.863  1.00  0.00     0.074 A 
ATOM     30  C   UNL A   1      46.996  31.297  27.787  1.00  0.00     0.029 A 
ATOM     31  N   UNL A   1      45.156  30.082  28.069  1.00  0.00    -0.354 N 
ATOM     32  N   UNL A   1      43.539  27.634  27.923  1.00  0.00    -0.248 NA
ATOM     33  C   UNL A   1      43.268  25.445  27.141  1.00  0.00     0.031 C 
ATOM     34  C   UNL A   1      47.178  30.064  27.153  1.00  0.00     0.029 A 
ATOM     35  C   UNL A   1      46.049  29.295  27.362  1.00  0.00     0.049 A 
ATOM     36  H   UNL A   1      44.255  29.803  28.350  1.00  0.00     0.167 HD
ATOM     37  C   UNL A   1      44.685  27.233  27.249  1.00  0.00     0.074 A 
ATOM     38  C   UNL A   1      44.486  25.858  26.850  1.00  0.00     0.031 C 
ATOM     39  C   UNL A   1      45.804  27.938  26.961  1.00  0.00     0.034 A 
BRANCH  26  40
ATOM     40  C   UNL A   1      45.771  33.701  29.220  1.00  0.00     0.023 A 
ATOM     41  C   UNL A   1      45.729  34.725  28.259  1.00  0.00     0.031 A 
ATOM     42  C   UNL A   1      46.563  33.898  30.364  1.00  0.00     0.131 A 
ATOM     43  C   UNL A   1      46.529  35.865  28.421  1.00  0.00     0.055 A 
ATOM     44  C   UNL A   1      47.286  35.074  30.563  1.00  0.00     0.041 A 
ATOM     45  F   UNL A   1      46.663  32.940  31.299  1.00  0.00    -0.206 F 
ATOM     46  C   UNL A   1      47.285  36.059  29.580  1.00  0.00     0.022 A 
BRANCH  43  47
ATOM     47  S   UNL A   1      46.693  37.010  27.025  1.00  0.00     0.124 S 
ATOM     48  O   UNL A   1      45.375  37.639  27.005  1.00  0.00    -0.237 OA
ATOM     49  O   UNL A   1      47.799  37.863  27.442  1.00  0.00    -0.237 OA
ATOM     50  O   UNL A   1      46.975  36.130  25.892  1.00  0.00    -0.744 OA
ENDBRANCH  43  47
ENDBRANCH  26  40
BRANCH  27  51
ATOM     51  C   UNL A   1      40.627  25.182  28.097  1.00  0.00     0.023 A 
ATOM     52  C   UNL A   1      41.281  23.941  28.186  1.00  0.00     0.031 A 
ATOM     53  C   UNL A   1      39.441  25.271  27.348  1.00  0.00     0.131 A 
ATOM     54  C   UNL A   1      40.809  22.864  27.420  1.00  0.00     0.055 A 
ATOM     55  C   UNL A   1      38.937  24.175  26.650  1.00  0.00     0.041 A 
ATOM     56  F   UNL A   1      38.821  26.452  27.202  1.00  0.00    -0.206 F 
ATOM     57  C   UNL A   1      39.638  22.972  26.659  1.00  0.00     0.022 A 
BRANCH  54  58
ATOM     58  S   UNL A   1      41.700  21.278  27.433  1.00  0.00     0.124 S 
ATOM     59  O   UNL A   1      40.687  20.367  27.947  1.00  0.00    -0.237 OA
ATOM     60  O   UNL A   1      42.070  21.100  26.032  1.00  0.00    -0.237 OA
ATOM     61  O   UNL A   1      42.825  21.551  28.329  1.00  0.00    -0.744 OA
ENDBRANCH  54  58
ENDBRANCH  27  51
BRANCH  39  62
ATOM     62  C   UNL A   1      46.873  27.184  26.223  1.00  0.00     0.023 A 
ATOM     63  C   UNL A   1      47.903  26.520  26.912  1.00  0.00     0.031 A 
ATOM     64  C   UNL A   1      46.929  27.241  24.822  1.00  0.00     0.131 A 
ATOM     65  C   UNL A   1      49.002  26.026  26.199  1.00  0.00     0.055 A 
ATOM     66  C   UNL A   1      47.982  26.668  24.113  1.00  0.00     0.041 A 
ATOM     67  F   UNL A   1      45.978  27.882  24.125  1.00  0.00    -0.206 F 
ATOM     68  C   UNL A   1      49.038  26.077  24.803  1.00  0.00     0.022 A 
BRANCH  65  69
ATOM     69  S   UNL A   1      50.450  25.462  27.132  1.00  0.00     0.124 S 
ATOM     70  O   UNL A   1      51.411  25.199  26.067  1.00  0.00    -0.237 OA
ATOM     71  O   UNL A   1      50.742  26.611  27.984  1.00  0.00    -0.237 OA
ATOM     72  O   UNL A   1      49.962  24.278  27.837  1.00  0.00    -0.744 OA
ENDBRANCH  65  69
ENDBRANCH  39  62
ENDBRANCH  13  14
ENDBRANCH   6   8
ENDBRANCH   5   6
ENDBRANCH   4   5
ENDBRANCH   3   4
ENDBRANCH   2   3
ENDBRANCH   1   2
BRANCH   1  73
ATOM     73  C   UNL A   1      34.787  33.357  28.478  1.00  0.00     0.188 C 
BRANCH  73  74
ATOM     74  O   UNL A   1      34.058  32.545  27.565  1.00  0.00    -0.376 OA
BRANCH  74  75
ATOM     75  C   UNL A   1      34.070  31.138  27.778  1.00  0.00     0.202 C 
BRANCH  75  76
ATOM     76  C   UNL A   1      33.822  30.200  26.585  1.00  0.00     0.261 C 
BRANCH  76  77
ATOM     77  O   UNL A   1      32.555  29.529  26.556  1.00  0.00    -0.460 OA
BRANCH  77  78
ATOM     78  C   UNL A   1      31.651  30.105  25.729  1.00  0.00     0.338 C 
ATOM     79  O   UNL A   1      31.191  31.230  25.799  1.00  0.00    -0.246 OA
BRANCH  78  80
ATOM     80  C   UNL A   1      31.169  29.130  24.746  1.00  0.00     0.062 A 
ATOM     81  C   UNL A   1      30.250  29.425  23.741  1.00  0.00     0.016 A 
ATOM     82  C   UNL A   1      31.511  27.817  25.024  1.00  0.00     0.042 A 
ATOM     83  C   UNL A   1      29.706  28.374  22.989  1.00  0.00     0.003 A 
ATOM     84  C   UNL A   1      30.914  26.762  24.335  1.00  0.00     0.053 A 
ATOM     85  C   UNL A   1      30.050  27.042  23.272  1.00  0.00     0.027 A 
BRANCH  84  86
ATOM     86  N   UNL A   1      31.159  25.467  24.821  1.00  0.00    -0.245 N 
ATOM     87  C   UNL A   1      31.357  25.215  26.158  1.00  0.00     0.240 C 
ATOM     88  C   UNL A   1      31.178  24.307  24.090  1.00  0.00     0.292 C 
ATOM     89  O   UNL A   1      31.312  26.000  27.097  1.00  0.00    -0.274 OA
ATOM     90  C   UNL A   1      31.516  23.748  26.350  1.00  0.00     0.176 C 
ATOM     91  C   UNL A   1      31.876  23.262  24.965  1.00  0.00     0.284 C 
ATOM     92  O   UNL A   1      30.728  24.124  22.971  1.00  0.00    -0.267 OA
BRANCH  91  93
ATOM     93  N   UNL A   1      33.310  23.117  24.667  1.00  0.00    -0.320 N 
ATOM     94  C   UNL A   1      33.676  21.837  24.024  1.00  0.00     0.291 C 
ATOM     95  C   UNL A   1      34.351  23.460  25.641  1.00  0.00     0.291 C 
ATOM     96  H   UNL A   1      33.335  23.908  24.024  1.00  0.00     0.348 HD
ATOM     97  C   UNL A   1      34.123  20.704  24.955  1.00  0.00     0.221 C 
ATOM     98  C   UNL A   1      34.764  22.316  26.581  1.00  0.00     0.221 C 
ATOM     99  O   UNL A   1      35.123  21.120  25.890  1.00  0.00    -0.370 OA
ENDBRANCH  91  93
ENDBRANCH  84  86
ENDBRANCH  78  80
ENDBRANCH  77  78
ENDBRANCH  76  77
ENDBRANCH  75  76
ENDBRANCH  74  75
ENDBRANCH  73  74
ENDBRANCH   1  73
TORSDOF 22
ENDMDL
