MODEL 1
REMARK VINA RESULT:     -10.2      0.000      0.000
REMARK SMILES O=C(CS(=O)(=O)[C@@H]1CCOC2(CCCCC2)C1)OCCOCCOCCOC(=O)c1ccc(-c2c3nc(c(-c4cc(S(=O)(=O)[O-])ccc4F)c4ccc([nH]4)c(-c4cc(S(=O)(=O)[O-])ccc4F)c4nc(c(-c5cc(S(=O)(=O)[O-])ccc5F)c5ccc2[nH]5)C=C4)C=C3)cc1
REMARK SMILES IDX 23 1 22 2 21 3 20 4 19 5 18 6 2 7 1 8 3 9 4 10 5 11 6 12
REMARK SMILES IDX 7 13 8 14 17 15 9 16 11 17 10 18 12 19 16 20 13 21 15 22
REMARK SMILES IDX 14 23 24 24 25 25 26 26 27 27 28 28 29 29 30 30 31 31 92 32
REMARK SMILES IDX 32 33 91 34 33 35 34 36 35 37 85 38 36 39 90 40 84 41 86 42
REMARK SMILES IDX 37 43 89 44 83 45 82 46 38 48 70 49 50 50 69 51 51 52 54 53
REMARK SMILES IDX 68 54 87 55 52 56 53 57 67 59 88 60 55 61 39 62 40 63 48 64
REMARK SMILES IDX 41 65 47 66 49 67 46 68 42 69 43 70 44 71 45 72 71 73 72 74
REMARK SMILES IDX 80 75 73 76 79 77 81 78 78 79 74 80 75 81 76 82 77 83 56 84
REMARK SMILES IDX 57 85 65 86 58 87 64 88 66 89 63 90 59 91 60 92 61 93 62 94
REMARK H PARENT 86 47 54 58
REMARK Flexibility Score: inf
ROOT
ATOM      1  C   UNL A   1      33.085  28.985  27.234  1.00  0.00     0.188 C 
ENDROOT
BRANCH   1   2
ATOM      2  C   UNL A   1      32.273  27.695  27.009  1.00  0.00     0.188 C 
BRANCH   2   3
ATOM      3  O   UNL A   1      32.700  26.944  25.888  1.00  0.00    -0.376 OA
BRANCH   3   4
ATOM      4  C   UNL A   1      33.719  25.979  26.043  1.00  0.00     0.202 C 
BRANCH   4   5
ATOM      5  C   UNL A   1      33.648  24.760  25.111  1.00  0.00     0.261 C 
BRANCH   5   6
ATOM      6  O   UNL A   1      34.029  24.962  23.734  1.00  0.00    -0.462 OA
BRANCH   6   7
ATOM      7  C   UNL A   1      33.187  24.873  22.678  1.00  0.00     0.321 C 
ATOM      8  O   UNL A   1      33.637  24.700  21.549  1.00  0.00    -0.251 OA
BRANCH   7   9
ATOM      9  C   UNL A   1      31.776  25.269  22.891  1.00  0.00     0.259 C 
BRANCH   9  10
ATOM     10  S   UNL A   1      31.446  26.955  22.579  1.00  0.00     0.164 S 
ATOM     11  O   UNL A   1      32.718  27.654  22.590  1.00  0.00    -0.228 OA
ATOM     12  O   UNL A   1      30.671  26.969  21.349  1.00  0.00    -0.228 OA
BRANCH  10  13
ATOM     13  C   UNL A   1      30.408  27.634  23.886  1.00  0.00     0.114 C 
ATOM     14  C   UNL A   1      28.993  27.082  23.950  1.00  0.00     0.048 C 
ATOM     15  C   UNL A   1      30.436  29.165  24.020  1.00  0.00     0.055 C 
ATOM     16  C   UNL A   1      27.995  27.872  23.124  1.00  0.00     0.162 C 
ATOM     17  C   UNL A   1      29.334  29.915  23.255  1.00  0.00     0.069 C 
ATOM     18  O   UNL A   1      28.076  29.250  23.414  1.00  0.00    -0.375 OA
ATOM     19  C   UNL A   1      29.711  30.164  21.782  1.00  0.00     0.035 C 
ATOM     20  C   UNL A   1      29.107  31.311  23.886  1.00  0.00     0.035 C 
ATOM     21  C   UNL A   1      28.589  30.856  21.020  1.00  0.00     0.003 C 
ATOM     22  C   UNL A   1      27.979  32.068  23.175  1.00  0.00     0.003 C 
ATOM     23  C   UNL A   1      28.237  32.180  21.681  1.00  0.00     0.000 C 
ENDBRANCH  10  13
ENDBRANCH   9  10
ENDBRANCH   7   9
ENDBRANCH   6   7
ENDBRANCH   5   6
ENDBRANCH   4   5
ENDBRANCH   3   4
ENDBRANCH   2   3
ENDBRANCH   1   2
BRANCH   1  24
ATOM     24  O   UNL A   1      32.796  30.150  26.473  1.00  0.00    -0.376 OA
BRANCH  24  25
ATOM     25  C   UNL A   1      31.731  31.002  26.869  1.00  0.00     0.202 C 
BRANCH  25  26
ATOM     26  C   UNL A   1      31.949  32.524  26.927  1.00  0.00     0.261 C 
BRANCH  26  27
ATOM     27  O   UNL A   1      33.314  32.990  26.927  1.00  0.00    -0.460 OA
BRANCH  27  28
ATOM     28  C   UNL A   1      33.850  33.199  28.157  1.00  0.00     0.338 C 
ATOM     29  O   UNL A   1      33.341  33.822  29.073  1.00  0.00    -0.246 OA
BRANCH  28  30
ATOM     30  C   UNL A   1      35.130  32.471  28.324  1.00  0.00     0.060 A 
ATOM     31  C   UNL A   1      35.084  31.109  28.648  1.00  0.00     0.016 A 
ATOM     32  C   UNL A   1      36.351  33.150  28.335  1.00  0.00     0.016 A 
ATOM     33  C   UNL A   1      36.249  30.436  29.034  1.00  0.00     0.010 A 
ATOM     34  C   UNL A   1      37.515  32.478  28.742  1.00  0.00     0.010 A 
ATOM     35  C   UNL A   1      37.466  31.128  29.134  1.00  0.00    -0.014 A 
BRANCH  35  36
ATOM     36  C   UNL A   1      38.630  30.485  29.810  1.00  0.00     0.031 A 
ATOM     37  C   UNL A   1      38.881  30.764  31.264  1.00  0.00     0.074 A 
ATOM     38  C   UNL A   1      39.481  29.683  29.146  1.00  0.00     0.049 A 
ATOM     39  N   UNL A   1      39.848  30.336  32.033  1.00  0.00    -0.248 NA
ATOM     40  C   UNL A   1      37.952  31.696  31.916  1.00  0.00     0.031 C 
ATOM     41  C   UNL A   1      39.423  29.437  27.715  1.00  0.00     0.029 A 
ATOM     42  N   UNL A   1      40.555  28.935  29.574  1.00  0.00    -0.354 N 
ATOM     43  C   UNL A   1      39.688  30.996  33.244  1.00  0.00     0.074 A 
ATOM     44  C   UNL A   1      38.519  31.842  33.104  1.00  0.00     0.031 C 
ATOM     45  C   UNL A   1      40.378  28.550  27.394  1.00  0.00     0.029 A 
ATOM     46  C   UNL A   1      41.108  28.146  28.587  1.00  0.00     0.049 A 
ATOM     47  H   UNL A   1      40.896  28.961  30.496  1.00  0.00     0.167 HD
ATOM     48  C   UNL A   1      40.467  30.929  34.353  1.00  0.00     0.034 A 
ATOM     49  C   UNL A   1      42.074  27.202  28.638  1.00  0.00     0.034 A 
ATOM     50  C   UNL A   1      41.637  30.091  34.472  1.00  0.00     0.049 A 
ATOM     51  C   UNL A   1      42.840  27.040  29.930  1.00  0.00     0.074 A 
ATOM     52  C   UNL A   1      42.491  29.953  35.554  1.00  0.00     0.029 A 
ATOM     53  N   UNL A   1      42.126  29.253  33.477  1.00  0.00    -0.354 N 
ATOM     54  N   UNL A   1      42.676  27.672  31.069  1.00  0.00    -0.248 NA
ATOM     55  C   UNL A   1      43.961  26.088  29.928  1.00  0.00     0.031 C 
ATOM     56  C   UNL A   1      43.525  29.080  35.193  1.00  0.00     0.029 A 
ATOM     57  C   UNL A   1      43.277  28.610  33.915  1.00  0.00     0.049 A 
ATOM     58  H   UNL A   1      41.715  29.132  32.591  1.00  0.00     0.167 HD
ATOM     59  C   UNL A   1      43.694  27.221  31.903  1.00  0.00     0.074 A 
ATOM     60  C   UNL A   1      44.420  26.210  31.164  1.00  0.00     0.031 C 
ATOM     61  C   UNL A   1      44.021  27.633  33.154  1.00  0.00     0.034 A 
BRANCH  48  62
ATOM     62  C   UNL A   1      40.115  31.859  35.487  1.00  0.00     0.023 A 
ATOM     63  C   UNL A   1      39.235  31.478  36.515  1.00  0.00     0.031 A 
ATOM     64  C   UNL A   1      40.620  33.172  35.506  1.00  0.00     0.131 A 
ATOM     65  C   UNL A   1      38.820  32.423  37.464  1.00  0.00     0.055 A 
ATOM     66  C   UNL A   1      40.272  34.081  36.505  1.00  0.00     0.041 A 
ATOM     67  F   UNL A   1      41.444  33.602  34.537  1.00  0.00    -0.206 F 
ATOM     68  C   UNL A   1      39.352  33.714  37.483  1.00  0.00     0.022 A 
BRANCH  65  69
ATOM     69  S   UNL A   1      37.452  31.988  38.573  1.00  0.00     0.124 S 
ATOM     70  O   UNL A   1      38.074  32.150  39.884  1.00  0.00    -0.237 OA
ATOM     71  O   UNL A   1      36.436  32.973  38.221  1.00  0.00    -0.237 OA
ATOM     72  O   UNL A   1      37.139  30.609  38.206  1.00  0.00    -0.744 OA
ENDBRANCH  65  69
ENDBRANCH  48  62
BRANCH  49  73
ATOM     73  C   UNL A   1      42.396  26.336  27.456  1.00  0.00     0.023 A 
ATOM     74  C   UNL A   1      41.921  25.012  27.383  1.00  0.00     0.031 A 
ATOM     75  C   UNL A   1      43.218  26.782  26.408  1.00  0.00     0.131 A 
ATOM     76  C   UNL A   1      42.297  24.179  26.313  1.00  0.00     0.055 A 
ATOM     77  C   UNL A   1      43.523  25.978  25.306  1.00  0.00     0.041 A 
ATOM     78  F   UNL A   1      43.737  28.021  26.429  1.00  0.00    -0.206 F 
ATOM     79  C   UNL A   1      43.073  24.665  25.260  1.00  0.00     0.022 A 
BRANCH  76  80
ATOM     80  S   UNL A   1      41.861  22.416  26.372  1.00  0.00     0.124 S 
ATOM     81  O   UNL A   1      42.397  22.022  27.670  1.00  0.00    -0.237 OA
ATOM     82  O   UNL A   1      40.407  22.458  26.262  1.00  0.00    -0.237 OA
ATOM     83  O   UNL A   1      42.555  21.856  25.215  1.00  0.00    -0.744 OA
ENDBRANCH  76  80
ENDBRANCH  49  73
BRANCH  61  84
ATOM     84  C   UNL A   1      45.234  26.992  33.786  1.00  0.00     0.023 A 
ATOM     85  C   UNL A   1      45.122  25.839  34.585  1.00  0.00     0.031 A 
ATOM     86  C   UNL A   1      46.510  27.550  33.607  1.00  0.00     0.131 A 
ATOM     87  C   UNL A   1      46.257  25.315  35.223  1.00  0.00     0.055 A 
ATOM     88  C   UNL A   1      47.646  26.991  34.197  1.00  0.00     0.041 A 
ATOM     89  F   UNL A   1      46.677  28.652  32.858  1.00  0.00    -0.206 F 
ATOM     90  C   UNL A   1      47.521  25.876  35.021  1.00  0.00     0.022 A 
BRANCH  87  91
ATOM     91  S   UNL A   1      46.048  23.946  36.395  1.00  0.00     0.124 S 
ATOM     92  O   UNL A   1      47.129  23.044  36.006  1.00  0.00    -0.237 OA
ATOM     93  O   UNL A   1      46.203  24.610  37.684  1.00  0.00    -0.237 OA
ATOM     94  O   UNL A   1      44.700  23.454  36.110  1.00  0.00    -0.744 OA
ENDBRANCH  87  91
ENDBRANCH  61  84
ENDBRANCH  35  36
ENDBRANCH  28  30
ENDBRANCH  27  28
ENDBRANCH  26  27
ENDBRANCH  25  26
ENDBRANCH  24  25
ENDBRANCH   1  24
TORSDOF 22
ENDMDL
MODEL 2
REMARK VINA RESULT:      -9.8      3.466      5.726
REMARK SMILES O=C(CS(=O)(=O)[C@@H]1CCOC2(CCCCC2)C1)OCCOCCOCCOC(=O)c1ccc(-c2c3nc(c(-c4cc(S(=O)(=O)[O-])ccc4F)c4ccc([nH]4)c(-c4cc(S(=O)(=O)[O-])ccc4F)c4nc(c(-c5cc(S(=O)(=O)[O-])ccc5F)c5ccc2[nH]5)C=C4)C=C3)cc1
REMARK SMILES IDX 23 1 22 2 21 3 20 4 19 5 18 6 2 7 1 8 3 9 4 10 5 11 6 12
REMARK SMILES IDX 7 13 8 14 17 15 9 16 11 17 10 18 12 19 16 20 13 21 15 22
REMARK SMILES IDX 14 23 24 24 25 25 26 26 27 27 28 28 29 29 30 30 31 31 92 32
REMARK SMILES IDX 32 33 91 34 33 35 34 36 35 37 85 38 36 39 90 40 84 41 86 42
REMARK SMILES IDX 37 43 89 44 83 45 82 46 38 48 70 49 50 50 69 51 51 52 54 53
REMARK SMILES IDX 68 54 87 55 52 56 53 57 67 59 88 60 55 61 39 62 40 63 48 64
REMARK SMILES IDX 41 65 47 66 49 67 46 68 42 69 43 70 44 71 45 72 71 73 72 74
REMARK SMILES IDX 80 75 73 76 79 77 81 78 78 79 74 80 75 81 76 82 77 83 56 84
REMARK SMILES IDX 57 85 65 86 58 87 64 88 66 89 63 90 59 91 60 92 61 93 62 94
REMARK H PARENT 86 47 54 58
REMARK Flexibility Score: inf
ROOT
ATOM      1  C   UNL A   1      34.929  32.529  29.410  1.00  0.00     0.188 C 
ENDROOT
BRANCH   1   2
ATOM      2  C   UNL A   1      35.174  31.327  28.478  1.00  0.00     0.188 C 
BRANCH   2   3
ATOM      3  O   UNL A   1      34.344  31.320  27.332  1.00  0.00    -0.376 OA
BRANCH   3   4
ATOM      4  C   UNL A   1      33.193  30.501  27.310  1.00  0.00     0.202 C 
BRANCH   4   5
ATOM      5  C   UNL A   1      33.439  28.986  27.277  1.00  0.00     0.261 C 
BRANCH   5   6
ATOM      6  O   UNL A   1      33.208  28.310  26.023  1.00  0.00    -0.462 OA
BRANCH   6   7
ATOM      7  C   UNL A   1      32.015  27.816  25.618  1.00  0.00     0.321 C 
ATOM      8  O   UNL A   1      31.391  28.377  24.721  1.00  0.00    -0.251 OA
BRANCH   7   9
ATOM      9  C   UNL A   1      31.379  26.780  26.464  1.00  0.00     0.259 C 
BRANCH   9  10
ATOM     10  S   UNL A   1      31.669  25.141  25.936  1.00  0.00     0.164 S 
ATOM     11  O   UNL A   1      31.264  24.261  27.017  1.00  0.00    -0.228 OA
ATOM     12  O   UNL A   1      30.972  25.023  24.665  1.00  0.00    -0.228 OA
BRANCH  10  13
ATOM     13  C   UNL A   1      33.425  24.893  25.623  1.00  0.00     0.114 C 
ATOM     14  C   UNL A   1      33.861  25.063  24.176  1.00  0.00     0.048 C 
ATOM     15  C   UNL A   1      34.038  23.639  26.266  1.00  0.00     0.055 C 
ATOM     16  C   UNL A   1      33.816  23.776  23.374  1.00  0.00     0.162 C 
ATOM     17  C   UNL A   1      34.073  22.389  25.372  1.00  0.00     0.069 C 
ATOM     18  O   UNL A   1      34.490  22.736  24.047  1.00  0.00    -0.375 OA
ATOM     19  C   UNL A   1      32.748  21.605  25.410  1.00  0.00     0.035 C 
ATOM     20  C   UNL A   1      35.168  21.413  25.870  1.00  0.00     0.035 C 
ATOM     21  C   UNL A   1      32.775  20.403  24.477  1.00  0.00     0.003 C 
ATOM     22  C   UNL A   1      35.263  20.175  24.971  1.00  0.00     0.003 C 
ATOM     23  C   UNL A   1      33.921  19.472  24.845  1.00  0.00     0.000 C 
ENDBRANCH  10  13
ENDBRANCH   9  10
ENDBRANCH   7   9
ENDBRANCH   6   7
ENDBRANCH   5   6
ENDBRANCH   4   5
ENDBRANCH   3   4
ENDBRANCH   2   3
ENDBRANCH   1   2
BRANCH   1  24
ATOM     24  O   UNL A   1      35.137  33.853  28.934  1.00  0.00    -0.376 OA
BRANCH  24  25
ATOM     25  C   UNL A   1      34.037  34.603  28.439  1.00  0.00     0.202 C 
BRANCH  25  26
ATOM     26  C   UNL A   1      33.267  35.545  29.381  1.00  0.00     0.261 C 
BRANCH  26  27
ATOM     27  O   UNL A   1      32.672  34.954  30.556  1.00  0.00    -0.460 OA
BRANCH  27  28
ATOM     28  C   UNL A   1      32.874  35.640  31.709  1.00  0.00     0.338 C 
ATOM     29  O   UNL A   1      32.224  36.591  32.110  1.00  0.00    -0.246 OA
BRANCH  28  30
ATOM     30  C   UNL A   1      33.946  35.027  32.528  1.00  0.00     0.060 A 
ATOM     31  C   UNL A   1      35.181  35.683  32.609  1.00  0.00     0.016 A 
ATOM     32  C   UNL A   1      33.802  33.745  33.064  1.00  0.00     0.016 A 
ATOM     33  C   UNL A   1      36.287  35.040  33.177  1.00  0.00     0.010 A 
ATOM     34  C   UNL A   1      34.917  33.093  33.616  1.00  0.00     0.010 A 
ATOM     35  C   UNL A   1      36.176  33.718  33.639  1.00  0.00    -0.014 A 
BRANCH  35  36
ATOM     36  C   UNL A   1      37.407  32.948  33.977  1.00  0.00     0.031 A 
ATOM     37  C   UNL A   1      38.073  33.175  35.304  1.00  0.00     0.074 A 
ATOM     38  C   UNL A   1      37.958  32.075  33.115  1.00  0.00     0.049 A 
ATOM     39  N   UNL A   1      39.164  32.636  35.783  1.00  0.00    -0.248 NA
ATOM     40  C   UNL A   1      37.459  34.185  36.175  1.00  0.00     0.031 C 
ATOM     41  C   UNL A   1      37.486  31.862  31.757  1.00  0.00     0.029 A 
ATOM     42  N   UNL A   1      39.024  31.214  33.240  1.00  0.00    -0.354 N 
ATOM     43  C   UNL A   1      39.411  33.288  36.984  1.00  0.00     0.074 A 
ATOM     44  C   UNL A   1      38.341  34.252  37.160  1.00  0.00     0.031 C 
ATOM     45  C   UNL A   1      38.219  30.887  31.196  1.00  0.00     0.029 A 
ATOM     46  C   UNL A   1      39.202  30.390  32.149  1.00  0.00     0.049 A 
ATOM     47  H   UNL A   1      39.606  31.188  34.034  1.00  0.00     0.167 HD
ATOM     48  C   UNL A   1      40.452  33.123  37.838  1.00  0.00     0.034 A 
ATOM     49  C   UNL A   1      40.042  29.351  31.945  1.00  0.00     0.034 A 
ATOM     50  C   UNL A   1      41.517  32.168  37.642  1.00  0.00     0.049 A 
ATOM     51  C   UNL A   1      41.112  29.090  32.978  1.00  0.00     0.074 A 
ATOM     52  C   UNL A   1      42.615  31.924  38.450  1.00  0.00     0.029 A 
ATOM     53  N   UNL A   1      41.627  31.301  36.561  1.00  0.00    -0.354 N 
ATOM     54  N   UNL A   1      41.331  29.715  34.112  1.00  0.00    -0.248 NA
ATOM     55  C   UNL A   1      42.085  28.028  32.680  1.00  0.00     0.031 C 
ATOM     56  C   UNL A   1      43.416  30.956  37.830  1.00  0.00     0.029 A 
ATOM     57  C   UNL A   1      42.781  30.537  36.674  1.00  0.00     0.049 A 
ATOM     58  H   UNL A   1      40.979  31.238  35.822  1.00  0.00     0.167 HD
ATOM     59  C   UNL A   1      42.487  29.148  34.641  1.00  0.00     0.074 A 
ATOM     60  C   UNL A   1      42.875  28.080  33.742  1.00  0.00     0.031 C 
ATOM     61  C   UNL A   1      43.184  29.502  35.750  1.00  0.00     0.034 A 
BRANCH  48  62
ATOM     62  C   UNL A   1      40.521  34.064  39.015  1.00  0.00     0.023 A 
ATOM     63  C   UNL A   1      41.293  35.238  38.983  1.00  0.00     0.031 A 
ATOM     64  C   UNL A   1      39.854  33.747  40.212  1.00  0.00     0.131 A 
ATOM     65  C   UNL A   1      41.449  36.003  40.149  1.00  0.00     0.055 A 
ATOM     66  C   UNL A   1      39.941  34.560  41.343  1.00  0.00     0.041 A 
ATOM     67  F   UNL A   1      39.123  32.625  40.312  1.00  0.00    -0.206 F 
ATOM     68  C   UNL A   1      40.758  35.688  41.321  1.00  0.00     0.022 A 
BRANCH  65  69
ATOM     69  S   UNL A   1      42.695  37.320  40.156  1.00  0.00     0.124 S 
ATOM     70  O   UNL A   1      42.715  37.712  38.749  1.00  0.00    -0.237 OA
ATOM     71  O   UNL A   1      42.123  38.290  41.082  1.00  0.00    -0.237 OA
ATOM     72  O   UNL A   1      43.904  36.645  40.624  1.00  0.00    -0.744 OA
ENDBRANCH  65  69
ENDBRANCH  48  62
BRANCH  49  73
ATOM     73  C   UNL A   1      39.938  28.477  30.729  1.00  0.00     0.023 A 
ATOM     74  C   UNL A   1      40.751  28.712  29.602  1.00  0.00     0.031 A 
ATOM     75  C   UNL A   1      39.003  27.432  30.641  1.00  0.00     0.131 A 
ATOM     76  C   UNL A   1      40.588  27.942  28.436  1.00  0.00     0.055 A 
ATOM     77  C   UNL A   1      38.901  26.618  29.510  1.00  0.00     0.041 A 
ATOM     78  F   UNL A   1      38.171  27.174  31.663  1.00  0.00    -0.206 F 
ATOM     79  C   UNL A   1      39.688  26.878  28.394  1.00  0.00     0.022 A 
BRANCH  76  80
ATOM     80  S   UNL A   1      41.484  28.425  26.930  1.00  0.00     0.124 S 
ATOM     81  O   UNL A   1      40.429  29.062  26.150  1.00  0.00    -0.237 OA
ATOM     82  O   UNL A   1      42.517  29.307  27.460  1.00  0.00    -0.237 OA
ATOM     83  O   UNL A   1      41.967  27.151  26.400  1.00  0.00    -0.744 OA
ENDBRANCH  76  80
ENDBRANCH  49  73
BRANCH  61  84
ATOM     84  C   UNL A   1      44.450  28.729  36.033  1.00  0.00     0.023 A 
ATOM     85  C   UNL A   1      44.426  27.516  36.743  1.00  0.00     0.031 A 
ATOM     86  C   UNL A   1      45.696  29.221  35.608  1.00  0.00     0.131 A 
ATOM     87  C   UNL A   1      45.629  26.864  37.059  1.00  0.00     0.055 A 
ATOM     88  C   UNL A   1      46.885  28.539  35.874  1.00  0.00     0.041 A 
ATOM     89  F   UNL A   1      45.779  30.376  34.927  1.00  0.00    -0.206 F 
ATOM     90  C   UNL A   1      46.856  27.361  36.615  1.00  0.00     0.022 A 
BRANCH  87  91
ATOM     91  S   UNL A   1      45.576  25.406  38.138  1.00  0.00     0.124 S 
ATOM     92  O   UNL A   1      45.749  26.000  39.461  1.00  0.00    -0.237 OA
ATOM     93  O   UNL A   1      44.255  24.854  37.855  1.00  0.00    -0.237 OA
ATOM     94  O   UNL A   1      46.699  24.593  37.673  1.00  0.00    -0.744 OA
ENDBRANCH  87  91
ENDBRANCH  61  84
ENDBRANCH  35  36
ENDBRANCH  28  30
ENDBRANCH  27  28
ENDBRANCH  26  27
ENDBRANCH  25  26
ENDBRANCH  24  25
ENDBRANCH   1  24
TORSDOF 22
ENDMDL
MODEL 3
REMARK VINA RESULT:      -9.6      6.043      9.555
REMARK SMILES O=C(CS(=O)(=O)[C@@H]1CCOC2(CCCCC2)C1)OCCOCCOCCOC(=O)c1ccc(-c2c3nc(c(-c4cc(S(=O)(=O)[O-])ccc4F)c4ccc([nH]4)c(-c4cc(S(=O)(=O)[O-])ccc4F)c4nc(c(-c5cc(S(=O)(=O)[O-])ccc5F)c5ccc2[nH]5)C=C4)C=C3)cc1
REMARK SMILES IDX 23 1 22 2 21 3 20 4 19 5 18 6 2 7 1 8 3 9 4 10 5 11 6 12
REMARK SMILES IDX 7 13 8 14 17 15 9 16 11 17 10 18 12 19 16 20 13 21 15 22
REMARK SMILES IDX 14 23 24 24 25 25 26 26 27 27 28 28 29 29 30 30 31 31 92 32
REMARK SMILES IDX 32 33 91 34 33 35 34 36 35 37 85 38 36 39 90 40 84 41 86 42
REMARK SMILES IDX 37 43 89 44 83 45 82 46 38 48 70 49 50 50 69 51 51 52 54 53
REMARK SMILES IDX 68 54 87 55 52 56 53 57 67 59 88 60 55 61 39 62 40 63 48 64
REMARK SMILES IDX 41 65 47 66 49 67 46 68 42 69 43 70 44 71 45 72 71 73 72 74
REMARK SMILES IDX 80 75 73 76 79 77 81 78 78 79 74 80 75 81 76 82 77 83 56 84
REMARK SMILES IDX 57 85 65 86 58 87 64 88 66 89 63 90 59 91 60 92 61 93 62 94
REMARK H PARENT 86 47 54 58
REMARK Flexibility Score: inf
ROOT
ATOM      1  C   UNL A   1      40.915  20.286  26.824  1.00  0.00     0.188 C 
ENDROOT
BRANCH   1   2
ATOM      2  C   UNL A   1      40.497  21.746  27.079  1.00  0.00     0.188 C 
BRANCH   2   3
ATOM      3  O   UNL A   1      39.700  22.297  26.047  1.00  0.00    -0.376 OA
BRANCH   3   4
ATOM      4  C   UNL A   1      38.446  21.719  25.750  1.00  0.00     0.202 C 
BRANCH   4   5
ATOM      5  C   UNL A   1      37.301  22.697  25.452  1.00  0.00     0.261 C 
BRANCH   5   6
ATOM      6  O   UNL A   1      36.288  22.259  24.523  1.00  0.00    -0.462 OA
BRANCH   6   7
ATOM      7  C   UNL A   1      35.750  23.026  23.546  1.00  0.00     0.321 C 
ATOM      8  O   UNL A   1      36.242  23.021  22.421  1.00  0.00    -0.251 OA
BRANCH   7   9
ATOM      9  C   UNL A   1      34.761  24.054  23.947  1.00  0.00     0.259 C 
BRANCH   9  10
ATOM     10  S   UNL A   1      33.566  24.419  22.727  1.00  0.00     0.164 S 
ATOM     11  O   UNL A   1      34.030  25.590  22.005  1.00  0.00    -0.228 OA
ATOM     12  O   UNL A   1      33.396  23.183  21.981  1.00  0.00    -0.228 OA
BRANCH  10  13
ATOM     13  C   UNL A   1      31.989  24.812  23.503  1.00  0.00     0.114 C 
ATOM     14  C   UNL A   1      31.134  25.830  22.765  1.00  0.00     0.048 C 
ATOM     15  C   UNL A   1      32.050  25.095  25.012  1.00  0.00     0.055 C 
ATOM     16  C   UNL A   1      31.390  27.263  23.195  1.00  0.00     0.162 C 
ATOM     17  C   UNL A   1      32.196  26.576  25.400  1.00  0.00     0.069 C 
ATOM     18  O   UNL A   1      31.331  27.388  24.599  1.00  0.00    -0.375 OA
ATOM     19  C   UNL A   1      33.663  27.043  25.381  1.00  0.00     0.035 C 
ATOM     20  C   UNL A   1      31.689  26.796  26.847  1.00  0.00     0.035 C 
ATOM     21  C   UNL A   1      33.789  28.524  25.711  1.00  0.00     0.003 C 
ATOM     22  C   UNL A   1      31.776  28.273  27.250  1.00  0.00     0.003 C 
ATOM     23  C   UNL A   1      33.184  28.817  27.076  1.00  0.00     0.000 C 
ENDBRANCH  10  13
ENDBRANCH   9  10
ENDBRANCH   7   9
ENDBRANCH   6   7
ENDBRANCH   5   6
ENDBRANCH   4   5
ENDBRANCH   3   4
ENDBRANCH   2   3
ENDBRANCH   1   2
BRANCH   1  24
ATOM     24  O   UNL A   1      42.087  19.764  27.437  1.00  0.00    -0.376 OA
BRANCH  24  25
ATOM     25  C   UNL A   1      42.660  18.561  26.948  1.00  0.00     0.202 C 
BRANCH  25  26
ATOM     26  C   UNL A   1      43.318  18.535  25.557  1.00  0.00     0.261 C 
BRANCH  26  27
ATOM     27  O   UNL A   1      44.567  19.243  25.411  1.00  0.00    -0.460 OA
BRANCH  27  28
ATOM     28  C   UNL A   1      44.544  20.274  24.528  1.00  0.00     0.338 C 
ATOM     29  O   UNL A   1      44.544  20.187  23.312  1.00  0.00    -0.246 OA
BRANCH  28  30
ATOM     30  C   UNL A   1      44.403  21.578  25.218  1.00  0.00     0.060 A 
ATOM     31  C   UNL A   1      43.910  22.668  24.489  1.00  0.00     0.016 A 
ATOM     32  C   UNL A   1      44.908  21.771  26.507  1.00  0.00     0.016 A 
ATOM     33  C   UNL A   1      43.970  23.960  25.024  1.00  0.00     0.010 A 
ATOM     34  C   UNL A   1      44.985  23.071  27.034  1.00  0.00     0.010 A 
ATOM     35  C   UNL A   1      44.556  24.179  26.281  1.00  0.00    -0.014 A 
BRANCH  35  36
ATOM     36  C   UNL A   1      44.872  25.569  26.718  1.00  0.00     0.031 A 
ATOM     37  C   UNL A   1      43.829  26.363  27.451  1.00  0.00     0.074 A 
ATOM     38  C   UNL A   1      46.056  26.146  26.448  1.00  0.00     0.049 A 
ATOM     39  N   UNL A   1      43.884  27.593  27.890  1.00  0.00    -0.248 NA
ATOM     40  C   UNL A   1      42.536  25.699  27.660  1.00  0.00     0.031 C 
ATOM     41  C   UNL A   1      47.097  25.534  25.640  1.00  0.00     0.029 A 
ATOM     42  N   UNL A   1      46.585  27.364  26.813  1.00  0.00    -0.354 N 
ATOM     43  C   UNL A   1      42.612  27.881  28.369  1.00  0.00     0.074 A 
ATOM     44  C   UNL A   1      41.816  26.684  28.176  1.00  0.00     0.031 C 
ATOM     45  C   UNL A   1      48.161  26.352  25.620  1.00  0.00     0.029 A 
ATOM     46  C   UNL A   1      47.897  27.536  26.424  1.00  0.00     0.049 A 
ATOM     47  H   UNL A   1      46.076  28.047  27.306  1.00  0.00     0.167 HD
ATOM     48  C   UNL A   1      42.147  29.046  28.885  1.00  0.00     0.034 A 
ATOM     49  C   UNL A   1      48.784  28.521  26.693  1.00  0.00     0.034 A 
ATOM     50  C   UNL A   1      42.949  30.233  29.059  1.00  0.00     0.049 A 
ATOM     51  C   UNL A   1      48.279  29.757  27.399  1.00  0.00     0.074 A 
ATOM     52  C   UNL A   1      42.570  31.462  29.574  1.00  0.00     0.029 A 
ATOM     53  N   UNL A   1      44.292  30.350  28.719  1.00  0.00    -0.354 N 
ATOM     54  N   UNL A   1      47.072  30.013  27.848  1.00  0.00    -0.248 NA
ATOM     55  C   UNL A   1      49.234  30.861  27.579  1.00  0.00     0.031 C 
ATOM     56  C   UNL A   1      43.662  32.335  29.490  1.00  0.00     0.029 A 
ATOM     57  C   UNL A   1      44.748  31.632  28.996  1.00  0.00     0.049 A 
ATOM     58  H   UNL A   1      44.840  29.627  28.337  1.00  0.00     0.167 HD
ATOM     59  C   UNL A   1      47.115  31.319  28.327  1.00  0.00     0.074 A 
ATOM     60  C   UNL A   1      48.483  31.770  28.183  1.00  0.00     0.031 C 
ATOM     61  C   UNL A   1      46.106  32.088  28.809  1.00  0.00     0.034 A 
BRANCH  48  62
ATOM     62  C   UNL A   1      40.675  29.103  29.214  1.00  0.00     0.023 A 
ATOM     63  C   UNL A   1      40.206  29.014  30.536  1.00  0.00     0.031 A 
ATOM     64  C   UNL A   1      39.725  29.184  28.181  1.00  0.00     0.131 A 
ATOM     65  C   UNL A   1      38.828  28.920  30.782  1.00  0.00     0.055 A 
ATOM     66  C   UNL A   1      38.353  29.180  28.440  1.00  0.00     0.041 A 
ATOM     67  F   UNL A   1      40.112  29.245  26.897  1.00  0.00    -0.206 F 
ATOM     68  C   UNL A   1      37.897  29.029  29.746  1.00  0.00     0.022 A 
BRANCH  65  69
ATOM     69  S   UNL A   1      38.278  28.489  32.456  1.00  0.00     0.124 S 
ATOM     70  O   UNL A   1      38.375  27.032  32.430  1.00  0.00    -0.237 OA
ATOM     71  O   UNL A   1      39.251  29.180  33.294  1.00  0.00    -0.237 OA
ATOM     72  O   UNL A   1      36.916  29.015  32.514  1.00  0.00    -0.744 OA
ENDBRANCH  65  69
ENDBRANCH  48  62
BRANCH  49  73
ATOM     73  C   UNL A   1      50.228  28.412  26.302  1.00  0.00     0.023 A 
ATOM     74  C   UNL A   1      50.665  28.839  25.033  1.00  0.00     0.031 A 
ATOM     75  C   UNL A   1      51.189  27.840  27.154  1.00  0.00     0.131 A 
ATOM     76  C   UNL A   1      52.004  28.656  24.643  1.00  0.00     0.055 A 
ATOM     77  C   UNL A   1      52.535  27.734  26.793  1.00  0.00     0.041 A 
ATOM     78  F   UNL A   1      50.837  27.378  28.364  1.00  0.00    -0.206 F 
ATOM     79  C   UNL A   1      52.947  28.131  25.527  1.00  0.00     0.022 A 
BRANCH  76  80
ATOM     80  S   UNL A   1      52.476  28.999  22.922  1.00  0.00     0.124 S 
ATOM     81  O   UNL A   1      52.319  27.687  22.304  1.00  0.00    -0.237 OA
ATOM     82  O   UNL A   1      51.501  30.013  22.536  1.00  0.00    -0.237 OA
ATOM     83  O   UNL A   1      53.853  29.473  23.036  1.00  0.00    -0.744 OA
ENDBRANCH  76  80
ENDBRANCH  49  73
BRANCH  61  84
ATOM     84  C   UNL A   1      46.456  33.505  29.197  1.00  0.00     0.023 A 
ATOM     85  C   UNL A   1      46.347  34.565  28.279  1.00  0.00     0.031 A 
ATOM     86  C   UNL A   1      46.922  33.796  30.490  1.00  0.00     0.131 A 
ATOM     87  C   UNL A   1      46.756  35.857  28.646  1.00  0.00     0.055 A 
ATOM     88  C   UNL A   1      47.273  35.093  30.869  1.00  0.00     0.041 A 
ATOM     89  F   UNL A   1      47.048  32.823  31.407  1.00  0.00    -0.206 F 
ATOM     90  C   UNL A   1      47.204  36.129  29.941  1.00  0.00     0.022 A 
BRANCH  87  91
ATOM     91  S   UNL A   1      46.783  37.158  27.383  1.00  0.00     0.124 S 
ATOM     92  O   UNL A   1      47.186  38.328  28.159  1.00  0.00    -0.237 OA
ATOM     93  O   UNL A   1      47.767  36.653  26.433  1.00  0.00    -0.237 OA
ATOM     94  O   UNL A   1      45.406  37.188  26.891  1.00  0.00    -0.744 OA
ENDBRANCH  87  91
ENDBRANCH  61  84
ENDBRANCH  35  36
ENDBRANCH  28  30
ENDBRANCH  27  28
ENDBRANCH  26  27
ENDBRANCH  25  26
ENDBRANCH  24  25
ENDBRANCH   1  24
TORSDOF 22
ENDMDL
