MODEL 1
REMARK VINA RESULT:     -10.4      0.000      0.000
REMARK SMILES C[C@H](C(=O)OCCOCCOCCOC(=O)c1ccc(-c2c3nc(c(-c4cc(S(=O)(=O)[O-])ccc4F)c4ccc([nH]4)c(-c4cc(S(=O)(=O)[O-])ccc4F)c4nc(c(-c5cc(S(=O)(=O)[O-])ccc5F)c5ccc2[nH]5)C=C4)C=C3)cc1)c1ccc(-c2ccccc2)c(F)c1
REMARK SMILES IDX 10 1 9 2 8 3 7 4 6 5 5 6 3 7 4 8 2 9 1 10 80 11 81 12 92 13
REMARK SMILES IDX 82 14 90 15 83 16 91 17 84 18 85 19 89 20 86 21 88 22 87 23
REMARK SMILES IDX 11 24 12 25 13 26 14 27 15 28 16 29 17 30 18 31 79 32 19 33
REMARK SMILES IDX 78 34 20 35 21 36 22 37 72 38 23 39 77 40 71 41 73 42 24 43
REMARK SMILES IDX 76 44 70 45 69 46 25 48 57 49 37 50 56 51 38 52 41 53 55 54
REMARK SMILES IDX 74 55 39 56 40 57 54 59 75 60 42 61 26 62 27 63 35 64 28 65
REMARK SMILES IDX 34 66 36 67 33 68 29 69 30 70 31 71 32 72 58 73 59 74 67 75
REMARK SMILES IDX 60 76 66 77 68 78 65 79 61 80 62 81 63 82 64 83 43 84 44 85
REMARK SMILES IDX 52 86 45 87 51 88 53 89 50 90 46 91 47 92 48 93 49 94
REMARK H PARENT 73 47 41 58
REMARK Flexibility Score: inf
ROOT
ATOM      1  C   UNL A   1      36.047  22.070  25.752  1.00  0.00     0.188 C 
ENDROOT
BRANCH   1   2
ATOM      2  C   UNL A   1      35.147  23.092  25.046  1.00  0.00     0.188 C 
BRANCH   2   3
ATOM      3  O   UNL A   1      35.363  24.478  25.292  1.00  0.00    -0.376 OA
BRANCH   3   4
ATOM      4  C   UNL A   1      34.259  25.292  25.673  1.00  0.00     0.202 C 
BRANCH   4   5
ATOM      5  C   UNL A   1      33.541  26.082  24.567  1.00  0.00     0.261 C 
BRANCH   5   6
ATOM      6  O   UNL A   1      32.260  26.635  24.951  1.00  0.00    -0.463 OA
BRANCH   6   7
ATOM      7  C   UNL A   1      31.461  25.855  25.727  1.00  0.00     0.313 C 
ATOM      8  O   UNL A   1      31.345  26.012  26.941  1.00  0.00    -0.252 OA
BRANCH   7   9
ATOM      9  C   UNL A   1      30.638  24.792  24.980  1.00  0.00     0.126 C 
ATOM     10  C   UNL A   1      29.973  25.481  23.776  1.00  0.00     0.025 C 
BRANCH   9  11
ATOM     11  C   UNL A   1      31.291  23.443  24.662  1.00  0.00    -0.031 A 
ATOM     12  C   UNL A   1      31.525  22.525  25.697  1.00  0.00     0.005 A 
ATOM     13  C   UNL A   1      31.599  23.025  23.354  1.00  0.00     0.044 A 
ATOM     14  C   UNL A   1      32.050  21.246  25.435  1.00  0.00     0.012 A 
ATOM     15  C   UNL A   1      32.145  21.761  23.103  1.00  0.00     0.131 A 
ATOM     16  C   UNL A   1      32.375  20.843  24.131  1.00  0.00     0.017 A 
ATOM     17  F   UNL A   1      32.432  21.438  21.832  1.00  0.00    -0.206 F 
BRANCH  16  18
ATOM     18  C   UNL A   1      32.920  19.505  23.863  1.00  0.00    -0.015 A 
ATOM     19  C   UNL A   1      34.060  19.045  24.542  1.00  0.00     0.009 A 
ATOM     20  C   UNL A   1      32.317  18.651  22.927  1.00  0.00     0.009 A 
ATOM     21  C   UNL A   1      34.584  17.773  24.288  1.00  0.00     0.001 A 
ATOM     22  C   UNL A   1      32.844  17.382  22.667  1.00  0.00     0.001 A 
ATOM     23  C   UNL A   1      33.978  16.945  23.346  1.00  0.00     0.000 A 
ENDBRANCH  16  18
ENDBRANCH   9  11
ENDBRANCH   7   9
ENDBRANCH   6   7
ENDBRANCH   5   6
ENDBRANCH   4   5
ENDBRANCH   3   4
ENDBRANCH   2   3
ENDBRANCH   1   2
BRANCH   1  24
ATOM     24  O   UNL A   1      37.209  21.738  25.021  1.00  0.00    -0.376 OA
BRANCH  24  25
ATOM     25  C   UNL A   1      38.414  21.672  25.757  1.00  0.00     0.202 C 
BRANCH  25  26
ATOM     26  C   UNL A   1      39.231  20.411  25.448  1.00  0.00     0.261 C 
BRANCH  26  27
ATOM     27  O   UNL A   1      40.180  20.031  26.463  1.00  0.00    -0.460 OA
BRANCH  27  28
ATOM     28  C   UNL A   1      41.490  20.136  26.141  1.00  0.00     0.338 C 
ATOM     29  O   UNL A   1      42.143  19.324  25.497  1.00  0.00    -0.246 OA
BRANCH  28  30
ATOM     30  C   UNL A   1      41.944  21.499  26.497  1.00  0.00     0.060 A 
ATOM     31  C   UNL A   1      42.030  21.863  27.848  1.00  0.00     0.016 A 
ATOM     32  C   UNL A   1      42.293  22.412  25.501  1.00  0.00     0.016 A 
ATOM     33  C   UNL A   1      42.450  23.147  28.206  1.00  0.00     0.010 A 
ATOM     34  C   UNL A   1      42.690  23.704  25.860  1.00  0.00     0.010 A 
ATOM     35  C   UNL A   1      42.747  24.090  27.212  1.00  0.00    -0.014 A 
BRANCH  35  36
ATOM     36  C   UNL A   1      42.929  25.524  27.564  1.00  0.00     0.031 A 
ATOM     37  C   UNL A   1      44.317  26.105  27.491  1.00  0.00     0.074 A 
ATOM     38  C   UNL A   1      41.897  26.301  27.938  1.00  0.00     0.049 A 
ATOM     39  N   UNL A   1      44.749  27.283  27.857  1.00  0.00    -0.248 NA
ATOM     40  C   UNL A   1      45.356  25.226  26.934  1.00  0.00     0.031 C 
ATOM     41  C   UNL A   1      40.498  25.881  27.992  1.00  0.00     0.029 A 
ATOM     42  N   UNL A   1      41.871  27.610  28.359  1.00  0.00    -0.354 N 
ATOM     43  C   UNL A   1      46.114  27.286  27.585  1.00  0.00     0.074 A 
ATOM     44  C   UNL A   1      46.439  25.976  27.059  1.00  0.00     0.031 C 
ATOM     45  C   UNL A   1      39.752  26.907  28.439  1.00  0.00     0.029 A 
ATOM     46  C   UNL A   1      40.623  28.039  28.750  1.00  0.00     0.049 A 
ATOM     47  H   UNL A   1      42.670  28.184  28.379  1.00  0.00     0.167 HD
ATOM     48  C   UNL A   1      47.011  28.289  27.751  1.00  0.00     0.034 A 
ATOM     49  C   UNL A   1      40.236  29.197  29.328  1.00  0.00     0.034 A 
ATOM     50  C   UNL A   1      46.677  29.584  28.290  1.00  0.00     0.049 A 
ATOM     51  C   UNL A   1      41.272  30.265  29.607  1.00  0.00     0.074 A 
ATOM     52  C   UNL A   1      47.508  30.671  28.501  1.00  0.00     0.029 A 
ATOM     53  N   UNL A   1      45.412  29.967  28.719  1.00  0.00    -0.354 N 
ATOM     54  N   UNL A   1      42.562  30.254  29.357  1.00  0.00    -0.248 NA
ATOM     55  C   UNL A   1      40.797  31.502  30.242  1.00  0.00     0.031 C 
ATOM     56  C   UNL A   1      46.767  31.677  29.129  1.00  0.00     0.029 A 
ATOM     57  C   UNL A   1      45.449  31.258  29.226  1.00  0.00     0.049 A 
ATOM     58  H   UNL A   1      44.605  29.403  28.672  1.00  0.00     0.167 HD
ATOM     59  C   UNL A   1      43.041  31.495  29.773  1.00  0.00     0.074 A 
ATOM     60  C   UNL A   1      41.902  32.232  30.278  1.00  0.00     0.031 C 
ATOM     61  C   UNL A   1      44.308  31.984  29.735  1.00  0.00     0.034 A 
BRANCH  48  62
ATOM     62  C   UNL A   1      48.450  27.995  27.397  1.00  0.00     0.023 A 
ATOM     63  C   UNL A   1      48.971  28.270  26.120  1.00  0.00     0.031 A 
ATOM     64  C   UNL A   1      49.305  27.397  28.340  1.00  0.00     0.131 A 
ATOM     65  C   UNL A   1      50.279  27.877  25.799  1.00  0.00     0.055 A 
ATOM     66  C   UNL A   1      50.633  27.089  28.040  1.00  0.00     0.041 A 
ATOM     67  F   UNL A   1      48.858  27.086  29.568  1.00  0.00    -0.206 F 
ATOM     68  C   UNL A   1      51.123  27.313  26.757  1.00  0.00     0.022 A 
BRANCH  65  69
ATOM     69  S   UNL A   1      50.809  27.968  24.066  1.00  0.00     0.124 S 
ATOM     70  O   UNL A   1      49.531  27.890  23.363  1.00  0.00    -0.237 OA
ATOM     71  O   UNL A   1      51.492  29.256  24.012  1.00  0.00    -0.237 OA
ATOM     72  O   UNL A   1      51.670  26.797  23.908  1.00  0.00    -0.744 OA
ENDBRANCH  65  69
ENDBRANCH  48  62
BRANCH  49  73
ATOM     73  C   UNL A   1      38.816  29.399  29.745  1.00  0.00     0.023 A 
ATOM     74  C   UNL A   1      37.915  30.121  28.945  1.00  0.00     0.031 A 
ATOM     75  C   UNL A   1      38.357  28.927  30.987  1.00  0.00     0.131 A 
ATOM     76  C   UNL A   1      36.620  30.389  29.415  1.00  0.00     0.055 A 
ATOM     77  C   UNL A   1      37.049  29.143  31.425  1.00  0.00     0.041 A 
ATOM     78  F   UNL A   1      39.177  28.240  31.799  1.00  0.00    -0.206 F 
ATOM     79  C   UNL A   1      36.175  29.891  30.642  1.00  0.00     0.022 A 
BRANCH  76  80
ATOM     80  S   UNL A   1      35.549  31.484  28.442  1.00  0.00     0.124 S 
ATOM     81  O   UNL A   1      36.520  32.393  27.845  1.00  0.00    -0.237 OA
ATOM     82  O   UNL A   1      34.902  30.545  27.531  1.00  0.00    -0.237 OA
ATOM     83  O   UNL A   1      34.669  32.081  29.446  1.00  0.00    -0.744 OA
ENDBRANCH  76  80
ENDBRANCH  49  73
BRANCH  61  84
ATOM     84  C   UNL A   1      44.520  33.408  30.199  1.00  0.00     0.023 A 
ATOM     85  C   UNL A   1      44.860  33.718  31.528  1.00  0.00     0.031 A 
ATOM     86  C   UNL A   1      44.376  34.474  29.291  1.00  0.00     0.131 A 
ATOM     87  C   UNL A   1      44.989  35.059  31.923  1.00  0.00     0.055 A 
ATOM     88  C   UNL A   1      44.572  35.802  29.674  1.00  0.00     0.041 A 
ATOM     89  F   UNL A   1      44.048  34.241  28.010  1.00  0.00    -0.206 F 
ATOM     90  C   UNL A   1      44.867  36.101  31.000  1.00  0.00     0.022 A 
BRANCH  87  91
ATOM     91  S   UNL A   1      45.222  35.433  33.683  1.00  0.00     0.124 S 
ATOM     92  O   UNL A   1      44.513  34.330  34.323  1.00  0.00    -0.237 OA
ATOM     93  O   UNL A   1      46.675  35.421  33.817  1.00  0.00    -0.237 OA
ATOM     94  O   UNL A   1      44.597  36.745  33.841  1.00  0.00    -0.744 OA
ENDBRANCH  87  91
ENDBRANCH  61  84
ENDBRANCH  35  36
ENDBRANCH  28  30
ENDBRANCH  27  28
ENDBRANCH  26  27
ENDBRANCH  25  26
ENDBRANCH  24  25
ENDBRANCH   1  24
TORSDOF 22
ENDMDL
MODEL 2
REMARK VINA RESULT:     -10.1      2.457      4.699
REMARK SMILES C[C@H](C(=O)OCCOCCOCCOC(=O)c1ccc(-c2c3nc(c(-c4cc(S(=O)(=O)[O-])ccc4F)c4ccc([nH]4)c(-c4cc(S(=O)(=O)[O-])ccc4F)c4nc(c(-c5cc(S(=O)(=O)[O-])ccc5F)c5ccc2[nH]5)C=C4)C=C3)cc1)c1ccc(-c2ccccc2)c(F)c1
REMARK SMILES IDX 10 1 9 2 8 3 7 4 6 5 5 6 3 7 4 8 2 9 1 10 80 11 81 12 92 13
REMARK SMILES IDX 82 14 90 15 83 16 91 17 84 18 85 19 89 20 86 21 88 22 87 23
REMARK SMILES IDX 11 24 12 25 13 26 14 27 15 28 16 29 17 30 18 31 79 32 19 33
REMARK SMILES IDX 78 34 20 35 21 36 22 37 72 38 23 39 77 40 71 41 73 42 24 43
REMARK SMILES IDX 76 44 70 45 69 46 25 48 57 49 37 50 56 51 38 52 41 53 55 54
REMARK SMILES IDX 74 55 39 56 40 57 54 59 75 60 42 61 26 62 27 63 35 64 28 65
REMARK SMILES IDX 34 66 36 67 33 68 29 69 30 70 31 71 32 72 58 73 59 74 67 75
REMARK SMILES IDX 60 76 66 77 68 78 65 79 61 80 62 81 63 82 64 83 43 84 44 85
REMARK SMILES IDX 52 86 45 87 51 88 53 89 50 90 46 91 47 92 48 93 49 94
REMARK H PARENT 73 47 41 58
REMARK Flexibility Score: inf
ROOT
ATOM      1  C   UNL A   1      35.054  20.310  24.929  1.00  0.00     0.188 C 
ENDROOT
BRANCH   1   2
ATOM      2  C   UNL A   1      33.564  19.956  24.840  1.00  0.00     0.188 C 
BRANCH   2   3
ATOM      3  O   UNL A   1      32.663  20.556  25.765  1.00  0.00    -0.376 OA
BRANCH   3   4
ATOM      4  C   UNL A   1      32.574  21.975  25.822  1.00  0.00     0.202 C 
BRANCH   4   5
ATOM      5  C   UNL A   1      32.286  22.725  24.512  1.00  0.00     0.261 C 
BRANCH   5   6
ATOM      6  O   UNL A   1      32.158  24.160  24.649  1.00  0.00    -0.463 OA
BRANCH   6   7
ATOM      7  C   UNL A   1      31.006  24.720  24.195  1.00  0.00     0.313 C 
ATOM      8  O   UNL A   1      30.385  24.288  23.226  1.00  0.00    -0.252 OA
BRANCH   7   9
ATOM      9  C   UNL A   1      30.469  25.902  25.020  1.00  0.00     0.126 C 
ATOM     10  C   UNL A   1      29.530  25.330  26.095  1.00  0.00     0.025 C 
BRANCH   9  11
ATOM     11  C   UNL A   1      31.460  26.953  25.533  1.00  0.00    -0.031 A 
ATOM     12  C   UNL A   1      31.388  27.384  26.866  1.00  0.00     0.005 A 
ATOM     13  C   UNL A   1      32.518  27.459  24.754  1.00  0.00     0.044 A 
ATOM     14  C   UNL A   1      32.328  28.287  27.395  1.00  0.00     0.012 A 
ATOM     15  C   UNL A   1      33.433  28.378  25.279  1.00  0.00     0.131 A 
ATOM     16  C   UNL A   1      33.366  28.804  26.607  1.00  0.00     0.017 A 
ATOM     17  F   UNL A   1      34.404  28.833  24.471  1.00  0.00    -0.206 F 
BRANCH  16  18
ATOM     18  C   UNL A   1      34.347  29.746  27.166  1.00  0.00    -0.015 A 
ATOM     19  C   UNL A   1      33.979  31.064  27.482  1.00  0.00     0.009 A 
ATOM     20  C   UNL A   1      35.674  29.353  27.403  1.00  0.00     0.009 A 
ATOM     21  C   UNL A   1      34.909  31.962  28.012  1.00  0.00     0.001 A 
ATOM     22  C   UNL A   1      36.606  30.254  27.925  1.00  0.00     0.001 A 
ATOM     23  C   UNL A   1      36.225  31.558  28.228  1.00  0.00     0.000 A 
ENDBRANCH  16  18
ENDBRANCH   9  11
ENDBRANCH   7   9
ENDBRANCH   6   7
ENDBRANCH   5   6
ENDBRANCH   4   5
ENDBRANCH   3   4
ENDBRANCH   2   3
ENDBRANCH   1   2
BRANCH   1  24
ATOM     24  O   UNL A   1      35.909  19.195  24.780  1.00  0.00    -0.376 OA
BRANCH  24  25
ATOM     25  C   UNL A   1      37.296  19.453  24.876  1.00  0.00     0.202 C 
BRANCH  25  26
ATOM     26  C   UNL A   1      37.627  20.950  24.812  1.00  0.00     0.261 C 
BRANCH  26  27
ATOM     27  O   UNL A   1      38.067  21.533  26.053  1.00  0.00    -0.460 OA
BRANCH  27  28
ATOM     28  C   UNL A   1      39.384  21.423  26.345  1.00  0.00     0.338 C 
ATOM     29  O   UNL A   1      40.120  20.496  26.030  1.00  0.00    -0.246 OA
BRANCH  28  30
ATOM     30  C   UNL A   1      39.840  22.715  26.906  1.00  0.00     0.060 A 
ATOM     31  C   UNL A   1      39.207  23.900  26.507  1.00  0.00     0.016 A 
ATOM     32  C   UNL A   1      40.883  22.755  27.833  1.00  0.00     0.016 A 
ATOM     33  C   UNL A   1      39.627  25.130  27.020  1.00  0.00     0.010 A 
ATOM     34  C   UNL A   1      41.319  23.989  28.326  1.00  0.00     0.010 A 
ATOM     35  C   UNL A   1      40.711  25.187  27.906  1.00  0.00    -0.014 A 
BRANCH  35  36
ATOM     36  C   UNL A   1      41.340  26.492  28.245  1.00  0.00     0.031 A 
ATOM     37  C   UNL A   1      42.758  26.736  27.800  1.00  0.00     0.074 A 
ATOM     38  C   UNL A   1      40.679  27.444  28.929  1.00  0.00     0.049 A 
ATOM     39  N   UNL A   1      43.559  27.733  28.073  1.00  0.00    -0.248 NA
ATOM     40  C   UNL A   1      43.350  25.705  26.936  1.00  0.00     0.031 C 
ATOM     41  C   UNL A   1      39.287  27.359  29.365  1.00  0.00     0.029 A 
ATOM     42  N   UNL A   1      41.102  28.668  29.389  1.00  0.00    -0.354 N 
ATOM     43  C   UNL A   1      44.755  27.446  27.422  1.00  0.00     0.074 A 
ATOM     44  C   UNL A   1      44.581  26.162  26.775  1.00  0.00     0.031 C 
ATOM     45  C   UNL A   1      38.975  28.477  30.045  1.00  0.00     0.029 A 
ATOM     46  C   UNL A   1      40.157  29.333  30.137  1.00  0.00     0.049 A 
ATOM     47  H   UNL A   1      41.996  29.034  29.201  1.00  0.00     0.167 HD
ATOM     48  C   UNL A   1      45.889  28.188  27.362  1.00  0.00     0.034 A 
ATOM     49  C   UNL A   1      40.247  30.479  30.846  1.00  0.00     0.034 A 
ATOM     50  C   UNL A   1      46.053  29.458  28.024  1.00  0.00     0.049 A 
ATOM     51  C   UNL A   1      41.557  31.238  30.858  1.00  0.00     0.074 A 
ATOM     52  C   UNL A   1      47.159  30.291  28.029  1.00  0.00     0.029 A 
ATOM     53  N   UNL A   1      45.090  30.078  28.811  1.00  0.00    -0.354 N 
ATOM     54  N   UNL A   1      42.686  30.952  30.248  1.00  0.00    -0.248 NA
ATOM     55  C   UNL A   1      41.601  32.475  31.649  1.00  0.00     0.031 C 
ATOM     56  C   UNL A   1      46.895  31.368  28.882  1.00  0.00     0.029 A 
ATOM     57  C   UNL A   1      45.590  31.261  29.335  1.00  0.00     0.049 A 
ATOM     58  H   UNL A   1      44.184  29.727  28.975  1.00  0.00     0.167 HD
ATOM     59  C   UNL A   1      43.559  31.995  30.557  1.00  0.00     0.074 A 
ATOM     60  C   UNL A   1      42.824  32.918  31.395  1.00  0.00     0.031 C 
ATOM     61  C   UNL A   1      44.851  32.175  30.177  1.00  0.00     0.034 A 
BRANCH  48  62
ATOM     62  C   UNL A   1      47.055  27.605  26.600  1.00  0.00     0.023 A 
ATOM     63  C   UNL A   1      47.298  27.929  25.253  1.00  0.00     0.031 A 
ATOM     64  C   UNL A   1      47.918  26.683  27.219  1.00  0.00     0.131 A 
ATOM     65  C   UNL A   1      48.325  27.279  24.551  1.00  0.00     0.055 A 
ATOM     66  C   UNL A   1      48.992  26.106  26.539  1.00  0.00     0.041 A 
ATOM     67  F   UNL A   1      47.723  26.314  28.495  1.00  0.00    -0.206 F 
ATOM     68  C   UNL A   1      49.191  26.390  25.191  1.00  0.00     0.022 A 
BRANCH  65  69
ATOM     69  S   UNL A   1      48.412  27.492  22.751  1.00  0.00     0.124 S 
ATOM     70  O   UNL A   1      48.481  26.106  22.294  1.00  0.00    -0.237 OA
ATOM     71  O   UNL A   1      47.172  28.201  22.457  1.00  0.00    -0.237 OA
ATOM     72  O   UNL A   1      49.637  28.265  22.556  1.00  0.00    -0.744 OA
ENDBRANCH  65  69
ENDBRANCH  48  62
BRANCH  49  73
ATOM     73  C   UNL A   1      39.091  30.962  31.659  1.00  0.00     0.023 A 
ATOM     74  C   UNL A   1      38.233  31.968  31.185  1.00  0.00     0.031 A 
ATOM     75  C   UNL A   1      38.867  30.466  32.956  1.00  0.00     0.131 A 
ATOM     76  C   UNL A   1      37.224  32.477  32.017  1.00  0.00     0.055 A 
ATOM     77  C   UNL A   1      37.824  30.934  33.758  1.00  0.00     0.041 A 
ATOM     78  F   UNL A   1      39.663  29.512  33.466  1.00  0.00    -0.206 F 
ATOM     79  C   UNL A   1      37.003  31.956  33.294  1.00  0.00     0.022 A 
BRANCH  76  80
ATOM     80  S   UNL A   1      36.261  33.905  31.444  1.00  0.00     0.124 S 
ATOM     81  O   UNL A   1      36.939  34.239  30.198  1.00  0.00    -0.237 OA
ATOM     82  O   UNL A   1      34.923  33.335  31.315  1.00  0.00    -0.237 OA
ATOM     83  O   UNL A   1      36.419  34.879  32.523  1.00  0.00    -0.744 OA
ENDBRANCH  76  80
ENDBRANCH  49  73
BRANCH  61  84
ATOM     84  C   UNL A   1      45.536  33.450  30.615  1.00  0.00     0.023 A 
ATOM     85  C   UNL A   1      45.543  34.607  29.817  1.00  0.00     0.031 A 
ATOM     86  C   UNL A   1      46.194  33.504  31.858  1.00  0.00     0.131 A 
ATOM     87  C   UNL A   1      46.242  35.748  30.244  1.00  0.00     0.055 A 
ATOM     88  C   UNL A   1      46.830  34.662  32.307  1.00  0.00     0.041 A 
ATOM     89  F   UNL A   1      46.225  32.429  32.663  1.00  0.00    -0.206 F 
ATOM     90  C   UNL A   1      46.868  35.789  31.492  1.00  0.00     0.022 A 
BRANCH  87  91
ATOM     91  S   UNL A   1      46.408  37.149  29.103  1.00  0.00     0.124 S 
ATOM     92  O   UNL A   1      45.089  37.767  29.189  1.00  0.00    -0.237 OA
ATOM     93  O   UNL A   1      47.507  37.906  29.693  1.00  0.00    -0.237 OA
ATOM     94  O   UNL A   1      46.712  36.514  27.822  1.00  0.00    -0.744 OA
ENDBRANCH  87  91
ENDBRANCH  61  84
ENDBRANCH  35  36
ENDBRANCH  28  30
ENDBRANCH  27  28
ENDBRANCH  26  27
ENDBRANCH  25  26
ENDBRANCH  24  25
ENDBRANCH   1  24
TORSDOF 22
ENDMDL
MODEL 3
REMARK VINA RESULT:     -10.0      2.328      4.480
REMARK SMILES C[C@H](C(=O)OCCOCCOCCOC(=O)c1ccc(-c2c3nc(c(-c4cc(S(=O)(=O)[O-])ccc4F)c4ccc([nH]4)c(-c4cc(S(=O)(=O)[O-])ccc4F)c4nc(c(-c5cc(S(=O)(=O)[O-])ccc5F)c5ccc2[nH]5)C=C4)C=C3)cc1)c1ccc(-c2ccccc2)c(F)c1
REMARK SMILES IDX 10 1 9 2 8 3 7 4 6 5 5 6 3 7 4 8 2 9 1 10 80 11 81 12 92 13
REMARK SMILES IDX 82 14 90 15 83 16 91 17 84 18 85 19 89 20 86 21 88 22 87 23
REMARK SMILES IDX 11 24 12 25 13 26 14 27 15 28 16 29 17 30 18 31 79 32 19 33
REMARK SMILES IDX 78 34 20 35 21 36 22 37 72 38 23 39 77 40 71 41 73 42 24 43
REMARK SMILES IDX 76 44 70 45 69 46 25 48 57 49 37 50 56 51 38 52 41 53 55 54
REMARK SMILES IDX 74 55 39 56 40 57 54 59 75 60 42 61 26 62 27 63 35 64 28 65
REMARK SMILES IDX 34 66 36 67 33 68 29 69 30 70 31 71 32 72 58 73 59 74 67 75
REMARK SMILES IDX 60 76 66 77 68 78 65 79 61 80 62 81 63 82 64 83 43 84 44 85
REMARK SMILES IDX 52 86 45 87 51 88 53 89 50 90 46 91 47 92 48 93 49 94
REMARK H PARENT 73 47 41 58
REMARK Flexibility Score: inf
ROOT
ATOM      1  C   UNL A   1      34.713  20.096  24.591  1.00  0.00     0.188 C 
ENDROOT
BRANCH   1   2
ATOM      2  C   UNL A   1      33.301  19.497  24.543  1.00  0.00     0.188 C 
BRANCH   2   3
ATOM      3  O   UNL A   1      32.243  20.185  25.201  1.00  0.00    -0.376 OA
BRANCH   3   4
ATOM      4  C   UNL A   1      32.132  21.595  25.042  1.00  0.00     0.202 C 
BRANCH   4   5
ATOM      5  C   UNL A   1      32.350  22.473  26.285  1.00  0.00     0.261 C 
BRANCH   5   6
ATOM      6  O   UNL A   1      32.573  23.875  26.006  1.00  0.00    -0.463 OA
BRANCH   6   7
ATOM      7  C   UNL A   1      33.835  24.237  25.652  1.00  0.00     0.313 C 
ATOM      8  O   UNL A   1      34.839  23.824  26.229  1.00  0.00    -0.252 OA
BRANCH   7   9
ATOM      9  C   UNL A   1      33.945  25.152  24.420  1.00  0.00     0.126 C 
ATOM     10  C   UNL A   1      34.172  24.253  23.193  1.00  0.00     0.025 C 
BRANCH   9  11
ATOM     11  C   UNL A   1      32.894  26.249  24.221  1.00  0.00    -0.031 A 
ATOM     12  C   UNL A   1      32.286  26.408  22.966  1.00  0.00     0.005 A 
ATOM     13  C   UNL A   1      32.428  27.068  25.266  1.00  0.00     0.044 A 
ATOM     14  C   UNL A   1      31.261  27.351  22.764  1.00  0.00     0.012 A 
ATOM     15  C   UNL A   1      31.426  28.022  25.052  1.00  0.00     0.131 A 
ATOM     16  C   UNL A   1      30.817  28.179  23.806  1.00  0.00     0.017 A 
ATOM     17  F   UNL A   1      31.046  28.782  26.091  1.00  0.00    -0.206 F 
BRANCH  16  18
ATOM     18  C   UNL A   1      29.744  29.161  23.590  1.00  0.00    -0.015 A 
ATOM     19  C   UNL A   1      28.487  28.758  23.108  1.00  0.00     0.009 A 
ATOM     20  C   UNL A   1      29.943  30.523  23.862  1.00  0.00     0.009 A 
ATOM     21  C   UNL A   1      27.465  29.688  22.899  1.00  0.00     0.001 A 
ATOM     22  C   UNL A   1      28.924  31.455  23.646  1.00  0.00     0.001 A 
ATOM     23  C   UNL A   1      27.686  31.038  23.163  1.00  0.00     0.000 A 
ENDBRANCH  16  18
ENDBRANCH   9  11
ENDBRANCH   7   9
ENDBRANCH   6   7
ENDBRANCH   5   6
ENDBRANCH   4   5
ENDBRANCH   3   4
ENDBRANCH   2   3
ENDBRANCH   1   2
BRANCH   1  24
ATOM     24  O   UNL A   1      35.740  19.126  24.563  1.00  0.00    -0.376 OA
BRANCH  24  25
ATOM     25  C   UNL A   1      36.998  19.533  25.065  1.00  0.00     0.202 C 
BRANCH  25  26
ATOM     26  C   UNL A   1      37.289  21.016  24.807  1.00  0.00     0.261 C 
BRANCH  26  27
ATOM     27  O   UNL A   1      37.750  21.758  25.952  1.00  0.00    -0.460 OA
BRANCH  27  28
ATOM     28  C   UNL A   1      39.069  21.671  26.243  1.00  0.00     0.338 C 
ATOM     29  O   UNL A   1      39.820  20.755  25.931  1.00  0.00    -0.246 OA
BRANCH  28  30
ATOM     30  C   UNL A   1      39.503  22.971  26.802  1.00  0.00     0.060 A 
ATOM     31  C   UNL A   1      38.759  24.124  26.517  1.00  0.00     0.016 A 
ATOM     32  C   UNL A   1      40.636  23.049  27.614  1.00  0.00     0.016 A 
ATOM     33  C   UNL A   1      39.157  25.363  27.029  1.00  0.00     0.010 A 
ATOM     34  C   UNL A   1      41.046  24.293  28.106  1.00  0.00     0.010 A 
ATOM     35  C   UNL A   1      40.325  25.462  27.797  1.00  0.00    -0.014 A 
BRANCH  35  36
ATOM     36  C   UNL A   1      40.906  26.794  28.118  1.00  0.00     0.031 A 
ATOM     37  C   UNL A   1      42.351  27.042  27.772  1.00  0.00     0.074 A 
ATOM     38  C   UNL A   1      40.180  27.766  28.699  1.00  0.00     0.049 A 
ATOM     39  N   UNL A   1      43.113  28.065  28.055  1.00  0.00    -0.248 NA
ATOM     40  C   UNL A   1      43.024  25.980  27.009  1.00  0.00     0.031 C 
ATOM     41  C   UNL A   1      38.759  27.677  29.029  1.00  0.00     0.029 A 
ATOM     42  N   UNL A   1      40.547  29.019  29.128  1.00  0.00    -0.354 N 
ATOM     43  C   UNL A   1      44.360  27.769  27.514  1.00  0.00     0.074 A 
ATOM     44  C   UNL A   1      44.257  26.451  26.921  1.00  0.00     0.031 C 
ATOM     45  C   UNL A   1      38.379  28.821  29.626  1.00  0.00     0.029 A 
ATOM     46  C   UNL A   1      39.537  29.702  29.766  1.00  0.00     0.049 A 
ATOM     47  H   UNL A   1      41.448  29.392  28.991  1.00  0.00     0.167 HD
ATOM     48  C   UNL A   1      45.485  28.527  27.504  1.00  0.00     0.034 A 
ATOM     49  C   UNL A   1      39.555  30.884  30.420  1.00  0.00     0.034 A 
ATOM     50  C   UNL A   1      45.578  29.832  28.112  1.00  0.00     0.049 A 
ATOM     51  C   UNL A   1      40.848  31.666  30.495  1.00  0.00     0.074 A 
ATOM     52  C   UNL A   1      46.668  30.685  28.160  1.00  0.00     0.029 A 
ATOM     53  N   UNL A   1      44.547  30.472  28.790  1.00  0.00    -0.354 N 
ATOM     54  N   UNL A   1      42.025  31.372  29.990  1.00  0.00    -0.248 NA
ATOM     55  C   UNL A   1      40.812  32.942  31.223  1.00  0.00     0.031 C 
ATOM     56  C   UNL A   1      46.322  31.797  28.934  1.00  0.00     0.029 A 
ATOM     57  C   UNL A   1      44.987  31.689  29.290  1.00  0.00     0.049 A 
ATOM     58  H   UNL A   1      43.637  30.113  28.900  1.00  0.00     0.167 HD
ATOM     59  C   UNL A   1      42.857  32.444  30.312  1.00  0.00     0.074 A 
ATOM     60  C   UNL A   1      42.044  33.394  31.042  1.00  0.00     0.031 C 
ATOM     61  C   UNL A   1      44.172  32.629  30.024  1.00  0.00     0.034 A 
BRANCH  48  62
ATOM     62  C   UNL A   1      46.716  27.930  26.865  1.00  0.00     0.023 A 
ATOM     63  C   UNL A   1      47.029  28.146  25.512  1.00  0.00     0.031 A 
ATOM     64  C   UNL A   1      47.571  27.101  27.613  1.00  0.00     0.131 A 
ATOM     65  C   UNL A   1      48.119  27.481  24.931  1.00  0.00     0.055 A 
ATOM     66  C   UNL A   1      48.705  26.511  27.049  1.00  0.00     0.041 A 
ATOM     67  F   UNL A   1      47.311  26.834  28.903  1.00  0.00    -0.206 F 
ATOM     68  C   UNL A   1      48.975  26.686  25.696  1.00  0.00     0.022 A 
BRANCH  65  69
ATOM     69  S   UNL A   1      48.309  27.541  23.127  1.00  0.00     0.124 S 
ATOM     70  O   UNL A   1      47.158  28.351  22.737  1.00  0.00    -0.237 OA
ATOM     71  O   UNL A   1      49.616  28.170  22.969  1.00  0.00    -0.237 OA
ATOM     72  O   UNL A   1      48.238  26.137  22.728  1.00  0.00    -0.744 OA
ENDBRANCH  65  69
ENDBRANCH  48  62
BRANCH  49  73
ATOM     73  C   UNL A   1      38.331  31.385  31.116  1.00  0.00     0.023 A 
ATOM     74  C   UNL A   1      37.363  32.142  30.437  1.00  0.00     0.031 A 
ATOM     75  C   UNL A   1      38.147  31.167  32.493  1.00  0.00     0.131 A 
ATOM     76  C   UNL A   1      36.281  32.691  31.143  1.00  0.00     0.055 A 
ATOM     77  C   UNL A   1      37.039  31.665  33.180  1.00  0.00     0.041 A 
ATOM     78  F   UNL A   1      39.047  30.460  33.196  1.00  0.00    -0.206 F 
ATOM     79  C   UNL A   1      36.103  32.445  32.507  1.00  0.00     0.022 A 
BRANCH  76  80
ATOM     80  S   UNL A   1      35.157  33.820  30.274  1.00  0.00     0.124 S 
ATOM     81  O   UNL A   1      34.902  34.829  31.295  1.00  0.00    -0.237 OA
ATOM     82  O   UNL A   1      35.971  34.244  29.140  1.00  0.00    -0.237 OA
ATOM     83  O   UNL A   1      34.016  32.971  29.936  1.00  0.00    -0.744 OA
ENDBRANCH  76  80
ENDBRANCH  49  73
BRANCH  61  84
ATOM     84  C   UNL A   1      44.801  33.937  30.449  1.00  0.00     0.023 A 
ATOM     85  C   UNL A   1      45.496  34.072  31.665  1.00  0.00     0.031 A 
ATOM     86  C   UNL A   1      44.700  35.069  29.620  1.00  0.00     0.131 A 
ATOM     87  C   UNL A   1      46.012  35.323  32.040  1.00  0.00     0.055 A 
ATOM     88  C   UNL A   1      45.274  36.293  29.968  1.00  0.00     0.041 A 
ATOM     89  F   UNL A   1      44.045  35.003  28.449  1.00  0.00    -0.206 F 
ATOM     90  C   UNL A   1      45.923  36.428  31.191  1.00  0.00     0.022 A 
BRANCH  87  91
ATOM     91  S   UNL A   1      46.718  35.513  33.701  1.00  0.00     0.124 S 
ATOM     92  O   UNL A   1      48.135  35.698  33.408  1.00  0.00    -0.237 OA
ATOM     93  O   UNL A   1      46.014  36.687  34.208  1.00  0.00    -0.237 OA
ATOM     94  O   UNL A   1      46.380  34.255  34.364  1.00  0.00    -0.744 OA
ENDBRANCH  87  91
ENDBRANCH  61  84
ENDBRANCH  35  36
ENDBRANCH  28  30
ENDBRANCH  27  28
ENDBRANCH  26  27
ENDBRANCH  25  26
ENDBRANCH  24  25
ENDBRANCH   1  24
TORSDOF 22
ENDMDL
