MODEL 1
REMARK VINA RESULT:     -10.9      0.000      0.000
REMARK SMILES CC(C)Cc1ccc(-c2cc(Cl)cc3c2O[C@H](C(F)(F)F)C(C(=O)OCCOCCOCCOC(=O)c2ccc(-c4c5nc(c(-c6cc(S(=O)(=O)[O-])ccc6F)c6ccc([nH]6)c(-c6cc(S(=O)(=O)[O-])ccc6F)c6nc(c(-c7cc(S(=O)(=O)[O-])ccc7F)c7ccc4[nH]7)C=C6)C=C5)cc2)=C3)cc1
REMARK SMILES IDX 29 1 28 2 27 3 26 4 25 5 23 6 24 7 22 8 9 9 10 10 15 11
REMARK SMILES IDX 11 12 14 13 16 14 12 15 13 16 100 17 17 18 8 19 5 20 6 21
REMARK SMILES IDX 102 22 7 23 101 24 4 25 2 26 1 27 3 28 18 29 19 30 20 31
REMARK SMILES IDX 21 32 30 33 31 34 32 35 33 36 34 37 35 38 36 39 37 40 38 41
REMARK SMILES IDX 99 42 39 43 98 44 40 45 41 46 42 47 92 48 43 49 97 50 91 51
REMARK SMILES IDX 93 52 44 53 96 54 90 55 89 56 45 58 77 59 57 60 76 61 58 62
REMARK SMILES IDX 61 63 75 64 94 65 59 66 60 67 74 69 95 70 62 71 46 72 47 73
REMARK SMILES IDX 55 74 48 75 54 76 56 77 53 78 49 79 50 80 51 81 52 82 78 83
REMARK SMILES IDX 79 84 87 85 80 86 86 87 88 88 85 89 81 90 82 91 83 92 84 93
REMARK SMILES IDX 63 94 64 95 72 96 65 97 71 98 73 99 70 100 66 101 67 102
REMARK SMILES IDX 68 103 69 104
REMARK H PARENT 93 57 61 68
REMARK Flexibility Score: inf
ROOT
ATOM      1  C   UNL A   1      40.204  22.421  26.568  1.00  0.00     0.188 C 
ENDROOT
BRANCH   1   2
ATOM      2  O   UNL A   1      39.070  21.775  26.010  1.00  0.00    -0.376 OA
BRANCH   2   3
ATOM      3  C   UNL A   1      37.897  22.572  25.868  1.00  0.00     0.202 C 
BRANCH   3   4
ATOM      4  C   UNL A   1      36.594  21.778  25.712  1.00  0.00     0.261 C 
BRANCH   4   5
ATOM      5  O   UNL A   1      35.488  22.469  26.342  1.00  0.00    -0.460 OA
BRANCH   5   6
ATOM      6  C   UNL A   1      35.257  23.714  25.871  1.00  0.00     0.338 C 
ATOM      7  O   UNL A   1      36.044  24.649  25.962  1.00  0.00    -0.246 OA
BRANCH   6   8
ATOM      8  C   UNL A   1      33.985  23.798  25.103  1.00  0.00     0.087 C 
ATOM      9  C   UNL A   1      32.240  27.329  23.902  1.00  0.00     0.026 A 
ATOM     10  C   UNL A   1      32.741  28.307  24.788  1.00  0.00     0.033 A 
ATOM     11  C   UNL A   1      32.539  26.009  24.238  1.00  0.00     0.135 A 
ATOM     12  C   UNL A   1      33.293  27.991  26.029  1.00  0.00     0.042 A 
ATOM     13  C   UNL A   1      32.894  25.698  25.567  1.00  0.00     0.019 A 
ATOM     14  O   UNL A   1      32.695  24.988  23.308  1.00  0.00    -0.475 OA
ATOM     15  Cl  UNL A   1      33.908  29.222  27.055  1.00  0.00    -0.084 Cl
ATOM     16  C   UNL A   1      33.291  26.680  26.462  1.00  0.00     0.032 A 
ATOM     17  C   UNL A   1      33.014  24.265  25.909  1.00  0.00     0.027 C 
ATOM     18  C   UNL A   1      33.933  24.206  23.629  1.00  0.00     0.316 C 
BRANCH   9  19
ATOM     19  C   UNL A   1      31.119  27.812  23.053  1.00  0.00    -0.015 A 
ATOM     20  C   UNL A   1      28.860  29.435  22.404  1.00  0.00    -0.048 A 
ATOM     21  C   UNL A   1      30.125  29.725  21.882  1.00  0.00     0.004 A 
ATOM     22  C   UNL A   1      28.708  28.273  23.165  1.00  0.00     0.004 A 
ATOM     23  C   UNL A   1      31.237  28.918  22.198  1.00  0.00     0.009 A 
ATOM     24  C   UNL A   1      29.815  27.468  23.468  1.00  0.00     0.009 A 
BRANCH  20  25
ATOM     25  C   UNL A   1      27.692  30.385  22.217  1.00  0.00     0.038 C 
BRANCH  25  26
ATOM     26  C   UNL A   1      27.842  31.741  22.928  1.00  0.00    -0.013 C 
ATOM     27  C   UNL A   1      28.930  31.705  24.004  1.00  0.00     0.008 C 
ATOM     28  C   UNL A   1      28.180  32.837  21.910  1.00  0.00     0.008 C 
ENDBRANCH  25  26
ENDBRANCH  20  25
ENDBRANCH   9  19
BRANCH  18  29
ATOM     29  C   UNL A   1      34.069  22.961  22.750  1.00  0.00     0.430 C 
ATOM     30  F   UNL A   1      33.404  23.079  21.580  1.00  0.00    -0.167 F 
ATOM     31  F   UNL A   1      35.362  22.680  22.468  1.00  0.00    -0.167 F 
ATOM     32  F   UNL A   1      33.566  21.868  23.382  1.00  0.00    -0.167 F 
ENDBRANCH  18  29
ENDBRANCH   6   8
ENDBRANCH   5   6
ENDBRANCH   4   5
ENDBRANCH   3   4
ENDBRANCH   2   3
ENDBRANCH   1   2
BRANCH   1  33
ATOM     33  C   UNL A   1      41.248  21.472  27.196  1.00  0.00     0.188 C 
BRANCH  33  34
ATOM     34  O   UNL A   1      41.029  20.067  27.182  1.00  0.00    -0.376 OA
BRANCH  34  35
ATOM     35  C   UNL A   1      41.334  19.329  26.004  1.00  0.00     0.202 C 
BRANCH  35  36
ATOM     36  C   UNL A   1      42.622  18.500  25.976  1.00  0.00     0.261 C 
BRANCH  36  37
ATOM     37  O   UNL A   1      43.827  19.285  26.030  1.00  0.00    -0.460 OA
BRANCH  37  38
ATOM     38  C   UNL A   1      44.174  19.884  24.863  1.00  0.00     0.338 C 
ATOM     39  O   UNL A   1      44.114  19.396  23.747  1.00  0.00    -0.246 OA
BRANCH  38  40
ATOM     40  C   UNL A   1      44.487  21.312  25.084  1.00  0.00     0.060 A 
ATOM     41  C   UNL A   1      45.521  21.618  25.973  1.00  0.00     0.016 A 
ATOM     42  C   UNL A   1      43.721  22.335  24.519  1.00  0.00     0.016 A 
ATOM     43  C   UNL A   1      45.769  22.947  26.318  1.00  0.00     0.010 A 
ATOM     44  C   UNL A   1      43.965  23.670  24.883  1.00  0.00     0.010 A 
ATOM     45  C   UNL A   1      44.981  23.985  25.799  1.00  0.00    -0.014 A 
BRANCH  45  46
ATOM     46  C   UNL A   1      45.135  25.355  26.368  1.00  0.00     0.031 A 
ATOM     47  C   UNL A   1      46.437  26.073  26.176  1.00  0.00     0.074 A 
ATOM     48  C   UNL A   1      44.124  25.982  26.995  1.00  0.00     0.049 A 
ATOM     49  N   UNL A   1      46.780  27.280  26.540  1.00  0.00    -0.248 NA
ATOM     50  C   UNL A   1      47.501  25.309  25.513  1.00  0.00     0.031 C 
ATOM     51  C   UNL A   1      42.828  25.382  27.260  1.00  0.00     0.029 A 
ATOM     52  N   UNL A   1      43.998  27.266  27.470  1.00  0.00    -0.354 N 
ATOM     53  C   UNL A   1      48.124  27.403  26.212  1.00  0.00     0.074 A 
ATOM     54  C   UNL A   1      48.515  26.158  25.582  1.00  0.00     0.031 C 
ATOM     55  C   UNL A   1      41.989  26.328  27.713  1.00  0.00     0.029 A 
ATOM     56  C   UNL A   1      42.717  27.582  27.877  1.00  0.00     0.049 A 
ATOM     57  H   UNL A   1      44.749  27.899  27.516  1.00  0.00     0.167 HD
ATOM     58  C   UNL A   1      48.963  28.439  26.464  1.00  0.00     0.034 A 
ATOM     59  C   UNL A   1      42.199  28.744  28.334  1.00  0.00     0.034 A 
ATOM     60  C   UNL A   1      48.563  29.655  27.130  1.00  0.00     0.049 A 
ATOM     61  C   UNL A   1      43.140  29.906  28.554  1.00  0.00     0.074 A 
ATOM     62  C   UNL A   1      49.346  30.741  27.484  1.00  0.00     0.029 A 
ATOM     63  N   UNL A   1      47.274  29.942  27.561  1.00  0.00    -0.354 N 
ATOM     64  N   UNL A   1      44.419  30.002  28.267  1.00  0.00    -0.248 NA
ATOM     65  C   UNL A   1      42.582  31.101  29.204  1.00  0.00     0.031 C 
ATOM     66  C   UNL A   1      48.546  31.650  28.187  1.00  0.00     0.029 A 
ATOM     67  C   UNL A   1      47.245  31.174  28.200  1.00  0.00     0.049 A 
ATOM     68  H   UNL A   1      46.493  29.357  27.431  1.00  0.00     0.167 HD
ATOM     69  C   UNL A   1      44.820  31.255  28.725  1.00  0.00     0.074 A 
ATOM     70  C   UNL A   1      43.636  31.904  29.246  1.00  0.00     0.031 C 
ATOM     71  C   UNL A   1      46.061  31.806  28.740  1.00  0.00     0.034 A 
BRANCH  58  72
ATOM     72  C   UNL A   1      50.418  28.217  26.131  1.00  0.00     0.023 A 
ATOM     73  C   UNL A   1      50.932  28.447  24.843  1.00  0.00     0.031 A 
ATOM     74  C   UNL A   1      51.278  27.657  27.093  1.00  0.00     0.131 A 
ATOM     75  C   UNL A   1      52.230  28.019  24.525  1.00  0.00     0.055 A 
ATOM     76  C   UNL A   1      52.599  27.324  26.797  1.00  0.00     0.041 A 
ATOM     77  F   UNL A   1      50.835  27.387  28.331  1.00  0.00    -0.206 F 
ATOM     78  C   UNL A   1      53.077  27.483  25.499  1.00  0.00     0.022 A 
BRANCH  75  79
ATOM     79  S   UNL A   1      52.721  27.981  22.779  1.00  0.00     0.124 S 
ATOM     80  O   UNL A   1      53.983  28.718  22.812  1.00  0.00    -0.237 OA
ATOM     81  O   UNL A   1      52.822  26.552  22.513  1.00  0.00    -0.237 OA
ATOM     82  O   UNL A   1      51.625  28.669  22.100  1.00  0.00    -0.744 OA
ENDBRANCH  75  79
ENDBRANCH  58  72
BRANCH  59  83
ATOM     83  C   UNL A   1      40.740  28.880  28.644  1.00  0.00     0.023 A 
ATOM     84  C   UNL A   1      40.276  28.782  29.968  1.00  0.00     0.031 A 
ATOM     85  C   UNL A   1      39.776  29.068  27.638  1.00  0.00     0.131 A 
ATOM     86  C   UNL A   1      38.902  28.857  30.250  1.00  0.00     0.055 A 
ATOM     87  C   UNL A   1      38.415  29.203  27.927  1.00  0.00     0.041 A 
ATOM     88  F   UNL A   1      40.144  29.138  26.349  1.00  0.00    -0.206 F 
ATOM     89  C   UNL A   1      37.969  29.090  29.240  1.00  0.00     0.022 A 
BRANCH  86  90
ATOM     90  S   UNL A   1      38.349  28.579  31.956  1.00  0.00     0.124 S 
ATOM     91  O   UNL A   1      38.483  27.132  32.079  1.00  0.00    -0.237 OA
ATOM     92  O   UNL A   1      39.302  29.379  32.718  1.00  0.00    -0.237 OA
ATOM     93  O   UNL A   1      36.977  29.082  31.954  1.00  0.00    -0.744 OA
ENDBRANCH  86  90
ENDBRANCH  59  83
BRANCH  71  94
ATOM     94  C   UNL A   1      46.200  33.185  29.344  1.00  0.00     0.023 A 
ATOM     95  C   UNL A   1      46.403  33.370  30.724  1.00  0.00     0.031 A 
ATOM     96  C   UNL A   1      46.147  34.328  28.527  1.00  0.00     0.131 A 
ATOM     97  C   UNL A   1      46.497  34.668  31.251  1.00  0.00     0.055 A 
ATOM     98  C   UNL A   1      46.298  35.613  29.049  1.00  0.00     0.041 A 
ATOM     99  F   UNL A   1      45.955  34.212  27.203  1.00  0.00    -0.206 F 
ATOM    100  C   UNL A   1      46.464  35.789  30.419  1.00  0.00     0.022 A 
BRANCH  97 101
ATOM    101  S   UNL A   1      46.585  34.879  33.052  1.00  0.00     0.124 S 
ATOM    102  O   UNL A   1      47.875  35.540  33.218  1.00  0.00    -0.237 OA
ATOM    103  O   UNL A   1      45.408  35.696  33.329  1.00  0.00    -0.237 OA
ATOM    104  O   UNL A   1      46.520  33.510  33.561  1.00  0.00    -0.744 OA
ENDBRANCH  97 101
ENDBRANCH  71  94
ENDBRANCH  45  46
ENDBRANCH  38  40
ENDBRANCH  37  38
ENDBRANCH  36  37
ENDBRANCH  35  36
ENDBRANCH  34  35
ENDBRANCH  33  34
ENDBRANCH   1  33
TORSDOF 24
ENDMDL
MODEL 2
REMARK VINA RESULT:     -10.1      5.565      9.626
REMARK SMILES CC(C)Cc1ccc(-c2cc(Cl)cc3c2O[C@H](C(F)(F)F)C(C(=O)OCCOCCOCCOC(=O)c2ccc(-c4c5nc(c(-c6cc(S(=O)(=O)[O-])ccc6F)c6ccc([nH]6)c(-c6cc(S(=O)(=O)[O-])ccc6F)c6nc(c(-c7cc(S(=O)(=O)[O-])ccc7F)c7ccc4[nH]7)C=C6)C=C5)cc2)=C3)cc1
REMARK SMILES IDX 29 1 28 2 27 3 26 4 25 5 23 6 24 7 22 8 9 9 10 10 15 11
REMARK SMILES IDX 11 12 14 13 16 14 12 15 13 16 100 17 17 18 8 19 5 20 6 21
REMARK SMILES IDX 102 22 7 23 101 24 4 25 2 26 1 27 3 28 18 29 19 30 20 31
REMARK SMILES IDX 21 32 30 33 31 34 32 35 33 36 34 37 35 38 36 39 37 40 38 41
REMARK SMILES IDX 99 42 39 43 98 44 40 45 41 46 42 47 92 48 43 49 97 50 91 51
REMARK SMILES IDX 93 52 44 53 96 54 90 55 89 56 45 58 77 59 57 60 76 61 58 62
REMARK SMILES IDX 61 63 75 64 94 65 59 66 60 67 74 69 95 70 62 71 46 72 47 73
REMARK SMILES IDX 55 74 48 75 54 76 56 77 53 78 49 79 50 80 51 81 52 82 78 83
REMARK SMILES IDX 79 84 87 85 80 86 86 87 88 88 85 89 81 90 82 91 83 92 84 93
REMARK SMILES IDX 63 94 64 95 72 96 65 97 71 98 73 99 70 100 66 101 67 102
REMARK SMILES IDX 68 103 69 104
REMARK H PARENT 93 57 61 68
REMARK Flexibility Score: inf
ROOT
ATOM      1  C   UNL A   1      41.614  21.782  26.545  1.00  0.00     0.188 C 
ENDROOT
BRANCH   1   2
ATOM      2  O   UNL A   1      40.484  22.396  27.143  1.00  0.00    -0.376 OA
BRANCH   2   3
ATOM      3  C   UNL A   1      39.389  22.682  26.276  1.00  0.00     0.202 C 
BRANCH   3   4
ATOM      4  C   UNL A   1      38.933  24.146  26.276  1.00  0.00     0.261 C 
BRANCH   4   5
ATOM      5  O   UNL A   1      39.747  24.942  27.172  1.00  0.00    -0.460 OA
BRANCH   5   6
ATOM      6  C   UNL A   1      40.675  25.710  26.561  1.00  0.00     0.338 C 
ATOM      7  O   UNL A   1      40.780  25.838  25.346  1.00  0.00    -0.246 OA
BRANCH   6   8
ATOM      8  C   UNL A   1      41.480  26.500  27.530  1.00  0.00     0.087 C 
ATOM      9  C   UNL A   1      39.870  28.781  30.557  1.00  0.00     0.026 A 
ATOM     10  C   UNL A   1      38.555  29.075  30.135  1.00  0.00     0.033 A 
ATOM     11  C   UNL A   1      40.683  28.180  29.597  1.00  0.00     0.135 A 
ATOM     12  C   UNL A   1      38.151  28.993  28.804  1.00  0.00     0.042 A 
ATOM     13  C   UNL A   1      40.348  28.300  28.233  1.00  0.00     0.019 A 
ATOM     14  O   UNL A   1      41.717  27.301  29.897  1.00  0.00    -0.475 OA
ATOM     15  Cl  UNL A   1      36.531  29.340  28.354  1.00  0.00    -0.084 Cl
ATOM     16  C   UNL A   1      39.079  28.686  27.828  1.00  0.00     0.032 A 
ATOM     17  C   UNL A   1      41.341  27.810  27.254  1.00  0.00     0.027 C 
ATOM     18  C   UNL A   1      41.631  26.104  29.000  1.00  0.00     0.316 C 
BRANCH   9  19
ATOM     19  C   UNL A   1      40.303  29.559  31.748  1.00  0.00    -0.015 A 
ATOM     20  C   UNL A   1      39.953  30.910  34.240  1.00  0.00    -0.048 A 
ATOM     21  C   UNL A   1      40.479  29.614  34.194  1.00  0.00     0.004 A 
ATOM     22  C   UNL A   1      39.700  31.565  33.032  1.00  0.00     0.004 A 
ATOM     23  C   UNL A   1      40.657  28.952  32.962  1.00  0.00     0.009 A 
ATOM     24  C   UNL A   1      39.889  30.907  31.809  1.00  0.00     0.009 A 
BRANCH  20  25
ATOM     25  C   UNL A   1      39.592  31.569  35.558  1.00  0.00     0.038 C 
BRANCH  25  26
ATOM     26  C   UNL A   1      38.083  31.675  35.837  1.00  0.00    -0.013 C 
ATOM     27  C   UNL A   1      37.767  31.537  37.328  1.00  0.00     0.008 C 
ATOM     28  C   UNL A   1      37.545  33.019  35.332  1.00  0.00     0.008 C 
ENDBRANCH  25  26
ENDBRANCH  20  25
ENDBRANCH   9  19
BRANCH  18  29
ATOM     29  C   UNL A   1      42.841  25.180  29.158  1.00  0.00     0.430 C 
ATOM     30  F   UNL A   1      43.515  25.402  30.307  1.00  0.00    -0.167 F 
ATOM     31  F   UNL A   1      42.487  23.874  29.128  1.00  0.00    -0.167 F 
ATOM     32  F   UNL A   1      43.722  25.364  28.140  1.00  0.00    -0.167 F 
ENDBRANCH  18  29
ENDBRANCH   6   8
ENDBRANCH   5   6
ENDBRANCH   4   5
ENDBRANCH   3   4
ENDBRANCH   2   3
ENDBRANCH   1   2
BRANCH   1  33
ATOM     33  C   UNL A   1      42.788  22.739  26.239  1.00  0.00     0.188 C 
BRANCH  33  34
ATOM     34  O   UNL A   1      43.120  23.046  24.891  1.00  0.00    -0.376 OA
BRANCH  34  35
ATOM     35  C   UNL A   1      44.064  24.077  24.627  1.00  0.00     0.202 C 
BRANCH  35  36
ATOM     36  C   UNL A   1      45.556  23.738  24.706  1.00  0.00     0.261 C 
BRANCH  36  37
ATOM     37  O   UNL A   1      46.310  24.605  25.574  1.00  0.00    -0.460 OA
BRANCH  37  38
ATOM     38  C   UNL A   1      46.700  25.779  25.015  1.00  0.00     0.338 C 
ATOM     39  O   UNL A   1      47.245  25.926  23.934  1.00  0.00    -0.246 OA
BRANCH  38  40
ATOM     40  C   UNL A   1      46.217  26.922  25.817  1.00  0.00     0.060 A 
ATOM     41  C   UNL A   1      47.129  27.540  26.677  1.00  0.00     0.016 A 
ATOM     42  C   UNL A   1      44.878  27.320  25.811  1.00  0.00     0.016 A 
ATOM     43  C   UNL A   1      46.693  28.536  27.552  1.00  0.00     0.010 A 
ATOM     44  C   UNL A   1      44.442  28.313  26.705  1.00  0.00     0.010 A 
ATOM     45  C   UNL A   1      45.344  28.917  27.595  1.00  0.00    -0.014 A 
BRANCH  45  46
ATOM     46  C   UNL A   1      44.887  29.815  28.694  1.00  0.00     0.031 A 
ATOM     47  C   UNL A   1      44.941  29.312  30.106  1.00  0.00     0.074 A 
ATOM     48  C   UNL A   1      44.486  31.077  28.460  1.00  0.00     0.049 A 
ATOM     49  N   UNL A   1      44.642  29.929  31.218  1.00  0.00    -0.248 NA
ATOM     50  C   UNL A   1      45.357  27.914  30.275  1.00  0.00     0.031 C 
ATOM     51  C   UNL A   1      44.370  31.667  27.138  1.00  0.00     0.029 A 
ATOM     52  N   UNL A   1      44.157  32.105  29.311  1.00  0.00    -0.354 N 
ATOM     53  C   UNL A   1      44.768  28.976  32.220  1.00  0.00     0.074 A 
ATOM     54  C   UNL A   1      45.210  27.754  31.580  1.00  0.00     0.031 C 
ATOM     55  C   UNL A   1      44.143  32.985  27.262  1.00  0.00     0.029 A 
ATOM     56  C   UNL A   1      43.985  33.318  28.674  1.00  0.00     0.049 A 
ATOM     57  H   UNL A   1      44.054  31.988  30.283  1.00  0.00     0.167 HD
ATOM     58  C   UNL A   1      44.486  29.099  33.542  1.00  0.00     0.034 A 
ATOM     59  C   UNL A   1      43.723  34.547  29.173  1.00  0.00     0.034 A 
ATOM     60  C   UNL A   1      44.006  30.315  34.153  1.00  0.00     0.049 A 
ATOM     61  C   UNL A   1      43.469  34.674  30.658  1.00  0.00     0.074 A 
ATOM     62  C   UNL A   1      43.637  30.530  35.470  1.00  0.00     0.029 A 
ATOM     63  N   UNL A   1      43.808  31.519  33.487  1.00  0.00    -0.354 N 
ATOM     64  N   UNL A   1      43.562  33.757  31.595  1.00  0.00    -0.248 NA
ATOM     65  C   UNL A   1      43.027  35.987  31.148  1.00  0.00     0.031 C 
ATOM     66  C   UNL A   1      43.153  31.839  35.584  1.00  0.00     0.029 A 
ATOM     67  C   UNL A   1      43.299  32.471  34.359  1.00  0.00     0.049 A 
ATOM     68  H   UNL A   1      44.003  31.674  32.535  1.00  0.00     0.167 HD
ATOM     69  C   UNL A   1      43.166  34.379  32.778  1.00  0.00     0.074 A 
ATOM     70  C   UNL A   1      42.898  35.763  32.448  1.00  0.00     0.031 C 
ATOM     71  C   UNL A   1      43.010  33.846  34.017  1.00  0.00     0.034 A 
BRANCH  58  72
ATOM     72  C   UNL A   1      44.567  27.836  34.363  1.00  0.00     0.023 A 
ATOM     73  C   UNL A   1      43.501  26.923  34.435  1.00  0.00     0.031 A 
ATOM     74  C   UNL A   1      45.690  27.602  35.178  1.00  0.00     0.131 A 
ATOM     75  C   UNL A   1      43.536  25.884  35.377  1.00  0.00     0.055 A 
ATOM     76  C   UNL A   1      45.759  26.511  36.043  1.00  0.00     0.041 A 
ATOM     77  F   UNL A   1      46.726  28.456  35.175  1.00  0.00    -0.206 F 
ATOM     78  C   UNL A   1      44.668  25.656  36.165  1.00  0.00     0.022 A 
BRANCH  75  79
ATOM     79  S   UNL A   1      42.005  24.967  35.706  1.00  0.00     0.124 S 
ATOM     80  O   UNL A   1      40.990  25.937  35.302  1.00  0.00    -0.237 OA
ATOM     81  O   UNL A   1      42.149  23.798  34.849  1.00  0.00    -0.237 OA
ATOM     82  O   UNL A   1      42.066  24.703  37.142  1.00  0.00    -0.744 OA
ENDBRANCH  75  79
ENDBRANCH  58  72
BRANCH  59  83
ATOM     83  C   UNL A   1      43.657  35.752  28.286  1.00  0.00     0.023 A 
ATOM     84  C   UNL A   1      44.826  36.456  27.945  1.00  0.00     0.031 A 
ATOM     85  C   UNL A   1      42.439  36.252  27.793  1.00  0.00     0.131 A 
ATOM     86  C   UNL A   1      44.755  37.615  27.156  1.00  0.00     0.055 A 
ATOM     87  C   UNL A   1      42.378  37.371  26.959  1.00  0.00     0.041 A 
ATOM     88  F   UNL A   1      41.281  35.649  28.106  1.00  0.00    -0.206 F 
ATOM     89  C   UNL A   1      43.540  38.066  26.641  1.00  0.00     0.022 A 
BRANCH  86  90
ATOM     90  S   UNL A   1      46.275  38.564  26.867  1.00  0.00     0.124 S 
ATOM     91  O   UNL A   1      45.769  39.717  26.131  1.00  0.00    -0.237 OA
ATOM     92  O   UNL A   1      46.733  38.823  28.229  1.00  0.00    -0.237 OA
ATOM     93  O   UNL A   1      47.108  37.645  26.096  1.00  0.00    -0.744 OA
ENDBRANCH  86  90
ENDBRANCH  59  83
BRANCH  71  94
ATOM     94  C   UNL A   1      42.522  34.767  35.111  1.00  0.00     0.023 A 
ATOM     95  C   UNL A   1      43.406  35.346  36.040  1.00  0.00     0.031 A 
ATOM     96  C   UNL A   1      41.156  35.084  35.217  1.00  0.00     0.131 A 
ATOM     97  C   UNL A   1      42.910  36.173  37.061  1.00  0.00     0.055 A 
ATOM     98  C   UNL A   1      40.676  35.952  36.198  1.00  0.00     0.041 A 
ATOM     99  F   UNL A   1      40.266  34.561  34.358  1.00  0.00    -0.206 F 
ATOM    100  C   UNL A   1      41.552  36.493  37.134  1.00  0.00     0.022 A 
BRANCH  97 101
ATOM    101  S   UNL A   1      44.050  36.764  38.343  1.00  0.00     0.124 S 
ATOM    102  O   UNL A   1      43.612  38.143  38.527  1.00  0.00    -0.237 OA
ATOM    103  O   UNL A   1      43.776  35.854  39.450  1.00  0.00    -0.237 OA
ATOM    104  O   UNL A   1      45.367  36.609  37.728  1.00  0.00    -0.744 OA
ENDBRANCH  97 101
ENDBRANCH  71  94
ENDBRANCH  45  46
ENDBRANCH  38  40
ENDBRANCH  37  38
ENDBRANCH  36  37
ENDBRANCH  35  36
ENDBRANCH  34  35
ENDBRANCH  33  34
ENDBRANCH   1  33
TORSDOF 24
ENDMDL
MODEL 3
REMARK VINA RESULT:      -9.6      5.580      9.510
REMARK SMILES CC(C)Cc1ccc(-c2cc(Cl)cc3c2O[C@H](C(F)(F)F)C(C(=O)OCCOCCOCCOC(=O)c2ccc(-c4c5nc(c(-c6cc(S(=O)(=O)[O-])ccc6F)c6ccc([nH]6)c(-c6cc(S(=O)(=O)[O-])ccc6F)c6nc(c(-c7cc(S(=O)(=O)[O-])ccc7F)c7ccc4[nH]7)C=C6)C=C5)cc2)=C3)cc1
REMARK SMILES IDX 29 1 28 2 27 3 26 4 25 5 23 6 24 7 22 8 9 9 10 10 15 11
REMARK SMILES IDX 11 12 14 13 16 14 12 15 13 16 100 17 17 18 8 19 5 20 6 21
REMARK SMILES IDX 102 22 7 23 101 24 4 25 2 26 1 27 3 28 18 29 19 30 20 31
REMARK SMILES IDX 21 32 30 33 31 34 32 35 33 36 34 37 35 38 36 39 37 40 38 41
REMARK SMILES IDX 99 42 39 43 98 44 40 45 41 46 42 47 92 48 43 49 97 50 91 51
REMARK SMILES IDX 93 52 44 53 96 54 90 55 89 56 45 58 77 59 57 60 76 61 58 62
REMARK SMILES IDX 61 63 75 64 94 65 59 66 60 67 74 69 95 70 62 71 46 72 47 73
REMARK SMILES IDX 55 74 48 75 54 76 56 77 53 78 49 79 50 80 51 81 52 82 78 83
REMARK SMILES IDX 79 84 87 85 80 86 86 87 88 88 85 89 81 90 82 91 83 92 84 93
REMARK SMILES IDX 63 94 64 95 72 96 65 97 71 98 73 99 70 100 66 101 67 102
REMARK SMILES IDX 68 103 69 104
REMARK H PARENT 93 57 61 68
REMARK Flexibility Score: inf
ROOT
ATOM      1  C   UNL A   1      41.342  21.381  26.561  1.00  0.00     0.188 C 
ENDROOT
BRANCH   1   2
ATOM      2  O   UNL A   1      40.238  22.048  27.152  1.00  0.00    -0.376 OA
BRANCH   2   3
ATOM      3  C   UNL A   1      39.180  22.416  26.271  1.00  0.00     0.202 C 
BRANCH   3   4
ATOM      4  C   UNL A   1      38.810  23.905  26.297  1.00  0.00     0.261 C 
BRANCH   4   5
ATOM      5  O   UNL A   1      39.734  24.653  27.123  1.00  0.00    -0.460 OA
BRANCH   5   6
ATOM      6  C   UNL A   1      40.584  25.451  26.440  1.00  0.00     0.338 C 
ATOM      7  O   UNL A   1      40.588  25.580  25.221  1.00  0.00    -0.246 OA
BRANCH   6   8
ATOM      8  C   UNL A   1      41.439  26.268  27.343  1.00  0.00     0.087 C 
ATOM      9  C   UNL A   1      39.977  28.800  30.243  1.00  0.00     0.026 A 
ATOM     10  C   UNL A   1      38.667  29.119  29.826  1.00  0.00     0.033 A 
ATOM     11  C   UNL A   1      40.748  28.106  29.311  1.00  0.00     0.135 A 
ATOM     12  C   UNL A   1      38.235  28.969  28.510  1.00  0.00     0.042 A 
ATOM     13  C   UNL A   1      40.392  28.153  27.948  1.00  0.00     0.019 A 
ATOM     14  O   UNL A   1      41.752  27.208  29.650  1.00  0.00    -0.475 OA
ATOM     15  Cl  UNL A   1      36.622  29.352  28.066  1.00  0.00    -0.084 Cl
ATOM     16  C   UNL A   1      39.131  28.563  27.540  1.00  0.00     0.032 A 
ATOM     17  C   UNL A   1      41.345  27.562  26.986  1.00  0.00     0.027 C 
ATOM     18  C   UNL A   1      41.603  25.960  28.833  1.00  0.00     0.316 C 
BRANCH   9  19
ATOM     19  C   UNL A   1      40.463  29.634  31.374  1.00  0.00    -0.015 A 
ATOM     20  C   UNL A   1      40.211  31.464  33.553  1.00  0.00    -0.048 A 
ATOM     21  C   UNL A   1      40.323  30.088  33.781  1.00  0.00     0.004 A 
ATOM     22  C   UNL A   1      40.330  31.930  32.240  1.00  0.00     0.004 A 
ATOM     23  C   UNL A   1      40.454  29.188  32.704  1.00  0.00     0.009 A 
ATOM     24  C   UNL A   1      40.471  31.031  31.174  1.00  0.00     0.009 A 
BRANCH  20  25
ATOM     25  C   UNL A   1      39.895  32.428  34.680  1.00  0.00     0.038 C 
BRANCH  25  26
ATOM     26  C   UNL A   1      38.604  33.245  34.491  1.00  0.00    -0.013 C 
ATOM     27  C   UNL A   1      37.364  32.460  34.927  1.00  0.00     0.008 C 
ATOM     28  C   UNL A   1      38.682  34.549  35.295  1.00  0.00     0.008 C 
ENDBRANCH  25  26
ENDBRANCH  20  25
ENDBRANCH   9  19
BRANCH  18  29
ATOM     29  C   UNL A   1      42.777  25.000  29.030  1.00  0.00     0.430 C 
ATOM     30  F   UNL A   1      42.374  23.733  29.273  1.00  0.00    -0.167 F 
ATOM     31  F   UNL A   1      43.598  24.977  27.955  1.00  0.00    -0.167 F 
ATOM     32  F   UNL A   1      43.539  25.383  30.088  1.00  0.00    -0.167 F 
ENDBRANCH  18  29
ENDBRANCH   6   8
ENDBRANCH   5   6
ENDBRANCH   4   5
ENDBRANCH   3   4
ENDBRANCH   2   3
ENDBRANCH   1   2
BRANCH   1  33
ATOM     33  C   UNL A   1      42.569  22.277  26.283  1.00  0.00     0.188 C 
BRANCH  33  34
ATOM     34  O   UNL A   1      42.816  22.752  24.966  1.00  0.00    -0.376 OA
BRANCH  34  35
ATOM     35  C   UNL A   1      43.713  23.840  24.777  1.00  0.00     0.202 C 
BRANCH  35  36
ATOM     36  C   UNL A   1      45.196  23.532  24.546  1.00  0.00     0.261 C 
BRANCH  36  37
ATOM     37  O   UNL A   1      46.078  24.136  25.510  1.00  0.00    -0.460 OA
BRANCH  37  38
ATOM     38  C   UNL A   1      46.557  25.357  25.164  1.00  0.00     0.338 C 
ATOM     39  O   UNL A   1      47.044  25.672  24.091  1.00  0.00    -0.246 OA
BRANCH  38  40
ATOM     40  C   UNL A   1      46.256  26.351  26.215  1.00  0.00     0.060 A 
ATOM     41  C   UNL A   1      47.228  26.571  27.195  1.00  0.00     0.016 A 
ATOM     42  C   UNL A   1      45.012  26.981  26.307  1.00  0.00     0.016 A 
ATOM     43  C   UNL A   1      46.943  27.398  28.282  1.00  0.00     0.010 A 
ATOM     44  C   UNL A   1      44.726  27.801  27.411  1.00  0.00     0.010 A 
ATOM     45  C   UNL A   1      45.684  28.002  28.417  1.00  0.00    -0.014 A 
BRANCH  45  46
ATOM     46  C   UNL A   1      45.352  28.688  29.699  1.00  0.00     0.031 A 
ATOM     47  C   UNL A   1      44.784  30.075  29.650  1.00  0.00     0.074 A 
ATOM     48  C   UNL A   1      45.494  28.077  30.889  1.00  0.00     0.049 A 
ATOM     49  N   UNL A   1      44.381  30.841  30.628  1.00  0.00    -0.248 NA
ATOM     50  C   UNL A   1      44.693  30.685  28.317  1.00  0.00     0.031 C 
ATOM     51  C   UNL A   1      46.053  26.748  31.065  1.00  0.00     0.029 A 
ATOM     52  N   UNL A   1      45.134  28.456  32.160  1.00  0.00    -0.354 N 
ATOM     53  C   UNL A   1      44.048  32.054  30.040  1.00  0.00     0.074 A 
ATOM     54  C   UNL A   1      44.261  31.900  28.615  1.00  0.00     0.031 C 
ATOM     55  C   UNL A   1      45.868  26.358  32.337  1.00  0.00     0.029 A 
ATOM     56  C   UNL A   1      45.277  27.453  33.098  1.00  0.00     0.049 A 
ATOM     57  H   UNL A   1      44.807  29.357  32.382  1.00  0.00     0.167 HD
ATOM     58  C   UNL A   1      43.654  33.205  30.642  1.00  0.00     0.034 A 
ATOM     59  C   UNL A   1      44.972  27.427  34.415  1.00  0.00     0.034 A 
ATOM     60  C   UNL A   1      43.488  33.350  32.069  1.00  0.00     0.049 A 
ATOM     61  C   UNL A   1      44.479  28.704  35.058  1.00  0.00     0.074 A 
ATOM     62  C   UNL A   1      43.149  34.485  32.786  1.00  0.00     0.029 A 
ATOM     63  N   UNL A   1      43.667  32.335  33.001  1.00  0.00    -0.354 N 
ATOM     64  N   UNL A   1      44.195  29.858  34.495  1.00  0.00    -0.248 NA
ATOM     65  C   UNL A   1      44.312  28.693  36.518  1.00  0.00     0.031 C 
ATOM     66  C   UNL A   1      43.190  34.173  34.150  1.00  0.00     0.029 A 
ATOM     67  C   UNL A   1      43.471  32.823  34.286  1.00  0.00     0.049 A 
ATOM     68  H   UNL A   1      43.898  31.403  32.781  1.00  0.00     0.167 HD
ATOM     69  C   UNL A   1      43.841  30.713  35.538  1.00  0.00     0.074 A 
ATOM     70  C   UNL A   1      43.883  29.925  36.752  1.00  0.00     0.031 C 
ATOM     71  C   UNL A   1      43.539  32.036  35.496  1.00  0.00     0.034 A 
BRANCH  58  72
ATOM     72  C   UNL A   1      43.519  34.414  29.751  1.00  0.00     0.023 A 
ATOM     73  C   UNL A   1      44.606  35.258  29.468  1.00  0.00     0.031 A 
ATOM     74  C   UNL A   1      42.251  34.790  29.270  1.00  0.00     0.131 A 
ATOM     75  C   UNL A   1      44.386  36.484  28.821  1.00  0.00     0.055 A 
ATOM     76  C   UNL A   1      42.056  35.963  28.542  1.00  0.00     0.041 A 
ATOM     77  F   UNL A   1      41.169  34.039  29.535  1.00  0.00    -0.206 F 
ATOM     78  C   UNL A   1      43.123  36.831  28.333  1.00  0.00     0.022 A 
BRANCH  75  79
ATOM     79  S   UNL A   1      45.727  37.706  28.812  1.00  0.00     0.124 S 
ATOM     80  O   UNL A   1      46.045  37.783  27.387  1.00  0.00    -0.237 OA
ATOM     81  O   UNL A   1      45.086  38.880  29.389  1.00  0.00    -0.237 OA
ATOM     82  O   UNL A   1      46.761  37.086  29.639  1.00  0.00    -0.744 OA
ENDBRANCH  75  79
ENDBRANCH  58  72
BRANCH  59  83
ATOM     83  C   UNL A   1      45.139  26.183  35.231  1.00  0.00     0.023 A 
ATOM     84  C   UNL A   1      46.379  25.870  35.816  1.00  0.00     0.031 A 
ATOM     85  C   UNL A   1      44.092  25.262  35.415  1.00  0.00     0.131 A 
ATOM     86  C   UNL A   1      46.547  24.676  36.536  1.00  0.00     0.055 A 
ATOM     87  C   UNL A   1      44.245  24.105  36.183  1.00  0.00     0.041 A 
ATOM     88  F   UNL A   1      42.890  25.480  34.858  1.00  0.00    -0.206 F 
ATOM     89  C   UNL A   1      45.481  23.801  36.743  1.00  0.00     0.022 A 
BRANCH  86  90
ATOM     90  S   UNL A   1      48.205  24.254  37.144  1.00  0.00     0.124 S 
ATOM     91  O   UNL A   1      48.454  25.330  38.096  1.00  0.00    -0.237 OA
ATOM     92  O   UNL A   1      47.989  22.928  37.716  1.00  0.00    -0.237 OA
ATOM     93  O   UNL A   1      49.027  24.283  35.937  1.00  0.00    -0.744 OA
ENDBRANCH  86  90
ENDBRANCH  59  83
BRANCH  71  94
ATOM     94  C   UNL A   1      43.230  32.717  36.810  1.00  0.00     0.023 A 
ATOM     95  C   UNL A   1      41.994  32.547  37.460  1.00  0.00     0.031 A 
ATOM     96  C   UNL A   1      44.192  33.536  37.428  1.00  0.00     0.131 A 
ATOM     97  C   UNL A   1      41.735  33.222  38.663  1.00  0.00     0.055 A 
ATOM     98  C   UNL A   1      43.950  34.159  38.653  1.00  0.00     0.041 A 
ATOM     99  F   UNL A   1      45.389  33.736  36.854  1.00  0.00    -0.206 F 
ATOM    100  C   UNL A   1      42.712  34.012  39.273  1.00  0.00     0.022 A 
BRANCH  97 101
ATOM    101  S   UNL A   1      40.074  33.117  39.387  1.00  0.00     0.124 S 
ATOM    102  O   UNL A   1      39.798  34.511  39.716  1.00  0.00    -0.237 OA
ATOM    103  O   UNL A   1      39.292  32.552  38.293  1.00  0.00    -0.237 OA
ATOM    104  O   UNL A   1      40.256  32.233  40.537  1.00  0.00    -0.744 OA
ENDBRANCH  97 101
ENDBRANCH  71  94
ENDBRANCH  45  46
ENDBRANCH  38  40
ENDBRANCH  37  38
ENDBRANCH  36  37
ENDBRANCH  35  36
ENDBRANCH  34  35
ENDBRANCH  33  34
ENDBRANCH   1  33
TORSDOF 24
ENDMDL
