MODEL 1
REMARK VINA RESULT:     -11.2      0.000      0.000
REMARK SMILES COc1ccc(F)c(NC(=O)N2CCCC[C@@H]2C(=O)OCCOCCOCCOC(=O)c2ccc(-c3c4nc(c(-c5cc(S(=O)(=O)[O-])ccc5F)c5ccc([nH]5)c(-c5cc(S(=O)(=O)[O-])ccc5F)c5nc(c(-c6cc(S(=O)(=O)[O-])ccc6F)c6ccc3[nH]6)C=C5)C=C4)cc2)c1
REMARK SMILES IDX 24 1 23 2 22 3 21 4 20 5 18 6 19 7 17 8 12 9 13 10 14 11
REMARK SMILES IDX 16 12 15 13 10 14 9 15 11 17 8 18 3 19 4 20 95 21 5 22 6 23
REMARK SMILES IDX 7 24 2 25 1 26 25 27 26 28 27 29 28 30 29 31 30 32 31 33
REMARK SMILES IDX 32 34 33 35 94 36 34 37 93 38 35 39 36 40 37 41 87 42 38 43
REMARK SMILES IDX 92 44 86 45 88 46 39 47 91 48 85 49 84 50 40 52 72 53 52 54
REMARK SMILES IDX 71 55 53 56 56 57 70 58 89 59 54 60 55 61 69 63 90 64 57 65
REMARK SMILES IDX 41 66 42 67 50 68 43 69 49 70 51 71 48 72 44 73 45 74 46 75
REMARK SMILES IDX 47 76 73 77 74 78 82 79 75 80 81 81 83 82 80 83 76 84 77 85
REMARK SMILES IDX 78 86 79 87 58 88 59 89 67 90 60 91 66 92 68 93 65 94 61 95
REMARK SMILES IDX 62 96 63 97 64 98
REMARK H PARENT 9 16 88 51 56 62
REMARK Flexibility Score: inf
ROOT
ATOM      1  C   UNL A   1      33.708  21.288  27.003  1.00  0.00     0.188 C 
ENDROOT
BRANCH   1   2
ATOM      2  O   UNL A   1      32.555  22.105  27.133  1.00  0.00    -0.376 OA
BRANCH   2   3
ATOM      3  C   UNL A   1      32.238  22.895  25.995  1.00  0.00     0.202 C 
BRANCH   3   4
ATOM      4  C   UNL A   1      32.465  24.421  26.126  1.00  0.00     0.261 C 
BRANCH   4   5
ATOM      5  O   UNL A   1      31.696  25.313  25.288  1.00  0.00    -0.462 OA
BRANCH   5   6
ATOM      6  C   UNL A   1      30.838  26.116  25.962  1.00  0.00     0.329 C 
ATOM      7  O   UNL A   1      29.846  25.642  26.493  1.00  0.00    -0.250 OA
BRANCH   6   8
ATOM      8  C   UNL A   1      31.266  27.608  26.071  1.00  0.00     0.196 C 
ATOM      9  N   UNL A   1      31.718  28.297  24.828  1.00  0.00    -0.311 N 
ATOM     10  C   UNL A   1      32.136  29.693  24.939  1.00  0.00     0.122 C 
ATOM     11  C   UNL A   1      33.044  29.973  26.130  1.00  0.00     0.022 C 
ATOM     12  C   UNL A   1      32.245  27.895  27.229  1.00  0.00     0.037 C 
ATOM     13  C   UNL A   1      32.446  29.399  27.406  1.00  0.00     0.005 C 
BRANCH   9  14
ATOM     14  C   UNL A   1      31.996  27.638  23.654  1.00  0.00     0.322 C 
ATOM     15  N   UNL A   1      31.066  27.649  22.648  1.00  0.00    -0.305 N 
ATOM     16  H   UNL A   1      31.263  27.041  21.899  1.00  0.00     0.171 HD
ATOM     17  O   UNL A   1      33.064  27.049  23.490  1.00  0.00    -0.248 OA
BRANCH  15  18
ATOM     18  C   UNL A   1      29.870  28.392  22.512  1.00  0.00     0.082 A 
ATOM     19  C   UNL A   1      28.789  30.541  22.299  1.00  0.00     0.121 A 
ATOM     20  C   UNL A   1      27.659  30.056  22.958  1.00  0.00     0.049 A 
ATOM     21  C   UNL A   1      29.849  29.688  22.009  1.00  0.00     0.075 A 
ATOM     22  C   UNL A   1      27.600  28.707  23.321  1.00  0.00     0.045 A 
ATOM     23  C   UNL A   1      28.700  27.881  23.089  1.00  0.00     0.147 A 
ATOM     24  F   UNL A   1      28.684  26.629  23.574  1.00  0.00    -0.205 F 
BRANCH  19  25
ATOM     25  O   UNL A   1      29.023  31.834  21.922  1.00  0.00    -0.497 OA
ATOM     26  C   UNL A   1      28.682  32.811  22.886  1.00  0.00     0.278 C 
ENDBRANCH  19  25
ENDBRANCH  15  18
ENDBRANCH   9  14
ENDBRANCH   6   8
ENDBRANCH   5   6
ENDBRANCH   4   5
ENDBRANCH   3   4
ENDBRANCH   2   3
ENDBRANCH   1   2
BRANCH   1  27
ATOM     27  C   UNL A   1      34.224  21.150  25.565  1.00  0.00     0.188 C 
BRANCH  27  28
ATOM     28  O   UNL A   1      34.595  19.888  25.033  1.00  0.00    -0.376 OA
BRANCH  28  29
ATOM     29  C   UNL A   1      35.972  19.549  24.961  1.00  0.00     0.202 C 
BRANCH  29  30
ATOM     30  C   UNL A   1      37.021  20.631  24.637  1.00  0.00     0.261 C 
BRANCH  30  31
ATOM     31  O   UNL A   1      37.538  21.378  25.750  1.00  0.00    -0.460 OA
BRANCH  31  32
ATOM     32  C   UNL A   1      38.846  21.158  26.040  1.00  0.00     0.338 C 
ATOM     33  O   UNL A   1      39.496  20.161  25.767  1.00  0.00    -0.246 OA
BRANCH  32  34
ATOM     34  C   UNL A   1      39.452  22.409  26.562  1.00  0.00     0.060 A 
ATOM     35  C   UNL A   1      38.934  23.635  26.119  1.00  0.00     0.016 A 
ATOM     36  C   UNL A   1      40.522  22.386  27.459  1.00  0.00     0.016 A 
ATOM     37  C   UNL A   1      39.481  24.837  26.570  1.00  0.00     0.010 A 
ATOM     38  C   UNL A   1      41.105  23.593  27.868  1.00  0.00     0.010 A 
ATOM     39  C   UNL A   1      40.602  24.823  27.412  1.00  0.00    -0.014 A 
BRANCH  39  40
ATOM     40  C   UNL A   1      41.355  26.083  27.647  1.00  0.00     0.031 A 
ATOM     41  C   UNL A   1      40.757  27.109  28.563  1.00  0.00     0.074 A 
ATOM     42  C   UNL A   1      42.554  26.312  27.082  1.00  0.00     0.049 A 
ATOM     43  N   UNL A   1      41.195  28.305  28.850  1.00  0.00    -0.248 NA
ATOM     44  C   UNL A   1      39.484  26.754  29.208  1.00  0.00     0.031 C 
ATOM     45  C   UNL A   1      43.221  25.399  26.167  1.00  0.00     0.029 A 
ATOM     46  N   UNL A   1      43.438  27.357  27.210  1.00  0.00    -0.354 N 
ATOM     47  C   UNL A   1      40.232  28.866  29.677  1.00  0.00     0.074 A 
ATOM     48  C   UNL A   1      39.196  27.872  29.857  1.00  0.00     0.031 C 
ATOM     49  C   UNL A   1      44.453  25.867  25.899  1.00  0.00     0.029 A 
ATOM     50  C   UNL A   1      44.624  27.169  26.535  1.00  0.00     0.049 A 
ATOM     51  H   UNL A   1      43.240  28.165  27.735  1.00  0.00     0.167 HD
ATOM     52  C   UNL A   1      40.207  30.108  30.212  1.00  0.00     0.034 A 
ATOM     53  C   UNL A   1      45.709  27.968  26.415  1.00  0.00     0.034 A 
ATOM     54  C   UNL A   1      41.234  31.095  30.004  1.00  0.00     0.049 A 
ATOM     55  C   UNL A   1      45.642  29.356  27.001  1.00  0.00     0.074 A 
ATOM     56  C   UNL A   1      41.278  32.397  30.470  1.00  0.00     0.029 A 
ATOM     57  N   UNL A   1      42.394  30.896  29.269  1.00  0.00    -0.354 N 
ATOM     58  N   UNL A   1      44.685  29.904  27.713  1.00  0.00    -0.248 NA
ATOM     59  C   UNL A   1      46.770  30.256  26.718  1.00  0.00     0.031 C 
ATOM     60  C   UNL A   1      42.436  33.002  29.970  1.00  0.00     0.029 A 
ATOM     61  C   UNL A   1      43.153  32.054  29.256  1.00  0.00     0.049 A 
ATOM     62  H   UNL A   1      42.642  30.054  28.823  1.00  0.00     0.167 HD
ATOM     63  C   UNL A   1      45.091  31.212  27.956  1.00  0.00     0.074 A 
ATOM     64  C   UNL A   1      46.392  31.367  27.336  1.00  0.00     0.031 C 
ATOM     65  C   UNL A   1      44.441  32.200  28.621  1.00  0.00     0.034 A 
BRANCH  52  66
ATOM     66  C   UNL A   1      38.990  30.486  31.011  1.00  0.00     0.023 A 
ATOM     67  C   UNL A   1      37.867  31.071  30.406  1.00  0.00     0.031 A 
ATOM     68  C   UNL A   1      38.961  30.267  32.399  1.00  0.00     0.131 A 
ATOM     69  C   UNL A   1      36.775  31.457  31.195  1.00  0.00     0.055 A 
ATOM     70  C   UNL A   1      37.845  30.591  33.169  1.00  0.00     0.041 A 
ATOM     71  F   UNL A   1      40.022  29.736  33.029  1.00  0.00    -0.206 F 
ATOM     72  C   UNL A   1      36.745  31.199  32.569  1.00  0.00     0.022 A 
BRANCH  69  73
ATOM     73  S   UNL A   1      35.429  32.387  30.416  1.00  0.00     0.124 S 
ATOM     74  O   UNL A   1      35.148  31.569  29.240  1.00  0.00    -0.237 OA
ATOM     75  O   UNL A   1      34.403  32.388  31.454  1.00  0.00    -0.237 OA
ATOM     76  O   UNL A   1      36.031  33.689  30.135  1.00  0.00    -0.744 OA
ENDBRANCH  69  73
ENDBRANCH  52  66
BRANCH  53  77
ATOM     77  C   UNL A   1      46.915  27.521  25.651  1.00  0.00     0.023 A 
ATOM     78  C   UNL A   1      47.086  27.865  24.299  1.00  0.00     0.031 A 
ATOM     79  C   UNL A   1      47.903  26.720  26.252  1.00  0.00     0.131 A 
ATOM     80  C   UNL A   1      48.208  27.398  23.592  1.00  0.00     0.055 A 
ATOM     81  C   UNL A   1      49.043  26.305  25.561  1.00  0.00     0.041 A 
ATOM     82  F   UNL A   1      47.787  26.347  27.536  1.00  0.00    -0.206 F 
ATOM     83  C   UNL A   1      49.198  26.638  24.220  1.00  0.00     0.022 A 
BRANCH  80  84
ATOM     84  S   UNL A   1      48.343  27.753  21.815  1.00  0.00     0.124 S 
ATOM     85  O   UNL A   1      48.686  26.442  21.278  1.00  0.00    -0.237 OA
ATOM     86  O   UNL A   1      47.008  28.248  21.499  1.00  0.00    -0.237 OA
ATOM     87  O   UNL A   1      49.406  28.754  21.749  1.00  0.00    -0.744 OA
ENDBRANCH  80  84
ENDBRANCH  53  77
BRANCH  65  88
ATOM     88  C   UNL A   1      45.133  33.532  28.744  1.00  0.00     0.023 A 
ATOM     89  C   UNL A   1      45.989  33.825  29.819  1.00  0.00     0.031 A 
ATOM     90  C   UNL A   1      44.976  34.500  27.736  1.00  0.00     0.131 A 
ATOM     91  C   UNL A   1      46.636  35.069  29.875  1.00  0.00     0.055 A 
ATOM     92  C   UNL A   1      45.658  35.715  27.772  1.00  0.00     0.041 A 
ATOM     93  F   UNL A   1      44.172  34.267  26.686  1.00  0.00    -0.206 F 
ATOM     94  C   UNL A   1      46.491  36.008  28.849  1.00  0.00     0.022 A 
BRANCH  91  95
ATOM     95  S   UNL A   1      47.648  35.464  31.327  1.00  0.00     0.124 S 
ATOM     96  O   UNL A   1      46.810  34.985  32.420  1.00  0.00    -0.237 OA
ATOM     97  O   UNL A   1      48.868  34.702  31.079  1.00  0.00    -0.237 OA
ATOM     98  O   UNL A   1      47.802  36.917  31.254  1.00  0.00    -0.744 OA
ENDBRANCH  91  95
ENDBRANCH  65  88
ENDBRANCH  39  40
ENDBRANCH  32  34
ENDBRANCH  31  32
ENDBRANCH  30  31
ENDBRANCH  29  30
ENDBRANCH  28  29
ENDBRANCH  27  28
ENDBRANCH   1  27
TORSDOF 23
ENDMDL
MODEL 2
REMARK VINA RESULT:     -11.0      1.842      2.093
REMARK SMILES COc1ccc(F)c(NC(=O)N2CCCC[C@@H]2C(=O)OCCOCCOCCOC(=O)c2ccc(-c3c4nc(c(-c5cc(S(=O)(=O)[O-])ccc5F)c5ccc([nH]5)c(-c5cc(S(=O)(=O)[O-])ccc5F)c5nc(c(-c6cc(S(=O)(=O)[O-])ccc6F)c6ccc3[nH]6)C=C5)C=C4)cc2)c1
REMARK SMILES IDX 24 1 23 2 22 3 21 4 20 5 18 6 19 7 17 8 12 9 13 10 14 11
REMARK SMILES IDX 16 12 15 13 10 14 9 15 11 17 8 18 3 19 4 20 95 21 5 22 6 23
REMARK SMILES IDX 7 24 2 25 1 26 25 27 26 28 27 29 28 30 29 31 30 32 31 33
REMARK SMILES IDX 32 34 33 35 94 36 34 37 93 38 35 39 36 40 37 41 87 42 38 43
REMARK SMILES IDX 92 44 86 45 88 46 39 47 91 48 85 49 84 50 40 52 72 53 52 54
REMARK SMILES IDX 71 55 53 56 56 57 70 58 89 59 54 60 55 61 69 63 90 64 57 65
REMARK SMILES IDX 41 66 42 67 50 68 43 69 49 70 51 71 48 72 44 73 45 74 46 75
REMARK SMILES IDX 47 76 73 77 74 78 82 79 75 80 81 81 83 82 80 83 76 84 77 85
REMARK SMILES IDX 78 86 79 87 58 88 59 89 67 90 60 91 66 92 68 93 65 94 61 95
REMARK SMILES IDX 62 96 63 97 64 98
REMARK H PARENT 9 16 88 51 56 62
REMARK Flexibility Score: inf
ROOT
ATOM      1  C   UNL A   1      33.742  21.472  26.961  1.00  0.00     0.188 C 
ENDROOT
BRANCH   1   2
ATOM      2  O   UNL A   1      32.540  22.225  27.026  1.00  0.00    -0.376 OA
BRANCH   2   3
ATOM      3  C   UNL A   1      32.223  22.965  25.856  1.00  0.00     0.202 C 
BRANCH   3   4
ATOM      4  C   UNL A   1      32.339  24.506  25.958  1.00  0.00     0.261 C 
BRANCH   4   5
ATOM      5  O   UNL A   1      31.511  25.324  25.101  1.00  0.00    -0.462 OA
BRANCH   5   6
ATOM      6  C   UNL A   1      30.651  26.137  25.761  1.00  0.00     0.329 C 
ATOM      7  O   UNL A   1      29.628  25.679  26.246  1.00  0.00    -0.250 OA
BRANCH   6   8
ATOM      8  C   UNL A   1      31.115  27.614  25.918  1.00  0.00     0.196 C 
ATOM      9  N   UNL A   1      31.523  28.351  24.688  1.00  0.00    -0.311 N 
ATOM     10  C   UNL A   1      31.975  29.732  24.842  1.00  0.00     0.122 C 
ATOM     11  C   UNL A   1      32.941  29.939  26.002  1.00  0.00     0.022 C 
ATOM     12  C   UNL A   1      32.151  27.828  27.041  1.00  0.00     0.037 C 
ATOM     13  C   UNL A   1      32.391  29.319  27.277  1.00  0.00     0.005 C 
BRANCH   9  14
ATOM     14  C   UNL A   1      31.732  27.742  23.473  1.00  0.00     0.322 C 
ATOM     15  N   UNL A   1      30.787  27.872  22.491  1.00  0.00    -0.305 N 
ATOM     16  H   UNL A   1      30.927  27.297  21.705  1.00  0.00     0.171 HD
ATOM     17  O   UNL A   1      32.754  27.092  23.253  1.00  0.00    -0.248 OA
BRANCH  15  18
ATOM     18  C   UNL A   1      29.642  28.701  22.423  1.00  0.00     0.082 A 
ATOM     19  C   UNL A   1      28.709  30.926  22.308  1.00  0.00     0.121 A 
ATOM     20  C   UNL A   1      27.575  30.504  23.003  1.00  0.00     0.049 A 
ATOM     21  C   UNL A   1      29.694  30.008  21.954  1.00  0.00     0.075 A 
ATOM     22  C   UNL A   1      27.434  29.153  23.334  1.00  0.00     0.045 A 
ATOM     23  C   UNL A   1      28.463  28.258  23.037  1.00  0.00     0.147 A 
ATOM     24  F   UNL A   1      28.377  26.997  23.491  1.00  0.00    -0.205 F 
BRANCH  19  25
ATOM     25  O   UNL A   1      29.019  32.209  21.953  1.00  0.00    -0.497 OA
ATOM     26  C   UNL A   1      28.927  33.159  22.997  1.00  0.00     0.278 C 
ENDBRANCH  19  25
ENDBRANCH  15  18
ENDBRANCH   9  14
ENDBRANCH   6   8
ENDBRANCH   5   6
ENDBRANCH   4   5
ENDBRANCH   3   4
ENDBRANCH   2   3
ENDBRANCH   1   2
BRANCH   1  27
ATOM     27  C   UNL A   1      34.413  21.473  25.582  1.00  0.00     0.188 C 
BRANCH  27  28
ATOM     28  O   UNL A   1      34.926  20.280  25.011  1.00  0.00    -0.376 OA
BRANCH  28  29
ATOM     29  C   UNL A   1      36.333  20.096  24.951  1.00  0.00     0.202 C 
BRANCH  29  30
ATOM     30  C   UNL A   1      37.263  21.301  24.709  1.00  0.00     0.261 C 
BRANCH  30  31
ATOM     31  O   UNL A   1      37.723  22.002  25.876  1.00  0.00    -0.460 OA
BRANCH  31  32
ATOM     32  C   UNL A   1      39.000  21.730  26.252  1.00  0.00     0.338 C 
ATOM     33  O   UNL A   1      39.610  20.691  26.060  1.00  0.00    -0.246 OA
BRANCH  32  34
ATOM     34  C   UNL A   1      39.640  22.971  26.755  1.00  0.00     0.060 A 
ATOM     35  C   UNL A   1      39.239  24.197  26.203  1.00  0.00     0.016 A 
ATOM     36  C   UNL A   1      40.628  22.938  27.740  1.00  0.00     0.016 A 
ATOM     37  C   UNL A   1      39.824  25.390  26.634  1.00  0.00     0.010 A 
ATOM     38  C   UNL A   1      41.252  24.130  28.132  1.00  0.00     0.010 A 
ATOM     39  C   UNL A   1      40.868  25.359  27.568  1.00  0.00    -0.014 A 
BRANCH  39  40
ATOM     40  C   UNL A   1      41.679  26.584  27.799  1.00  0.00     0.031 A 
ATOM     41  C   UNL A   1      41.137  27.633  28.722  1.00  0.00     0.074 A 
ATOM     42  C   UNL A   1      42.881  26.761  27.222  1.00  0.00     0.049 A 
ATOM     43  N   UNL A   1      41.630  28.808  29.008  1.00  0.00    -0.248 NA
ATOM     44  C   UNL A   1      39.856  27.333  29.380  1.00  0.00     0.031 C 
ATOM     45  C   UNL A   1      43.498  25.822  26.298  1.00  0.00     0.029 A 
ATOM     46  N   UNL A   1      43.812  27.765  27.343  1.00  0.00    -0.354 N 
ATOM     47  C   UNL A   1      40.701  29.408  29.846  1.00  0.00     0.074 A 
ATOM     48  C   UNL A   1      39.624  28.461  30.035  1.00  0.00     0.031 C 
ATOM     49  C   UNL A   1      44.746  26.235  26.019  1.00  0.00     0.029 A 
ATOM     50  C   UNL A   1      44.982  27.527  26.656  1.00  0.00     0.049 A 
ATOM     51  H   UNL A   1      43.655  28.580  27.872  1.00  0.00     0.167 HD
ATOM     52  C   UNL A   1      40.736  30.649  30.385  1.00  0.00     0.034 A 
ATOM     53  C   UNL A   1      46.099  28.277  26.526  1.00  0.00     0.034 A 
ATOM     54  C   UNL A   1      41.804  31.590  30.168  1.00  0.00     0.049 A 
ATOM     55  C   UNL A   1      46.101  29.665  27.116  1.00  0.00     0.074 A 
ATOM     56  C   UNL A   1      41.911  32.888  30.636  1.00  0.00     0.029 A 
ATOM     57  N   UNL A   1      42.947  31.341  29.420  1.00  0.00    -0.354 N 
ATOM     58  N   UNL A   1      45.176  30.253  27.839  1.00  0.00    -0.248 NA
ATOM     59  C   UNL A   1      47.264  30.515  26.823  1.00  0.00     0.031 C 
ATOM     60  C   UNL A   1      43.089  33.442  30.126  1.00  0.00     0.029 A 
ATOM     61  C   UNL A   1      43.756  32.465  29.402  1.00  0.00     0.049 A 
ATOM     62  H   UNL A   1      43.152  30.490  28.970  1.00  0.00     0.167 HD
ATOM     63  C   UNL A   1      45.642  31.542  28.080  1.00  0.00     0.074 A 
ATOM     64  C   UNL A   1      46.942  31.640  27.448  1.00  0.00     0.031 C 
ATOM     65  C   UNL A   1      45.043  32.555  28.754  1.00  0.00     0.034 A 
BRANCH  52  66
ATOM     66  C   UNL A   1      39.546  31.078  31.196  1.00  0.00     0.023 A 
ATOM     67  C   UNL A   1      39.597  31.142  32.598  1.00  0.00     0.031 A 
ATOM     68  C   UNL A   1      38.340  31.415  30.557  1.00  0.00     0.131 A 
ATOM     69  C   UNL A   1      38.449  31.495  33.319  1.00  0.00     0.055 A 
ATOM     70  C   UNL A   1      37.220  31.831  31.277  1.00  0.00     0.041 A 
ATOM     71  F   UNL A   1      38.232  31.341  29.221  1.00  0.00    -0.206 F 
ATOM     72  C   UNL A   1      37.268  31.864  32.668  1.00  0.00     0.022 A 
BRANCH  69  73
ATOM     73  S   UNL A   1      38.491  31.377  35.127  1.00  0.00     0.124 S 
ATOM     74  O   UNL A   1      37.333  32.185  35.501  1.00  0.00    -0.237 OA
ATOM     75  O   UNL A   1      38.367  29.941  35.353  1.00  0.00    -0.237 OA
ATOM     76  O   UNL A   1      39.787  31.953  35.478  1.00  0.00    -0.744 OA
ENDBRANCH  69  73
ENDBRANCH  52  66
BRANCH  53  77
ATOM     77  C   UNL A   1      47.277  27.779  25.749  1.00  0.00     0.023 A 
ATOM     78  C   UNL A   1      47.381  28.004  24.365  1.00  0.00     0.031 A 
ATOM     79  C   UNL A   1      48.305  27.048  26.372  1.00  0.00     0.131 A 
ATOM     80  C   UNL A   1      48.476  27.489  23.650  1.00  0.00     0.055 A 
ATOM     81  C   UNL A   1      49.418  26.587  25.667  1.00  0.00     0.041 A 
ATOM     82  F   UNL A   1      48.253  26.789  27.688  1.00  0.00    -0.206 F 
ATOM     83  C   UNL A   1      49.506  26.801  24.297  1.00  0.00     0.022 A 
BRANCH  80  84
ATOM     84  S   UNL A   1      48.524  27.687  21.845  1.00  0.00     0.124 S 
ATOM     85  O   UNL A   1      48.799  26.323  21.407  1.00  0.00    -0.237 OA
ATOM     86  O   UNL A   1      47.189  28.197  21.557  1.00  0.00    -0.237 OA
ATOM     87  O   UNL A   1      49.611  28.642  21.637  1.00  0.00    -0.744 OA
ENDBRANCH  80  84
ENDBRANCH  53  77
BRANCH  65  88
ATOM     88  C   UNL A   1      45.795  33.855  28.873  1.00  0.00     0.023 A 
ATOM     89  C   UNL A   1      45.614  34.901  27.953  1.00  0.00     0.031 A 
ATOM     90  C   UNL A   1      46.663  34.067  29.960  1.00  0.00     0.131 A 
ATOM     91  C   UNL A   1      46.314  36.106  28.122  1.00  0.00     0.055 A 
ATOM     92  C   UNL A   1      47.318  35.283  30.149  1.00  0.00     0.041 A 
ATOM     93  F   UNL A   1      46.866  33.099  30.869  1.00  0.00    -0.206 F 
ATOM     94  C   UNL A   1      47.149  36.310  29.224  1.00  0.00     0.022 A 
BRANCH  91  95
ATOM     95  S   UNL A   1      46.146  37.400  26.862  1.00  0.00     0.124 S 
ATOM     96  O   UNL A   1      46.714  36.751  25.685  1.00  0.00    -0.237 OA
ATOM     97  O   UNL A   1      44.704  37.626  26.831  1.00  0.00    -0.237 OA
ATOM     98  O   UNL A   1      46.933  38.508  27.401  1.00  0.00    -0.744 OA
ENDBRANCH  91  95
ENDBRANCH  65  88
ENDBRANCH  39  40
ENDBRANCH  32  34
ENDBRANCH  31  32
ENDBRANCH  30  31
ENDBRANCH  29  30
ENDBRANCH  28  29
ENDBRANCH  27  28
ENDBRANCH   1  27
TORSDOF 23
ENDMDL
MODEL 3
REMARK VINA RESULT:     -10.9      1.899      2.163
REMARK SMILES COc1ccc(F)c(NC(=O)N2CCCC[C@@H]2C(=O)OCCOCCOCCOC(=O)c2ccc(-c3c4nc(c(-c5cc(S(=O)(=O)[O-])ccc5F)c5ccc([nH]5)c(-c5cc(S(=O)(=O)[O-])ccc5F)c5nc(c(-c6cc(S(=O)(=O)[O-])ccc6F)c6ccc3[nH]6)C=C5)C=C4)cc2)c1
REMARK SMILES IDX 24 1 23 2 22 3 21 4 20 5 18 6 19 7 17 8 12 9 13 10 14 11
REMARK SMILES IDX 16 12 15 13 10 14 9 15 11 17 8 18 3 19 4 20 95 21 5 22 6 23
REMARK SMILES IDX 7 24 2 25 1 26 25 27 26 28 27 29 28 30 29 31 30 32 31 33
REMARK SMILES IDX 32 34 33 35 94 36 34 37 93 38 35 39 36 40 37 41 87 42 38 43
REMARK SMILES IDX 92 44 86 45 88 46 39 47 91 48 85 49 84 50 40 52 72 53 52 54
REMARK SMILES IDX 71 55 53 56 56 57 70 58 89 59 54 60 55 61 69 63 90 64 57 65
REMARK SMILES IDX 41 66 42 67 50 68 43 69 49 70 51 71 48 72 44 73 45 74 46 75
REMARK SMILES IDX 47 76 73 77 74 78 82 79 75 80 81 81 83 82 80 83 76 84 77 85
REMARK SMILES IDX 78 86 79 87 58 88 59 89 67 90 60 91 66 92 68 93 65 94 61 95
REMARK SMILES IDX 62 96 63 97 64 98
REMARK H PARENT 9 16 88 51 56 62
REMARK Flexibility Score: inf
ROOT
ATOM      1  C   UNL A   1      33.747  21.475  26.860  1.00  0.00     0.188 C 
ENDROOT
BRANCH   1   2
ATOM      2  O   UNL A   1      32.556  22.247  26.838  1.00  0.00    -0.376 OA
BRANCH   2   3
ATOM      3  C   UNL A   1      32.337  22.993  25.649  1.00  0.00     0.202 C 
BRANCH   3   4
ATOM      4  C   UNL A   1      32.451  24.533  25.767  1.00  0.00     0.261 C 
BRANCH   4   5
ATOM      5  O   UNL A   1      31.493  25.357  25.065  1.00  0.00    -0.462 OA
BRANCH   5   6
ATOM      6  C   UNL A   1      30.723  26.131  25.867  1.00  0.00     0.329 C 
ATOM      7  O   UNL A   1      29.773  25.642  26.458  1.00  0.00    -0.250 OA
BRANCH   6   8
ATOM      8  C   UNL A   1      31.197  27.604  26.030  1.00  0.00     0.196 C 
ATOM      9  N   UNL A   1      31.707  28.310  24.819  1.00  0.00    -0.311 N 
ATOM     10  C   UNL A   1      32.168  29.688  24.980  1.00  0.00     0.122 C 
ATOM     11  C   UNL A   1      33.050  29.904  26.204  1.00  0.00     0.022 C 
ATOM     12  C   UNL A   1      32.152  27.825  27.222  1.00  0.00     0.037 C 
ATOM     13  C   UNL A   1      32.398  29.317  27.446  1.00  0.00     0.005 C 
BRANCH   9  14
ATOM     14  C   UNL A   1      31.995  27.674  23.635  1.00  0.00     0.322 C 
ATOM     15  N   UNL A   1      31.082  27.719  22.615  1.00  0.00    -0.305 N 
ATOM     16  H   UNL A   1      31.284  27.126  21.855  1.00  0.00     0.171 HD
ATOM     17  O   UNL A   1      33.059  27.075  23.475  1.00  0.00    -0.248 OA
BRANCH  15  18
ATOM     18  C   UNL A   1      29.898  28.481  22.477  1.00  0.00     0.082 A 
ATOM     19  C   UNL A   1      28.845  30.648  22.304  1.00  0.00     0.121 A 
ATOM     20  C   UNL A   1      27.697  30.158  22.927  1.00  0.00     0.049 A 
ATOM     21  C   UNL A   1      29.902  29.790  22.011  1.00  0.00     0.075 A 
ATOM     22  C   UNL A   1      27.615  28.800  23.250  1.00  0.00     0.045 A 
ATOM     23  C   UNL A   1      28.711  27.967  23.017  1.00  0.00     0.147 A 
ATOM     24  F   UNL A   1      28.670  26.702  23.465  1.00  0.00    -0.205 F 
BRANCH  19  25
ATOM     25  O   UNL A   1      29.102  31.947  21.969  1.00  0.00    -0.497 OA
ATOM     26  C   UNL A   1      28.720  32.904  22.938  1.00  0.00     0.278 C 
ENDBRANCH  19  25
ENDBRANCH  15  18
ENDBRANCH   9  14
ENDBRANCH   6   8
ENDBRANCH   5   6
ENDBRANCH   4   5
ENDBRANCH   3   4
ENDBRANCH   2   3
ENDBRANCH   1   2
BRANCH   1  27
ATOM     27  C   UNL A   1      34.455  21.369  25.504  1.00  0.00     0.188 C 
BRANCH  27  28
ATOM     28  O   UNL A   1      34.895  20.119  24.997  1.00  0.00    -0.376 OA
BRANCH  28  29
ATOM     29  C   UNL A   1      36.288  19.843  24.963  1.00  0.00     0.202 C 
BRANCH  29  30
ATOM     30  C   UNL A   1      37.295  20.969  24.661  1.00  0.00     0.261 C 
BRANCH  30  31
ATOM     31  O   UNL A   1      37.785  21.713  25.789  1.00  0.00    -0.460 OA
BRANCH  31  32
ATOM     32  C   UNL A   1      39.075  21.464  26.133  1.00  0.00     0.338 C 
ATOM     33  O   UNL A   1      39.707  20.445  25.902  1.00  0.00    -0.246 OA
BRANCH  32  34
ATOM     34  C   UNL A   1      39.694  22.707  26.657  1.00  0.00     0.060 A 
ATOM     35  C   UNL A   1      39.363  23.925  26.044  1.00  0.00     0.016 A 
ATOM     36  C   UNL A   1      40.596  22.684  27.721  1.00  0.00     0.016 A 
ATOM     37  C   UNL A   1      39.931  25.119  26.491  1.00  0.00     0.010 A 
ATOM     38  C   UNL A   1      41.207  23.876  28.134  1.00  0.00     0.010 A 
ATOM     39  C   UNL A   1      40.894  25.096  27.510  1.00  0.00    -0.014 A 
BRANCH  39  40
ATOM     40  C   UNL A   1      41.705  26.312  27.777  1.00  0.00     0.031 A 
ATOM     41  C   UNL A   1      41.117  27.383  28.646  1.00  0.00     0.074 A 
ATOM     42  C   UNL A   1      42.946  26.465  27.281  1.00  0.00     0.049 A 
ATOM     43  N   UNL A   1      41.606  28.556  28.947  1.00  0.00    -0.248 NA
ATOM     44  C   UNL A   1      39.790  27.111  29.220  1.00  0.00     0.031 C 
ATOM     45  C   UNL A   1      43.609  25.502  26.415  1.00  0.00     0.029 A 
ATOM     46  N   UNL A   1      43.880  27.458  27.450  1.00  0.00    -0.354 N 
ATOM     47  C   UNL A   1      40.632  29.182  29.712  1.00  0.00     0.074 A 
ATOM     48  C   UNL A   1      39.531  28.252  29.840  1.00  0.00     0.031 C 
ATOM     49  C   UNL A   1      44.880  25.894  26.215  1.00  0.00     0.029 A 
ATOM     50  C   UNL A   1      45.091  27.193  26.847  1.00  0.00     0.049 A 
ATOM     51  H   UNL A   1      43.701  28.283  27.955  1.00  0.00     0.167 HD
ATOM     52  C   UNL A   1      40.649  30.431  30.233  1.00  0.00     0.034 A 
ATOM     53  C   UNL A   1      46.225  27.925  26.783  1.00  0.00     0.034 A 
ATOM     54  C   UNL A   1      41.742  31.353  30.075  1.00  0.00     0.049 A 
ATOM     55  C   UNL A   1      46.207  29.323  27.351  1.00  0.00     0.074 A 
ATOM     56  C   UNL A   1      41.836  32.657  30.530  1.00  0.00     0.029 A 
ATOM     57  N   UNL A   1      42.930  31.077  29.411  1.00  0.00    -0.354 N 
ATOM     58  N   UNL A   1      45.244  29.934  28.001  1.00  0.00    -0.248 NA
ATOM     59  C   UNL A   1      47.400  30.152  27.125  1.00  0.00     0.031 C 
ATOM     60  C   UNL A   1      43.054  33.186  30.094  1.00  0.00     0.029 A 
ATOM     61  C   UNL A   1      43.754  32.190  29.431  1.00  0.00     0.049 A 
ATOM     62  H   UNL A   1      43.152  30.217  28.988  1.00  0.00     0.167 HD
ATOM     63  C   UNL A   1      45.712  31.220  28.254  1.00  0.00     0.074 A 
ATOM     64  C   UNL A   1      47.052  31.291  27.710  1.00  0.00     0.031 C 
ATOM     65  C   UNL A   1      45.084  32.252  28.871  1.00  0.00     0.034 A 
BRANCH  52  66
ATOM     66  C   UNL A   1      39.413  30.888  30.956  1.00  0.00     0.023 A 
ATOM     67  C   UNL A   1      38.375  31.555  30.286  1.00  0.00     0.031 A 
ATOM     68  C   UNL A   1      39.278  30.664  32.336  1.00  0.00     0.131 A 
ATOM     69  C   UNL A   1      37.264  32.012  31.007  1.00  0.00     0.055 A 
ATOM     70  C   UNL A   1      38.140  31.062  33.037  1.00  0.00     0.041 A 
ATOM     71  F   UNL A   1      40.257  30.056  33.028  1.00  0.00    -0.206 F 
ATOM     72  C   UNL A   1      37.127  31.749  32.373  1.00  0.00     0.022 A 
BRANCH  69  73
ATOM     73  S   UNL A   1      36.039  33.039  30.153  1.00  0.00     0.124 S 
ATOM     74  O   UNL A   1      36.795  33.491  28.988  1.00  0.00    -0.237 OA
ATOM     75  O   UNL A   1      34.961  32.093  29.888  1.00  0.00    -0.237 OA
ATOM     76  O   UNL A   1      35.727  34.081  31.130  1.00  0.00    -0.744 OA
ENDBRANCH  69  73
ENDBRANCH  52  66
BRANCH  53  77
ATOM     77  C   UNL A   1      47.446  27.400  26.095  1.00  0.00     0.023 A 
ATOM     78  C   UNL A   1      48.411  26.657  26.797  1.00  0.00     0.031 A 
ATOM     79  C   UNL A   1      47.681  27.655  24.732  1.00  0.00     0.131 A 
ATOM     80  C   UNL A   1      49.570  26.211  26.138  1.00  0.00     0.055 A 
ATOM     81  C   UNL A   1      48.807  27.163  24.070  1.00  0.00     0.041 A 
ATOM     82  F   UNL A   1      46.804  28.372  24.013  1.00  0.00    -0.206 F 
ATOM     83  C   UNL A   1      49.763  26.441  24.774  1.00  0.00     0.022 A 
BRANCH  80  84
ATOM     84  S   UNL A   1      50.858  25.360  27.096  1.00  0.00     0.124 S 
ATOM     85  O   UNL A   1      51.400  26.452  27.896  1.00  0.00    -0.237 OA
ATOM     86  O   UNL A   1      50.088  24.354  27.819  1.00  0.00    -0.237 OA
ATOM     87  O   UNL A   1      51.754  24.834  26.068  1.00  0.00    -0.744 OA
ENDBRANCH  80  84
ENDBRANCH  53  77
BRANCH  65  88
ATOM     88  C   UNL A   1      45.844  33.544  29.021  1.00  0.00     0.023 A 
ATOM     89  C   UNL A   1      45.760  34.568  28.063  1.00  0.00     0.031 A 
ATOM     90  C   UNL A   1      46.621  33.770  30.172  1.00  0.00     0.131 A 
ATOM     91  C   UNL A   1      46.463  35.766  28.262  1.00  0.00     0.055 A 
ATOM     92  C   UNL A   1      47.278  34.981  30.387  1.00  0.00     0.041 A 
ATOM     93  F   UNL A   1      46.730  32.824  31.118  1.00  0.00    -0.206 F 
ATOM     94  C   UNL A   1      47.205  35.986  29.426  1.00  0.00     0.022 A 
BRANCH  91  95
ATOM     95  S   UNL A   1      46.424  37.029  26.961  1.00  0.00     0.124 S 
ATOM     96  O   UNL A   1      46.726  36.244  25.768  1.00  0.00    -0.237 OA
ATOM     97  O   UNL A   1      45.061  37.542  27.057  1.00  0.00    -0.237 OA
ATOM     98  O   UNL A   1      47.468  37.970  27.365  1.00  0.00    -0.744 OA
ENDBRANCH  91  95
ENDBRANCH  65  88
ENDBRANCH  39  40
ENDBRANCH  32  34
ENDBRANCH  31  32
ENDBRANCH  30  31
ENDBRANCH  29  30
ENDBRANCH  28  29
ENDBRANCH  27  28
ENDBRANCH   1  27
TORSDOF 23
ENDMDL
