MODEL 1
REMARK VINA RESULT:     -10.4      0.000      0.000
REMARK SMILES Cc1c(CC(=O)N[C@H](CO)C(=O)OCCOCCOCCOC(=O)c2ccc(-c3c4nc(c(-c5cc(S(=O)(=O)[O-])ccc5F)c5ccc([nH]5)c(-c5cc(S(=O)(=O)[O-])ccc5F)c5nc(c(-c6cc(S(=O)(=O)[O-])ccc6F)c6ccc3[nH]6)C=C5)C=C4)cc2)cc(-c2ccc(S(C)(=O)=O)cc2)n1-c1cccc(F)c1
REMARK SMILES IDX 17 1 16 2 15 3 14 4 13 5 11 6 12 7 8 8 7 9 5 10 6 11 4 13
REMARK SMILES IDX 3 14 1 15 2 16 100 17 88 18 89 19 101 20 102 21 107 22
REMARK SMILES IDX 103 23 105 24 104 25 106 26 90 27 91 28 99 29 92 30 98 31
REMARK SMILES IDX 93 32 94 33 95 34 96 35 97 36 9 37 10 38 18 40 19 41 20 42
REMARK SMILES IDX 21 43 22 44 23 45 24 46 25 47 26 48 87 49 27 50 86 51 28 52
REMARK SMILES IDX 29 53 30 54 80 55 31 56 85 57 79 58 81 59 32 60 84 61 78 62
REMARK SMILES IDX 77 63 33 65 65 66 45 67 64 68 46 69 49 70 63 71 82 72 47 73
REMARK SMILES IDX 48 74 62 76 83 77 50 78 34 79 35 80 43 81 36 82 42 83 44 84
REMARK SMILES IDX 41 85 37 86 38 87 39 88 40 89 66 90 67 91 75 92 68 93 74 94
REMARK SMILES IDX 76 95 73 96 69 97 70 98 71 99 72 100 51 101 52 102 60 103
REMARK SMILES IDX 53 104 59 105 61 106 58 107 54 108 55 109 56 110 57 111
REMARK H PARENT 7 12 10 39 81 64 49 75
REMARK Flexibility Score: inf
ROOT
ATOM      1  C   UNL A   1      35.064  23.121  25.849  1.00  0.00     0.188 C 
ENDROOT
BRANCH   1   2
ATOM      2  O   UNL A   1      33.796  23.756  25.749  1.00  0.00    -0.376 OA
BRANCH   2   3
ATOM      3  C   UNL A   1      32.762  23.333  26.627  1.00  0.00     0.202 C 
BRANCH   3   4
ATOM      4  C   UNL A   1      31.452  24.121  26.632  1.00  0.00     0.261 C 
BRANCH   4   5
ATOM      5  O   UNL A   1      31.613  25.550  26.712  1.00  0.00    -0.462 OA
BRANCH   5   6
ATOM      6  C   UNL A   1      31.378  26.219  25.550  1.00  0.00     0.331 C 
ATOM      7  O   UNL A   1      30.404  26.013  24.825  1.00  0.00    -0.250 OA
BRANCH   6   8
ATOM      8  C   UNL A   1      32.565  27.058  25.066  1.00  0.00     0.218 C 
BRANCH   8   9
ATOM      9  N   UNL A   1      32.358  28.502  25.275  1.00  0.00    -0.341 N 
ATOM     10  C   UNL A   1      33.077  29.452  25.935  1.00  0.00     0.225 C 
ATOM     11  O   UNL A   1      32.539  30.559  26.062  1.00  0.00    -0.275 OA
ATOM     12  H   UNL A   1      31.538  28.850  24.854  1.00  0.00     0.164 HD
BRANCH  10  13
ATOM     13  C   UNL A   1      34.506  29.235  26.422  1.00  0.00     0.137 C 
BRANCH  13  14
ATOM     14  C   UNL A   1      34.979  30.203  27.465  1.00  0.00    -0.017 A 
ATOM     15  C   UNL A   1      37.525  29.727  27.450  1.00  0.00     0.065 C 
ATOM     16  C   UNL A   1      36.287  30.457  27.857  1.00  0.00     0.024 A 
ATOM     17  N   UNL A   1      36.277  31.492  28.789  1.00  0.00    -0.313 N 
ATOM     18  C   UNL A   1      34.153  31.007  28.301  1.00  0.00     0.033 A 
ATOM     19  C   UNL A   1      34.957  31.871  29.025  1.00  0.00     0.053 A 
BRANCH  17  20
ATOM     20  C   UNL A   1      37.406  32.134  29.361  1.00  0.00     0.049 A 
ATOM     21  C   UNL A   1      38.000  31.598  30.515  1.00  0.00     0.027 A 
ATOM     22  C   UNL A   1      37.816  33.372  28.866  1.00  0.00     0.065 A 
ATOM     23  C   UNL A   1      38.975  32.321  31.198  1.00  0.00     0.005 A 
ATOM     24  C   UNL A   1      38.784  34.083  29.565  1.00  0.00     0.125 A 
ATOM     25  C   UNL A   1      39.360  33.575  30.727  1.00  0.00     0.039 A 
ATOM     26  F   UNL A   1      39.141  35.300  29.133  1.00  0.00    -0.207 F 
ENDBRANCH  17  20
BRANCH  19  27
ATOM     27  C   UNL A   1      34.553  33.060  29.794  1.00  0.00    -0.001 A 
ATOM     28  C   UNL A   1      33.830  34.100  29.180  1.00  0.00     0.011 A 
ATOM     29  C   UNL A   1      34.895  33.177  31.145  1.00  0.00     0.011 A 
ATOM     30  C   UNL A   1      33.469  35.244  29.901  1.00  0.00     0.021 A 
ATOM     31  C   UNL A   1      34.543  34.320  31.870  1.00  0.00     0.021 A 
ATOM     32  C   UNL A   1      33.837  35.350  31.245  1.00  0.00     0.067 A 
BRANCH  32  33
ATOM     33  S   UNL A   1      33.234  36.730  32.214  1.00  0.00     0.175 S 
ATOM     34  C   UNL A   1      31.641  36.195  32.797  1.00  0.00     0.163 C 
ATOM     35  O   UNL A   1      34.168  36.832  33.308  1.00  0.00    -0.224 OA
ATOM     36  O   UNL A   1      33.010  37.817  31.271  1.00  0.00    -0.224 OA
ENDBRANCH  32  33
ENDBRANCH  19  27
ENDBRANCH  13  14
ENDBRANCH  10  13
ENDBRANCH   8   9
BRANCH   8  37
ATOM     37  C   UNL A   1      33.288  26.711  23.768  1.00  0.00     0.193 C 
BRANCH  37  38
ATOM     38  O   UNL A   1      33.377  25.316  23.545  1.00  0.00    -0.394 OA
ATOM     39  H   UNL A   1      33.111  25.117  22.633  1.00  0.00     0.210 HD
ENDBRANCH  37  38
ENDBRANCH   8  37
ENDBRANCH   6   8
ENDBRANCH   5   6
ENDBRANCH   4   5
ENDBRANCH   3   4
ENDBRANCH   2   3
ENDBRANCH   1   2
BRANCH   1  40
ATOM     40  C   UNL A   1      35.630  22.346  24.645  1.00  0.00     0.188 C 
BRANCH  40  41
ATOM     41  O   UNL A   1      36.772  21.534  24.846  1.00  0.00    -0.376 OA
BRANCH  41  42
ATOM     42  C   UNL A   1      37.878  22.122  25.538  1.00  0.00     0.202 C 
BRANCH  42  43
ATOM     43  C   UNL A   1      39.162  21.276  25.742  1.00  0.00     0.261 C 
BRANCH  43  44
ATOM     44  O   UNL A   1      40.088  21.676  26.811  1.00  0.00    -0.460 OA
BRANCH  44  45
ATOM     45  C   UNL A   1      41.425  21.682  26.483  1.00  0.00     0.338 C 
ATOM     46  O   UNL A   1      41.898  20.949  25.626  1.00  0.00    -0.246 OA
BRANCH  45  47
ATOM     47  C   UNL A   1      42.295  22.675  27.251  1.00  0.00     0.060 A 
ATOM     48  C   UNL A   1      41.774  23.355  28.346  1.00  0.00     0.016 A 
ATOM     49  C   UNL A   1      43.516  23.182  26.758  1.00  0.00     0.016 A 
ATOM     50  C   UNL A   1      42.481  24.457  28.949  1.00  0.00     0.010 A 
ATOM     51  C   UNL A   1      44.203  24.341  27.341  1.00  0.00     0.010 A 
ATOM     52  C   UNL A   1      43.715  25.031  28.468  1.00  0.00    -0.014 A 
BRANCH  52  53
ATOM     53  C   UNL A   1      44.029  26.571  28.887  1.00  0.00     0.031 A 
ATOM     54  C   UNL A   1      45.015  26.405  29.999  1.00  0.00     0.074 A 
ATOM     55  C   UNL A   1      43.648  27.899  28.643  1.00  0.00     0.049 A 
ATOM     56  N   UNL A   1      44.733  25.651  31.026  1.00  0.00    -0.248 NA
ATOM     57  C   UNL A   1      46.435  26.724  29.851  1.00  0.00     0.031 C 
ATOM     58  C   UNL A   1      42.568  28.376  27.762  1.00  0.00     0.029 A 
ATOM     59  N   UNL A   1      44.131  29.172  29.121  1.00  0.00    -0.354 N 
ATOM     60  C   UNL A   1      45.844  25.677  31.833  1.00  0.00     0.074 A 
ATOM     61  C   UNL A   1      46.913  26.132  30.952  1.00  0.00     0.031 C 
ATOM     62  C   UNL A   1      42.560  29.739  27.647  1.00  0.00     0.029 A 
ATOM     63  C   UNL A   1      43.592  30.360  28.480  1.00  0.00     0.049 A 
ATOM     64  H   UNL A   1      44.794  29.233  29.847  1.00  0.00     0.167 HD
ATOM     65  C   UNL A   1      45.627  26.045  33.131  1.00  0.00     0.034 A 
ATOM     66  C   UNL A   1      43.877  31.726  28.632  1.00  0.00     0.034 A 
ATOM     67  C   UNL A   1      45.971  27.424  33.358  1.00  0.00     0.049 A 
ATOM     68  C   UNL A   1      44.422  31.896  29.978  1.00  0.00     0.074 A 
ATOM     69  C   UNL A   1      47.093  28.168  33.052  1.00  0.00     0.029 A 
ATOM     70  N   UNL A   1      44.936  28.319  33.545  1.00  0.00    -0.354 N 
ATOM     71  N   UNL A   1      43.662  31.903  31.027  1.00  0.00    -0.248 NA
ATOM     72  C   UNL A   1      45.837  32.147  30.220  1.00  0.00     0.031 C 
ATOM     73  C   UNL A   1      46.600  29.419  32.623  1.00  0.00     0.029 A 
ATOM     74  C   UNL A   1      45.270  29.548  33.009  1.00  0.00     0.049 A 
ATOM     75  H   UNL A   1      44.085  28.110  33.995  1.00  0.00     0.167 HD
ATOM     76  C   UNL A   1      44.531  31.605  32.029  1.00  0.00     0.074 A 
ATOM     77  C   UNL A   1      45.828  32.049  31.551  1.00  0.00     0.031 C 
ATOM     78  C   UNL A   1      44.220  30.529  32.796  1.00  0.00     0.034 A 
BRANCH  65  79
ATOM     79  C   UNL A   1      44.483  25.321  33.784  1.00  0.00     0.023 A 
ATOM     80  C   UNL A   1      43.664  26.016  34.686  1.00  0.00     0.031 A 
ATOM     81  C   UNL A   1      44.290  23.930  33.656  1.00  0.00     0.131 A 
ATOM     82  C   UNL A   1      42.734  25.314  35.473  1.00  0.00     0.055 A 
ATOM     83  C   UNL A   1      43.422  23.228  34.490  1.00  0.00     0.041 A 
ATOM     84  F   UNL A   1      44.957  23.229  32.725  1.00  0.00    -0.206 F 
ATOM     85  C   UNL A   1      42.649  23.918  35.419  1.00  0.00     0.022 A 
BRANCH  82  86
ATOM     86  S   UNL A   1      41.625  26.243  36.569  1.00  0.00     0.124 S 
ATOM     87  O   UNL A   1      42.451  26.509  37.743  1.00  0.00    -0.237 OA
ATOM     88  O   UNL A   1      41.317  27.416  35.756  1.00  0.00    -0.237 OA
ATOM     89  O   UNL A   1      40.494  25.341  36.790  1.00  0.00    -0.744 OA
ENDBRANCH  82  86
ENDBRANCH  65  79
BRANCH  66  90
ATOM     90  C   UNL A   1      43.680  33.140  27.985  1.00  0.00     0.023 A 
ATOM     91  C   UNL A   1      43.542  34.351  28.785  1.00  0.00     0.031 A 
ATOM     92  C   UNL A   1      43.970  33.382  26.638  1.00  0.00     0.131 A 
ATOM     93  C   UNL A   1      43.745  35.663  28.260  1.00  0.00     0.055 A 
ATOM     94  C   UNL A   1      44.155  34.689  26.117  1.00  0.00     0.041 A 
ATOM     95  F   UNL A   1      44.179  32.359  25.798  1.00  0.00    -0.206 F 
ATOM     96  C   UNL A   1      44.066  35.826  26.921  1.00  0.00     0.022 A 
BRANCH  93  97
ATOM     97  S   UNL A   1      43.806  37.170  29.333  1.00  0.00     0.124 S 
ATOM     98  O   UNL A   1      42.850  38.066  28.693  1.00  0.00    -0.237 OA
ATOM     99  O   UNL A   1      43.439  36.655  30.648  1.00  0.00    -0.237 OA
ATOM    100  O   UNL A   1      45.203  37.601  29.231  1.00  0.00    -0.744 OA
ENDBRANCH  93  97
ENDBRANCH  66  90
BRANCH  78 101
ATOM    101  C   UNL A   1      42.757  30.367  33.215  1.00  0.00     0.023 A 
ATOM    102  C   UNL A   1      41.819  29.437  32.688  1.00  0.00     0.031 A 
ATOM    103  C   UNL A   1      42.260  31.278  34.160  1.00  0.00     0.131 A 
ATOM    104  C   UNL A   1      40.463  29.466  33.079  1.00  0.00     0.055 A 
ATOM    105  C   UNL A   1      40.928  31.278  34.582  1.00  0.00     0.041 A 
ATOM    106  F   UNL A   1      43.068  32.210  34.692  1.00  0.00    -0.206 F 
ATOM    107  C   UNL A   1      40.021  30.382  34.031  1.00  0.00     0.022 A 
BRANCH 104 108
ATOM    108  S   UNL A   1      39.238  28.369  32.283  1.00  0.00     0.124 S 
ATOM    109  O   UNL A   1      39.734  28.237  30.918  1.00  0.00    -0.237 OA
ATOM    110  O   UNL A   1      39.306  27.165  33.106  1.00  0.00    -0.237 OA
ATOM    111  O   UNL A   1      37.985  29.119  32.400  1.00  0.00    -0.744 OA
ENDBRANCH 104 108
ENDBRANCH  78 101
ENDBRANCH  52  53
ENDBRANCH  45  47
ENDBRANCH  44  45
ENDBRANCH  43  44
ENDBRANCH  42  43
ENDBRANCH  41  42
ENDBRANCH  40  41
ENDBRANCH   1  40
TORSDOF 28
ENDMDL
MODEL 2
REMARK VINA RESULT:      -8.8      4.867      9.445
REMARK SMILES Cc1c(CC(=O)N[C@H](CO)C(=O)OCCOCCOCCOC(=O)c2ccc(-c3c4nc(c(-c5cc(S(=O)(=O)[O-])ccc5F)c5ccc([nH]5)c(-c5cc(S(=O)(=O)[O-])ccc5F)c5nc(c(-c6cc(S(=O)(=O)[O-])ccc6F)c6ccc3[nH]6)C=C5)C=C4)cc2)cc(-c2ccc(S(C)(=O)=O)cc2)n1-c1cccc(F)c1
REMARK SMILES IDX 17 1 16 2 15 3 14 4 13 5 11 6 12 7 8 8 7 9 5 10 6 11 4 13
REMARK SMILES IDX 3 14 1 15 2 16 100 17 88 18 89 19 101 20 102 21 107 22
REMARK SMILES IDX 103 23 105 24 104 25 106 26 90 27 91 28 99 29 92 30 98 31
REMARK SMILES IDX 93 32 94 33 95 34 96 35 97 36 9 37 10 38 18 40 19 41 20 42
REMARK SMILES IDX 21 43 22 44 23 45 24 46 25 47 26 48 87 49 27 50 86 51 28 52
REMARK SMILES IDX 29 53 30 54 80 55 31 56 85 57 79 58 81 59 32 60 84 61 78 62
REMARK SMILES IDX 77 63 33 65 65 66 45 67 64 68 46 69 49 70 63 71 82 72 47 73
REMARK SMILES IDX 48 74 62 76 83 77 50 78 34 79 35 80 43 81 36 82 42 83 44 84
REMARK SMILES IDX 41 85 37 86 38 87 39 88 40 89 66 90 67 91 75 92 68 93 74 94
REMARK SMILES IDX 76 95 73 96 69 97 70 98 71 99 72 100 51 101 52 102 60 103
REMARK SMILES IDX 53 104 59 105 61 106 58 107 54 108 55 109 56 110 57 111
REMARK H PARENT 7 12 10 39 81 64 49 75
REMARK Flexibility Score: inf
ROOT
ATOM      1  C   UNL A   1      36.646  32.484  33.819  1.00  0.00     0.188 C 
ENDROOT
BRANCH   1   2
ATOM      2  O   UNL A   1      35.493  33.120  34.353  1.00  0.00    -0.376 OA
BRANCH   2   3
ATOM      3  C   UNL A   1      35.065  34.341  33.766  1.00  0.00     0.202 C 
BRANCH   3   4
ATOM      4  C   UNL A   1      34.000  34.283  32.672  1.00  0.00     0.261 C 
BRANCH   4   5
ATOM      5  O   UNL A   1      34.173  33.214  31.724  1.00  0.00    -0.462 OA
BRANCH   5   6
ATOM      6  C   UNL A   1      34.881  33.546  30.609  1.00  0.00     0.331 C 
ATOM      7  O   UNL A   1      35.940  34.172  30.631  1.00  0.00    -0.250 OA
BRANCH   6   8
ATOM      8  C   UNL A   1      34.116  33.324  29.300  1.00  0.00     0.218 C 
BRANCH   8   9
ATOM      9  N   UNL A   1      34.145  31.918  28.861  1.00  0.00    -0.341 N 
ATOM     10  C   UNL A   1      35.061  31.186  28.169  1.00  0.00     0.225 C 
ATOM     11  O   UNL A   1      34.708  30.054  27.816  1.00  0.00    -0.275 OA
ATOM     12  H   UNL A   1      33.344  31.405  29.119  1.00  0.00     0.164 HD
BRANCH  10  13
ATOM     13  C   UNL A   1      36.488  31.658  27.906  1.00  0.00     0.137 C 
BRANCH  13  14
ATOM     14  C   UNL A   1      37.565  30.725  28.371  1.00  0.00    -0.017 A 
ATOM     15  C   UNL A   1      38.100  31.723  30.700  1.00  0.00     0.065 C 
ATOM     16  C   UNL A   1      38.210  30.718  29.601  1.00  0.00     0.024 A 
ATOM     17  N   UNL A   1      39.076  29.628  29.640  1.00  0.00    -0.313 N 
ATOM     18  C   UNL A   1      38.177  29.697  27.599  1.00  0.00     0.033 A 
ATOM     19  C   UNL A   1      39.017  28.962  28.418  1.00  0.00     0.053 A 
BRANCH  17  20
ATOM     20  C   UNL A   1      39.843  29.190  30.752  1.00  0.00     0.049 A 
ATOM     21  C   UNL A   1      39.275  28.304  31.682  1.00  0.00     0.027 A 
ATOM     22  C   UNL A   1      41.092  29.763  30.993  1.00  0.00     0.065 A 
ATOM     23  C   UNL A   1      39.939  28.025  32.874  1.00  0.00     0.005 A 
ATOM     24  C   UNL A   1      41.735  29.480  32.192  1.00  0.00     0.125 A 
ATOM     25  C   UNL A   1      41.169  28.626  33.136  1.00  0.00     0.039 A 
ATOM     26  F   UNL A   1      42.905  30.074  32.462  1.00  0.00    -0.207 F 
ENDBRANCH  17  20
BRANCH  19  27
ATOM     27  C   UNL A   1      39.635  27.654  28.147  1.00  0.00    -0.001 A 
ATOM     28  C   UNL A   1      39.105  26.479  28.713  1.00  0.00     0.011 A 
ATOM     29  C   UNL A   1      40.769  27.563  27.332  1.00  0.00     0.011 A 
ATOM     30  C   UNL A   1      39.707  25.236  28.480  1.00  0.00     0.021 A 
ATOM     31  C   UNL A   1      41.379  26.326  27.101  1.00  0.00     0.021 A 
ATOM     32  C   UNL A   1      40.850  25.170  27.679  1.00  0.00     0.067 A 
BRANCH  32  33
ATOM     33  S   UNL A   1      41.524  23.570  27.240  1.00  0.00     0.175 S 
ATOM     34  C   UNL A   1      40.094  22.538  27.012  1.00  0.00     0.163 C 
ATOM     35  O   UNL A   1      42.193  23.797  25.983  1.00  0.00    -0.224 OA
ATOM     36  O   UNL A   1      42.224  23.090  28.424  1.00  0.00    -0.224 OA
ENDBRANCH  32  33
ENDBRANCH  19  27
ENDBRANCH  13  14
ENDBRANCH  10  13
ENDBRANCH   8   9
BRANCH   8  37
ATOM     37  C   UNL A   1      34.206  34.337  28.162  1.00  0.00     0.193 C 
BRANCH  37  38
ATOM     38  O   UNL A   1      34.993  35.466  28.493  1.00  0.00    -0.394 OA
ATOM     39  H   UNL A   1      34.848  36.165  27.836  1.00  0.00     0.210 HD
ENDBRANCH  37  38
ENDBRANCH   8  37
ENDBRANCH   6   8
ENDBRANCH   5   6
ENDBRANCH   4   5
ENDBRANCH   3   4
ENDBRANCH   2   3
ENDBRANCH   1   2
BRANCH   1  40
ATOM     40  C   UNL A   1      37.693  31.872  34.767  1.00  0.00     0.188 C 
BRANCH  40  41
ATOM     41  O   UNL A   1      38.861  32.620  35.050  1.00  0.00    -0.376 OA
BRANCH  41  42
ATOM     42  C   UNL A   1      39.949  32.504  34.129  1.00  0.00     0.202 C 
BRANCH  42  43
ATOM     43  C   UNL A   1      41.324  33.106  34.522  1.00  0.00     0.261 C 
BRANCH  43  44
ATOM     44  O   UNL A   1      42.485  32.779  33.682  1.00  0.00    -0.460 OA
BRANCH  44  45
ATOM     45  C   UNL A   1      42.782  33.677  32.683  1.00  0.00     0.338 C 
ATOM     46  O   UNL A   1      42.267  34.784  32.614  1.00  0.00    -0.246 OA
BRANCH  45  47
ATOM     47  C   UNL A   1      43.813  33.213  31.655  1.00  0.00     0.060 A 
ATOM     48  C   UNL A   1      43.394  32.669  30.446  1.00  0.00     0.016 A 
ATOM     49  C   UNL A   1      45.178  33.023  31.956  1.00  0.00     0.016 A 
ATOM     50  C   UNL A   1      44.323  32.016  29.558  1.00  0.00     0.010 A 
ATOM     51  C   UNL A   1      46.107  32.307  31.073  1.00  0.00     0.010 A 
ATOM     52  C   UNL A   1      45.720  31.771  29.829  1.00  0.00    -0.014 A 
BRANCH  52  53
ATOM     53  C   UNL A   1      46.428  30.548  29.025  1.00  0.00     0.031 A 
ATOM     54  C   UNL A   1      45.506  29.405  29.303  1.00  0.00     0.074 A 
ATOM     55  C   UNL A   1      47.574  30.204  28.293  1.00  0.00     0.049 A 
ATOM     56  N   UNL A   1      45.196  29.088  30.530  1.00  0.00    -0.248 NA
ATOM     57  C   UNL A   1      44.615  28.842  28.287  1.00  0.00     0.031 C 
ATOM     58  C   UNL A   1      48.756  31.043  28.024  1.00  0.00     0.029 A 
ATOM     59  N   UNL A   1      47.982  29.009  27.594  1.00  0.00    -0.354 N 
ATOM     60  C   UNL A   1      44.313  28.041  30.441  1.00  0.00     0.074 A 
ATOM     61  C   UNL A   1      43.817  28.109  29.071  1.00  0.00     0.031 C 
ATOM     62  C   UNL A   1      49.628  30.444  27.158  1.00  0.00     0.029 A 
ATOM     63  C   UNL A   1      49.181  29.102  26.778  1.00  0.00     0.049 A 
ATOM     64  H   UNL A   1      47.471  28.170  27.666  1.00  0.00     0.167 HD
ATOM     65  C   UNL A   1      44.648  26.919  31.146  1.00  0.00     0.034 A 
ATOM     66  C   UNL A   1      49.816  28.187  25.925  1.00  0.00     0.034 A 
ATOM     67  C   UNL A   1      45.242  25.916  30.300  1.00  0.00     0.049 A 
ATOM     68  C   UNL A   1      49.435  26.851  26.380  1.00  0.00     0.074 A 
ATOM     69  C   UNL A   1      44.860  25.369  29.093  1.00  0.00     0.029 A 
ATOM     70  N   UNL A   1      46.598  25.693  30.430  1.00  0.00    -0.354 N 
ATOM     71  N   UNL A   1      49.974  26.305  27.423  1.00  0.00    -0.248 NA
ATOM     72  C   UNL A   1      48.486  26.019  25.650  1.00  0.00     0.031 C 
ATOM     73  C   UNL A   1      46.053  25.249  28.348  1.00  0.00     0.029 A 
ATOM     74  C   UNL A   1      47.144  25.366  29.203  1.00  0.00     0.049 A 
ATOM     75  H   UNL A   1      47.102  25.758  31.274  1.00  0.00     0.167 HD
ATOM     76  C   UNL A   1      49.064  25.357  27.771  1.00  0.00     0.074 A 
ATOM     77  C   UNL A   1      48.366  25.033  26.540  1.00  0.00     0.031 C 
ATOM     78  C   UNL A   1      48.586  25.417  29.041  1.00  0.00     0.034 A 
BRANCH  65  79
ATOM     79  C   UNL A   1      45.043  27.193  32.570  1.00  0.00     0.023 A 
ATOM     80  C   UNL A   1      44.156  26.846  33.600  1.00  0.00     0.031 A 
ATOM     81  C   UNL A   1      46.195  27.930  32.913  1.00  0.00     0.131 A 
ATOM     82  C   UNL A   1      44.399  27.289  34.913  1.00  0.00     0.055 A 
ATOM     83  C   UNL A   1      46.394  28.430  34.198  1.00  0.00     0.041 A 
ATOM     84  F   UNL A   1      47.140  28.189  31.994  1.00  0.00    -0.206 F 
ATOM     85  C   UNL A   1      45.483  28.125  35.205  1.00  0.00     0.022 A 
BRANCH  82  86
ATOM     86  S   UNL A   1      43.287  26.755  36.245  1.00  0.00     0.124 S 
ATOM     87  O   UNL A   1      43.943  25.566  36.780  1.00  0.00    -0.237 OA
ATOM     88  O   UNL A   1      43.304  27.918  37.130  1.00  0.00    -0.237 OA
ATOM     89  O   UNL A   1      42.007  26.518  35.576  1.00  0.00    -0.744 OA
ENDBRANCH  82  86
ENDBRANCH  65  79
BRANCH  66  90
ATOM     90  C   UNL A   1      50.894  28.047  24.795  1.00  0.00     0.023 A 
ATOM     91  C   UNL A   1      50.577  28.248  23.386  1.00  0.00     0.031 A 
ATOM     92  C   UNL A   1      52.264  28.069  25.075  1.00  0.00     0.131 A 
ATOM     93  C   UNL A   1      51.567  28.507  22.391  1.00  0.00     0.055 A 
ATOM     94  C   UNL A   1      53.246  28.312  24.080  1.00  0.00     0.041 A 
ATOM     95  F   UNL A   1      52.697  27.954  26.338  1.00  0.00    -0.206 F 
ATOM     96  C   UNL A   1      52.906  28.552  22.747  1.00  0.00     0.022 A 
BRANCH  93  97
ATOM     97  S   UNL A   1      51.137  28.999  20.659  1.00  0.00     0.124 S 
ATOM     98  O   UNL A   1      52.438  29.292  20.070  1.00  0.00    -0.237 OA
ATOM     99  O   UNL A   1      50.438  27.825  20.145  1.00  0.00    -0.237 OA
ATOM    100  O   UNL A   1      50.277  30.171  20.844  1.00  0.00    -0.744 OA
ENDBRANCH  93  97
ENDBRANCH  66  90
BRANCH  78 101
ATOM    101  C   UNL A   1      49.594  25.705  30.155  1.00  0.00     0.023 A 
ATOM    102  C   UNL A   1      50.321  24.746  30.913  1.00  0.00     0.031 A 
ATOM    103  C   UNL A   1      49.769  27.048  30.526  1.00  0.00     0.131 A 
ATOM    104  C   UNL A   1      51.138  25.138  31.995  1.00  0.00     0.055 A 
ATOM    105  C   UNL A   1      50.613  27.440  31.567  1.00  0.00     0.041 A 
ATOM    106  F   UNL A   1      49.102  28.020  29.882  1.00  0.00    -0.206 F 
ATOM    107  C   UNL A   1      51.289  26.486  32.316  1.00  0.00     0.022 A 
BRANCH 104 108
ATOM    108  S   UNL A   1      51.944  23.889  33.057  1.00  0.00     0.124 S 
ATOM    109  O   UNL A   1      51.634  22.627  32.396  1.00  0.00    -0.237 OA
ATOM    110  O   UNL A   1      53.345  24.299  33.025  1.00  0.00    -0.237 OA
ATOM    111  O   UNL A   1      51.286  24.069  34.353  1.00  0.00    -0.744 OA
ENDBRANCH 104 108
ENDBRANCH  78 101
ENDBRANCH  52  53
ENDBRANCH  45  47
ENDBRANCH  44  45
ENDBRANCH  43  44
ENDBRANCH  42  43
ENDBRANCH  41  42
ENDBRANCH  40  41
ENDBRANCH   1  40
TORSDOF 28
ENDMDL
MODEL 3
REMARK VINA RESULT:      -8.6      1.866      2.803
REMARK SMILES Cc1c(CC(=O)N[C@H](CO)C(=O)OCCOCCOCCOC(=O)c2ccc(-c3c4nc(c(-c5cc(S(=O)(=O)[O-])ccc5F)c5ccc([nH]5)c(-c5cc(S(=O)(=O)[O-])ccc5F)c5nc(c(-c6cc(S(=O)(=O)[O-])ccc6F)c6ccc3[nH]6)C=C5)C=C4)cc2)cc(-c2ccc(S(C)(=O)=O)cc2)n1-c1cccc(F)c1
REMARK SMILES IDX 17 1 16 2 15 3 14 4 13 5 11 6 12 7 8 8 7 9 5 10 6 11 4 13
REMARK SMILES IDX 3 14 1 15 2 16 100 17 88 18 89 19 101 20 102 21 107 22
REMARK SMILES IDX 103 23 105 24 104 25 106 26 90 27 91 28 99 29 92 30 98 31
REMARK SMILES IDX 93 32 94 33 95 34 96 35 97 36 9 37 10 38 18 40 19 41 20 42
REMARK SMILES IDX 21 43 22 44 23 45 24 46 25 47 26 48 87 49 27 50 86 51 28 52
REMARK SMILES IDX 29 53 30 54 80 55 31 56 85 57 79 58 81 59 32 60 84 61 78 62
REMARK SMILES IDX 77 63 33 65 65 66 45 67 64 68 46 69 49 70 63 71 82 72 47 73
REMARK SMILES IDX 48 74 62 76 83 77 50 78 34 79 35 80 43 81 36 82 42 83 44 84
REMARK SMILES IDX 41 85 37 86 38 87 39 88 40 89 66 90 67 91 75 92 68 93 74 94
REMARK SMILES IDX 76 95 73 96 69 97 70 98 71 99 72 100 51 101 52 102 60 103
REMARK SMILES IDX 53 104 59 105 61 106 58 107 54 108 55 109 56 110 57 111
REMARK H PARENT 7 12 10 39 81 64 49 75
REMARK Flexibility Score: inf
ROOT
ATOM      1  C   UNL A   1      34.705  23.754  25.983  1.00  0.00     0.188 C 
ENDROOT
BRANCH   1   2
ATOM      2  O   UNL A   1      33.500  24.472  26.215  1.00  0.00    -0.376 OA
BRANCH   2   3
ATOM      3  C   UNL A   1      32.285  23.740  26.294  1.00  0.00     0.202 C 
BRANCH   3   4
ATOM      4  C   UNL A   1      31.199  24.028  25.257  1.00  0.00     0.261 C 
BRANCH   4   5
ATOM      5  O   UNL A   1      30.531  25.291  25.424  1.00  0.00    -0.462 OA
BRANCH   5   6
ATOM      6  C   UNL A   1      30.657  26.149  24.374  1.00  0.00     0.331 C 
ATOM      7  O   UNL A   1      29.972  26.087  23.353  1.00  0.00    -0.250 OA
BRANCH   6   8
ATOM      8  C   UNL A   1      31.908  27.031  24.439  1.00  0.00     0.218 C 
BRANCH   8   9
ATOM      9  N   UNL A   1      31.588  28.469  24.390  1.00  0.00    -0.341 N 
ATOM     10  C   UNL A   1      31.620  29.454  25.329  1.00  0.00     0.225 C 
ATOM     11  O   UNL A   1      31.129  30.541  25.002  1.00  0.00    -0.275 OA
ATOM     12  H   UNL A   1      31.294  28.779  23.502  1.00  0.00     0.164 HD
BRANCH  10  13
ATOM     13  C   UNL A   1      32.300  29.300  26.686  1.00  0.00     0.137 C 
BRANCH  13  14
ATOM     14  C   UNL A   1      33.105  30.482  27.135  1.00  0.00    -0.017 A 
ATOM     15  C   UNL A   1      31.317  32.353  27.028  1.00  0.00     0.065 C 
ATOM     16  C   UNL A   1      32.660  31.781  27.343  1.00  0.00     0.024 A 
ATOM     17  N   UNL A   1      33.719  32.537  27.842  1.00  0.00    -0.313 N 
ATOM     18  C   UNL A   1      34.508  30.502  27.374  1.00  0.00     0.033 A 
ATOM     19  C   UNL A   1      34.853  31.729  27.912  1.00  0.00     0.053 A 
BRANCH  17  20
ATOM     20  C   UNL A   1      33.667  33.882  28.293  1.00  0.00     0.049 A 
ATOM     21  C   UNL A   1      34.134  34.912  27.460  1.00  0.00     0.027 A 
ATOM     22  C   UNL A   1      33.303  34.151  29.612  1.00  0.00     0.065 A 
ATOM     23  C   UNL A   1      34.275  36.204  27.960  1.00  0.00     0.005 A 
ATOM     24  C   UNL A   1      33.459  35.444  30.096  1.00  0.00     0.125 A 
ATOM     25  C   UNL A   1      33.947  36.468  29.289  1.00  0.00     0.039 A 
ATOM     26  F   UNL A   1      33.171  35.700  31.380  1.00  0.00    -0.207 F 
ENDBRANCH  17  20
BRANCH  19  27
ATOM     27  C   UNL A   1      36.111  32.111  28.573  1.00  0.00    -0.001 A 
ATOM     28  C   UNL A   1      36.685  33.377  28.349  1.00  0.00     0.011 A 
ATOM     29  C   UNL A   1      36.763  31.213  29.426  1.00  0.00     0.011 A 
ATOM     30  C   UNL A   1      37.897  33.732  28.955  1.00  0.00     0.021 A 
ATOM     31  C   UNL A   1      37.976  31.559  30.028  1.00  0.00     0.021 A 
ATOM     32  C   UNL A   1      38.541  32.813  29.787  1.00  0.00     0.067 A 
BRANCH  32  33
ATOM     33  S   UNL A   1      39.998  33.321  30.695  1.00  0.00     0.175 S 
ATOM     34  C   UNL A   1      39.453  33.410  32.385  1.00  0.00     0.163 C 
ATOM     35  O   UNL A   1      40.927  32.233  30.517  1.00  0.00    -0.224 OA
ATOM     36  O   UNL A   1      40.290  34.680  30.259  1.00  0.00    -0.224 OA
ENDBRANCH  32  33
ENDBRANCH  19  27
ENDBRANCH  13  14
ENDBRANCH  10  13
ENDBRANCH   8   9
BRANCH   8  37
ATOM     37  C   UNL A   1      33.175  26.645  23.680  1.00  0.00     0.193 C 
BRANCH  37  38
ATOM     38  O   UNL A   1      33.808  27.754  23.070  1.00  0.00    -0.394 OA
ATOM     39  H   UNL A   1      34.760  27.582  22.997  1.00  0.00     0.210 HD
ENDBRANCH  37  38
ENDBRANCH   8  37
ENDBRANCH   6   8
ENDBRANCH   5   6
ENDBRANCH   4   5
ENDBRANCH   3   4
ENDBRANCH   2   3
ENDBRANCH   1   2
BRANCH   1  40
ATOM     40  C   UNL A   1      35.264  23.635  24.554  1.00  0.00     0.188 C 
BRANCH  40  41
ATOM     41  O   UNL A   1      36.380  22.792  24.338  1.00  0.00    -0.376 OA
BRANCH  41  42
ATOM     42  C   UNL A   1      37.269  22.591  25.440  1.00  0.00     0.202 C 
BRANCH  42  43
ATOM     43  C   UNL A   1      38.410  21.550  25.295  1.00  0.00     0.261 C 
BRANCH  43  44
ATOM     44  O   UNL A   1      39.143  21.157  26.507  1.00  0.00    -0.460 OA
BRANCH  44  45
ATOM     45  C   UNL A   1      40.506  21.343  26.477  1.00  0.00     0.338 C 
ATOM     46  O   UNL A   1      41.243  20.713  25.734  1.00  0.00    -0.246 OA
BRANCH  45  47
ATOM     47  C   UNL A   1      41.053  22.406  27.429  1.00  0.00     0.060 A 
ATOM     48  C   UNL A   1      40.434  23.647  27.516  1.00  0.00     0.016 A 
ATOM     49  C   UNL A   1      42.329  22.330  28.026  1.00  0.00     0.016 A 
ATOM     50  C   UNL A   1      41.049  24.742  28.223  1.00  0.00     0.010 A 
ATOM     51  C   UNL A   1      42.976  23.466  28.695  1.00  0.00     0.010 A 
ATOM     52  C   UNL A   1      42.361  24.727  28.826  1.00  0.00    -0.014 A 
BRANCH  52  53
ATOM     53  C   UNL A   1      43.100  26.160  29.033  1.00  0.00     0.031 A 
ATOM     54  C   UNL A   1      44.208  25.816  29.975  1.00  0.00     0.074 A 
ATOM     55  C   UNL A   1      43.001  27.526  28.728  1.00  0.00     0.049 A 
ATOM     56  N   UNL A   1      43.955  25.212  31.103  1.00  0.00    -0.248 NA
ATOM     57  C   UNL A   1      45.611  25.764  29.561  1.00  0.00     0.031 C 
ATOM     58  C   UNL A   1      41.919  28.208  27.997  1.00  0.00     0.029 A 
ATOM     59  N   UNL A   1      43.849  28.664  28.991  1.00  0.00    -0.354 N 
ATOM     60  C   UNL A   1      45.171  25.005  31.707  1.00  0.00     0.074 A 
ATOM     61  C   UNL A   1      46.133  25.132  30.618  1.00  0.00     0.031 C 
ATOM     62  C   UNL A   1      42.209  29.522  27.752  1.00  0.00     0.029 A 
ATOM     63  C   UNL A   1      43.494  29.912  28.336  1.00  0.00     0.049 A 
ATOM     64  H   UNL A   1      44.631  28.597  29.586  1.00  0.00     0.167 HD
ATOM     65  C   UNL A   1      45.292  25.485  32.980  1.00  0.00     0.034 A 
ATOM     66  C   UNL A   1      44.114  31.171  28.304  1.00  0.00     0.034 A 
ATOM     67  C   UNL A   1      45.986  26.747  33.010  1.00  0.00     0.049 A 
ATOM     68  C   UNL A   1      44.926  31.273  29.516  1.00  0.00     0.074 A 
ATOM     69  C   UNL A   1      47.173  27.171  32.449  1.00  0.00     0.029 A 
ATOM     70  N   UNL A   1      45.243  27.879  33.280  1.00  0.00    -0.354 N 
ATOM     71  N   UNL A   1      44.397  31.525  30.671  1.00  0.00    -0.248 NA
ATOM     72  C   UNL A   1      46.379  31.177  29.492  1.00  0.00     0.031 C 
ATOM     73  C   UNL A   1      46.916  28.480  31.988  1.00  0.00     0.029 A 
ATOM     74  C   UNL A   1      45.749  28.956  32.578  1.00  0.00     0.049 A 
ATOM     75  H   UNL A   1      44.466  27.912  33.884  1.00  0.00     0.167 HD
ATOM     76  C   UNL A   1      45.344  31.075  31.538  1.00  0.00     0.074 A 
ATOM     77  C   UNL A   1      46.596  31.158  30.808  1.00  0.00     0.031 C 
ATOM     78  C   UNL A   1      44.938  30.153  32.448  1.00  0.00     0.034 A 
BRANCH  65  79
ATOM     79  C   UNL A   1      44.153  25.104  33.883  1.00  0.00     0.023 A 
ATOM     80  C   UNL A   1      43.601  26.077  34.729  1.00  0.00     0.031 A 
ATOM     81  C   UNL A   1      43.716  23.772  34.038  1.00  0.00     0.131 A 
ATOM     82  C   UNL A   1      42.693  25.698  35.735  1.00  0.00     0.055 A 
ATOM     83  C   UNL A   1      42.876  23.389  35.082  1.00  0.00     0.041 A 
ATOM     84  F   UNL A   1      44.115  22.817  33.182  1.00  0.00    -0.206 F 
ATOM     85  C   UNL A   1      42.372  24.353  35.950  1.00  0.00     0.022 A 
BRANCH  82  86
ATOM     86  S   UNL A   1      41.926  26.984  36.761  1.00  0.00     0.124 S 
ATOM     87  O   UNL A   1      40.899  26.259  37.504  1.00  0.00    -0.237 OA
ATOM     88  O   UNL A   1      43.058  27.440  37.563  1.00  0.00    -0.237 OA
ATOM     89  O   UNL A   1      41.426  27.967  35.799  1.00  0.00    -0.744 OA
ENDBRANCH  82  86
ENDBRANCH  65  79
BRANCH  66  90
ATOM     90  C   UNL A   1      44.137  32.552  27.563  1.00  0.00     0.023 A 
ATOM     91  C   UNL A   1      43.504  33.744  28.116  1.00  0.00     0.031 A 
ATOM     92  C   UNL A   1      45.039  32.820  26.528  1.00  0.00     0.131 A 
ATOM     93  C   UNL A   1      43.818  35.067  27.686  1.00  0.00     0.055 A 
ATOM     94  C   UNL A   1      45.337  34.137  26.093  1.00  0.00     0.041 A 
ATOM     95  F   UNL A   1      45.736  31.823  25.965  1.00  0.00    -0.206 F 
ATOM     96  C   UNL A   1      44.751  35.261  26.678  1.00  0.00     0.022 A 
BRANCH  93  97
ATOM     97  S   UNL A   1      43.191  36.576  28.557  1.00  0.00     0.124 S 
ATOM     98  O   UNL A   1      43.473  36.287  29.957  1.00  0.00    -0.237 OA
ATOM     99  O   UNL A   1      43.960  37.655  27.945  1.00  0.00    -0.237 OA
ATOM    100  O   UNL A   1      41.765  36.595  28.216  1.00  0.00    -0.744 OA
ENDBRANCH  93  97
ENDBRANCH  66  90
BRANCH  78 101
ATOM    101  C   UNL A   1      43.582  30.382  33.120  1.00  0.00     0.023 A 
ATOM    102  C   UNL A   1      42.375  29.674  32.864  1.00  0.00     0.031 A 
ATOM    103  C   UNL A   1      43.492  31.450  34.027  1.00  0.00     0.131 A 
ATOM    104  C   UNL A   1      41.160  30.061  33.469  1.00  0.00     0.055 A 
ATOM    105  C   UNL A   1      42.299  31.804  34.661  1.00  0.00     0.041 A 
ATOM    106  F   UNL A   1      44.576  32.192  34.309  1.00  0.00    -0.206 F 
ATOM    107  C   UNL A   1      41.125  31.120  34.373  1.00  0.00     0.022 A 
BRANCH 104 108
ATOM    108  S   UNL A   1      39.590  29.243  33.017  1.00  0.00     0.124 S 
ATOM    109  O   UNL A   1      39.899  27.822  33.133  1.00  0.00    -0.237 OA
ATOM    110  O   UNL A   1      38.657  29.775  34.005  1.00  0.00    -0.237 OA
ATOM    111  O   UNL A   1      39.353  29.699  31.645  1.00  0.00    -0.744 OA
ENDBRANCH 104 108
ENDBRANCH  78 101
ENDBRANCH  52  53
ENDBRANCH  45  47
ENDBRANCH  44  45
ENDBRANCH  43  44
ENDBRANCH  42  43
ENDBRANCH  41  42
ENDBRANCH  40  41
ENDBRANCH   1  40
TORSDOF 28
ENDMDL
