MODEL 1
REMARK VINA RESULT:     -10.4      0.000      0.000
REMARK SMILES Cc1cc(CNS(=O)(=O)c2ccc(C(=O)OCCOCCOCCOC(=O)c3ccc(-c4c5nc(c(-c6cc(S(=O)(=O)[O-])ccc6F)c6ccc([nH]6)c(-c6cc(S(=O)(=O)[O-])ccc6F)c6nc(c(-c7cc(S(=O)(=O)[O-])ccc7F)c7ccc4[nH]7)C=C6)C=C5)cc3)cc2F)no1
REMARK SMILES IDX 20 1 19 2 18 3 17 4 16 5 14 6 15 7 13 8 10 9 11 10 92 11
REMARK SMILES IDX 12 12 91 13 93 14 7 15 8 16 9 17 6 18 5 20 4 21 1 22 2 23
REMARK SMILES IDX 3 24 95 25 94 26 21 27 22 28 23 29 24 30 25 31 26 32 27 33
REMARK SMILES IDX 28 34 29 35 90 36 30 37 89 38 31 39 32 40 33 41 83 42 34 43
REMARK SMILES IDX 88 44 82 45 84 46 35 47 87 48 81 49 80 50 36 52 68 53 48 54
REMARK SMILES IDX 67 55 49 56 52 57 66 58 85 59 50 60 51 61 65 63 86 64 53 65
REMARK SMILES IDX 37 66 38 67 46 68 39 69 45 70 47 71 44 72 40 73 41 74 42 75
REMARK SMILES IDX 43 76 69 77 70 78 78 79 71 80 77 81 79 82 76 83 72 84 73 85
REMARK SMILES IDX 74 86 75 87 54 88 55 89 63 90 56 91 62 92 64 93 61 94 57 95
REMARK SMILES IDX 58 96 59 97 60 98
REMARK H PARENT 6 19 84 51 52 62
REMARK Flexibility Score: inf
ROOT
ATOM      1  C   UNL A   1      34.579  20.955  25.700  1.00  0.00     0.188 C 
ENDROOT
BRANCH   1   2
ATOM      2  O   UNL A   1      34.516  22.375  25.707  1.00  0.00    -0.376 OA
BRANCH   2   3
ATOM      3  C   UNL A   1      33.947  23.049  26.821  1.00  0.00     0.202 C 
BRANCH   3   4
ATOM      4  C   UNL A   1      32.542  22.663  27.300  1.00  0.00     0.261 C 
BRANCH   4   5
ATOM      5  O   UNL A   1      31.704  23.788  27.613  1.00  0.00    -0.460 OA
BRANCH   5   6
ATOM      6  C   UNL A   1      30.626  23.940  26.803  1.00  0.00     0.338 C 
ATOM      7  O   UNL A   1      29.620  23.253  26.783  1.00  0.00    -0.246 OA
BRANCH   6   8
ATOM      8  C   UNL A   1      30.750  25.183  26.013  1.00  0.00     0.063 A 
ATOM      9  C   UNL A   1      30.889  27.624  24.672  1.00  0.00     0.118 A 
ATOM     10  C   UNL A   1      31.427  27.511  25.959  1.00  0.00     0.026 A 
ATOM     11  C   UNL A   1      30.322  26.516  24.051  1.00  0.00     0.144 A 
ATOM     12  C   UNL A   1      31.343  26.292  26.634  1.00  0.00     0.017 A 
ATOM     13  C   UNL A   1      30.262  25.284  24.707  1.00  0.00     0.056 A 
ATOM     14  F   UNL A   1      29.792  26.604  22.823  1.00  0.00    -0.205 F 
BRANCH   9  15
ATOM     15  S   UNL A   1      30.836  29.208  23.899  1.00  0.00     0.243 S 
ATOM     16  O   UNL A   1      31.471  30.153  24.784  1.00  0.00    -0.207 OA
ATOM     17  O   UNL A   1      29.477  29.397  23.431  1.00  0.00    -0.207 OA
BRANCH  15  18
ATOM     18  N   UNL A   1      31.793  29.084  22.556  1.00  0.00    -0.205 NA
ATOM     19  H   UNL A   1      31.386  28.350  21.976  1.00  0.00     0.141 HD
BRANCH  18  20
ATOM     20  C   UNL A   1      33.210  28.781  22.676  1.00  0.00     0.158 C 
BRANCH  20  21
ATOM     21  C   UNL A   1      33.390  27.302  22.813  1.00  0.00     0.099 A 
ATOM     22  C   UNL A   1      33.387  23.702  22.102  1.00  0.00     0.091 C 
ATOM     23  C   UNL A   1      33.425  25.123  22.489  1.00  0.00     0.133 A 
ATOM     24  C   UNL A   1      33.035  26.292  21.886  1.00  0.00     0.073 A 
ATOM     25  O   UNL A   1      33.963  25.403  23.706  1.00  0.00    -0.361 OA
ATOM     26  N   UNL A   1      33.941  26.770  23.916  1.00  0.00    -0.083 NA
ENDBRANCH  20  21
ENDBRANCH  18  20
ENDBRANCH  15  18
ENDBRANCH   9  15
ENDBRANCH   6   8
ENDBRANCH   5   6
ENDBRANCH   4   5
ENDBRANCH   3   4
ENDBRANCH   2   3
ENDBRANCH   1   2
BRANCH   1  27
ATOM     27  C   UNL A   1      35.708  20.240  24.927  1.00  0.00     0.188 C 
BRANCH  27  28
ATOM     28  O   UNL A   1      37.023  20.553  25.314  1.00  0.00    -0.376 OA
BRANCH  28  29
ATOM     29  C   UNL A   1      38.133  19.831  24.814  1.00  0.00     0.202 C 
BRANCH  29  30
ATOM     30  C   UNL A   1      39.289  19.230  25.637  1.00  0.00     0.261 C 
BRANCH  30  31
ATOM     31  O   UNL A   1      39.767  19.948  26.772  1.00  0.00    -0.460 OA
BRANCH  31  32
ATOM     32  C   UNL A   1      41.089  20.244  26.766  1.00  0.00     0.338 C 
ATOM     33  O   UNL A   1      42.001  19.529  26.393  1.00  0.00    -0.246 OA
BRANCH  32  34
ATOM     34  C   UNL A   1      41.241  21.665  27.133  1.00  0.00     0.060 A 
ATOM     35  C   UNL A   1      40.767  22.639  26.248  1.00  0.00     0.016 A 
ATOM     36  C   UNL A   1      41.862  22.028  28.331  1.00  0.00     0.016 A 
ATOM     37  C   UNL A   1      40.936  23.990  26.549  1.00  0.00     0.010 A 
ATOM     38  C   UNL A   1      42.047  23.383  28.621  1.00  0.00     0.010 A 
ATOM     39  C   UNL A   1      41.607  24.369  27.720  1.00  0.00    -0.014 A 
BRANCH  39  40
ATOM     40  C   UNL A   1      41.990  25.786  27.925  1.00  0.00     0.031 A 
ATOM     41  C   UNL A   1      43.322  26.254  27.406  1.00  0.00     0.074 A 
ATOM     42  C   UNL A   1      41.157  26.650  28.533  1.00  0.00     0.049 A 
ATOM     43  N   UNL A   1      43.886  27.427  27.512  1.00  0.00    -0.248 NA
ATOM     44  C   UNL A   1      44.120  25.263  26.665  1.00  0.00     0.031 C 
ATOM     45  C   UNL A   1      39.819  26.328  29.027  1.00  0.00     0.029 A 
ATOM     46  N   UNL A   1      41.319  27.978  28.838  1.00  0.00    -0.354 N 
ATOM     47  C   UNL A   1      45.103  27.321  26.851  1.00  0.00     0.074 A 
ATOM     48  C   UNL A   1      45.208  25.961  26.371  1.00  0.00     0.031 C 
ATOM     49  C   UNL A   1      39.280  27.432  29.575  1.00  0.00     0.029 A 
ATOM     50  C   UNL A   1      40.250  28.526  29.506  1.00  0.00     0.049 A 
ATOM     51  H   UNL A   1      42.125  28.491  28.601  1.00  0.00     0.167 HD
ATOM     52  C   UNL A   1      46.046  28.274  26.656  1.00  0.00     0.034 A 
ATOM     53  C   UNL A   1      40.080  29.760  30.023  1.00  0.00     0.034 A 
ATOM     54  C   UNL A   1      45.939  29.623  27.148  1.00  0.00     0.049 A 
ATOM     55  C   UNL A   1      41.187  30.776  29.885  1.00  0.00     0.074 A 
ATOM     56  C   UNL A   1      46.841  30.663  27.005  1.00  0.00     0.029 A 
ATOM     57  N   UNL A   1      44.873  30.118  27.885  1.00  0.00    -0.354 N 
ATOM     58  N   UNL A   1      42.350  30.652  29.288  1.00  0.00    -0.248 NA
ATOM     59  C   UNL A   1      40.963  32.095  30.494  1.00  0.00     0.031 C 
ATOM     60  C   UNL A   1      46.350  31.769  27.706  1.00  0.00     0.029 A 
ATOM     61  C   UNL A   1      45.108  31.440  28.229  1.00  0.00     0.049 A 
ATOM     62  H   UNL A   1      44.069  29.606  28.127  1.00  0.00     0.167 HD
ATOM     63  C   UNL A   1      42.985  31.883  29.431  1.00  0.00     0.074 A 
ATOM     64  C   UNL A   1      42.078  32.737  30.171  1.00  0.00     0.031 C 
ATOM     65  C   UNL A   1      44.202  32.274  28.980  1.00  0.00     0.034 A 
BRANCH  52  66
ATOM     66  C   UNL A   1      47.293  27.878  25.915  1.00  0.00     0.023 A 
ATOM     67  C   UNL A   1      47.400  28.029  24.523  1.00  0.00     0.031 A 
ATOM     68  C   UNL A   1      48.392  27.350  26.614  1.00  0.00     0.131 A 
ATOM     69  C   UNL A   1      48.570  27.621  23.865  1.00  0.00     0.055 A 
ATOM     70  C   UNL A   1      49.576  27.002  25.962  1.00  0.00     0.041 A 
ATOM     71  F   UNL A   1      48.331  27.164  27.942  1.00  0.00    -0.206 F 
ATOM     72  C   UNL A   1      49.667  27.131  24.580  1.00  0.00     0.022 A 
BRANCH  69  73
ATOM     73  S   UNL A   1      48.614  27.667  22.054  1.00  0.00     0.124 S 
ATOM     74  O   UNL A   1      48.611  26.244  21.723  1.00  0.00    -0.237 OA
ATOM     75  O   UNL A   1      47.397  28.400  21.724  1.00  0.00    -0.237 OA
ATOM     76  O   UNL A   1      49.862  28.368  21.759  1.00  0.00    -0.744 OA
ENDBRANCH  69  73
ENDBRANCH  52  66
BRANCH  53  77
ATOM     77  C   UNL A   1      38.831  30.095  30.759  1.00  0.00     0.023 A 
ATOM     78  C   UNL A   1      37.859  30.936  30.196  1.00  0.00     0.031 A 
ATOM     79  C   UNL A   1      38.599  29.583  32.048  1.00  0.00     0.131 A 
ATOM     80  C   UNL A   1      36.706  31.257  30.930  1.00  0.00     0.055 A 
ATOM     81  C   UNL A   1      37.434  29.876  32.759  1.00  0.00     0.041 A 
ATOM     82  F   UNL A   1      39.500  28.774  32.628  1.00  0.00    -0.206 F 
ATOM     83  C   UNL A   1      36.481  30.723  32.200  1.00  0.00     0.022 A 
BRANCH  80  84
ATOM     84  S   UNL A   1      35.506  32.410  30.208  1.00  0.00     0.124 S 
ATOM     85  O   UNL A   1      36.287  33.640  30.130  1.00  0.00    -0.237 OA
ATOM     86  O   UNL A   1      35.192  31.767  28.936  1.00  0.00    -0.237 OA
ATOM     87  O   UNL A   1      34.417  32.420  31.182  1.00  0.00    -0.744 OA
ENDBRANCH  80  84
ENDBRANCH  53  77
BRANCH  65  88
ATOM     88  C   UNL A   1      44.623  33.697  29.240  1.00  0.00     0.023 A 
ATOM     89  C   UNL A   1      44.077  34.771  28.519  1.00  0.00     0.031 A 
ATOM     90  C   UNL A   1      45.538  33.982  30.270  1.00  0.00     0.131 A 
ATOM     91  C   UNL A   1      44.467  36.085  28.824  1.00  0.00     0.055 A 
ATOM     92  C   UNL A   1      45.889  35.291  30.598  1.00  0.00     0.041 A 
ATOM     93  F   UNL A   1      46.081  32.990  30.992  1.00  0.00    -0.206 F 
ATOM     94  C   UNL A   1      45.355  36.351  29.872  1.00  0.00     0.022 A 
BRANCH  91  95
ATOM     95  S   UNL A   1      43.811  37.448  27.825  1.00  0.00     0.124 S 
ATOM     96  O   UNL A   1      45.034  38.099  27.364  1.00  0.00    -0.237 OA
ATOM     97  O   UNL A   1      43.038  36.749  26.803  1.00  0.00    -0.237 OA
ATOM     98  O   UNL A   1      43.018  38.222  28.778  1.00  0.00    -0.744 OA
ENDBRANCH  91  95
ENDBRANCH  65  88
ENDBRANCH  39  40
ENDBRANCH  32  34
ENDBRANCH  31  32
ENDBRANCH  30  31
ENDBRANCH  29  30
ENDBRANCH  28  29
ENDBRANCH  27  28
ENDBRANCH   1  27
TORSDOF 24
ENDMDL
MODEL 2
REMARK VINA RESULT:     -10.1      4.988     10.756
REMARK SMILES Cc1cc(CNS(=O)(=O)c2ccc(C(=O)OCCOCCOCCOC(=O)c3ccc(-c4c5nc(c(-c6cc(S(=O)(=O)[O-])ccc6F)c6ccc([nH]6)c(-c6cc(S(=O)(=O)[O-])ccc6F)c6nc(c(-c7cc(S(=O)(=O)[O-])ccc7F)c7ccc4[nH]7)C=C6)C=C5)cc3)cc2F)no1
REMARK SMILES IDX 20 1 19 2 18 3 17 4 16 5 14 6 15 7 13 8 10 9 11 10 92 11
REMARK SMILES IDX 12 12 91 13 93 14 7 15 8 16 9 17 6 18 5 20 4 21 1 22 2 23
REMARK SMILES IDX 3 24 95 25 94 26 21 27 22 28 23 29 24 30 25 31 26 32 27 33
REMARK SMILES IDX 28 34 29 35 90 36 30 37 89 38 31 39 32 40 33 41 83 42 34 43
REMARK SMILES IDX 88 44 82 45 84 46 35 47 87 48 81 49 80 50 36 52 68 53 48 54
REMARK SMILES IDX 67 55 49 56 52 57 66 58 85 59 50 60 51 61 65 63 86 64 53 65
REMARK SMILES IDX 37 66 38 67 46 68 39 69 45 70 47 71 44 72 40 73 41 74 42 75
REMARK SMILES IDX 43 76 69 77 70 78 78 79 71 80 77 81 79 82 76 83 72 84 73 85
REMARK SMILES IDX 74 86 75 87 54 88 55 89 63 90 56 91 62 92 64 93 61 94 57 95
REMARK SMILES IDX 58 96 59 97 60 98
REMARK H PARENT 6 19 84 51 52 62
REMARK Flexibility Score: inf
ROOT
ATOM      1  C   UNL A   1      32.816  25.798  24.969  1.00  0.00     0.188 C 
ENDROOT
BRANCH   1   2
ATOM      2  O   UNL A   1      32.717  25.274  26.287  1.00  0.00    -0.376 OA
BRANCH   2   3
ATOM      3  C   UNL A   1      32.306  23.928  26.481  1.00  0.00     0.202 C 
BRANCH   3   4
ATOM      4  C   UNL A   1      32.791  22.843  25.513  1.00  0.00     0.261 C 
BRANCH   4   5
ATOM      5  O   UNL A   1      34.129  22.385  25.774  1.00  0.00    -0.460 OA
BRANCH   5   6
ATOM      6  C   UNL A   1      34.958  22.399  24.701  1.00  0.00     0.338 C 
ATOM      7  O   UNL A   1      34.641  22.514  23.529  1.00  0.00    -0.246 OA
BRANCH   6   8
ATOM      8  C   UNL A   1      36.368  22.413  25.142  1.00  0.00     0.063 A 
ATOM      9  C   UNL A   1      38.991  22.267  26.077  1.00  0.00     0.118 A 
ATOM     10  C   UNL A   1      38.455  21.196  25.354  1.00  0.00     0.026 A 
ATOM     11  C   UNL A   1      38.234  23.413  26.295  1.00  0.00     0.144 A 
ATOM     12  C   UNL A   1      37.136  21.265  24.900  1.00  0.00     0.017 A 
ATOM     13  C   UNL A   1      36.924  23.503  25.818  1.00  0.00     0.056 A 
ATOM     14  F   UNL A   1      38.724  24.446  26.994  1.00  0.00    -0.205 F 
BRANCH   9  15
ATOM     15  S   UNL A   1      40.590  22.100  26.802  1.00  0.00     0.243 S 
ATOM     16  O   UNL A   1      40.447  21.332  28.015  1.00  0.00    -0.207 OA
ATOM     17  O   UNL A   1      41.187  23.421  26.802  1.00  0.00    -0.207 OA
BRANCH  15  18
ATOM     18  N   UNL A   1      41.467  21.177  25.746  1.00  0.00    -0.205 NA
ATOM     19  H   UNL A   1      40.996  21.241  24.843  1.00  0.00     0.141 HD
BRANCH  18  20
ATOM     20  C   UNL A   1      41.688  19.762  25.998  1.00  0.00     0.158 C 
BRANCH  20  21
ATOM     21  C   UNL A   1      43.101  19.412  25.650  1.00  0.00     0.099 A 
ATOM     22  C   UNL A   1      46.620  19.681  24.645  1.00  0.00     0.091 C 
ATOM     23  C   UNL A   1      45.220  19.463  25.050  1.00  0.00     0.133 A 
ATOM     24  C   UNL A   1      44.131  20.281  25.216  1.00  0.00     0.073 A 
ATOM     25  O   UNL A   1      44.870  18.183  25.346  1.00  0.00    -0.361 OA
ATOM     26  N   UNL A   1      43.538  18.144  25.721  1.00  0.00    -0.083 NA
ENDBRANCH  20  21
ENDBRANCH  18  20
ENDBRANCH  15  18
ENDBRANCH   9  15
ENDBRANCH   6   8
ENDBRANCH   5   6
ENDBRANCH   4   5
ENDBRANCH   3   4
ENDBRANCH   2   3
ENDBRANCH   1   2
BRANCH   1  27
ATOM     27  C   UNL A   1      32.433  27.267  24.694  1.00  0.00     0.188 C 
BRANCH  27  28
ATOM     28  O   UNL A   1      32.288  28.094  25.822  1.00  0.00    -0.376 OA
BRANCH  28  29
ATOM     29  C   UNL A   1      31.797  29.418  25.710  1.00  0.00     0.202 C 
BRANCH  29  30
ATOM     30  C   UNL A   1      32.196  30.627  26.578  1.00  0.00     0.261 C 
BRANCH  30  31
ATOM     31  O   UNL A   1      33.343  30.517  27.419  1.00  0.00    -0.460 OA
BRANCH  31  32
ATOM     32  C   UNL A   1      33.944  31.686  27.747  1.00  0.00     0.338 C 
ATOM     33  O   UNL A   1      33.431  32.790  27.792  1.00  0.00    -0.246 OA
BRANCH  32  34
ATOM     34  C   UNL A   1      35.309  31.382  28.215  1.00  0.00     0.060 A 
ATOM     35  C   UNL A   1      35.594  30.084  28.651  1.00  0.00     0.016 A 
ATOM     36  C   UNL A   1      36.290  32.377  28.240  1.00  0.00     0.016 A 
ATOM     37  C   UNL A   1      36.864  29.780  29.138  1.00  0.00     0.010 A 
ATOM     38  C   UNL A   1      37.558  32.073  28.748  1.00  0.00     0.010 A 
ATOM     39  C   UNL A   1      37.842  30.781  29.221  1.00  0.00    -0.014 A 
BRANCH  39  40
ATOM     40  C   UNL A   1      39.106  30.518  29.950  1.00  0.00     0.031 A 
ATOM     41  C   UNL A   1      39.259  31.062  31.344  1.00  0.00     0.074 A 
ATOM     42  C   UNL A   1      40.088  29.785  29.396  1.00  0.00     0.049 A 
ATOM     43  N   UNL A   1      40.287  31.001  32.148  1.00  0.00    -0.248 NA
ATOM     44  C   UNL A   1      38.094  31.765  31.905  1.00  0.00     0.031 C 
ATOM     45  C   UNL A   1      40.032  29.159  28.076  1.00  0.00     0.029 A 
ATOM     46  N   UNL A   1      41.326  29.445  29.879  1.00  0.00    -0.354 N 
ATOM     47  C   UNL A   1      39.895  31.653  33.311  1.00  0.00     0.074 A 
ATOM     48  C   UNL A   1      38.546  32.126  33.097  1.00  0.00     0.031 C 
ATOM     49  C   UNL A   1      41.188  28.508  27.853  1.00  0.00     0.029 A 
ATOM     50  C   UNL A   1      42.079  28.705  28.997  1.00  0.00     0.049 A 
ATOM     51  H   UNL A   1      41.646  29.705  30.773  1.00  0.00     0.167 HD
ATOM     52  C   UNL A   1      40.596  31.834  34.455  1.00  0.00     0.034 A 
ATOM     53  C   UNL A   1      43.348  28.259  29.091  1.00  0.00     0.034 A 
ATOM     54  C   UNL A   1      41.944  31.371  34.656  1.00  0.00     0.049 A 
ATOM     55  C   UNL A   1      44.147  28.563  30.335  1.00  0.00     0.074 A 
ATOM     56  C   UNL A   1      42.742  31.507  35.779  1.00  0.00     0.029 A 
ATOM     57  N   UNL A   1      42.699  30.690  33.710  1.00  0.00    -0.354 N 
ATOM     58  N   UNL A   1      43.777  29.213  31.414  1.00  0.00    -0.248 NA
ATOM     59  C   UNL A   1      45.535  28.080  30.372  1.00  0.00     0.031 C 
ATOM     60  C   UNL A   1      43.998  30.964  35.492  1.00  0.00     0.029 A 
ATOM     61  C   UNL A   1      43.962  30.426  34.214  1.00  0.00     0.049 A 
ATOM     62  H   UNL A   1      42.383  30.434  32.815  1.00  0.00     0.167 HD
ATOM     63  C   UNL A   1      44.878  29.195  32.266  1.00  0.00     0.074 A 
ATOM     64  C   UNL A   1      45.928  28.473  31.576  1.00  0.00     0.031 C 
ATOM     65  C   UNL A   1      45.004  29.719  33.510  1.00  0.00     0.034 A 
BRANCH  52  66
ATOM     66  C   UNL A   1      39.930  32.603  35.563  1.00  0.00     0.023 A 
ATOM     67  C   UNL A   1      39.132  31.964  36.525  1.00  0.00     0.031 A 
ATOM     68  C   UNL A   1      40.106  33.994  35.663  1.00  0.00     0.131 A 
ATOM     69  C   UNL A   1      38.505  32.721  37.527  1.00  0.00     0.055 A 
ATOM     70  C   UNL A   1      39.531  34.734  36.697  1.00  0.00     0.041 A 
ATOM     71  F   UNL A   1      40.842  34.655  34.755  1.00  0.00    -0.206 F 
ATOM     72  C   UNL A   1      38.720  34.098  37.632  1.00  0.00     0.022 A 
BRANCH  69  73
ATOM     73  S   UNL A   1      37.344  31.894  38.647  1.00  0.00     0.124 S 
ATOM     74  O   UNL A   1      37.263  30.561  38.054  1.00  0.00    -0.237 OA
ATOM     75  O   UNL A   1      38.026  31.980  39.933  1.00  0.00    -0.237 OA
ATOM     76  O   UNL A   1      36.128  32.696  38.532  1.00  0.00    -0.744 OA
ENDBRANCH  69  73
ENDBRANCH  52  66
BRANCH  53  77
ATOM     77  C   UNL A   1      43.962  27.514  27.959  1.00  0.00     0.023 A 
ATOM     78  C   UNL A   1      44.217  26.137  28.048  1.00  0.00     0.031 A 
ATOM     79  C   UNL A   1      44.314  28.178  26.770  1.00  0.00     0.131 A 
ATOM     80  C   UNL A   1      44.827  25.471  26.973  1.00  0.00     0.055 A 
ATOM     81  C   UNL A   1      44.885  27.504  25.690  1.00  0.00     0.041 A 
ATOM     82  F   UNL A   1      44.089  29.495  26.638  1.00  0.00    -0.206 F 
ATOM     83  C   UNL A   1      45.150  26.141  25.791  1.00  0.00     0.022 A 
BRANCH  80  84
ATOM     84  S   UNL A   1      45.217  23.708  27.149  1.00  0.00     0.124 S 
ATOM     85  O   UNL A   1      46.554  23.642  26.570  1.00  0.00    -0.237 OA
ATOM     86  O   UNL A   1      45.132  23.518  28.593  1.00  0.00    -0.237 OA
ATOM     87  O   UNL A   1      44.166  23.049  26.375  1.00  0.00    -0.744 OA
ENDBRANCH  80  84
ENDBRANCH  53  77
BRANCH  65  88
ATOM     88  C   UNL A   1      46.310  29.509  34.231  1.00  0.00     0.023 A 
ATOM     89  C   UNL A   1      47.378  30.410  34.101  1.00  0.00     0.031 A 
ATOM     90  C   UNL A   1      46.459  28.420  35.111  1.00  0.00     0.131 A 
ATOM     91  C   UNL A   1      48.562  30.196  34.825  1.00  0.00     0.055 A 
ATOM     92  C   UNL A   1      47.620  28.237  35.860  1.00  0.00     0.041 A 
ATOM     93  F   UNL A   1      45.463  27.535  35.274  1.00  0.00    -0.206 F 
ATOM     94  C   UNL A   1      48.681  29.126  35.718  1.00  0.00     0.022 A 
BRANCH  91  95
ATOM     95  S   UNL A   1      49.956  31.328  34.578  1.00  0.00     0.124 S 
ATOM     96  O   UNL A   1      49.848  32.200  35.743  1.00  0.00    -0.237 OA
ATOM     97  O   UNL A   1      51.100  30.423  34.563  1.00  0.00    -0.237 OA
ATOM     98  O   UNL A   1      49.658  31.966  33.296  1.00  0.00    -0.744 OA
ENDBRANCH  91  95
ENDBRANCH  65  88
ENDBRANCH  39  40
ENDBRANCH  32  34
ENDBRANCH  31  32
ENDBRANCH  30  31
ENDBRANCH  29  30
ENDBRANCH  28  29
ENDBRANCH  27  28
ENDBRANCH   1  27
TORSDOF 24
ENDMDL
MODEL 3
REMARK VINA RESULT:     -10.0      5.340     11.075
REMARK SMILES Cc1cc(CNS(=O)(=O)c2ccc(C(=O)OCCOCCOCCOC(=O)c3ccc(-c4c5nc(c(-c6cc(S(=O)(=O)[O-])ccc6F)c6ccc([nH]6)c(-c6cc(S(=O)(=O)[O-])ccc6F)c6nc(c(-c7cc(S(=O)(=O)[O-])ccc7F)c7ccc4[nH]7)C=C6)C=C5)cc3)cc2F)no1
REMARK SMILES IDX 20 1 19 2 18 3 17 4 16 5 14 6 15 7 13 8 10 9 11 10 92 11
REMARK SMILES IDX 12 12 91 13 93 14 7 15 8 16 9 17 6 18 5 20 4 21 1 22 2 23
REMARK SMILES IDX 3 24 95 25 94 26 21 27 22 28 23 29 24 30 25 31 26 32 27 33
REMARK SMILES IDX 28 34 29 35 90 36 30 37 89 38 31 39 32 40 33 41 83 42 34 43
REMARK SMILES IDX 88 44 82 45 84 46 35 47 87 48 81 49 80 50 36 52 68 53 48 54
REMARK SMILES IDX 67 55 49 56 52 57 66 58 85 59 50 60 51 61 65 63 86 64 53 65
REMARK SMILES IDX 37 66 38 67 46 68 39 69 45 70 47 71 44 72 40 73 41 74 42 75
REMARK SMILES IDX 43 76 69 77 70 78 78 79 71 80 77 81 79 82 76 83 72 84 73 85
REMARK SMILES IDX 74 86 75 87 54 88 55 89 63 90 56 91 62 92 64 93 61 94 57 95
REMARK SMILES IDX 58 96 59 97 60 98
REMARK H PARENT 6 19 84 51 52 62
REMARK Flexibility Score: inf
ROOT
ATOM      1  C   UNL A   1      32.959  26.055  24.764  1.00  0.00     0.188 C 
ENDROOT
BRANCH   1   2
ATOM      2  O   UNL A   1      32.606  25.414  25.983  1.00  0.00    -0.376 OA
BRANCH   2   3
ATOM      3  C   UNL A   1      32.132  24.075  25.963  1.00  0.00     0.202 C 
BRANCH   3   4
ATOM      4  C   UNL A   1      32.750  23.070  24.984  1.00  0.00     0.261 C 
BRANCH   4   5
ATOM      5  O   UNL A   1      34.094  22.683  25.316  1.00  0.00    -0.460 OA
BRANCH   5   6
ATOM      6  C   UNL A   1      34.977  22.746  24.289  1.00  0.00     0.338 C 
ATOM      7  O   UNL A   1      34.726  22.962  23.116  1.00  0.00    -0.246 OA
BRANCH   6   8
ATOM      8  C   UNL A   1      36.363  22.667  24.798  1.00  0.00     0.063 A 
ATOM      9  C   UNL A   1      38.923  22.348  25.856  1.00  0.00     0.118 A 
ATOM     10  C   UNL A   1      38.359  21.321  25.091  1.00  0.00     0.026 A 
ATOM     11  C   UNL A   1      38.227  23.536  26.055  1.00  0.00     0.144 A 
ATOM     12  C   UNL A   1      37.071  21.478  24.575  1.00  0.00     0.017 A 
ATOM     13  C   UNL A   1      36.950  23.712  25.516  1.00  0.00     0.056 A 
ATOM     14  F   UNL A   1      38.744  24.528  26.792  1.00  0.00    -0.205 F 
BRANCH   9  15
ATOM     15  S   UNL A   1      40.471  22.074  26.654  1.00  0.00     0.243 S 
ATOM     16  O   UNL A   1      40.210  21.418  27.911  1.00  0.00    -0.207 OA
ATOM     17  O   UNL A   1      41.202  23.325  26.585  1.00  0.00    -0.207 OA
BRANCH  15  18
ATOM     18  N   UNL A   1      41.282  20.992  25.702  1.00  0.00    -0.205 NA
ATOM     19  H   UNL A   1      40.765  20.933  24.824  1.00  0.00     0.141 HD
BRANCH  18  20
ATOM     20  C   UNL A   1      41.500  19.625  26.147  1.00  0.00     0.158 C 
BRANCH  20  21
ATOM     21  C   UNL A   1      42.916  19.232  25.862  1.00  0.00     0.099 A 
ATOM     22  C   UNL A   1      46.432  19.353  24.818  1.00  0.00     0.091 C 
ATOM     23  C   UNL A   1      45.035  19.197  25.258  1.00  0.00     0.133 A 
ATOM     24  C   UNL A   1      43.938  20.021  25.280  1.00  0.00     0.073 A 
ATOM     25  O   UNL A   1      44.697  17.986  25.776  1.00  0.00    -0.361 OA
ATOM     26  N   UNL A   1      43.366  18.001  26.154  1.00  0.00    -0.083 NA
ENDBRANCH  20  21
ENDBRANCH  18  20
ENDBRANCH  15  18
ENDBRANCH   9  15
ENDBRANCH   6   8
ENDBRANCH   5   6
ENDBRANCH   4   5
ENDBRANCH   3   4
ENDBRANCH   2   3
ENDBRANCH   1   2
BRANCH   1  27
ATOM     27  C   UNL A   1      32.619  27.545  24.553  1.00  0.00     0.188 C 
BRANCH  27  28
ATOM     28  O   UNL A   1      32.370  28.299  25.715  1.00  0.00    -0.376 OA
BRANCH  28  29
ATOM     29  C   UNL A   1      31.835  29.607  25.647  1.00  0.00     0.202 C 
BRANCH  29  30
ATOM     30  C   UNL A   1      32.240  30.816  26.513  1.00  0.00     0.261 C 
BRANCH  30  31
ATOM     31  O   UNL A   1      33.334  30.676  27.416  1.00  0.00    -0.460 OA
BRANCH  31  32
ATOM     32  C   UNL A   1      33.995  31.819  27.718  1.00  0.00     0.338 C 
ATOM     33  O   UNL A   1      33.554  32.954  27.692  1.00  0.00    -0.246 OA
BRANCH  32  34
ATOM     34  C   UNL A   1      35.317  31.453  28.261  1.00  0.00     0.060 A 
ATOM     35  C   UNL A   1      35.536  30.128  28.653  1.00  0.00     0.016 A 
ATOM     36  C   UNL A   1      36.322  32.414  28.396  1.00  0.00     0.016 A 
ATOM     37  C   UNL A   1      36.762  29.763  29.209  1.00  0.00     0.010 A 
ATOM     38  C   UNL A   1      37.544  32.049  28.971  1.00  0.00     0.010 A 
ATOM     39  C   UNL A   1      37.759  30.729  29.402  1.00  0.00    -0.014 A 
BRANCH  39  40
ATOM     40  C   UNL A   1      38.964  30.395  30.199  1.00  0.00     0.031 A 
ATOM     41  C   UNL A   1      39.044  30.883  31.620  1.00  0.00     0.074 A 
ATOM     42  C   UNL A   1      39.954  29.647  29.681  1.00  0.00     0.049 A 
ATOM     43  N   UNL A   1      40.015  30.756  32.485  1.00  0.00    -0.248 NA
ATOM     44  C   UNL A   1      37.869  31.607  32.131  1.00  0.00     0.031 C 
ATOM     45  C   UNL A   1      39.963  29.070  28.338  1.00  0.00     0.029 A 
ATOM     46  N   UNL A   1      41.147  29.245  30.229  1.00  0.00    -0.354 N 
ATOM     47  C   UNL A   1      39.571  31.380  33.644  1.00  0.00     0.074 A 
ATOM     48  C   UNL A   1      38.255  31.909  33.363  1.00  0.00     0.031 C 
ATOM     49  C   UNL A   1      41.108  28.386  28.165  1.00  0.00     0.029 A 
ATOM     50  C   UNL A   1      41.929  28.511  29.370  1.00  0.00     0.049 A 
ATOM     51  H   UNL A   1      41.416  29.462  31.151  1.00  0.00     0.167 HD
ATOM     52  C   UNL A   1      40.202  31.495  34.837  1.00  0.00     0.034 A 
ATOM     53  C   UNL A   1      43.174  28.015  29.528  1.00  0.00     0.034 A 
ATOM     54  C   UNL A   1      41.518  30.976  35.105  1.00  0.00     0.049 A 
ATOM     55  C   UNL A   1      43.900  28.246  30.830  1.00  0.00     0.074 A 
ATOM     56  C   UNL A   1      42.245  31.044  36.280  1.00  0.00     0.029 A 
ATOM     57  N   UNL A   1      42.309  30.303  34.184  1.00  0.00    -0.354 N 
ATOM     58  N   UNL A   1      43.483  28.870  31.907  1.00  0.00    -0.248 NA
ATOM     59  C   UNL A   1      45.265  27.712  30.937  1.00  0.00     0.031 C 
ATOM     60  C   UNL A   1      43.498  30.466  36.054  1.00  0.00     0.029 A 
ATOM     61  C   UNL A   1      43.527  29.976  34.757  1.00  0.00     0.049 A 
ATOM     62  H   UNL A   1      42.044  30.090  33.261  1.00  0.00     0.167 HD
ATOM     63  C   UNL A   1      44.526  28.783  32.826  1.00  0.00     0.074 A 
ATOM     64  C   UNL A   1      45.593  28.048  32.178  1.00  0.00     0.031 C 
ATOM     65  C   UNL A   1      44.588  29.257  34.095  1.00  0.00     0.034 A 
BRANCH  52  66
ATOM     66  C   UNL A   1      39.492  32.248  35.928  1.00  0.00     0.023 A 
ATOM     67  C   UNL A   1      38.707  31.587  36.887  1.00  0.00     0.031 A 
ATOM     68  C   UNL A   1      39.612  33.645  36.015  1.00  0.00     0.131 A 
ATOM     69  C   UNL A   1      38.038  32.328  37.872  1.00  0.00     0.055 A 
ATOM     70  C   UNL A   1      38.994  34.372  37.035  1.00  0.00     0.041 A 
ATOM     71  F   UNL A   1      40.332  34.327  35.110  1.00  0.00    -0.206 F 
ATOM     72  C   UNL A   1      38.197  33.714  37.966  1.00  0.00     0.022 A 
BRANCH  69  73
ATOM     73  S   UNL A   1      36.897  31.467  38.986  1.00  0.00     0.124 S 
ATOM     74  O   UNL A   1      37.584  31.598  40.270  1.00  0.00    -0.237 OA
ATOM     75  O   UNL A   1      35.667  32.237  38.841  1.00  0.00    -0.237 OA
ATOM     76  O   UNL A   1      36.850  30.110  38.447  1.00  0.00    -0.744 OA
ENDBRANCH  69  73
ENDBRANCH  52  66
BRANCH  53  77
ATOM     77  C   UNL A   1      43.835  27.290  28.409  1.00  0.00     0.023 A 
ATOM     78  C   UNL A   1      44.726  27.942  27.545  1.00  0.00     0.031 A 
ATOM     79  C   UNL A   1      43.571  25.926  28.184  1.00  0.00     0.131 A 
ATOM     80  C   UNL A   1      45.308  27.236  26.481  1.00  0.00     0.055 A 
ATOM     81  C   UNL A   1      44.181  25.219  27.147  1.00  0.00     0.041 A 
ATOM     82  F   UNL A   1      42.725  25.259  28.985  1.00  0.00    -0.206 F 
ATOM     83  C   UNL A   1      45.052  25.877  26.284  1.00  0.00     0.022 A 
BRANCH  80  84
ATOM     84  S   UNL A   1      46.394  28.127  25.333  1.00  0.00     0.124 S 
ATOM     85  O   UNL A   1      46.131  27.432  24.077  1.00  0.00    -0.237 OA
ATOM     86  O   UNL A   1      45.888  29.492  25.430  1.00  0.00    -0.237 OA
ATOM     87  O   UNL A   1      47.727  27.920  25.895  1.00  0.00    -0.744 OA
ENDBRANCH  80  84
ENDBRANCH  53  77
BRANCH  65  88
ATOM     88  C   UNL A   1      45.837  28.974  34.889  1.00  0.00     0.023 A 
ATOM     89  C   UNL A   1      45.970  27.811  35.663  1.00  0.00     0.031 A 
ATOM     90  C   UNL A   1      46.931  29.855  34.813  1.00  0.00     0.131 A 
ATOM     91  C   UNL A   1      47.168  27.567  36.353  1.00  0.00     0.055 A 
ATOM     92  C   UNL A   1      48.134  29.587  35.465  1.00  0.00     0.041 A 
ATOM     93  F   UNL A   1      46.854  30.976  34.080  1.00  0.00    -0.206 F 
ATOM     94  C   UNL A   1      48.257  28.439  36.243  1.00  0.00     0.022 A 
BRANCH  91  95
ATOM     95  S   UNL A   1      47.287  26.101  37.413  1.00  0.00     0.124 S 
ATOM     96  O   UNL A   1      47.121  25.018  36.449  1.00  0.00    -0.237 OA
ATOM     97  O   UNL A   1      48.617  26.237  37.996  1.00  0.00    -0.237 OA
ATOM     98  O   UNL A   1      46.180  26.267  38.354  1.00  0.00    -0.744 OA
ENDBRANCH  91  95
ENDBRANCH  65  88
ENDBRANCH  39  40
ENDBRANCH  32  34
ENDBRANCH  31  32
ENDBRANCH  30  31
ENDBRANCH  29  30
ENDBRANCH  28  29
ENDBRANCH  27  28
ENDBRANCH   1  27
TORSDOF 24
ENDMDL
