MODEL 1
REMARK VINA RESULT:      -9.5      0.000      0.000
REMARK SMILES CC(C)N(CC(=O)OCCOCCOCCOC(=O)c1ccc(-c2c3nc(c(-c4cc(S(=O)(=O)[O-])ccc4F)c4ccc([nH]4)c(-c4cc(S(=O)(=O)[O-])ccc4F)c4nc(c(-c5cc(S(=O)(=O)[O-])ccc5F)c5ccc2[nH]5)C=C4)C=C3)cc1)C(=O)NC1C(C)(C)C1(C)C
REMARK SMILES IDX 12 1 11 2 10 3 9 4 8 5 6 6 7 7 5 8 4 9 2 10 1 11 3 12 83 13
REMARK SMILES IDX 84 14 85 15 86 17 87 18 90 19 88 20 89 21 91 22 92 23 13 24
REMARK SMILES IDX 14 25 15 26 16 27 17 28 18 29 19 30 20 31 21 32 82 33 22 34
REMARK SMILES IDX 81 35 23 36 24 37 25 38 75 39 26 40 80 41 74 42 76 43 27 44
REMARK SMILES IDX 79 45 73 46 72 47 28 49 60 50 40 51 59 52 41 53 44 54 58 55
REMARK SMILES IDX 77 56 42 57 43 58 57 60 78 61 45 62 29 63 30 64 38 65 31 66
REMARK SMILES IDX 37 67 39 68 36 69 32 70 33 71 34 72 35 73 61 74 62 75 70 76
REMARK SMILES IDX 63 77 69 78 71 79 68 80 64 81 65 82 66 83 67 84 46 85 47 86
REMARK SMILES IDX 55 87 48 88 54 89 56 90 53 91 49 92 50 93 51 94 52 95
REMARK H PARENT 85 16 76 48 44 59
REMARK Flexibility Score: inf
ROOT
ATOM      1  C   UNL A   1      39.814  22.363  26.637  1.00  0.00     0.188 C 
ENDROOT
BRANCH   1   2
ATOM      2  O   UNL A   1      38.784  21.403  26.391  1.00  0.00    -0.376 OA
BRANCH   2   3
ATOM      3  C   UNL A   1      38.098  21.609  25.154  1.00  0.00     0.202 C 
BRANCH   3   4
ATOM      4  C   UNL A   1      36.745  22.287  25.368  1.00  0.00     0.261 C 
BRANCH   4   5
ATOM      5  O   UNL A   1      35.812  21.432  26.061  1.00  0.00    -0.462 OA
BRANCH   5   6
ATOM      6  C   UNL A   1      34.734  22.026  26.636  1.00  0.00     0.325 C 
ATOM      7  O   UNL A   1      34.173  21.608  27.645  1.00  0.00    -0.250 OA
BRANCH   6   8
ATOM      8  C   UNL A   1      34.263  23.286  25.895  1.00  0.00     0.244 C 
BRANCH   8   9
ATOM      9  N   UNL A   1      32.818  23.478  25.740  1.00  0.00    -0.311 N 
BRANCH   9  10
ATOM     10  C   UNL A   1      32.180  22.769  24.604  1.00  0.00     0.081 C 
ATOM     11  C   UNL A   1      31.022  23.562  23.982  1.00  0.00     0.031 C 
ATOM     12  C   UNL A   1      33.179  22.322  23.534  1.00  0.00     0.031 C 
ENDBRANCH   9  10
BRANCH   9  13
ATOM     13  C   UNL A   1      32.027  24.213  26.579  1.00  0.00     0.318 C 
ATOM     14  O   UNL A   1      31.179  23.689  27.309  1.00  0.00    -0.249 OA
ATOM     15  N   UNL A   1      32.066  25.558  26.666  1.00  0.00    -0.334 N 
ATOM     16  H   UNL A   1      31.352  25.895  27.253  1.00  0.00     0.165 HD
BRANCH  15  17
ATOM     17  C   UNL A   1      32.851  26.632  26.144  1.00  0.00     0.096 C 
ATOM     18  C   UNL A   1      32.272  27.673  25.194  1.00  0.00    -0.007 C 
ATOM     19  C   UNL A   1      32.593  28.034  26.666  1.00  0.00    -0.007 C 
ATOM     20  C   UNL A   1      33.161  28.240  24.106  1.00  0.00     0.014 C 
ATOM     21  C   UNL A   1      30.881  27.461  24.668  1.00  0.00     0.014 C 
ATOM     22  C   UNL A   1      31.529  28.186  27.733  1.00  0.00     0.014 C 
ATOM     23  C   UNL A   1      33.792  28.909  26.962  1.00  0.00     0.014 C 
ENDBRANCH  15  17
ENDBRANCH   9  13
ENDBRANCH   8   9
ENDBRANCH   6   8
ENDBRANCH   5   6
ENDBRANCH   4   5
ENDBRANCH   3   4
ENDBRANCH   2   3
ENDBRANCH   1   2
BRANCH   1  24
ATOM     24  C   UNL A   1      41.166  21.914  26.075  1.00  0.00     0.188 C 
BRANCH  24  25
ATOM     25  O   UNL A   1      41.922  20.999  26.864  1.00  0.00    -0.376 OA
BRANCH  25  26
ATOM     26  C   UNL A   1      41.697  19.618  26.626  1.00  0.00     0.202 C 
BRANCH  26  27
ATOM     27  C   UNL A   1      42.805  18.870  25.875  1.00  0.00     0.261 C 
BRANCH  27  28
ATOM     28  O   UNL A   1      43.171  19.449  24.607  1.00  0.00    -0.460 OA
BRANCH  28  29
ATOM     29  C   UNL A   1      44.501  19.704  24.450  1.00  0.00     0.338 C 
ATOM     30  O   UNL A   1      45.346  18.921  24.049  1.00  0.00    -0.246 OA
BRANCH  29  31
ATOM     31  C   UNL A   1      44.815  21.111  24.808  1.00  0.00     0.060 A 
ATOM     32  C   UNL A   1      45.355  21.380  26.073  1.00  0.00     0.016 A 
ATOM     33  C   UNL A   1      44.543  22.172  23.935  1.00  0.00     0.016 A 
ATOM     34  C   UNL A   1      45.648  22.701  26.449  1.00  0.00     0.010 A 
ATOM     35  C   UNL A   1      44.831  23.495  24.318  1.00  0.00     0.010 A 
ATOM     36  C   UNL A   1      45.395  23.774  25.574  1.00  0.00    -0.014 A 
BRANCH  36  37
ATOM     37  C   UNL A   1      45.516  25.182  26.060  1.00  0.00     0.031 A 
ATOM     38  C   UNL A   1      46.873  25.821  25.983  1.00  0.00     0.074 A 
ATOM     39  C   UNL A   1      44.483  25.898  26.554  1.00  0.00     0.049 A 
ATOM     40  N   UNL A   1      47.238  27.037  26.296  1.00  0.00    -0.248 NA
ATOM     41  C   UNL A   1      47.961  24.965  25.488  1.00  0.00     0.031 C 
ATOM     42  C   UNL A   1      43.116  25.421  26.680  1.00  0.00     0.029 A 
ATOM     43  N   UNL A   1      44.413  27.189  27.030  1.00  0.00    -0.354 N 
ATOM     44  C   UNL A   1      48.595  27.100  26.013  1.00  0.00     0.074 A 
ATOM     45  C   UNL A   1      48.991  25.792  25.535  1.00  0.00     0.031 C 
ATOM     46  C   UNL A   1      42.331  26.399  27.163  1.00  0.00     0.029 A 
ATOM     47  C   UNL A   1      43.149  27.575  27.432  1.00  0.00     0.049 A 
ATOM     48  H   UNL A   1      45.195  27.784  27.079  1.00  0.00     0.167 HD
ATOM     49  C   UNL A   1      49.443  28.148  26.143  1.00  0.00     0.034 A 
ATOM     50  C   UNL A   1      42.699  28.733  27.963  1.00  0.00     0.034 A 
ATOM     51  C   UNL A   1      49.073  29.420  26.706  1.00  0.00     0.049 A 
ATOM     52  C   UNL A   1      43.688  29.853  28.196  1.00  0.00     0.074 A 
ATOM     53  C   UNL A   1      49.877  30.520  26.950  1.00  0.00     0.029 A 
ATOM     54  N   UNL A   1      47.797  29.754  27.141  1.00  0.00    -0.354 N 
ATOM     55  N   UNL A   1      44.965  29.901  27.896  1.00  0.00    -0.248 NA
ATOM     56  C   UNL A   1      43.178  31.070  28.845  1.00  0.00     0.031 C 
ATOM     57  C   UNL A   1      49.103  31.492  27.594  1.00  0.00     0.029 A 
ATOM     58  C   UNL A   1      47.799  31.029  27.683  1.00  0.00     0.049 A 
ATOM     59  H   UNL A   1      47.008  29.169  27.076  1.00  0.00     0.167 HD
ATOM     60  C   UNL A   1      45.400  31.163  28.293  1.00  0.00     0.074 A 
ATOM     61  C   UNL A   1      44.248  31.851  28.835  1.00  0.00     0.031 C 
ATOM     62  C   UNL A   1      46.642  31.704  28.218  1.00  0.00     0.034 A 
BRANCH  49  63
ATOM     63  C   UNL A   1      50.870  27.897  25.742  1.00  0.00     0.023 A 
ATOM     64  C   UNL A   1      51.272  27.982  24.397  1.00  0.00     0.031 A 
ATOM     65  C   UNL A   1      51.807  27.460  26.691  1.00  0.00     0.131 A 
ATOM     66  C   UNL A   1      52.554  27.554  24.027  1.00  0.00     0.055 A 
ATOM     67  C   UNL A   1      53.107  27.109  26.328  1.00  0.00     0.041 A 
ATOM     68  F   UNL A   1      51.461  27.328  27.982  1.00  0.00    -0.206 F 
ATOM     69  C   UNL A   1      53.482  27.139  24.987  1.00  0.00     0.022 A 
BRANCH  66  70
ATOM     70  S   UNL A   1      52.937  27.394  22.262  1.00  0.00     0.124 S 
ATOM     71  O   UNL A   1      51.703  26.804  21.748  1.00  0.00    -0.237 OA
ATOM     72  O   UNL A   1      53.200  28.772  21.869  1.00  0.00    -0.237 OA
ATOM     73  O   UNL A   1      54.098  26.506  22.244  1.00  0.00    -0.744 OA
ENDBRANCH  66  70
ENDBRANCH  49  63
BRANCH  50  74
ATOM     74  C   UNL A   1      41.267  28.909  28.365  1.00  0.00     0.023 A 
ATOM     75  C   UNL A   1      40.869  28.804  29.710  1.00  0.00     0.031 A 
ATOM     76  C   UNL A   1      40.258  29.078  27.399  1.00  0.00     0.131 A 
ATOM     77  C   UNL A   1      39.503  28.801  30.042  1.00  0.00     0.055 A 
ATOM     78  C   UNL A   1      38.905  29.136  27.741  1.00  0.00     0.041 A 
ATOM     79  F   UNL A   1      40.572  29.177  26.097  1.00  0.00    -0.206 F 
ATOM     80  C   UNL A   1      38.519  28.978  29.068  1.00  0.00     0.022 A 
BRANCH  77  81
ATOM     81  S   UNL A   1      39.021  28.437  31.755  1.00  0.00     0.124 S 
ATOM     82  O   UNL A   1      38.027  29.474  32.010  1.00  0.00    -0.237 OA
ATOM     83  O   UNL A   1      38.514  27.073  31.643  1.00  0.00    -0.237 OA
ATOM     84  O   UNL A   1      40.272  28.576  32.497  1.00  0.00    -0.744 OA
ENDBRANCH  77  81
ENDBRANCH  50  74
BRANCH  62  85
ATOM     85  C   UNL A   1      46.805  33.127  28.688  1.00  0.00     0.023 A 
ATOM     86  C   UNL A   1      46.652  34.220  27.818  1.00  0.00     0.031 A 
ATOM     87  C   UNL A   1      47.104  33.389  30.038  1.00  0.00     0.131 A 
ATOM     88  C   UNL A   1      46.840  35.525  28.298  1.00  0.00     0.055 A 
ATOM     89  C   UNL A   1      47.238  34.692  30.520  1.00  0.00     0.041 A 
ATOM     90  F   UNL A   1      47.262  32.381  30.910  1.00  0.00    -0.206 F 
ATOM     91  C   UNL A   1      47.116  35.768  29.646  1.00  0.00     0.022 A 
BRANCH  88  92
ATOM     92  S   UNL A   1      46.780  36.906  27.122  1.00  0.00     0.124 S 
ATOM     93  O   UNL A   1      46.455  36.228  25.872  1.00  0.00    -0.237 OA
ATOM     94  O   UNL A   1      45.727  37.748  27.682  1.00  0.00    -0.237 OA
ATOM     95  O   UNL A   1      48.125  37.473  27.189  1.00  0.00    -0.744 OA
ENDBRANCH  88  92
ENDBRANCH  62  85
ENDBRANCH  36  37
ENDBRANCH  29  31
ENDBRANCH  28  29
ENDBRANCH  27  28
ENDBRANCH  26  27
ENDBRANCH  25  26
ENDBRANCH  24  25
ENDBRANCH   1  24
TORSDOF 24
ENDMDL
MODEL 2
REMARK VINA RESULT:      -9.4      6.205     10.008
REMARK SMILES CC(C)N(CC(=O)OCCOCCOCCOC(=O)c1ccc(-c2c3nc(c(-c4cc(S(=O)(=O)[O-])ccc4F)c4ccc([nH]4)c(-c4cc(S(=O)(=O)[O-])ccc4F)c4nc(c(-c5cc(S(=O)(=O)[O-])ccc5F)c5ccc2[nH]5)C=C4)C=C3)cc1)C(=O)NC1C(C)(C)C1(C)C
REMARK SMILES IDX 12 1 11 2 10 3 9 4 8 5 6 6 7 7 5 8 4 9 2 10 1 11 3 12 83 13
REMARK SMILES IDX 84 14 85 15 86 17 87 18 90 19 88 20 89 21 91 22 92 23 13 24
REMARK SMILES IDX 14 25 15 26 16 27 17 28 18 29 19 30 20 31 21 32 82 33 22 34
REMARK SMILES IDX 81 35 23 36 24 37 25 38 75 39 26 40 80 41 74 42 76 43 27 44
REMARK SMILES IDX 79 45 73 46 72 47 28 49 60 50 40 51 59 52 41 53 44 54 58 55
REMARK SMILES IDX 77 56 42 57 43 58 57 60 78 61 45 62 29 63 30 64 38 65 31 66
REMARK SMILES IDX 37 67 39 68 36 69 32 70 33 71 34 72 35 73 61 74 62 75 70 76
REMARK SMILES IDX 63 77 69 78 71 79 68 80 64 81 65 82 66 83 67 84 46 85 47 86
REMARK SMILES IDX 55 87 48 88 54 89 56 90 53 91 49 92 50 93 51 94 52 95
REMARK H PARENT 85 16 76 48 44 59
REMARK Flexibility Score: inf
ROOT
ATOM      1  C   UNL A   1      30.712  26.966  22.961  1.00  0.00     0.188 C 
ENDROOT
BRANCH   1   2
ATOM      2  O   UNL A   1      31.513  26.077  22.179  1.00  0.00    -0.376 OA
BRANCH   2   3
ATOM      3  C   UNL A   1      31.967  24.933  22.905  1.00  0.00     0.202 C 
BRANCH   3   4
ATOM      4  C   UNL A   1      31.236  24.789  24.240  1.00  0.00     0.261 C 
BRANCH   4   5
ATOM      5  O   UNL A   1      30.934  23.413  24.548  1.00  0.00    -0.462 OA
BRANCH   5   6
ATOM      6  C   UNL A   1      31.927  22.667  25.098  1.00  0.00     0.325 C 
ATOM      7  O   UNL A   1      32.062  22.478  26.302  1.00  0.00    -0.250 OA
BRANCH   6   8
ATOM      8  C   UNL A   1      32.893  22.076  24.060  1.00  0.00     0.244 C 
BRANCH   8   9
ATOM      9  N   UNL A   1      34.311  21.993  24.425  1.00  0.00    -0.311 N 
BRANCH   9  10
ATOM     10  C   UNL A   1      35.191  23.057  23.883  1.00  0.00     0.081 C 
ATOM     11  C   UNL A   1      35.262  24.291  24.794  1.00  0.00     0.031 C 
ATOM     12  C   UNL A   1      36.592  22.556  23.523  1.00  0.00     0.031 C 
ENDBRANCH   9  10
BRANCH   9  13
ATOM     13  C   UNL A   1      34.857  21.051  25.251  1.00  0.00     0.318 C 
ATOM     14  O   UNL A   1      35.403  21.349  26.318  1.00  0.00    -0.249 OA
ATOM     15  N   UNL A   1      34.887  19.732  24.972  1.00  0.00    -0.334 N 
ATOM     16  H   UNL A   1      35.410  19.239  25.645  1.00  0.00     0.165 HD
BRANCH  15  17
ATOM     17  C   UNL A   1      34.376  18.847  23.973  1.00  0.00     0.096 C 
ATOM     18  C   UNL A   1      34.381  17.334  24.150  1.00  0.00    -0.007 C 
ATOM     19  C   UNL A   1      33.059  18.138  24.243  1.00  0.00    -0.007 C 
ATOM     20  C   UNL A   1      34.604  16.459  22.933  1.00  0.00     0.014 C 
ATOM     21  C   UNL A   1      35.097  16.758  25.339  1.00  0.00     0.014 C 
ATOM     22  C   UNL A   1      32.368  18.448  25.555  1.00  0.00     0.014 C 
ATOM     23  C   UNL A   1      32.063  18.045  23.109  1.00  0.00     0.014 C 
ENDBRANCH  15  17
ENDBRANCH   9  13
ENDBRANCH   8   9
ENDBRANCH   6   8
ENDBRANCH   5   6
ENDBRANCH   4   5
ENDBRANCH   3   4
ENDBRANCH   2   3
ENDBRANCH   1   2
BRANCH   1  24
ATOM     24  C   UNL A   1      30.838  28.419  22.492  1.00  0.00     0.188 C 
BRANCH  24  25
ATOM     25  O   UNL A   1      31.542  29.315  23.348  1.00  0.00    -0.376 OA
BRANCH  25  26
ATOM     26  C   UNL A   1      30.884  29.699  24.547  1.00  0.00     0.202 C 
BRANCH  26  27
ATOM     27  C   UNL A   1      31.736  29.687  25.821  1.00  0.00     0.261 C 
BRANCH  27  28
ATOM     28  O   UNL A   1      32.921  30.505  25.763  1.00  0.00    -0.460 OA
BRANCH  28  29
ATOM     29  C   UNL A   1      33.113  31.322  26.836  1.00  0.00     0.338 C 
ATOM     30  O   UNL A   1      32.347  32.184  27.236  1.00  0.00    -0.246 OA
BRANCH  29  31
ATOM     31  C   UNL A   1      34.400  31.016  27.511  1.00  0.00     0.060 A 
ATOM     32  C   UNL A   1      34.665  29.693  27.890  1.00  0.00     0.016 A 
ATOM     33  C   UNL A   1      35.330  32.019  27.816  1.00  0.00     0.016 A 
ATOM     34  C   UNL A   1      35.865  29.372  28.544  1.00  0.00     0.010 A 
ATOM     35  C   UNL A   1      36.528  31.696  28.479  1.00  0.00     0.010 A 
ATOM     36  C   UNL A   1      36.814  30.369  28.841  1.00  0.00    -0.014 A 
BRANCH  36  37
ATOM     37  C   UNL A   1      37.984  30.053  29.716  1.00  0.00     0.031 A 
ATOM     38  C   UNL A   1      39.022  29.119  29.163  1.00  0.00     0.074 A 
ATOM     39  C   UNL A   1      38.154  30.559  30.956  1.00  0.00     0.049 A 
ATOM     40  N   UNL A   1      40.147  28.718  29.695  1.00  0.00    -0.248 NA
ATOM     41  C   UNL A   1      38.744  28.562  27.831  1.00  0.00     0.031 C 
ATOM     42  C   UNL A   1      37.245  31.480  31.618  1.00  0.00     0.029 A 
ATOM     43  N   UNL A   1      39.160  30.387  31.882  1.00  0.00    -0.354 N 
ATOM     44  C   UNL A   1      40.725  27.880  28.751  1.00  0.00     0.074 A 
ATOM     45  C   UNL A   1      39.811  27.807  27.632  1.00  0.00     0.031 C 
ATOM     46  C   UNL A   1      37.735  31.822  32.822  1.00  0.00     0.029 A 
ATOM     47  C   UNL A   1      38.983  31.105  33.048  1.00  0.00     0.049 A 
ATOM     48  H   UNL A   1      39.936  29.801  31.726  1.00  0.00     0.167 HD
ATOM     49  C   UNL A   1      41.908  27.223  28.809  1.00  0.00     0.034 A 
ATOM     50  C   UNL A   1      39.730  31.175  34.172  1.00  0.00     0.034 A 
ATOM     51  C   UNL A   1      42.774  27.219  29.957  1.00  0.00     0.049 A 
ATOM     52  C   UNL A   1      40.993  30.349  34.252  1.00  0.00     0.074 A 
ATOM     53  C   UNL A   1      43.956  26.524  30.142  1.00  0.00     0.029 A 
ATOM     54  N   UNL A   1      42.537  27.922  31.132  1.00  0.00    -0.354 N 
ATOM     55  N   UNL A   1      41.536  29.582  33.336  1.00  0.00    -0.248 NA
ATOM     56  C   UNL A   1      41.740  30.390  35.518  1.00  0.00     0.031 C 
ATOM     57  C   UNL A   1      44.399  26.754  31.450  1.00  0.00     0.029 A 
ATOM     58  C   UNL A   1      43.533  27.651  32.056  1.00  0.00     0.049 A 
ATOM     59  H   UNL A   1      41.773  28.524  31.285  1.00  0.00     0.167 HD
ATOM     60  C   UNL A   1      42.702  29.076  33.906  1.00  0.00     0.074 A 
ATOM     61  C   UNL A   1      42.794  29.639  35.237  1.00  0.00     0.031 C 
ATOM     62  C   UNL A   1      43.614  28.222  33.379  1.00  0.00     0.034 A 
BRANCH  49  63
ATOM     63  C   UNL A   1      42.258  26.389  27.608  1.00  0.00     0.023 A 
ATOM     64  C   UNL A   1      41.869  25.040  27.522  1.00  0.00     0.031 A 
ATOM     65  C   UNL A   1      43.079  26.911  26.597  1.00  0.00     0.131 A 
ATOM     66  C   UNL A   1      42.372  24.237  26.490  1.00  0.00     0.055 A 
ATOM     67  C   UNL A   1      43.514  26.126  25.529  1.00  0.00     0.041 A 
ATOM     68  F   UNL A   1      43.506  28.182  26.653  1.00  0.00    -0.206 F 
ATOM     69  C   UNL A   1      43.174  24.776  25.480  1.00  0.00     0.022 A 
BRANCH  66  70
ATOM     70  S   UNL A   1      42.097  22.447  26.575  1.00  0.00     0.124 S 
ATOM     71  O   UNL A   1      40.640  22.377  26.646  1.00  0.00    -0.237 OA
ATOM     72  O   UNL A   1      42.701  21.974  25.335  1.00  0.00    -0.237 OA
ATOM     73  O   UNL A   1      42.793  22.052  27.798  1.00  0.00    -0.744 OA
ENDBRANCH  66  70
ENDBRANCH  49  63
BRANCH  50  74
ATOM     74  C   UNL A   1      39.310  32.008  35.344  1.00  0.00     0.023 A 
ATOM     75  C   UNL A   1      38.665  31.432  36.454  1.00  0.00     0.031 A 
ATOM     76  C   UNL A   1      39.448  33.408  35.326  1.00  0.00     0.131 A 
ATOM     77  C   UNL A   1      38.128  32.253  37.461  1.00  0.00     0.055 A 
ATOM     78  C   UNL A   1      38.966  34.215  36.360  1.00  0.00     0.041 A 
ATOM     79  F   UNL A   1      40.048  34.019  34.292  1.00  0.00    -0.206 F 
ATOM     80  C   UNL A   1      38.285  33.639  37.427  1.00  0.00     0.022 A 
BRANCH  77  81
ATOM     81  S   UNL A   1      37.109  31.492  38.758  1.00  0.00     0.124 S 
ATOM     82  O   UNL A   1      35.922  32.340  38.739  1.00  0.00    -0.237 OA
ATOM     83  O   UNL A   1      36.938  30.135  38.250  1.00  0.00    -0.237 OA
ATOM     84  O   UNL A   1      37.939  31.608  39.955  1.00  0.00    -0.744 OA
ENDBRANCH  77  81
ENDBRANCH  50  74
BRANCH  62  85
ATOM     85  C   UNL A   1      44.815  27.884  34.224  1.00  0.00     0.023 A 
ATOM     86  C   UNL A   1      44.828  26.776  35.089  1.00  0.00     0.031 A 
ATOM     87  C   UNL A   1      45.972  28.681  34.148  1.00  0.00     0.131 A 
ATOM     88  C   UNL A   1      45.962  26.519  35.875  1.00  0.00     0.055 A 
ATOM     89  C   UNL A   1      47.115  28.388  34.893  1.00  0.00     0.041 A 
ATOM     90  F   UNL A   1      46.012  29.751  33.338  1.00  0.00    -0.206 F 
ATOM     91  C   UNL A   1      47.110  27.308  35.771  1.00  0.00     0.022 A 
BRANCH  88  92
ATOM     92  S   UNL A   1      45.896  25.170  37.087  1.00  0.00     0.124 S 
ATOM     93  O   UNL A   1      46.377  24.035  36.307  1.00  0.00    -0.237 OA
ATOM     94  O   UNL A   1      46.792  25.648  38.136  1.00  0.00    -0.237 OA
ATOM     95  O   UNL A   1      44.484  25.112  37.460  1.00  0.00    -0.744 OA
ENDBRANCH  88  92
ENDBRANCH  62  85
ENDBRANCH  36  37
ENDBRANCH  29  31
ENDBRANCH  28  29
ENDBRANCH  27  28
ENDBRANCH  26  27
ENDBRANCH  25  26
ENDBRANCH  24  25
ENDBRANCH   1  24
TORSDOF 24
ENDMDL
MODEL 3
REMARK VINA RESULT:      -9.2      6.480     11.175
REMARK SMILES CC(C)N(CC(=O)OCCOCCOCCOC(=O)c1ccc(-c2c3nc(c(-c4cc(S(=O)(=O)[O-])ccc4F)c4ccc([nH]4)c(-c4cc(S(=O)(=O)[O-])ccc4F)c4nc(c(-c5cc(S(=O)(=O)[O-])ccc5F)c5ccc2[nH]5)C=C4)C=C3)cc1)C(=O)NC1C(C)(C)C1(C)C
REMARK SMILES IDX 12 1 11 2 10 3 9 4 8 5 6 6 7 7 5 8 4 9 2 10 1 11 3 12 83 13
REMARK SMILES IDX 84 14 85 15 86 17 87 18 90 19 88 20 89 21 91 22 92 23 13 24
REMARK SMILES IDX 14 25 15 26 16 27 17 28 18 29 19 30 20 31 21 32 82 33 22 34
REMARK SMILES IDX 81 35 23 36 24 37 25 38 75 39 26 40 80 41 74 42 76 43 27 44
REMARK SMILES IDX 79 45 73 46 72 47 28 49 60 50 40 51 59 52 41 53 44 54 58 55
REMARK SMILES IDX 77 56 42 57 43 58 57 60 78 61 45 62 29 63 30 64 38 65 31 66
REMARK SMILES IDX 37 67 39 68 36 69 32 70 33 71 34 72 35 73 61 74 62 75 70 76
REMARK SMILES IDX 63 77 69 78 71 79 68 80 64 81 65 82 66 83 67 84 46 85 47 86
REMARK SMILES IDX 55 87 48 88 54 89 56 90 53 91 49 92 50 93 51 94 52 95
REMARK H PARENT 85 16 76 48 44 59
REMARK Flexibility Score: inf
ROOT
ATOM      1  C   UNL A   1      31.363  29.258  25.255  1.00  0.00     0.188 C 
ENDROOT
BRANCH   1   2
ATOM      2  O   UNL A   1      30.786  29.771  24.053  1.00  0.00    -0.376 OA
BRANCH   2   3
ATOM      3  C   UNL A   1      30.592  28.775  23.045  1.00  0.00     0.202 C 
BRANCH   3   4
ATOM      4  C   UNL A   1      31.485  27.557  23.282  1.00  0.00     0.261 C 
BRANCH   4   5
ATOM      5  O   UNL A   1      31.696  26.796  22.074  1.00  0.00    -0.462 OA
BRANCH   5   6
ATOM      6  C   UNL A   1      32.553  25.744  22.144  1.00  0.00     0.325 C 
ATOM      7  O   UNL A   1      33.660  25.720  21.617  1.00  0.00    -0.250 OA
BRANCH   6   8
ATOM      8  C   UNL A   1      32.001  24.559  22.950  1.00  0.00     0.244 C 
BRANCH   8   9
ATOM      9  N   UNL A   1      32.318  24.506  24.381  1.00  0.00    -0.311 N 
BRANCH   9  10
ATOM     10  C   UNL A   1      31.359  23.769  25.239  1.00  0.00     0.081 C 
ATOM     11  C   UNL A   1      31.432  22.249  25.044  1.00  0.00     0.031 C 
ATOM     12  C   UNL A   1      31.467  24.140  26.721  1.00  0.00     0.031 C 
ENDBRANCH   9  10
BRANCH   9  13
ATOM     13  C   UNL A   1      33.438  25.037  24.958  1.00  0.00     0.318 C 
ATOM     14  O   UNL A   1      33.443  26.161  25.472  1.00  0.00    -0.249 OA
ATOM     15  N   UNL A   1      34.635  24.416  24.993  1.00  0.00    -0.334 N 
ATOM     16  H   UNL A   1      35.329  25.006  25.364  1.00  0.00     0.165 HD
BRANCH  15  17
ATOM     17  C   UNL A   1      35.178  23.142  24.640  1.00  0.00     0.096 C 
ATOM     18  C   UNL A   1      36.518  22.655  25.179  1.00  0.00    -0.007 C 
ATOM     19  C   UNL A   1      35.188  22.046  25.692  1.00  0.00    -0.007 C 
ATOM     20  C   UNL A   1      37.397  21.806  24.284  1.00  0.00     0.014 C 
ATOM     21  C   UNL A   1      37.359  23.616  25.971  1.00  0.00     0.014 C 
ATOM     22  C   UNL A   1      34.588  22.382  27.042  1.00  0.00     0.014 C 
ATOM     23  C   UNL A   1      34.806  20.648  25.258  1.00  0.00     0.014 C 
ENDBRANCH  15  17
ENDBRANCH   9  13
ENDBRANCH   8   9
ENDBRANCH   6   8
ENDBRANCH   5   6
ENDBRANCH   4   5
ENDBRANCH   3   4
ENDBRANCH   2   3
ENDBRANCH   1   2
BRANCH   1  24
ATOM     24  C   UNL A   1      32.584  30.068  25.701  1.00  0.00     0.188 C 
BRANCH  24  25
ATOM     25  O   UNL A   1      32.528  30.664  26.995  1.00  0.00    -0.376 OA
BRANCH  25  26
ATOM     26  C   UNL A   1      32.131  32.026  27.051  1.00  0.00     0.202 C 
BRANCH  26  27
ATOM     27  C   UNL A   1      33.101  32.987  27.748  1.00  0.00     0.261 C 
BRANCH  27  28
ATOM     28  O   UNL A   1      32.623  34.340  27.875  1.00  0.00    -0.460 OA
BRANCH  28  29
ATOM     29  C   UNL A   1      33.077  35.014  28.969  1.00  0.00     0.338 C 
ATOM     30  O   UNL A   1      32.613  36.045  29.429  1.00  0.00    -0.246 OA
BRANCH  29  31
ATOM     31  C   UNL A   1      34.232  34.310  29.583  1.00  0.00     0.060 A 
ATOM     32  C   UNL A   1      34.004  33.477  30.687  1.00  0.00     0.016 A 
ATOM     33  C   UNL A   1      35.540  34.492  29.116  1.00  0.00     0.016 A 
ATOM     34  C   UNL A   1      35.076  32.809  31.300  1.00  0.00     0.010 A 
ATOM     35  C   UNL A   1      36.613  33.828  29.737  1.00  0.00     0.010 A 
ATOM     36  C   UNL A   1      36.393  32.972  30.829  1.00  0.00    -0.014 A 
BRANCH  36  37
ATOM     37  C   UNL A   1      37.542  32.425  31.613  1.00  0.00     0.031 A 
ATOM     38  C   UNL A   1      38.297  31.274  31.012  1.00  0.00     0.074 A 
ATOM     39  C   UNL A   1      37.932  32.908  32.812  1.00  0.00     0.049 A 
ATOM     40  N   UNL A   1      39.353  30.648  31.461  1.00  0.00    -0.248 NA
ATOM     41  C   UNL A   1      37.783  30.765  29.732  1.00  0.00     0.031 C 
ATOM     42  C   UNL A   1      37.309  34.019  33.512  1.00  0.00     0.029 A 
ATOM     43  N   UNL A   1      38.957  32.538  33.655  1.00  0.00    -0.354 N 
ATOM     44  C   UNL A   1      39.645  29.684  30.506  1.00  0.00     0.074 A 
ATOM     45  C   UNL A   1      38.637  29.790  29.473  1.00  0.00     0.031 C 
ATOM     46  C   UNL A   1      37.971  34.271  34.654  1.00  0.00     0.029 A 
ATOM     47  C   UNL A   1      39.049  33.302  34.802  1.00  0.00     0.049 A 
ATOM     48  H   UNL A   1      39.570  31.794  33.457  1.00  0.00     0.167 HD
ATOM     49  C   UNL A   1      40.658  28.784  30.489  1.00  0.00     0.034 A 
ATOM     50  C   UNL A   1      39.894  33.230  35.853  1.00  0.00     0.034 A 
ATOM     51  C   UNL A   1      41.604  28.614  31.559  1.00  0.00     0.049 A 
ATOM     52  C   UNL A   1      40.950  32.148  35.859  1.00  0.00     0.074 A 
ATOM     53  C   UNL A   1      42.620  27.681  31.669  1.00  0.00     0.029 A 
ATOM     54  N   UNL A   1      41.635  29.376  32.719  1.00  0.00    -0.354 N 
ATOM     55  N   UNL A   1      41.226  31.261  34.931  1.00  0.00    -0.248 NA
ATOM     56  C   UNL A   1      41.802  32.051  37.054  1.00  0.00     0.031 C 
ATOM     57  C   UNL A   1      43.220  27.835  32.925  1.00  0.00     0.029 A 
ATOM     58  C   UNL A   1      42.630  28.912  33.566  1.00  0.00     0.049 A 
ATOM     59  H   UNL A   1      41.038  30.134  32.913  1.00  0.00     0.167 HD
ATOM     60  C   UNL A   1      42.303  30.524  35.420  1.00  0.00     0.074 A 
ATOM     61  C   UNL A   1      42.637  31.081  36.714  1.00  0.00     0.031 C 
ATOM     62  C   UNL A   1      42.954  29.479  34.852  1.00  0.00     0.034 A 
BRANCH  49  63
ATOM     63  C   UNL A   1      40.706  27.868  29.297  1.00  0.00     0.023 A 
ATOM     64  C   UNL A   1      41.609  28.095  28.244  1.00  0.00     0.031 A 
ATOM     65  C   UNL A   1      39.770  26.832  29.161  1.00  0.00     0.131 A 
ATOM     66  C   UNL A   1      41.501  27.347  27.064  1.00  0.00     0.055 A 
ATOM     67  C   UNL A   1      39.717  26.039  28.014  1.00  0.00     0.041 A 
ATOM     68  F   UNL A   1      38.863  26.599  30.124  1.00  0.00    -0.206 F 
ATOM     69  C   UNL A   1      40.575  26.306  26.950  1.00  0.00     0.022 A 
BRANCH  66  70
ATOM     70  S   UNL A   1      42.474  27.860  25.622  1.00  0.00     0.124 S 
ATOM     71  O   UNL A   1      42.231  26.757  24.697  1.00  0.00    -0.237 OA
ATOM     72  O   UNL A   1      41.868  29.138  25.269  1.00  0.00    -0.237 OA
ATOM     73  O   UNL A   1      43.838  27.939  26.142  1.00  0.00    -0.744 OA
ENDBRANCH  66  70
ENDBRANCH  49  63
BRANCH  50  74
ATOM     74  C   UNL A   1      39.775  34.159  37.023  1.00  0.00     0.023 A 
ATOM     75  C   UNL A   1      39.345  33.697  38.280  1.00  0.00     0.031 A 
ATOM     76  C   UNL A   1      39.984  35.543  36.874  1.00  0.00     0.131 A 
ATOM     77  C   UNL A   1      39.076  34.613  39.313  1.00  0.00     0.055 A 
ATOM     78  C   UNL A   1      39.774  36.442  37.922  1.00  0.00     0.041 A 
ATOM     79  F   UNL A   1      40.386  36.047  35.697  1.00  0.00    -0.206 F 
ATOM     80  C   UNL A   1      39.299  35.980  39.145  1.00  0.00     0.022 A 
BRANCH  77  81
ATOM     81  S   UNL A   1      38.310  34.004  40.843  1.00  0.00     0.124 S 
ATOM     82  O   UNL A   1      39.442  34.005  41.762  1.00  0.00    -0.237 OA
ATOM     83  O   UNL A   1      37.282  35.010  41.087  1.00  0.00    -0.237 OA
ATOM     84  O   UNL A   1      37.809  32.682  40.470  1.00  0.00    -0.744 OA
ENDBRANCH  77  81
ENDBRANCH  50  74
BRANCH  62  85
ATOM     85  C   UNL A   1      44.127  28.904  35.605  1.00  0.00     0.023 A 
ATOM     86  C   UNL A   1      43.966  27.905  36.580  1.00  0.00     0.031 A 
ATOM     87  C   UNL A   1      45.429  29.357  35.326  1.00  0.00     0.131 A 
ATOM     88  C   UNL A   1      45.087  27.419  37.272  1.00  0.00     0.055 A 
ATOM     89  C   UNL A   1      46.545  28.833  35.981  1.00  0.00     0.041 A 
ATOM     90  F   UNL A   1      45.638  30.311  34.404  1.00  0.00    -0.206 F 
ATOM     91  C   UNL A   1      46.375  27.865  36.967  1.00  0.00     0.022 A 
BRANCH  88  92
ATOM     92  S   UNL A   1      44.833  26.237  38.624  1.00  0.00     0.124 S 
ATOM     93  O   UNL A   1      45.785  26.708  39.624  1.00  0.00    -0.237 OA
ATOM     94  O   UNL A   1      43.422  26.429  38.947  1.00  0.00    -0.237 OA
ATOM     95  O   UNL A   1      45.156  24.947  38.019  1.00  0.00    -0.744 OA
ENDBRANCH  88  92
ENDBRANCH  62  85
ENDBRANCH  36  37
ENDBRANCH  29  31
ENDBRANCH  28  29
ENDBRANCH  27  28
ENDBRANCH  26  27
ENDBRANCH  25  26
ENDBRANCH  24  25
ENDBRANCH   1  24
TORSDOF 24
ENDMDL
