MODEL 1
REMARK VINA RESULT:     -11.7      0.000      0.000
REMARK SMILES O=C(OCCOCCOCCOC(=O)[C@@H](Cc1ccccc1)N1C(=O)/C(=C/c2ccc3ncccc3c2)SC1=S)c1ccc(-c2c3nc(c(-c4cc(S(=O)(=O)[O-])ccc4F)c4ccc([nH]4)c(-c4cc(S(=O)(=O)[O-])ccc4F)c4nc(c(-c5cc(S(=O)(=O)[O-])ccc5F)c5ccc2[nH]5)C=C4)C=C3)cc1
REMARK SMILES IDX 7 1 6 2 5 3 4 4 3 5 2 6 1 7 41 8 42 9 103 10 43 11 102 12
REMARK SMILES IDX 44 13 45 14 46 15 96 16 47 17 101 18 95 19 97 20 48 21
REMARK SMILES IDX 100 22 94 23 93 24 49 26 81 27 61 28 80 29 62 30 65 31 79 32
REMARK SMILES IDX 98 33 63 34 64 35 78 37 99 38 66 39 50 40 51 41 59 42 52 43
REMARK SMILES IDX 58 44 60 45 57 46 53 47 54 48 55 49 56 50 82 51 83 52 91 53
REMARK SMILES IDX 84 54 90 55 92 56 89 57 85 58 86 59 87 60 88 61 67 62 68 63
REMARK SMILES IDX 76 64 69 65 75 66 77 67 74 68 70 69 71 70 72 71 73 72 8 73
REMARK SMILES IDX 9 74 10 75 11 76 12 77 13 78 14 79 15 80 16 81 17 82 18 83
REMARK SMILES IDX 22 84 19 85 21 86 20 87 23 88 24 89 39 90 25 91 26 92 38 93
REMARK SMILES IDX 40 94 27 95 28 96 29 97 37 98 30 99 36 100 31 101 35 102
REMARK SMILES IDX 32 103 34 104 33 105
REMARK H PARENT 97 25 65 36
REMARK Flexibility Score: inf
ROOT
ATOM      1  C   UNL A   1      40.397  20.899  26.555  1.00  0.00     0.188 C 
ENDROOT
BRANCH   1   2
ATOM      2  O   UNL A   1      41.471  20.791  25.612  1.00  0.00    -0.376 OA
BRANCH   2   3
ATOM      3  C   UNL A   1      42.759  21.086  26.157  1.00  0.00     0.202 C 
BRANCH   3   4
ATOM      4  C   UNL A   1      43.629  22.087  25.382  1.00  0.00     0.261 C 
BRANCH   4   5
ATOM      5  O   UNL A   1      43.025  23.364  25.128  1.00  0.00    -0.460 OA
BRANCH   5   6
ATOM      6  C   UNL A   1      43.446  24.617  25.417  1.00  0.00     0.338 C 
ATOM      7  O   UNL A   1      44.041  25.230  24.528  1.00  0.00    -0.246 OA
BRANCH   6   8
ATOM      8  C   UNL A   1      43.275  25.305  26.738  1.00  0.00     0.060 A 
ATOM      9  C   UNL A   1      42.368  24.951  27.734  1.00  0.00     0.016 A 
ATOM     10  C   UNL A   1      44.077  26.446  26.967  1.00  0.00     0.016 A 
ATOM     11  C   UNL A   1      42.226  25.724  28.885  1.00  0.00     0.010 A 
ATOM     12  C   UNL A   1      43.935  27.234  28.118  1.00  0.00     0.010 A 
ATOM     13  C   UNL A   1      42.979  26.886  29.069  1.00  0.00    -0.014 A 
BRANCH  13  14
ATOM     14  C   UNL A   1      42.546  27.809  30.141  1.00  0.00     0.031 A 
ATOM     15  C   UNL A   1      41.215  28.480  29.963  1.00  0.00     0.074 A 
ATOM     16  C   UNL A   1      43.236  27.916  31.289  1.00  0.00     0.049 A 
ATOM     17  N   UNL A   1      40.522  29.194  30.807  1.00  0.00    -0.248 NA
ATOM     18  C   UNL A   1      40.576  28.301  28.649  1.00  0.00     0.031 C 
ATOM     19  C   UNL A   1      44.508  27.257  31.563  1.00  0.00     0.029 A 
ATOM     20  N   UNL A   1      42.931  28.553  32.465  1.00  0.00    -0.354 N 
ATOM     21  C   UNL A   1      39.374  29.571  30.117  1.00  0.00     0.074 A 
ATOM     22  C   UNL A   1      39.445  28.965  28.807  1.00  0.00     0.031 C 
ATOM     23  C   UNL A   1      44.819  27.429  32.858  1.00  0.00     0.029 A 
ATOM     24  C   UNL A   1      43.815  28.282  33.486  1.00  0.00     0.049 A 
ATOM     25  H   UNL A   1      42.153  29.147  32.568  1.00  0.00     0.167 HD
ATOM     26  C   UNL A   1      38.384  30.403  30.523  1.00  0.00     0.034 A 
ATOM     27  C   UNL A   1      43.804  28.687  34.774  1.00  0.00     0.034 A 
ATOM     28  C   UNL A   1      38.406  31.081  31.792  1.00  0.00     0.049 A 
ATOM     29  C   UNL A   1      42.706  29.640  35.194  1.00  0.00     0.074 A 
ATOM     30  C   UNL A   1      37.572  32.078  32.261  1.00  0.00     0.029 A 
ATOM     31  N   UNL A   1      39.350  30.849  32.787  1.00  0.00    -0.354 N 
ATOM     32  N   UNL A   1      41.659  30.047  34.512  1.00  0.00    -0.248 NA
ATOM     33  C   UNL A   1      42.811  30.225  36.538  1.00  0.00     0.031 C 
ATOM     34  C   UNL A   1      38.054  32.495  33.509  1.00  0.00     0.029 A 
ATOM     35  C   UNL A   1      39.137  31.701  33.855  1.00  0.00     0.049 A 
ATOM     36  H   UNL A   1      40.066  30.174  32.739  1.00  0.00     0.167 HD
ATOM     37  C   UNL A   1      40.996  30.952  35.335  1.00  0.00     0.074 A 
ATOM     38  C   UNL A   1      41.726  30.985  36.586  1.00  0.00     0.031 C 
ATOM     39  C   UNL A   1      39.902  31.713  35.080  1.00  0.00     0.034 A 
BRANCH  26  40
ATOM     40  C   UNL A   1      37.339  30.736  29.488  1.00  0.00     0.023 A 
ATOM     41  C   UNL A   1      36.907  32.057  29.269  1.00  0.00     0.031 A 
ATOM     42  C   UNL A   1      36.638  29.697  28.850  1.00  0.00     0.131 A 
ATOM     43  C   UNL A   1      35.739  32.291  28.527  1.00  0.00     0.055 A 
ATOM     44  C   UNL A   1      35.532  29.946  28.037  1.00  0.00     0.041 A 
ATOM     45  F   UNL A   1      36.979  28.416  29.056  1.00  0.00    -0.206 F 
ATOM     46  C   UNL A   1      35.061  31.248  27.891  1.00  0.00     0.022 A 
BRANCH  43  47
ATOM     47  S   UNL A   1      34.991  33.946  28.590  1.00  0.00     0.124 S 
ATOM     48  O   UNL A   1      34.825  34.248  27.169  1.00  0.00    -0.237 OA
ATOM     49  O   UNL A   1      33.763  33.709  29.339  1.00  0.00    -0.237 OA
ATOM     50  O   UNL A   1      35.998  34.752  29.275  1.00  0.00    -0.744 OA
ENDBRANCH  43  47
ENDBRANCH  26  40
BRANCH  27  51
ATOM     51  C   UNL A   1      44.867  28.273  35.743  1.00  0.00     0.023 A 
ATOM     52  C   UNL A   1      44.739  27.094  36.498  1.00  0.00     0.031 A 
ATOM     53  C   UNL A   1      45.984  29.090  36.003  1.00  0.00     0.131 A 
ATOM     54  C   UNL A   1      45.668  26.799  37.510  1.00  0.00     0.055 A 
ATOM     55  C   UNL A   1      46.955  28.745  36.947  1.00  0.00     0.041 A 
ATOM     56  F   UNL A   1      46.153  30.244  35.340  1.00  0.00    -0.206 F 
ATOM     57  C   UNL A   1      46.793  27.600  37.717  1.00  0.00     0.022 A 
BRANCH  54  58
ATOM     58  S   UNL A   1      45.339  25.404  38.625  1.00  0.00     0.124 S 
ATOM     59  O   UNL A   1      44.372  24.638  37.848  1.00  0.00    -0.237 OA
ATOM     60  O   UNL A   1      46.662  24.801  38.769  1.00  0.00    -0.237 OA
ATOM     61  O   UNL A   1      44.808  26.049  39.823  1.00  0.00    -0.744 OA
ENDBRANCH  54  58
ENDBRANCH  27  51
BRANCH  39  62
ATOM     62  C   UNL A   1      39.443  32.638  36.176  1.00  0.00     0.023 A 
ATOM     63  C   UNL A   1      38.635  32.180  37.231  1.00  0.00     0.031 A 
ATOM     64  C   UNL A   1      39.851  33.983  36.182  1.00  0.00     0.131 A 
ATOM     65  C   UNL A   1      38.228  33.072  38.233  1.00  0.00     0.055 A 
ATOM     66  C   UNL A   1      39.483  34.854  37.206  1.00  0.00     0.041 A 
ATOM     67  F   UNL A   1      40.627  34.464  35.197  1.00  0.00    -0.206 F 
ATOM     68  C   UNL A   1      38.661  34.402  38.235  1.00  0.00     0.022 A 
BRANCH  65  69
ATOM     69  S   UNL A   1      37.087  32.487  39.514  1.00  0.00     0.124 S 
ATOM     70  O   UNL A   1      37.218  33.522  40.535  1.00  0.00    -0.237 OA
ATOM     71  O   UNL A   1      35.812  32.449  38.806  1.00  0.00    -0.237 OA
ATOM     72  O   UNL A   1      37.626  31.180  39.884  1.00  0.00    -0.744 OA
ENDBRANCH  65  69
ENDBRANCH  39  62
ENDBRANCH  13  14
ENDBRANCH   6   8
ENDBRANCH   5   6
ENDBRANCH   4   5
ENDBRANCH   3   4
ENDBRANCH   2   3
ENDBRANCH   1   2
BRANCH   1  73
ATOM     73  C   UNL A   1      39.302  21.842  26.061  1.00  0.00     0.188 C 
BRANCH  73  74
ATOM     74  O   UNL A   1      38.173  21.186  25.479  1.00  0.00    -0.376 OA
BRANCH  74  75
ATOM     75  C   UNL A   1      37.323  21.976  24.654  1.00  0.00     0.202 C 
BRANCH  75  76
ATOM     76  C   UNL A   1      35.837  21.678  24.794  1.00  0.00     0.261 C 
BRANCH  76  77
ATOM     77  O   UNL A   1      35.309  22.156  26.040  1.00  0.00    -0.462 OA
BRANCH  77  78
ATOM     78  C   UNL A   1      34.063  21.738  26.390  1.00  0.00     0.329 C 
ATOM     79  O   UNL A   1      33.795  21.084  27.392  1.00  0.00    -0.250 OA
BRANCH  78  80
ATOM     80  C   UNL A   1      33.037  22.073  25.309  1.00  0.00     0.206 C 
BRANCH  80  81
ATOM     81  C   UNL A   1      32.136  20.896  24.871  1.00  0.00     0.073 C 
BRANCH  81  82
ATOM     82  C   UNL A   1      32.721  19.715  24.130  1.00  0.00    -0.045 A 
ATOM     83  C   UNL A   1      32.221  19.232  22.921  1.00  0.00     0.004 A 
ATOM     84  C   UNL A   1      33.746  18.983  24.749  1.00  0.00     0.004 A 
ATOM     85  C   UNL A   1      32.704  18.039  22.374  1.00  0.00     0.000 A 
ATOM     86  C   UNL A   1      34.222  17.786  24.218  1.00  0.00     0.000 A 
ATOM     87  C   UNL A   1      33.690  17.307  23.030  1.00  0.00     0.000 A 
ENDBRANCH  81  82
ENDBRANCH  80  81
BRANCH  80  88
ATOM     88  N   UNL A   1      32.358  23.378  25.416  1.00  0.00    -0.278 N 
ATOM     89  C   UNL A   1      32.886  24.407  24.640  1.00  0.00     0.267 C 
ATOM     90  C   UNL A   1      31.204  23.684  26.115  1.00  0.00     0.149 C 
ATOM     91  O   UNL A   1      33.952  24.379  24.045  1.00  0.00    -0.268 OA
ATOM     92  C   UNL A   1      31.992  25.583  24.666  1.00  0.00     0.081 C 
ATOM     93  S   UNL A   1      30.797  25.370  25.881  1.00  0.00    -0.054 SA
ATOM     94  S   UNL A   1      30.232  22.763  27.111  1.00  0.00    -0.052 S 
ATOM     95  C   UNL A   1      32.112  26.634  23.843  1.00  0.00     0.029 C 
BRANCH  95  96
ATOM     96  C   UNL A   1      31.253  27.805  24.021  1.00  0.00    -0.024 A 
ATOM     97  C   UNL A   1      31.669  28.919  24.740  1.00  0.00     0.010 A 
ATOM     98  C   UNL A   1      30.076  27.870  23.272  1.00  0.00     0.018 A 
ATOM     99  C   UNL A   1      30.934  30.110  24.660  1.00  0.00     0.029 A 
ATOM    100  C   UNL A   1      29.385  29.078  23.150  1.00  0.00     0.001 A 
ATOM    101  C   UNL A   1      29.817  30.229  23.843  1.00  0.00     0.070 A 
ATOM    102  C   UNL A   1      28.284  29.178  22.294  1.00  0.00     0.012 A 
ATOM    103  N   UNL A   1      29.200  31.419  23.684  1.00  0.00    -0.256 NA
ATOM    104  C   UNL A   1      27.652  30.401  22.135  1.00  0.00     0.021 A 
ATOM    105  C   UNL A   1      28.140  31.478  22.849  1.00  0.00     0.112 A 
ENDBRANCH  95  96
ENDBRANCH  80  88
ENDBRANCH  78  80
ENDBRANCH  77  78
ENDBRANCH  76  77
ENDBRANCH  75  76
ENDBRANCH  74  75
ENDBRANCH  73  74
ENDBRANCH   1  73
TORSDOF 24
ENDMDL
MODEL 2
REMARK VINA RESULT:     -11.6      4.901      8.748
REMARK SMILES O=C(OCCOCCOCCOC(=O)[C@@H](Cc1ccccc1)N1C(=O)/C(=C/c2ccc3ncccc3c2)SC1=S)c1ccc(-c2c3nc(c(-c4cc(S(=O)(=O)[O-])ccc4F)c4ccc([nH]4)c(-c4cc(S(=O)(=O)[O-])ccc4F)c4nc(c(-c5cc(S(=O)(=O)[O-])ccc5F)c5ccc2[nH]5)C=C4)C=C3)cc1
REMARK SMILES IDX 7 1 6 2 5 3 4 4 3 5 2 6 1 7 41 8 42 9 103 10 43 11 102 12
REMARK SMILES IDX 44 13 45 14 46 15 96 16 47 17 101 18 95 19 97 20 48 21
REMARK SMILES IDX 100 22 94 23 93 24 49 26 81 27 61 28 80 29 62 30 65 31 79 32
REMARK SMILES IDX 98 33 63 34 64 35 78 37 99 38 66 39 50 40 51 41 59 42 52 43
REMARK SMILES IDX 58 44 60 45 57 46 53 47 54 48 55 49 56 50 82 51 83 52 91 53
REMARK SMILES IDX 84 54 90 55 92 56 89 57 85 58 86 59 87 60 88 61 67 62 68 63
REMARK SMILES IDX 76 64 69 65 75 66 77 67 74 68 70 69 71 70 72 71 73 72 8 73
REMARK SMILES IDX 9 74 10 75 11 76 12 77 13 78 14 79 15 80 16 81 17 82 18 83
REMARK SMILES IDX 22 84 19 85 21 86 20 87 23 88 24 89 39 90 25 91 26 92 38 93
REMARK SMILES IDX 40 94 27 95 28 96 29 97 37 98 30 99 36 100 31 101 35 102
REMARK SMILES IDX 32 103 34 104 33 105
REMARK H PARENT 97 25 65 36
REMARK Flexibility Score: inf
ROOT
ATOM      1  C   UNL A   1      40.505  20.445  26.812  1.00  0.00     0.188 C 
ENDROOT
BRANCH   1   2
ATOM      2  O   UNL A   1      41.422  19.813  25.909  1.00  0.00    -0.376 OA
BRANCH   2   3
ATOM      3  C   UNL A   1      42.294  18.866  26.529  1.00  0.00     0.202 C 
BRANCH   3   4
ATOM      4  C   UNL A   1      43.465  18.342  25.685  1.00  0.00     0.261 C 
BRANCH   4   5
ATOM      5  O   UNL A   1      43.840  19.163  24.569  1.00  0.00    -0.460 OA
BRANCH   5   6
ATOM      6  C   UNL A   1      44.690  20.213  24.486  1.00  0.00     0.338 C 
ATOM      7  O   UNL A   1      45.749  20.031  23.880  1.00  0.00    -0.246 OA
BRANCH   6   8
ATOM      8  C   UNL A   1      44.462  21.563  25.095  1.00  0.00     0.060 A 
ATOM      9  C   UNL A   1      44.094  22.718  24.410  1.00  0.00     0.016 A 
ATOM     10  C   UNL A   1      44.691  21.678  26.485  1.00  0.00     0.016 A 
ATOM     11  C   UNL A   1      44.006  23.945  25.065  1.00  0.00     0.010 A 
ATOM     12  C   UNL A   1      44.613  22.909  27.151  1.00  0.00     0.010 A 
ATOM     13  C   UNL A   1      44.298  24.057  26.427  1.00  0.00    -0.014 A 
BRANCH  13  14
ATOM     14  C   UNL A   1      44.495  25.420  26.967  1.00  0.00     0.031 A 
ATOM     15  C   UNL A   1      45.815  26.078  26.684  1.00  0.00     0.074 A 
ATOM     16  C   UNL A   1      43.485  26.095  27.542  1.00  0.00     0.049 A 
ATOM     17  N   UNL A   1      46.192  27.311  26.886  1.00  0.00    -0.248 NA
ATOM     18  C   UNL A   1      46.842  25.220  26.072  1.00  0.00     0.031 C 
ATOM     19  C   UNL A   1      42.159  25.548  27.804  1.00  0.00     0.029 A 
ATOM     20  N   UNL A   1      43.390  27.404  27.937  1.00  0.00    -0.354 N 
ATOM     21  C   UNL A   1      47.511  27.371  26.448  1.00  0.00     0.074 A 
ATOM     22  C   UNL A   1      47.847  26.066  25.926  1.00  0.00     0.031 C 
ATOM     23  C   UNL A   1      41.350  26.540  28.211  1.00  0.00     0.029 A 
ATOM     24  C   UNL A   1      42.120  27.775  28.321  1.00  0.00     0.049 A 
ATOM     25  H   UNL A   1      44.157  28.021  27.946  1.00  0.00     0.167 HD
ATOM     26  C   UNL A   1      48.380  28.407  26.536  1.00  0.00     0.034 A 
ATOM     27  C   UNL A   1      41.649  28.977  28.718  1.00  0.00     0.034 A 
ATOM     28  C   UNL A   1      48.045  29.655  27.169  1.00  0.00     0.049 A 
ATOM     29  C   UNL A   1      42.645  30.109  28.838  1.00  0.00     0.074 A 
ATOM     30  C   UNL A   1      48.867  30.719  27.487  1.00  0.00     0.029 A 
ATOM     31  N   UNL A   1      46.770  29.987  27.617  1.00  0.00    -0.354 N 
ATOM     32  N   UNL A   1      43.912  30.137  28.485  1.00  0.00    -0.248 NA
ATOM     33  C   UNL A   1      42.166  31.355  29.451  1.00  0.00     0.031 C 
ATOM     34  C   UNL A   1      48.104  31.662  28.188  1.00  0.00     0.029 A 
ATOM     35  C   UNL A   1      46.790  31.225  28.234  1.00  0.00     0.049 A 
ATOM     36  H   UNL A   1      45.970  29.423  27.511  1.00  0.00     0.167 HD
ATOM     37  C   UNL A   1      44.382  31.393  28.856  1.00  0.00     0.074 A 
ATOM     38  C   UNL A   1      43.251  32.115  29.402  1.00  0.00     0.031 C 
ATOM     39  C   UNL A   1      45.639  31.902  28.783  1.00  0.00     0.034 A 
BRANCH  26  40
ATOM     40  C   UNL A   1      49.796  28.117  26.103  1.00  0.00     0.023 A 
ATOM     41  C   UNL A   1      50.204  28.252  24.764  1.00  0.00     0.031 A 
ATOM     42  C   UNL A   1      50.690  27.522  27.010  1.00  0.00     0.131 A 
ATOM     43  C   UNL A   1      51.424  27.695  24.350  1.00  0.00     0.055 A 
ATOM     44  C   UNL A   1      51.942  27.053  26.609  1.00  0.00     0.041 A 
ATOM     45  F   UNL A   1      50.337  27.328  28.291  1.00  0.00    -0.206 F 
ATOM     46  C   UNL A   1      52.305  27.116  25.267  1.00  0.00     0.022 A 
BRANCH  43  47
ATOM     47  S   UNL A   1      51.742  27.535  22.569  1.00  0.00     0.124 S 
ATOM     48  O   UNL A   1      51.861  28.935  22.165  1.00  0.00    -0.237 OA
ATOM     49  O   UNL A   1      52.973  26.755  22.537  1.00  0.00    -0.237 OA
ATOM     50  O   UNL A   1      50.553  26.850  22.067  1.00  0.00    -0.744 OA
ENDBRANCH  43  47
ENDBRANCH  26  40
BRANCH  27  51
ATOM     51  C   UNL A   1      40.214  29.180  29.093  1.00  0.00     0.023 A 
ATOM     52  C   UNL A   1      39.810  29.172  30.440  1.00  0.00     0.031 A 
ATOM     53  C   UNL A   1      39.207  29.293  28.116  1.00  0.00     0.131 A 
ATOM     54  C   UNL A   1      38.445  29.210  30.767  1.00  0.00     0.055 A 
ATOM     55  C   UNL A   1      37.857  29.425  28.451  1.00  0.00     0.041 A 
ATOM     56  F   UNL A   1      39.519  29.278  26.811  1.00  0.00    -0.206 F 
ATOM     57  C   UNL A   1      37.467  29.370  29.784  1.00  0.00     0.022 A 
BRANCH  54  58
ATOM     58  S   UNL A   1      37.948  28.951  32.494  1.00  0.00     0.124 S 
ATOM     59  O   UNL A   1      39.036  29.608  33.208  1.00  0.00    -0.237 OA
ATOM     60  O   UNL A   1      36.652  29.621  32.551  1.00  0.00    -0.237 OA
ATOM     61  O   UNL A   1      37.909  27.496  32.619  1.00  0.00    -0.744 OA
ENDBRANCH  54  58
ENDBRANCH  27  51
BRANCH  39  62
ATOM     62  C   UNL A   1      45.840  33.298  29.310  1.00  0.00     0.023 A 
ATOM     63  C   UNL A   1      45.638  34.425  28.495  1.00  0.00     0.031 A 
ATOM     64  C   UNL A   1      46.203  33.500  30.652  1.00  0.00     0.131 A 
ATOM     65  C   UNL A   1      45.837  35.709  29.022  1.00  0.00     0.055 A 
ATOM     66  C   UNL A   1      46.352  34.780  31.184  1.00  0.00     0.041 A 
ATOM     67  F   UNL A   1      46.402  32.454  31.469  1.00  0.00    -0.206 F 
ATOM     68  C   UNL A   1      46.176  35.894  30.366  1.00  0.00     0.022 A 
BRANCH  65  69
ATOM     69  S   UNL A   1      45.689  37.141  27.919  1.00  0.00     0.124 S 
ATOM     70  O   UNL A   1      45.129  36.538  26.713  1.00  0.00    -0.237 OA
ATOM     71  O   UNL A   1      44.796  38.022  28.665  1.00  0.00    -0.237 OA
ATOM     72  O   UNL A   1      47.064  37.619  27.792  1.00  0.00    -0.744 OA
ENDBRANCH  65  69
ENDBRANCH  39  62
ENDBRANCH  13  14
ENDBRANCH   6   8
ENDBRANCH   5   6
ENDBRANCH   4   5
ENDBRANCH   3   4
ENDBRANCH   2   3
ENDBRANCH   1   2
BRANCH   1  73
ATOM     73  C   UNL A   1      39.673  21.519  26.114  1.00  0.00     0.188 C 
BRANCH  73  74
ATOM     74  O   UNL A   1      38.317  21.148  25.862  1.00  0.00    -0.376 OA
BRANCH  74  75
ATOM     75  C   UNL A   1      37.649  21.826  24.803  1.00  0.00     0.202 C 
BRANCH  75  76
ATOM     76  C   UNL A   1      36.130  21.737  24.842  1.00  0.00     0.261 C 
BRANCH  76  77
ATOM     77  O   UNL A   1      35.595  22.237  26.077  1.00  0.00    -0.462 OA
BRANCH  77  78
ATOM     78  C   UNL A   1      34.389  21.753  26.475  1.00  0.00     0.329 C 
ATOM     79  O   UNL A   1      34.103  21.436  27.625  1.00  0.00    -0.250 OA
BRANCH  78  80
ATOM     80  C   UNL A   1      33.458  21.523  25.286  1.00  0.00     0.206 C 
BRANCH  80  81
ATOM     81  C   UNL A   1      32.560  20.270  25.386  1.00  0.00     0.073 C 
BRANCH  81  82
ATOM     82  C   UNL A   1      33.133  18.893  25.135  1.00  0.00    -0.045 A 
ATOM     83  C   UNL A   1      34.184  18.638  24.253  1.00  0.00     0.004 A 
ATOM     84  C   UNL A   1      32.496  17.790  25.723  1.00  0.00     0.004 A 
ATOM     85  C   UNL A   1      34.555  17.326  23.945  1.00  0.00     0.000 A 
ATOM     86  C   UNL A   1      32.850  16.479  25.408  1.00  0.00     0.000 A 
ATOM     87  C   UNL A   1      33.877  16.247  24.507  1.00  0.00     0.000 A 
ENDBRANCH  81  82
ENDBRANCH  80  81
BRANCH  80  88
ATOM     88  N   UNL A   1      32.810  22.716  24.708  1.00  0.00    -0.278 N 
ATOM     89  C   UNL A   1      32.725  23.829  25.540  1.00  0.00     0.267 C 
ATOM     90  C   UNL A   1      32.364  22.900  23.411  1.00  0.00     0.149 C 
ATOM     91  O   UNL A   1      32.953  23.844  26.740  1.00  0.00    -0.268 OA
ATOM     92  C   UNL A   1      32.265  25.008  24.779  1.00  0.00     0.081 C 
ATOM     93  S   UNL A   1      31.709  24.513  23.231  1.00  0.00    -0.054 SA
ATOM     94  S   UNL A   1      32.323  21.874  22.095  1.00  0.00    -0.052 S 
ATOM     95  C   UNL A   1      32.303  26.264  25.246  1.00  0.00     0.029 C 
BRANCH  95  96
ATOM     96  C   UNL A   1      31.717  27.354  24.465  1.00  0.00    -0.024 A 
ATOM     97  C   UNL A   1      32.462  28.079  23.542  1.00  0.00     0.010 A 
ATOM     98  C   UNL A   1      30.331  27.517  24.510  1.00  0.00     0.018 A 
ATOM     99  C   UNL A   1      31.809  28.922  22.633  1.00  0.00     0.029 A 
ATOM    100  C   UNL A   1      29.685  28.312  23.561  1.00  0.00     0.001 A 
ATOM    101  C   UNL A   1      30.424  29.024  22.592  1.00  0.00     0.070 A 
ATOM    102  C   UNL A   1      28.289  28.370  23.521  1.00  0.00     0.012 A 
ATOM    103  N   UNL A   1      29.812  29.743  21.628  1.00  0.00    -0.256 NA
ATOM    104  C   UNL A   1      27.663  29.110  22.530  1.00  0.00     0.021 A 
ATOM    105  C   UNL A   1      28.462  29.775  21.620  1.00  0.00     0.112 A 
ENDBRANCH  95  96
ENDBRANCH  80  88
ENDBRANCH  78  80
ENDBRANCH  77  78
ENDBRANCH  76  77
ENDBRANCH  75  76
ENDBRANCH  74  75
ENDBRANCH  73  74
ENDBRANCH   1  73
TORSDOF 24
ENDMDL
MODEL 3
REMARK VINA RESULT:     -11.3      5.756      8.170
REMARK SMILES O=C(OCCOCCOCCOC(=O)[C@@H](Cc1ccccc1)N1C(=O)/C(=C/c2ccc3ncccc3c2)SC1=S)c1ccc(-c2c3nc(c(-c4cc(S(=O)(=O)[O-])ccc4F)c4ccc([nH]4)c(-c4cc(S(=O)(=O)[O-])ccc4F)c4nc(c(-c5cc(S(=O)(=O)[O-])ccc5F)c5ccc2[nH]5)C=C4)C=C3)cc1
REMARK SMILES IDX 7 1 6 2 5 3 4 4 3 5 2 6 1 7 41 8 42 9 103 10 43 11 102 12
REMARK SMILES IDX 44 13 45 14 46 15 96 16 47 17 101 18 95 19 97 20 48 21
REMARK SMILES IDX 100 22 94 23 93 24 49 26 81 27 61 28 80 29 62 30 65 31 79 32
REMARK SMILES IDX 98 33 63 34 64 35 78 37 99 38 66 39 50 40 51 41 59 42 52 43
REMARK SMILES IDX 58 44 60 45 57 46 53 47 54 48 55 49 56 50 82 51 83 52 91 53
REMARK SMILES IDX 84 54 90 55 92 56 89 57 85 58 86 59 87 60 88 61 67 62 68 63
REMARK SMILES IDX 76 64 69 65 75 66 77 67 74 68 70 69 71 70 72 71 73 72 8 73
REMARK SMILES IDX 9 74 10 75 11 76 12 77 13 78 14 79 15 80 16 81 17 82 18 83
REMARK SMILES IDX 22 84 19 85 21 86 20 87 23 88 24 89 39 90 25 91 26 92 38 93
REMARK SMILES IDX 40 94 27 95 28 96 29 97 37 98 30 99 36 100 31 101 35 102
REMARK SMILES IDX 32 103 34 104 33 105
REMARK H PARENT 97 25 65 36
REMARK Flexibility Score: inf
ROOT
ATOM      1  C   UNL A   1      40.518  20.533  26.128  1.00  0.00     0.188 C 
ENDROOT
BRANCH   1   2
ATOM      2  O   UNL A   1      41.869  20.875  25.795  1.00  0.00    -0.376 OA
BRANCH   2   3
ATOM      3  C   UNL A   1      42.839  19.923  26.234  1.00  0.00     0.202 C 
BRANCH   3   4
ATOM      4  C   UNL A   1      43.220  18.811  25.245  1.00  0.00     0.261 C 
BRANCH   4   5
ATOM      5  O   UNL A   1      44.222  19.159  24.278  1.00  0.00    -0.460 OA
BRANCH   5   6
ATOM      6  C   UNL A   1      45.290  19.984  24.367  1.00  0.00     0.338 C 
ATOM      7  O   UNL A   1      46.399  19.495  24.138  1.00  0.00    -0.246 OA
BRANCH   6   8
ATOM      8  C   UNL A   1      45.237  21.433  24.750  1.00  0.00     0.060 A 
ATOM      9  C   UNL A   1      44.896  22.489  23.909  1.00  0.00     0.016 A 
ATOM     10  C   UNL A   1      45.616  21.753  26.073  1.00  0.00     0.016 A 
ATOM     11  C   UNL A   1      44.975  23.810  24.346  1.00  0.00     0.010 A 
ATOM     12  C   UNL A   1      45.707  23.079  26.519  1.00  0.00     0.010 A 
ATOM     13  C   UNL A   1      45.414  24.117  25.637  1.00  0.00    -0.014 A 
BRANCH  13  14
ATOM     14  C   UNL A   1      45.776  25.524  25.912  1.00  0.00     0.031 A 
ATOM     15  C   UNL A   1      44.716  26.388  26.534  1.00  0.00     0.074 A 
ATOM     16  C   UNL A   1      47.037  25.963  25.761  1.00  0.00     0.049 A 
ATOM     17  N   UNL A   1      44.807  27.591  27.030  1.00  0.00    -0.248 NA
ATOM     18  C   UNL A   1      43.372  25.794  26.619  1.00  0.00     0.031 C 
ATOM     19  C   UNL A   1      48.135  25.173  25.216  1.00  0.00     0.029 A 
ATOM     20  N   UNL A   1      47.625  27.147  26.122  1.00  0.00    -0.354 N 
ATOM     21  C   UNL A   1      43.524  27.910  27.463  1.00  0.00     0.074 A 
ATOM     22  C   UNL A   1      42.691  26.755  27.217  1.00  0.00     0.031 C 
ATOM     23  C   UNL A   1      49.284  25.850  25.381  1.00  0.00     0.029 A 
ATOM     24  C   UNL A   1      48.994  27.155  25.965  1.00  0.00     0.049 A 
ATOM     25  H   UNL A   1      47.117  27.919  26.462  1.00  0.00     0.167 HD
ATOM     26  C   UNL A   1      43.073  29.087  27.962  1.00  0.00     0.034 A 
ATOM     27  C   UNL A   1      49.896  28.117  26.258  1.00  0.00     0.034 A 
ATOM     28  C   UNL A   1      43.907  30.253  28.084  1.00  0.00     0.049 A 
ATOM     29  C   UNL A   1      49.364  29.432  26.784  1.00  0.00     0.074 A 
ATOM     30  C   UNL A   1      43.550  31.550  28.403  1.00  0.00     0.029 A 
ATOM     31  N   UNL A   1      45.279  30.262  27.851  1.00  0.00    -0.354 N 
ATOM     32  N   UNL A   1      48.136  29.749  27.128  1.00  0.00    -0.248 NA
ATOM     33  C   UNL A   1      50.328  30.533  26.918  1.00  0.00     0.031 C 
ATOM     34  C   UNL A   1      44.693  32.353  28.294  1.00  0.00     0.029 A 
ATOM     35  C   UNL A   1      45.777  31.545  27.990  1.00  0.00     0.049 A 
ATOM     36  H   UNL A   1      45.817  29.470  27.621  1.00  0.00     0.167 HD
ATOM     37  C   UNL A   1      48.177  31.091  27.496  1.00  0.00     0.074 A 
ATOM     38  C   UNL A   1      49.561  31.506  27.391  1.00  0.00     0.031 C 
ATOM     39  C   UNL A   1      47.166  31.920  27.859  1.00  0.00     0.034 A 
BRANCH  26  40
ATOM     40  C   UNL A   1      41.587  29.171  28.208  1.00  0.00     0.023 A 
ATOM     41  C   UNL A   1      41.039  29.020  29.495  1.00  0.00     0.031 A 
ATOM     42  C   UNL A   1      40.705  29.218  27.114  1.00  0.00     0.131 A 
ATOM     43  C   UNL A   1      39.660  28.807  29.640  1.00  0.00     0.055 A 
ATOM     44  C   UNL A   1      39.324  29.097  27.277  1.00  0.00     0.041 A 
ATOM     45  F   UNL A   1      41.175  29.318  25.861  1.00  0.00    -0.206 F 
ATOM     46  C   UNL A   1      38.796  28.866  28.544  1.00  0.00     0.022 A 
BRANCH  43  47
ATOM     47  S   UNL A   1      39.039  28.227  31.247  1.00  0.00     0.124 S 
ATOM     48  O   UNL A   1      38.584  26.878  30.917  1.00  0.00    -0.237 OA
ATOM     49  O   UNL A   1      40.223  28.312  32.092  1.00  0.00    -0.237 OA
ATOM     50  O   UNL A   1      37.973  29.174  31.564  1.00  0.00    -0.744 OA
ENDBRANCH  43  47
ENDBRANCH  26  40
BRANCH  27  51
ATOM     51  C   UNL A   1      51.360  27.928  26.014  1.00  0.00     0.023 A 
ATOM     52  C   UNL A   1      51.884  27.935  24.709  1.00  0.00     0.031 A 
ATOM     53  C   UNL A   1      52.251  27.647  27.067  1.00  0.00     0.131 A 
ATOM     54  C   UNL A   1      53.231  27.605  24.487  1.00  0.00     0.055 A 
ATOM     55  C   UNL A   1      53.612  27.411  26.849  1.00  0.00     0.041 A 
ATOM     56  F   UNL A   1      51.814  27.595  28.334  1.00  0.00    -0.206 F 
ATOM     57  C   UNL A   1      54.106  27.376  25.551  1.00  0.00     0.022 A 
BRANCH  54  58
ATOM     58  S   UNL A   1      53.811  27.383  22.781  1.00  0.00     0.124 S 
ATOM     59  O   UNL A   1      53.919  28.766  22.332  1.00  0.00    -0.237 OA
ATOM     60  O   UNL A   1      55.075  26.675  22.971  1.00  0.00    -0.237 OA
ATOM     61  O   UNL A   1      52.742  26.606  22.161  1.00  0.00    -0.744 OA
ENDBRANCH  54  58
ENDBRANCH  27  51
BRANCH  39  62
ATOM     62  C   UNL A   1      47.531  33.349  28.162  1.00  0.00     0.023 A 
ATOM     63  C   UNL A   1      47.864  33.759  29.465  1.00  0.00     0.031 A 
ATOM     64  C   UNL A   1      47.580  34.299  27.129  1.00  0.00     0.131 A 
ATOM     65  C   UNL A   1      48.198  35.099  29.707  1.00  0.00     0.055 A 
ATOM     66  C   UNL A   1      47.960  35.619  27.367  1.00  0.00     0.041 A 
ATOM     67  F   UNL A   1      47.274  33.951  25.868  1.00  0.00    -0.206 F 
ATOM     68  C   UNL A   1      48.264  36.027  28.663  1.00  0.00     0.022 A 
BRANCH  65  69
ATOM     69  S   UNL A   1      48.504  35.629  31.414  1.00  0.00     0.124 S 
ATOM     70  O   UNL A   1      49.962  35.603  31.484  1.00  0.00    -0.237 OA
ATOM     71  O   UNL A   1      47.888  36.952  31.447  1.00  0.00    -0.237 OA
ATOM     72  O   UNL A   1      47.826  34.613  32.216  1.00  0.00    -0.744 OA
ENDBRANCH  65  69
ENDBRANCH  39  62
ENDBRANCH  13  14
ENDBRANCH   6   8
ENDBRANCH   5   6
ENDBRANCH   4   5
ENDBRANCH   3   4
ENDBRANCH   2   3
ENDBRANCH   1   2
BRANCH   1  73
ATOM     73  C   UNL A   1      39.659  21.775  26.359  1.00  0.00     0.188 C 
BRANCH  73  74
ATOM     74  O   UNL A   1      38.303  21.647  25.926  1.00  0.00    -0.376 OA
BRANCH  74  75
ATOM     75  C   UNL A   1      37.606  22.852  25.626  1.00  0.00     0.202 C 
BRANCH  75  76
ATOM     76  C   UNL A   1      36.206  22.658  25.062  1.00  0.00     0.261 C 
BRANCH  76  77
ATOM     77  O   UNL A   1      35.191  23.017  26.011  1.00  0.00    -0.462 OA
BRANCH  77  78
ATOM     78  C   UNL A   1      34.245  22.083  26.297  1.00  0.00     0.329 C 
ATOM     79  O   UNL A   1      34.233  21.379  27.301  1.00  0.00    -0.250 OA
BRANCH  78  80
ATOM     80  C   UNL A   1      33.256  21.918  25.144  1.00  0.00     0.206 C 
BRANCH  80  81
ATOM     81  C   UNL A   1      32.282  20.727  25.280  1.00  0.00     0.073 C 
BRANCH  81  82
ATOM     82  C   UNL A   1      32.575  19.413  24.590  1.00  0.00    -0.045 A 
ATOM     83  C   UNL A   1      33.308  18.378  25.170  1.00  0.00     0.004 A 
ATOM     84  C   UNL A   1      32.199  19.270  23.245  1.00  0.00     0.004 A 
ATOM     85  C   UNL A   1      33.681  17.259  24.419  1.00  0.00     0.000 A 
ATOM     86  C   UNL A   1      32.581  18.165  22.486  1.00  0.00     0.000 A 
ATOM     87  C   UNL A   1      33.335  17.161  23.074  1.00  0.00     0.000 A 
ENDBRANCH  81  82
ENDBRANCH  80  81
BRANCH  80  88
ATOM     88  N   UNL A   1      32.666  23.153  24.592  1.00  0.00    -0.278 N 
ATOM     89  C   UNL A   1      32.105  24.029  25.517  1.00  0.00     0.267 C 
ATOM     90  C   UNL A   1      32.687  23.595  23.281  1.00  0.00     0.149 C 
ATOM     91  O   UNL A   1      31.886  23.783  26.693  1.00  0.00    -0.268 OA
ATOM     92  C   UNL A   1      31.756  25.310  24.868  1.00  0.00     0.081 C 
ATOM     93  S   UNL A   1      31.879  25.143  23.163  1.00  0.00    -0.054 SA
ATOM     94  S   UNL A   1      33.290  22.906  21.886  1.00  0.00    -0.052 S 
ATOM     95  C   UNL A   1      31.415  26.420  25.537  1.00  0.00     0.029 C 
BRANCH  95  96
ATOM     96  C   UNL A   1      30.972  27.608  24.806  1.00  0.00    -0.024 A 
ATOM     97  C   UNL A   1      31.873  28.538  24.301  1.00  0.00     0.010 A 
ATOM     98  C   UNL A   1      29.627  27.683  24.438  1.00  0.00     0.018 A 
ATOM     99  C   UNL A   1      31.432  29.505  23.388  1.00  0.00     0.029 A 
ATOM    100  C   UNL A   1      29.210  28.611  23.480  1.00  0.00     0.001 A 
ATOM    101  C   UNL A   1      30.121  29.537  22.929  1.00  0.00     0.070 A 
ATOM    102  C   UNL A   1      27.893  28.599  23.012  1.00  0.00     0.012 A 
ATOM    103  N   UNL A   1      29.750  30.396  21.956  1.00  0.00    -0.256 NA
ATOM    104  C   UNL A   1      27.515  29.483  22.014  1.00  0.00     0.021 A 
ATOM    105  C   UNL A   1      28.470  30.356  21.528  1.00  0.00     0.112 A 
ENDBRANCH  95  96
ENDBRANCH  80  88
ENDBRANCH  78  80
ENDBRANCH  77  78
ENDBRANCH  76  77
ENDBRANCH  75  76
ENDBRANCH  74  75
ENDBRANCH  73  74
ENDBRANCH   1  73
TORSDOF 24
ENDMDL
