MODEL 1
REMARK VINA RESULT:     -11.0      0.000      0.000
REMARK SMILES CC(C)Cc1cc2c(cc1Cl)C=C(C(=O)OCCOCCOCCOC(=O)c1ccc(-c3c4nc(c(-c5cc(S(=O)(=O)[O-])ccc5F)c5ccc([nH]5)c(-c5cc(S(=O)(=O)[O-])ccc5F)c5nc(c(-c6cc(S(=O)(=O)[O-])ccc6F)c6ccc3[nH]6)C=C5)C=C4)cc1)[C@H](C(F)(F)F)O2
REMARK SMILES IDX 21 1 20 2 19 3 18 4 17 5 16 6 14 7 15 8 13 9 5 10 6 11 10 12
REMARK SMILES IDX 7 13 9 14 11 15 8 16 96 17 12 18 91 19 4 20 2 21 1 22 3 23
REMARK SMILES IDX 92 24 93 25 94 26 95 27 22 28 23 29 24 30 25 31 26 32 27 33
REMARK SMILES IDX 28 34 29 35 90 36 30 37 89 38 31 39 32 40 33 41 83 42 34 43
REMARK SMILES IDX 88 44 82 45 84 46 35 47 87 48 81 49 80 50 36 52 68 53 48 54
REMARK SMILES IDX 67 55 49 56 52 57 66 58 85 59 50 60 51 61 65 63 86 64 53 65
REMARK SMILES IDX 37 66 38 67 46 68 39 69 45 70 47 71 44 72 40 73 41 74 42 75
REMARK SMILES IDX 43 76 69 77 70 78 78 79 71 80 77 81 79 82 76 83 72 84 73 85
REMARK SMILES IDX 74 86 75 87 54 88 55 89 63 90 56 91 62 92 64 93 61 94 57 95
REMARK SMILES IDX 58 96 59 97 60 98
REMARK H PARENT 84 51 52 62
REMARK Flexibility Score: inf
ROOT
ATOM      1  C   UNL A   1      36.368  20.192  24.906  1.00  0.00     0.188 C 
ENDROOT
BRANCH   1   2
ATOM      2  C   UNL A   1      35.636  21.371  25.571  1.00  0.00     0.188 C 
BRANCH   2   3
ATOM      3  O   UNL A   1      34.228  21.512  25.425  1.00  0.00    -0.376 OA
BRANCH   3   4
ATOM      4  C   UNL A   1      33.629  21.375  24.142  1.00  0.00     0.202 C 
BRANCH   4   5
ATOM      5  C   UNL A   1      32.934  22.596  23.521  1.00  0.00     0.261 C 
BRANCH   5   6
ATOM      6  O   UNL A   1      33.327  23.861  24.089  1.00  0.00    -0.460 OA
BRANCH   6   7
ATOM      7  C   UNL A   1      33.374  24.897  23.223  1.00  0.00     0.338 C 
ATOM      8  O   UNL A   1      33.938  24.916  22.141  1.00  0.00    -0.246 OA
BRANCH   7   9
ATOM      9  C   UNL A   1      32.559  26.025  23.705  1.00  0.00     0.087 C 
ATOM     10  C   UNL A   1      29.030  29.587  23.534  1.00  0.00    -0.025 A 
ATOM     11  C   UNL A   1      30.431  29.590  23.691  1.00  0.00     0.052 A 
ATOM     12  C   UNL A   1      28.360  28.352  23.511  1.00  0.00     0.045 A 
ATOM     13  C   UNL A   1      31.146  28.394  23.749  1.00  0.00     0.128 A 
ATOM     14  C   UNL A   1      29.080  27.154  23.536  1.00  0.00     0.032 A 
ATOM     15  Cl  UNL A   1      26.640  28.235  23.406  1.00  0.00    -0.084 Cl
ATOM     16  C   UNL A   1      30.473  27.176  23.625  1.00  0.00     0.019 A 
ATOM     17  O   UNL A   1      32.514  28.487  23.826  1.00  0.00    -0.475 OA
ATOM     18  C   UNL A   1      31.248  25.960  23.435  1.00  0.00     0.027 C 
ATOM     19  C   UNL A   1      33.226  27.271  24.213  1.00  0.00     0.316 C 
BRANCH  10  20
ATOM     20  C   UNL A   1      28.329  30.907  23.288  1.00  0.00     0.040 C 
BRANCH  20  21
ATOM     21  C   UNL A   1      28.700  31.538  21.925  1.00  0.00    -0.013 C 
ATOM     22  C   UNL A   1      28.068  30.810  20.734  1.00  0.00     0.008 C 
ATOM     23  C   UNL A   1      28.280  33.009  21.893  1.00  0.00     0.008 C 
ENDBRANCH  20  21
ENDBRANCH  10  20
BRANCH  19  24
ATOM     24  C   UNL A   1      33.546  27.310  25.724  1.00  0.00     0.430 C 
ATOM     25  F   UNL A   1      34.380  28.306  26.077  1.00  0.00    -0.167 F 
ATOM     26  F   UNL A   1      32.407  27.492  26.443  1.00  0.00    -0.167 F 
ATOM     27  F   UNL A   1      34.106  26.160  26.168  1.00  0.00    -0.167 F 
ENDBRANCH  19  24
ENDBRANCH   7   9
ENDBRANCH   6   7
ENDBRANCH   5   6
ENDBRANCH   4   5
ENDBRANCH   3   4
ENDBRANCH   2   3
ENDBRANCH   1   2
BRANCH   1  28
ATOM     28  O   UNL A   1      37.775  20.329  24.897  1.00  0.00    -0.376 OA
BRANCH  28  29
ATOM     29  C   UNL A   1      38.310  21.514  25.461  1.00  0.00     0.202 C 
BRANCH  29  30
ATOM     30  C   UNL A   1      39.604  21.349  26.270  1.00  0.00     0.261 C 
BRANCH  30  31
ATOM     31  O   UNL A   1      40.129  20.016  26.348  1.00  0.00    -0.460 OA
BRANCH  31  32
ATOM     32  C   UNL A   1      41.455  19.847  26.132  1.00  0.00     0.338 C 
ATOM     33  O   UNL A   1      41.985  18.932  25.527  1.00  0.00    -0.246 OA
BRANCH  32  34
ATOM     34  C   UNL A   1      42.121  21.097  26.569  1.00  0.00     0.060 A 
ATOM     35  C   UNL A   1      42.561  22.019  25.617  1.00  0.00     0.016 A 
ATOM     36  C   UNL A   1      42.358  21.322  27.933  1.00  0.00     0.016 A 
ATOM     37  C   UNL A   1      43.228  23.171  26.031  1.00  0.00     0.010 A 
ATOM     38  C   UNL A   1      43.026  22.482  28.346  1.00  0.00     0.010 A 
ATOM     39  C   UNL A   1      43.453  23.424  27.397  1.00  0.00    -0.014 A 
BRANCH  39  40
ATOM     40  C   UNL A   1      43.966  24.758  27.799  1.00  0.00     0.031 A 
ATOM     41  C   UNL A   1      45.415  25.128  27.697  1.00  0.00     0.074 A 
ATOM     42  C   UNL A   1      43.068  25.668  28.226  1.00  0.00     0.049 A 
ATOM     43  N   UNL A   1      45.965  26.309  27.818  1.00  0.00    -0.248 NA
ATOM     44  C   UNL A   1      46.369  24.042  27.436  1.00  0.00     0.031 C 
ATOM     45  C   UNL A   1      41.642  25.394  28.414  1.00  0.00     0.029 A 
ATOM     46  N   UNL A   1      43.201  26.994  28.549  1.00  0.00    -0.354 N 
ATOM     47  C   UNL A   1      47.327  26.119  27.622  1.00  0.00     0.074 A 
ATOM     48  C   UNL A   1      47.526  24.697  27.433  1.00  0.00     0.031 C 
ATOM     49  C   UNL A   1      41.025  26.527  28.772  1.00  0.00     0.029 A 
ATOM     50  C   UNL A   1      42.009  27.603  28.864  1.00  0.00     0.049 A 
ATOM     51  H   UNL A   1      44.067  27.464  28.555  1.00  0.00     0.167 HD
ATOM     52  C   UNL A   1      48.309  27.055  27.581  1.00  0.00     0.034 A 
ATOM     53  C   UNL A   1      41.728  28.888  29.168  1.00  0.00     0.034 A 
ATOM     54  C   UNL A   1      48.084  28.467  27.792  1.00  0.00     0.049 A 
ATOM     55  C   UNL A   1      42.835  29.908  29.110  1.00  0.00     0.074 A 
ATOM     56  C   UNL A   1      49.006  29.498  27.726  1.00  0.00     0.029 A 
ATOM     57  N   UNL A   1      46.865  29.050  28.114  1.00  0.00    -0.354 N 
ATOM     58  N   UNL A   1      44.098  29.737  28.796  1.00  0.00    -0.248 NA
ATOM     59  C   UNL A   1      42.479  31.300  29.414  1.00  0.00     0.031 C 
ATOM     60  C   UNL A   1      48.367  30.684  28.084  1.00  0.00     0.029 A 
ATOM     61  C   UNL A   1      47.021  30.418  28.277  1.00  0.00     0.049 A 
ATOM     62  H   UNL A   1      46.015  28.563  28.213  1.00  0.00     0.167 HD
ATOM     63  C   UNL A   1      44.676  31.003  28.826  1.00  0.00     0.074 A 
ATOM     64  C   UNL A   1      43.621  31.932  29.168  1.00  0.00     0.031 C 
ATOM     65  C   UNL A   1      45.965  31.355  28.589  1.00  0.00     0.034 A 
BRANCH  52  66
ATOM     66  C   UNL A   1      49.722  26.621  27.265  1.00  0.00     0.023 A 
ATOM     67  C   UNL A   1      50.733  26.722  28.241  1.00  0.00     0.031 A 
ATOM     68  C   UNL A   1      50.100  26.278  25.954  1.00  0.00     0.131 A 
ATOM     69  C   UNL A   1      52.073  26.529  27.881  1.00  0.00     0.055 A 
ATOM     70  C   UNL A   1      51.433  26.041  25.612  1.00  0.00     0.041 A 
ATOM     71  F   UNL A   1      49.178  26.179  24.982  1.00  0.00    -0.206 F 
ATOM     72  C   UNL A   1      52.428  26.182  26.574  1.00  0.00     0.022 A 
BRANCH  69  73
ATOM     73  S   UNL A   1      53.416  26.808  29.070  1.00  0.00     0.124 S 
ATOM     74  O   UNL A   1      54.338  25.723  28.739  1.00  0.00    -0.237 OA
ATOM     75  O   UNL A   1      53.873  28.146  28.707  1.00  0.00    -0.237 OA
ATOM     76  O   UNL A   1      52.764  26.692  30.370  1.00  0.00    -0.744 OA
ENDBRANCH  69  73
ENDBRANCH  52  66
BRANCH  53  77
ATOM     77  C   UNL A   1      40.313  29.267  29.452  1.00  0.00     0.023 A 
ATOM     78  C   UNL A   1      39.831  29.316  30.773  1.00  0.00     0.031 A 
ATOM     79  C   UNL A   1      39.395  29.469  28.407  1.00  0.00     0.131 A 
ATOM     80  C   UNL A   1      38.462  29.491  31.011  1.00  0.00     0.055 A 
ATOM     81  C   UNL A   1      38.044  29.722  28.652  1.00  0.00     0.041 A 
ATOM     82  F   UNL A   1      39.799  29.410  27.129  1.00  0.00    -0.206 F 
ATOM     83  C   UNL A   1      37.568  29.714  29.960  1.00  0.00     0.022 A 
BRANCH  80  84
ATOM     84  S   UNL A   1      37.778  29.289  32.678  1.00  0.00     0.124 S 
ATOM     85  O   UNL A   1      37.693  27.837  32.800  1.00  0.00    -0.237 OA
ATOM     86  O   UNL A   1      38.801  29.932  33.499  1.00  0.00    -0.237 OA
ATOM     87  O   UNL A   1      36.502  29.994  32.616  1.00  0.00    -0.744 OA
ENDBRANCH  80  84
ENDBRANCH  53  77
BRANCH  65  88
ATOM     88  C   UNL A   1      46.347  32.818  28.651  1.00  0.00     0.023 A 
ATOM     89  C   UNL A   1      46.474  33.556  27.456  1.00  0.00     0.031 A 
ATOM     90  C   UNL A   1      46.732  33.436  29.852  1.00  0.00     0.131 A 
ATOM     91  C   UNL A   1      47.017  34.847  27.485  1.00  0.00     0.055 A 
ATOM     92  C   UNL A   1      47.219  34.745  29.882  1.00  0.00     0.041 A 
ATOM     93  F   UNL A   1      46.647  32.775  31.018  1.00  0.00    -0.206 F 
ATOM     94  C   UNL A   1      47.378  35.450  28.693  1.00  0.00     0.022 A 
BRANCH  91  95
ATOM     95  S   UNL A   1      47.371  35.749  25.950  1.00  0.00     0.124 S 
ATOM     96  O   UNL A   1      46.550  36.948  26.109  1.00  0.00    -0.237 OA
ATOM     97  O   UNL A   1      48.813  35.964  26.045  1.00  0.00    -0.237 OA
ATOM     98  O   UNL A   1      46.941  34.836  24.896  1.00  0.00    -0.744 OA
ENDBRANCH  91  95
ENDBRANCH  65  88
ENDBRANCH  39  40
ENDBRANCH  32  34
ENDBRANCH  31  32
ENDBRANCH  30  31
ENDBRANCH  29  30
ENDBRANCH  28  29
ENDBRANCH   1  28
TORSDOF 23
ENDMDL
MODEL 2
REMARK VINA RESULT:     -10.9      5.910     10.509
REMARK SMILES CC(C)Cc1cc2c(cc1Cl)C=C(C(=O)OCCOCCOCCOC(=O)c1ccc(-c3c4nc(c(-c5cc(S(=O)(=O)[O-])ccc5F)c5ccc([nH]5)c(-c5cc(S(=O)(=O)[O-])ccc5F)c5nc(c(-c6cc(S(=O)(=O)[O-])ccc6F)c6ccc3[nH]6)C=C5)C=C4)cc1)[C@H](C(F)(F)F)O2
REMARK SMILES IDX 21 1 20 2 19 3 18 4 17 5 16 6 14 7 15 8 13 9 5 10 6 11 10 12
REMARK SMILES IDX 7 13 9 14 11 15 8 16 96 17 12 18 91 19 4 20 2 21 1 22 3 23
REMARK SMILES IDX 92 24 93 25 94 26 95 27 22 28 23 29 24 30 25 31 26 32 27 33
REMARK SMILES IDX 28 34 29 35 90 36 30 37 89 38 31 39 32 40 33 41 83 42 34 43
REMARK SMILES IDX 88 44 82 45 84 46 35 47 87 48 81 49 80 50 36 52 68 53 48 54
REMARK SMILES IDX 67 55 49 56 52 57 66 58 85 59 50 60 51 61 65 63 86 64 53 65
REMARK SMILES IDX 37 66 38 67 46 68 39 69 45 70 47 71 44 72 40 73 41 74 42 75
REMARK SMILES IDX 43 76 69 77 70 78 78 79 71 80 77 81 79 82 76 83 72 84 73 85
REMARK SMILES IDX 74 86 75 87 54 88 55 89 63 90 56 91 62 92 64 93 61 94 57 95
REMARK SMILES IDX 58 96 59 97 60 98
REMARK H PARENT 84 51 52 62
REMARK Flexibility Score: inf
ROOT
ATOM      1  C   UNL A   1      32.017  30.477  26.121  1.00  0.00     0.188 C 
ENDROOT
BRANCH   1   2
ATOM      2  C   UNL A   1      31.635  29.207  25.342  1.00  0.00     0.188 C 
BRANCH   2   3
ATOM      3  O   UNL A   1      30.857  29.304  24.154  1.00  0.00    -0.376 OA
BRANCH   3   4
ATOM      4  C   UNL A   1      31.456  29.048  22.890  1.00  0.00     0.202 C 
BRANCH   4   5
ATOM      5  C   UNL A   1      31.534  27.596  22.394  1.00  0.00     0.261 C 
BRANCH   5   6
ATOM      6  O   UNL A   1      32.115  26.672  23.334  1.00  0.00    -0.460 OA
BRANCH   6   7
ATOM      7  C   UNL A   1      33.102  25.890  22.846  1.00  0.00     0.338 C 
ATOM      8  O   UNL A   1      33.834  26.146  21.904  1.00  0.00    -0.246 OA
BRANCH   7   9
ATOM      9  C   UNL A   1      33.271  24.679  23.667  1.00  0.00     0.087 C 
ATOM     10  C   UNL A   1      34.766  20.023  24.789  1.00  0.00    -0.025 A 
ATOM     11  C   UNL A   1      33.514  20.665  24.699  1.00  0.00     0.052 A 
ATOM     12  C   UNL A   1      35.929  20.799  24.649  1.00  0.00     0.045 A 
ATOM     13  C   UNL A   1      33.428  22.026  24.404  1.00  0.00     0.128 A 
ATOM     14  C   UNL A   1      35.842  22.155  24.322  1.00  0.00     0.032 A 
ATOM     15  Cl  UNL A   1      37.512  20.132  24.824  1.00  0.00    -0.084 Cl
ATOM     16  C   UNL A   1      34.593  22.760  24.170  1.00  0.00     0.019 A 
ATOM     17  O   UNL A   1      32.169  22.555  24.259  1.00  0.00    -0.475 OA
ATOM     18  C   UNL A   1      34.480  24.102  23.622  1.00  0.00     0.027 C 
ATOM     19  C   UNL A   1      32.073  24.013  24.279  1.00  0.00     0.316 C 
BRANCH  10  20
ATOM     20  C   UNL A   1      34.795  18.514  24.923  1.00  0.00     0.040 C 
BRANCH  20  21
ATOM     21  C   UNL A   1      33.640  17.823  24.161  1.00  0.00    -0.013 C 
ATOM     22  C   UNL A   1      34.128  16.869  23.066  1.00  0.00     0.008 C 
ATOM     23  C   UNL A   1      32.752  17.051  25.139  1.00  0.00     0.008 C 
ENDBRANCH  20  21
ENDBRANCH  10  20
BRANCH  19  24
ATOM     24  C   UNL A   1      31.667  24.491  25.691  1.00  0.00     0.430 C 
ATOM     25  F   UNL A   1      30.503  25.167  25.722  1.00  0.00    -0.167 F 
ATOM     26  F   UNL A   1      31.513  23.427  26.522  1.00  0.00    -0.167 F 
ATOM     27  F   UNL A   1      32.598  25.295  26.256  1.00  0.00    -0.167 F 
ENDBRANCH  19  24
ENDBRANCH   7   9
ENDBRANCH   6   7
ENDBRANCH   5   6
ENDBRANCH   4   5
ENDBRANCH   3   4
ENDBRANCH   2   3
ENDBRANCH   1   2
BRANCH   1  28
ATOM     28  O   UNL A   1      31.074  31.524  25.998  1.00  0.00    -0.376 OA
BRANCH  28  29
ATOM     29  C   UNL A   1      31.426  32.776  26.563  1.00  0.00     0.202 C 
BRANCH  29  30
ATOM     30  C   UNL A   1      32.721  32.803  27.386  1.00  0.00     0.261 C 
BRANCH  30  31
ATOM     31  O   UNL A   1      33.382  34.073  27.474  1.00  0.00    -0.460 OA
BRANCH  31  32
ATOM     32  C   UNL A   1      33.422  34.680  28.684  1.00  0.00     0.338 C 
ATOM     33  O   UNL A   1      32.615  35.478  29.127  1.00  0.00    -0.246 OA
BRANCH  32  34
ATOM     34  C   UNL A   1      34.503  34.022  29.455  1.00  0.00     0.060 A 
ATOM     35  C   UNL A   1      34.189  33.274  30.592  1.00  0.00     0.016 A 
ATOM     36  C   UNL A   1      35.841  34.199  29.074  1.00  0.00     0.016 A 
ATOM     37  C   UNL A   1      35.212  32.696  31.341  1.00  0.00     0.010 A 
ATOM     38  C   UNL A   1      36.867  33.614  29.827  1.00  0.00     0.010 A 
ATOM     39  C   UNL A   1      36.559  32.844  30.959  1.00  0.00    -0.014 A 
BRANCH  39  40
ATOM     40  C   UNL A   1      37.590  32.033  31.655  1.00  0.00     0.031 A 
ATOM     41  C   UNL A   1      38.299  30.891  30.991  1.00  0.00     0.074 A 
ATOM     42  C   UNL A   1      37.915  32.387  32.913  1.00  0.00     0.049 A 
ATOM     43  N   UNL A   1      39.353  30.236  31.405  1.00  0.00    -0.248 NA
ATOM     44  C   UNL A   1      37.758  30.417  29.711  1.00  0.00     0.031 C 
ATOM     45  C   UNL A   1      37.249  33.448  33.670  1.00  0.00     0.029 A 
ATOM     46  N   UNL A   1      38.888  31.926  33.765  1.00  0.00    -0.354 N 
ATOM     47  C   UNL A   1      39.623  29.287  30.427  1.00  0.00     0.074 A 
ATOM     48  C   UNL A   1      38.583  29.414  29.426  1.00  0.00     0.031 C 
ATOM     49  C   UNL A   1      37.862  33.590  34.853  1.00  0.00     0.029 A 
ATOM     50  C   UNL A   1      38.948  32.618  34.952  1.00  0.00     0.049 A 
ATOM     51  H   UNL A   1      39.485  31.174  33.546  1.00  0.00     0.167 HD
ATOM     52  C   UNL A   1      40.658  28.412  30.367  1.00  0.00     0.034 A 
ATOM     53  C   UNL A   1      39.795  32.505  35.996  1.00  0.00     0.034 A 
ATOM     54  C   UNL A   1      41.672  28.294  31.390  1.00  0.00     0.049 A 
ATOM     55  C   UNL A   1      40.940  31.530  35.902  1.00  0.00     0.074 A 
ATOM     56  C   UNL A   1      42.785  27.470  31.398  1.00  0.00     0.029 A 
ATOM     57  N   UNL A   1      41.700  29.005  32.582  1.00  0.00    -0.354 N 
ATOM     58  N   UNL A   1      41.260  30.728  34.913  1.00  0.00    -0.248 NA
ATOM     59  C   UNL A   1      41.859  31.464  37.046  1.00  0.00     0.031 C 
ATOM     60  C   UNL A   1      43.437  27.623  32.621  1.00  0.00     0.029 A 
ATOM     61  C   UNL A   1      42.794  28.616  33.341  1.00  0.00     0.049 A 
ATOM     62  H   UNL A   1      41.041  29.686  32.850  1.00  0.00     0.167 HD
ATOM     63  C   UNL A   1      42.438  30.093  35.300  1.00  0.00     0.074 A 
ATOM     64  C   UNL A   1      42.783  30.620  36.603  1.00  0.00     0.031 C 
ATOM     65  C   UNL A   1      43.161  29.160  34.630  1.00  0.00     0.034 A 
BRANCH  52  66
ATOM     66  C   UNL A   1      40.798  27.524  29.152  1.00  0.00     0.023 A 
ATOM     67  C   UNL A   1      41.714  27.850  28.133  1.00  0.00     0.031 A 
ATOM     68  C   UNL A   1      39.904  26.461  28.923  1.00  0.00     0.131 A 
ATOM     69  C   UNL A   1      41.685  27.153  26.918  1.00  0.00     0.055 A 
ATOM     70  C   UNL A   1      39.912  25.739  27.728  1.00  0.00     0.041 A 
ATOM     71  F   UNL A   1      39.003  26.114  29.856  1.00  0.00    -0.206 F 
ATOM     72  C   UNL A   1      40.794  26.095  26.713  1.00  0.00     0.022 A 
BRANCH  69  73
ATOM     73  S   UNL A   1      42.738  27.647  25.524  1.00  0.00     0.124 S 
ATOM     74  O   UNL A   1      44.006  27.929  26.193  1.00  0.00    -0.237 OA
ATOM     75  O   UNL A   1      42.726  26.448  24.692  1.00  0.00    -0.237 OA
ATOM     76  O   UNL A   1      42.059  28.811  24.966  1.00  0.00    -0.744 OA
ENDBRANCH  69  73
ENDBRANCH  52  66
BRANCH  53  77
ATOM     77  C   UNL A   1      39.627  33.420  37.162  1.00  0.00     0.023 A 
ATOM     78  C   UNL A   1      40.403  34.588  37.280  1.00  0.00     0.031 A 
ATOM     79  C   UNL A   1      38.777  33.084  38.230  1.00  0.00     0.131 A 
ATOM     80  C   UNL A   1      40.366  35.335  38.464  1.00  0.00     0.055 A 
ATOM     81  C   UNL A   1      38.684  33.875  39.376  1.00  0.00     0.041 A 
ATOM     82  F   UNL A   1      38.032  31.968  38.176  1.00  0.00    -0.206 F 
ATOM     83  C   UNL A   1      39.497  34.997  39.505  1.00  0.00     0.022 A 
BRANCH  80  84
ATOM     84  S   UNL A   1      41.548  36.681  38.748  1.00  0.00     0.124 S 
ATOM     85  O   UNL A   1      40.677  37.760  39.204  1.00  0.00    -0.237 OA
ATOM     86  O   UNL A   1      42.419  36.101  39.767  1.00  0.00    -0.237 OA
ATOM     87  O   UNL A   1      42.169  36.877  37.443  1.00  0.00    -0.744 OA
ENDBRANCH  80  84
ENDBRANCH  53  77
BRANCH  65  88
ATOM     88  C   UNL A   1      44.438  28.639  35.252  1.00  0.00     0.023 A 
ATOM     89  C   UNL A   1      44.369  27.718  36.318  1.00  0.00     0.031 A 
ATOM     90  C   UNL A   1      45.698  29.158  34.910  1.00  0.00     0.131 A 
ATOM     91  C   UNL A   1      45.527  27.382  37.030  1.00  0.00     0.055 A 
ATOM     92  C   UNL A   1      46.858  28.776  35.586  1.00  0.00     0.041 A 
ATOM     93  F   UNL A   1      45.821  30.051  33.914  1.00  0.00    -0.206 F 
ATOM     94  C   UNL A   1      46.774  27.897  36.662  1.00  0.00     0.022 A 
BRANCH  91  95
ATOM     95  S   UNL A   1      45.445  26.351  38.521  1.00  0.00     0.124 S 
ATOM     96  O   UNL A   1      46.473  26.958  39.365  1.00  0.00    -0.237 OA
ATOM     97  O   UNL A   1      44.070  26.563  38.966  1.00  0.00    -0.237 OA
ATOM     98  O   UNL A   1      45.749  25.008  38.040  1.00  0.00    -0.744 OA
ENDBRANCH  91  95
ENDBRANCH  65  88
ENDBRANCH  39  40
ENDBRANCH  32  34
ENDBRANCH  31  32
ENDBRANCH  30  31
ENDBRANCH  29  30
ENDBRANCH  28  29
ENDBRANCH   1  28
TORSDOF 23
ENDMDL
MODEL 3
REMARK VINA RESULT:     -10.9      5.978     11.039
REMARK SMILES CC(C)Cc1cc2c(cc1Cl)C=C(C(=O)OCCOCCOCCOC(=O)c1ccc(-c3c4nc(c(-c5cc(S(=O)(=O)[O-])ccc5F)c5ccc([nH]5)c(-c5cc(S(=O)(=O)[O-])ccc5F)c5nc(c(-c6cc(S(=O)(=O)[O-])ccc6F)c6ccc3[nH]6)C=C5)C=C4)cc1)[C@H](C(F)(F)F)O2
REMARK SMILES IDX 21 1 20 2 19 3 18 4 17 5 16 6 14 7 15 8 13 9 5 10 6 11 10 12
REMARK SMILES IDX 7 13 9 14 11 15 8 16 96 17 12 18 91 19 4 20 2 21 1 22 3 23
REMARK SMILES IDX 92 24 93 25 94 26 95 27 22 28 23 29 24 30 25 31 26 32 27 33
REMARK SMILES IDX 28 34 29 35 90 36 30 37 89 38 31 39 32 40 33 41 83 42 34 43
REMARK SMILES IDX 88 44 82 45 84 46 35 47 87 48 81 49 80 50 36 52 68 53 48 54
REMARK SMILES IDX 67 55 49 56 52 57 66 58 85 59 50 60 51 61 65 63 86 64 53 65
REMARK SMILES IDX 37 66 38 67 46 68 39 69 45 70 47 71 44 72 40 73 41 74 42 75
REMARK SMILES IDX 43 76 69 77 70 78 78 79 71 80 77 81 79 82 76 83 72 84 73 85
REMARK SMILES IDX 74 86 75 87 54 88 55 89 63 90 56 91 62 92 64 93 61 94 57 95
REMARK SMILES IDX 58 96 59 97 60 98
REMARK H PARENT 84 51 52 62
REMARK Flexibility Score: inf
ROOT
ATOM      1  C   UNL A   1      31.998  30.149  26.250  1.00  0.00     0.188 C 
ENDROOT
BRANCH   1   2
ATOM      2  C   UNL A   1      32.086  29.366  24.929  1.00  0.00     0.188 C 
BRANCH   2   3
ATOM      3  O   UNL A   1      30.960  29.301  24.060  1.00  0.00    -0.376 OA
BRANCH   3   4
ATOM      4  C   UNL A   1      30.481  28.040  23.611  1.00  0.00     0.202 C 
BRANCH   4   5
ATOM      5  C   UNL A   1      31.131  27.405  22.372  1.00  0.00     0.261 C 
BRANCH   5   6
ATOM      6  O   UNL A   1      31.662  26.083  22.586  1.00  0.00    -0.460 OA
BRANCH   6   7
ATOM      7  C   UNL A   1      32.906  26.034  23.110  1.00  0.00     0.338 C 
ATOM      8  O   UNL A   1      33.749  26.915  23.067  1.00  0.00    -0.246 OA
BRANCH   7   9
ATOM      9  C   UNL A   1      33.116  24.780  23.854  1.00  0.00     0.087 C 
ATOM     10  C   UNL A   1      34.853  20.154  24.724  1.00  0.00    -0.025 A 
ATOM     11  C   UNL A   1      33.568  20.725  24.621  1.00  0.00     0.052 A 
ATOM     12  C   UNL A   1      35.970  21.006  24.691  1.00  0.00     0.045 A 
ATOM     13  C   UNL A   1      33.409  22.095  24.415  1.00  0.00     0.128 A 
ATOM     14  C   UNL A   1      35.811  22.374  24.452  1.00  0.00     0.032 A 
ATOM     15  Cl  UNL A   1      37.583  20.425  24.891  1.00  0.00    -0.084 Cl
ATOM     16  C   UNL A   1      34.534  22.913  24.285  1.00  0.00     0.019 A 
ATOM     17  O   UNL A   1      32.126  22.557  24.249  1.00  0.00    -0.475 OA
ATOM     18  C   UNL A   1      34.360  24.281  23.825  1.00  0.00     0.027 C 
ATOM     19  C   UNL A   1      31.938  24.002  24.364  1.00  0.00     0.316 C 
BRANCH  10  20
ATOM     20  C   UNL A   1      34.972  18.645  24.757  1.00  0.00     0.040 C 
BRANCH  20  21
ATOM     21  C   UNL A   1      33.689  17.933  24.264  1.00  0.00    -0.013 C 
ATOM     22  C   UNL A   1      33.978  16.758  23.323  1.00  0.00     0.008 C 
ATOM     23  C   UNL A   1      32.875  17.430  25.457  1.00  0.00     0.008 C 
ENDBRANCH  20  21
ENDBRANCH  10  20
BRANCH  19  24
ATOM     24  C   UNL A   1      31.445  24.355  25.785  1.00  0.00     0.430 C 
ATOM     25  F   UNL A   1      32.264  25.189  26.452  1.00  0.00    -0.167 F 
ATOM     26  F   UNL A   1      30.236  24.973  25.724  1.00  0.00    -0.167 F 
ATOM     27  F   UNL A   1      31.284  23.261  26.567  1.00  0.00    -0.167 F 
ENDBRANCH  19  24
ENDBRANCH   7   9
ENDBRANCH   6   7
ENDBRANCH   5   6
ENDBRANCH   4   5
ENDBRANCH   3   4
ENDBRANCH   2   3
ENDBRANCH   1   2
BRANCH   1  28
ATOM     28  O   UNL A   1      31.061  31.208  26.221  1.00  0.00    -0.376 OA
BRANCH  28  29
ATOM     29  C   UNL A   1      31.495  32.465  26.713  1.00  0.00     0.202 C 
BRANCH  29  30
ATOM     30  C   UNL A   1      32.873  32.484  27.388  1.00  0.00     0.261 C 
BRANCH  30  31
ATOM     31  O   UNL A   1      33.415  33.781  27.672  1.00  0.00    -0.460 OA
BRANCH  31  32
ATOM     32  C   UNL A   1      33.470  34.171  28.967  1.00  0.00     0.338 C 
ATOM     33  O   UNL A   1      32.569  34.670  29.618  1.00  0.00    -0.246 OA
BRANCH  32  34
ATOM     34  C   UNL A   1      34.756  33.672  29.508  1.00  0.00     0.060 A 
ATOM     35  C   UNL A   1      34.757  32.693  30.504  1.00  0.00     0.016 A 
ATOM     36  C   UNL A   1      35.965  34.224  29.060  1.00  0.00     0.016 A 
ATOM     37  C   UNL A   1      35.967  32.259  31.044  1.00  0.00     0.010 A 
ATOM     38  C   UNL A   1      37.180  33.784  29.602  1.00  0.00     0.010 A 
ATOM     39  C   UNL A   1      37.190  32.785  30.588  1.00  0.00    -0.014 A 
BRANCH  39  40
ATOM     40  C   UNL A   1      38.453  32.140  31.030  1.00  0.00     0.031 A 
ATOM     41  C   UNL A   1      39.101  32.455  32.344  1.00  0.00     0.074 A 
ATOM     42  C   UNL A   1      38.989  31.205  30.222  1.00  0.00     0.049 A 
ATOM     43  N   UNL A   1      40.081  31.826  32.940  1.00  0.00    -0.248 NA
ATOM     44  C   UNL A   1      38.599  33.624  33.078  1.00  0.00     0.031 C 
ATOM     45  C   UNL A   1      38.468  30.861  28.898  1.00  0.00     0.029 A 
ATOM     46  N   UNL A   1      40.058  30.361  30.392  1.00  0.00    -0.354 N 
ATOM     47  C   UNL A   1      40.300  32.502  34.134  1.00  0.00     0.074 A 
ATOM     48  C   UNL A   1      39.388  33.628  34.148  1.00  0.00     0.031 C 
ATOM     49  C   UNL A   1      39.186  29.847  28.397  1.00  0.00     0.029 A 
ATOM     50  C   UNL A   1      40.233  29.483  29.348  1.00  0.00     0.049 A 
ATOM     51  H   UNL A   1      40.642  30.383  31.185  1.00  0.00     0.167 HD
ATOM     52  C   UNL A   1      41.166  32.190  35.130  1.00  0.00     0.034 A 
ATOM     53  C   UNL A   1      41.118  28.478  29.181  1.00  0.00     0.034 A 
ATOM     54  C   UNL A   1      42.079  31.071  35.082  1.00  0.00     0.049 A 
ATOM     55  C   UNL A   1      42.066  28.148  30.304  1.00  0.00     0.074 A 
ATOM     56  C   UNL A   1      42.963  30.646  36.060  1.00  0.00     0.029 A 
ATOM     57  N   UNL A   1      42.235  30.204  34.008  1.00  0.00    -0.354 N 
ATOM     58  N   UNL A   1      42.175  28.715  31.483  1.00  0.00    -0.248 NA
ATOM     59  C   UNL A   1      42.989  27.025  30.094  1.00  0.00     0.031 C 
ATOM     60  C   UNL A   1      43.704  29.581  35.550  1.00  0.00     0.029 A 
ATOM     61  C   UNL A   1      43.219  29.269  34.291  1.00  0.00     0.049 A 
ATOM     62  H   UNL A   1      41.722  30.247  33.168  1.00  0.00     0.167 HD
ATOM     63  C   UNL A   1      43.149  27.993  32.168  1.00  0.00     0.074 A 
ATOM     64  C   UNL A   1      43.582  26.936  31.279  1.00  0.00     0.031 C 
ATOM     65  C   UNL A   1      43.635  28.193  33.419  1.00  0.00     0.034 A 
BRANCH  52  66
ATOM     66  C   UNL A   1      41.170  33.030  36.388  1.00  0.00     0.023 A 
ATOM     67  C   UNL A   1      40.287  32.733  37.444  1.00  0.00     0.031 A 
ATOM     68  C   UNL A   1      41.920  34.218  36.465  1.00  0.00     0.131 A 
ATOM     69  C   UNL A   1      40.140  33.636  38.506  1.00  0.00     0.055 A 
ATOM     70  C   UNL A   1      41.804  35.091  37.549  1.00  0.00     0.041 A 
ATOM     71  F   UNL A   1      42.769  34.555  35.480  1.00  0.00    -0.206 F 
ATOM     72  C   UNL A   1      40.899  34.809  38.567  1.00  0.00     0.022 A 
BRANCH  69  73
ATOM     73  S   UNL A   1      38.898  33.370  39.802  1.00  0.00     0.124 S 
ATOM     74  O   UNL A   1      37.721  33.004  39.018  1.00  0.00    -0.237 OA
ATOM     75  O   UNL A   1      39.493  32.285  40.577  1.00  0.00    -0.237 OA
ATOM     76  O   UNL A   1      38.815  34.660  40.480  1.00  0.00    -0.744 OA
ENDBRANCH  69  73
ENDBRANCH  52  66
BRANCH  53  77
ATOM     77  C   UNL A   1      41.058  27.667  27.930  1.00  0.00     0.023 A 
ATOM     78  C   UNL A   1      40.425  26.410  27.916  1.00  0.00     0.031 A 
ATOM     79  C   UNL A   1      41.731  28.079  26.767  1.00  0.00     0.131 A 
ATOM     80  C   UNL A   1      40.538  25.584  26.791  1.00  0.00     0.055 A 
ATOM     81  C   UNL A   1      41.773  27.285  25.619  1.00  0.00     0.041 A 
ATOM     82  F   UNL A   1      42.369  29.259  26.735  1.00  0.00    -0.206 F 
ATOM     83  C   UNL A   1      41.191  26.021  25.635  1.00  0.00     0.022 A 
BRANCH  80  84
ATOM     84  S   UNL A   1      39.968  23.863  26.844  1.00  0.00     0.124 S 
ATOM     85  O   UNL A   1      41.016  23.171  26.100  1.00  0.00    -0.237 OA
ATOM     86  O   UNL A   1      39.938  23.604  28.281  1.00  0.00    -0.237 OA
ATOM     87  O   UNL A   1      38.661  23.912  26.196  1.00  0.00    -0.744 OA
ENDBRANCH  80  84
ENDBRANCH  53  77
BRANCH  65  88
ATOM     88  C   UNL A   1      44.680  27.242  33.959  1.00  0.00     0.023 A 
ATOM     89  C   UNL A   1      44.277  26.030  34.558  1.00  0.00     0.031 A 
ATOM     90  C   UNL A   1      46.039  27.591  34.027  1.00  0.00     0.131 A 
ATOM     91  C   UNL A   1      45.213  25.239  35.236  1.00  0.00     0.055 A 
ATOM     92  C   UNL A   1      46.979  26.769  34.654  1.00  0.00     0.041 A 
ATOM     93  F   UNL A   1      46.477  28.740  33.488  1.00  0.00    -0.206 F 
ATOM     94  C   UNL A   1      46.564  25.596  35.276  1.00  0.00     0.022 A 
BRANCH  91  95
ATOM     95  S   UNL A   1      44.696  23.776  36.177  1.00  0.00     0.124 S 
ATOM     96  O   UNL A   1      44.510  24.329  37.518  1.00  0.00    -0.237 OA
ATOM     97  O   UNL A   1      43.469  23.385  35.489  1.00  0.00    -0.237 OA
ATOM     98  O   UNL A   1      45.816  22.851  36.037  1.00  0.00    -0.744 OA
ENDBRANCH  91  95
ENDBRANCH  65  88
ENDBRANCH  39  40
ENDBRANCH  32  34
ENDBRANCH  31  32
ENDBRANCH  30  31
ENDBRANCH  29  30
ENDBRANCH  28  29
ENDBRANCH   1  28
TORSDOF 23
ENDMDL
