MODEL 1
REMARK VINA RESULT:     -11.2      0.000      0.000
REMARK SMILES O=C(OCCOCCOCCOC(=O)c1cc(-c2cccc(C(F)(F)F)c2)nc2c(F)cccc12)c1ccc(-c2c3nc(c(-c4cc(S(=O)(=O)[O-])ccc4F)c4ccc([nH]4)c(-c4cc(S(=O)(=O)[O-])ccc4F)c4nc(c(-c5cc(S(=O)(=O)[O-])ccc5F)c5ccc2[nH]5)C=C4)C=C3)cc1
REMARK SMILES IDX 7 1 6 2 5 3 4 4 3 5 2 6 1 7 36 8 37 9 98 10 38 11 97 12
REMARK SMILES IDX 39 13 40 14 41 15 91 16 42 17 96 18 90 19 92 20 43 21 95 22
REMARK SMILES IDX 89 23 88 24 44 26 76 27 56 28 75 29 57 30 60 31 74 32 93 33
REMARK SMILES IDX 58 34 59 35 73 37 94 38 61 39 45 40 46 41 54 42 47 43 53 44
REMARK SMILES IDX 55 45 52 46 48 47 49 48 50 49 51 50 77 51 78 52 86 53 79 54
REMARK SMILES IDX 85 55 87 56 84 57 80 58 81 59 82 60 83 61 62 62 63 63 71 64
REMARK SMILES IDX 64 65 70 66 72 67 69 68 65 69 66 70 67 71 68 72 8 73 9 74
REMARK SMILES IDX 10 75 11 76 12 77 13 78 14 79 15 80 16 81 35 82 17 83 29 84
REMARK SMILES IDX 34 85 28 86 30 87 33 88 31 89 32 90 18 91 19 92 27 93 20 94
REMARK SMILES IDX 22 95 21 96 23 97 24 98 25 99 26 100
REMARK H PARENT 92 25 60 36
REMARK Flexibility Score: inf
ROOT
ATOM      1  C   UNL A   1      34.683  24.025  24.896  1.00  0.00     0.188 C 
ENDROOT
BRANCH   1   2
ATOM      2  O   UNL A   1      35.638  23.316  25.694  1.00  0.00    -0.376 OA
BRANCH   2   3
ATOM      3  C   UNL A   1      36.545  22.510  24.937  1.00  0.00     0.202 C 
BRANCH   3   4
ATOM      4  C   UNL A   1      37.196  21.379  25.743  1.00  0.00     0.261 C 
BRANCH   4   5
ATOM      5  O   UNL A   1      38.615  21.330  25.520  1.00  0.00    -0.460 OA
BRANCH   5   6
ATOM      6  C   UNL A   1      39.593  21.573  26.429  1.00  0.00     0.338 C 
ATOM      7  O   UNL A   1      40.186  20.622  26.937  1.00  0.00    -0.246 OA
BRANCH   6   8
ATOM      8  C   UNL A   1      40.035  22.947  26.803  1.00  0.00     0.060 A 
ATOM      9  C   UNL A   1      39.553  24.124  26.226  1.00  0.00     0.016 A 
ATOM     10  C   UNL A   1      40.947  23.055  27.866  1.00  0.00     0.016 A 
ATOM     11  C   UNL A   1      40.071  25.365  26.589  1.00  0.00     0.010 A 
ATOM     12  C   UNL A   1      41.407  24.306  28.292  1.00  0.00     0.010 A 
ATOM     13  C   UNL A   1      41.011  25.466  27.616  1.00  0.00    -0.014 A 
BRANCH  13  14
ATOM     14  C   UNL A   1      41.672  26.770  27.869  1.00  0.00     0.031 A 
ATOM     15  C   UNL A   1      43.033  27.013  27.281  1.00  0.00     0.074 A 
ATOM     16  C   UNL A   1      41.030  27.751  28.530  1.00  0.00     0.049 A 
ATOM     17  N   UNL A   1      43.834  28.035  27.429  1.00  0.00    -0.248 NA
ATOM     18  C   UNL A   1      43.562  25.953  26.409  1.00  0.00     0.031 C 
ATOM     19  C   UNL A   1      39.677  27.655  29.078  1.00  0.00     0.029 A 
ATOM     20  N   UNL A   1      41.425  29.028  28.837  1.00  0.00    -0.354 N 
ATOM     21  C   UNL A   1      44.972  27.731  26.689  1.00  0.00     0.074 A 
ATOM     22  C   UNL A   1      44.769  26.413  26.126  1.00  0.00     0.031 C 
ATOM     23  C   UNL A   1      39.350  28.831  29.636  1.00  0.00     0.029 A 
ATOM     24  C   UNL A   1      40.488  29.735  29.551  1.00  0.00     0.049 A 
ATOM     25  H   UNL A   1      42.296  29.402  28.572  1.00  0.00     0.167 HD
ATOM     26  C   UNL A   1      46.081  28.486  26.492  1.00  0.00     0.034 A 
ATOM     27  C   UNL A   1      40.553  30.958  30.110  1.00  0.00     0.034 A 
ATOM     28  C   UNL A   1      46.263  29.793  27.069  1.00  0.00     0.049 A 
ATOM     29  C   UNL A   1      41.824  31.745  29.956  1.00  0.00     0.074 A 
ATOM     30  C   UNL A   1      47.361  30.631  26.997  1.00  0.00     0.029 A 
ATOM     31  N   UNL A   1      45.308  30.455  27.835  1.00  0.00    -0.354 N 
ATOM     32  N   UNL A   1      42.925  31.417  29.320  1.00  0.00    -0.248 NA
ATOM     33  C   UNL A   1      41.864  33.063  30.600  1.00  0.00     0.031 C 
ATOM     34  C   UNL A   1      47.087  31.778  27.755  1.00  0.00     0.029 A 
ATOM     35  C   UNL A   1      45.797  31.682  28.253  1.00  0.00     0.049 A 
ATOM     36  H   UNL A   1      44.415  30.102  28.049  1.00  0.00     0.167 HD
ATOM     37  C   UNL A   1      43.790  32.491  29.485  1.00  0.00     0.074 A 
ATOM     38  C   UNL A   1      43.073  33.487  30.259  1.00  0.00     0.031 C 
ATOM     39  C   UNL A   1      45.064  32.644  29.041  1.00  0.00     0.034 A 
BRANCH  26  40
ATOM     40  C   UNL A   1      47.186  27.856  25.680  1.00  0.00     0.023 A 
ATOM     41  C   UNL A   1      47.409  28.212  24.337  1.00  0.00     0.031 A 
ATOM     42  C   UNL A   1      47.945  26.802  26.217  1.00  0.00     0.131 A 
ATOM     43  C   UNL A   1      48.290  27.453  23.550  1.00  0.00     0.055 A 
ATOM     44  C   UNL A   1      48.885  26.107  25.451  1.00  0.00     0.041 A 
ATOM     45  F   UNL A   1      47.756  26.400  27.484  1.00  0.00    -0.206 F 
ATOM     46  C   UNL A   1      49.045  26.418  24.103  1.00  0.00     0.022 A 
BRANCH  43  47
ATOM     47  S   UNL A   1      48.292  27.719  21.754  1.00  0.00     0.124 S 
ATOM     48  O   UNL A   1      46.960  28.280  21.537  1.00  0.00    -0.237 OA
ATOM     49  O   UNL A   1      49.408  28.638  21.572  1.00  0.00    -0.237 OA
ATOM     50  O   UNL A   1      48.490  26.377  21.208  1.00  0.00    -0.744 OA
ENDBRANCH  43  47
ENDBRANCH  26  40
BRANCH  27  51
ATOM     51  C   UNL A   1      39.431  31.476  30.943  1.00  0.00     0.023 A 
ATOM     52  C   UNL A   1      39.445  31.374  32.342  1.00  0.00     0.031 A 
ATOM     53  C   UNL A   1      38.298  32.039  30.329  1.00  0.00     0.131 A 
ATOM     54  C   UNL A   1      38.329  31.803  33.083  1.00  0.00     0.055 A 
ATOM     55  C   UNL A   1      37.208  32.495  31.071  1.00  0.00     0.041 A 
ATOM     56  F   UNL A   1      38.242  32.160  28.994  1.00  0.00    -0.206 F 
ATOM     57  C   UNL A   1      37.215  32.369  32.456  1.00  0.00     0.022 A 
BRANCH  54  58
ATOM     58  S   UNL A   1      38.339  31.581  34.882  1.00  0.00     0.124 S 
ATOM     59  O   UNL A   1      39.588  32.230  35.259  1.00  0.00    -0.237 OA
ATOM     60  O   UNL A   1      37.112  32.266  35.277  1.00  0.00    -0.237 OA
ATOM     61  O   UNL A   1      38.311  30.128  35.046  1.00  0.00    -0.744 OA
ENDBRANCH  54  58
ENDBRANCH  27  51
BRANCH  39  62
ATOM     62  C   UNL A   1      45.730  33.953  29.365  1.00  0.00     0.023 A 
ATOM     63  C   UNL A   1      45.643  35.054  28.496  1.00  0.00     0.031 A 
ATOM     64  C   UNL A   1      46.486  34.086  30.541  1.00  0.00     0.131 A 
ATOM     65  C   UNL A   1      46.349  36.228  28.791  1.00  0.00     0.055 A 
ATOM     66  C   UNL A   1      47.144  35.275  30.855  1.00  0.00     0.041 A 
ATOM     67  F   UNL A   1      46.601  33.059  31.399  1.00  0.00    -0.206 F 
ATOM     68  C   UNL A   1      47.086  36.350  29.972  1.00  0.00     0.022 A 
BRANCH  65  69
ATOM     69  S   UNL A   1      46.358  37.568  27.569  1.00  0.00     0.124 S 
ATOM     70  O   UNL A   1      46.565  38.742  28.411  1.00  0.00    -0.237 OA
ATOM     71  O   UNL A   1      47.475  37.196  26.706  1.00  0.00    -0.237 OA
ATOM     72  O   UNL A   1      45.038  37.475  26.949  1.00  0.00    -0.744 OA
ENDBRANCH  65  69
ENDBRANCH  39  62
ENDBRANCH  13  14
ENDBRANCH   6   8
ENDBRANCH   5   6
ENDBRANCH   4   5
ENDBRANCH   3   4
ENDBRANCH   2   3
ENDBRANCH   1   2
BRANCH   1  73
ATOM     73  C   UNL A   1      33.329  24.072  25.607  1.00  0.00     0.188 C 
BRANCH  73  74
ATOM     74  O   UNL A   1      32.376  23.111  25.146  1.00  0.00    -0.376 OA
BRANCH  74  75
ATOM     75  C   UNL A   1      31.010  23.518  25.120  1.00  0.00     0.202 C 
BRANCH  75  76
ATOM     76  C   UNL A   1      30.694  24.898  25.708  1.00  0.00     0.261 C 
BRANCH  76  77
ATOM     77  O   UNL A   1      29.992  25.796  24.829  1.00  0.00    -0.460 OA
BRANCH  77  78
ATOM     78  C   UNL A   1      30.755  26.289  23.827  1.00  0.00     0.338 C 
ATOM     79  O   UNL A   1      31.174  25.686  22.847  1.00  0.00    -0.246 OA
BRANCH  78  80
ATOM     80  C   UNL A   1      31.109  27.695  24.055  1.00  0.00     0.071 A 
ATOM     81  C   UNL A   1      32.176  27.968  24.912  1.00  0.00     0.045 A 
ATOM     82  C   UNL A   1      30.212  28.702  23.648  1.00  0.00     0.018 A 
ATOM     83  C   UNL A   1      32.291  29.254  25.406  1.00  0.00     0.072 A 
ATOM     84  C   UNL A   1      30.374  29.960  24.250  1.00  0.00     0.107 A 
ATOM     85  C   UNL A   1      29.172  28.504  22.701  1.00  0.00     0.011 A 
ATOM     86  N   UNL A   1      31.383  30.213  25.114  1.00  0.00    -0.245 NA
ATOM     87  C   UNL A   1      29.439  30.951  23.938  1.00  0.00     0.149 A 
ATOM     88  C   UNL A   1      28.295  29.533  22.369  1.00  0.00     0.004 A 
ATOM     89  F   UNL A   1      29.518  32.148  24.542  1.00  0.00    -0.205 F 
ATOM     90  C   UNL A   1      28.418  30.756  23.009  1.00  0.00     0.041 A 
BRANCH  83  91
ATOM     91  C   UNL A   1      33.363  29.663  26.326  1.00  0.00     0.001 A 
ATOM     92  C   UNL A   1      34.384  28.775  26.697  1.00  0.00     0.010 A 
ATOM     93  C   UNL A   1      33.407  30.969  26.847  1.00  0.00     0.023 A 
ATOM     94  C   UNL A   1      35.416  29.171  27.551  1.00  0.00     0.001 A 
ATOM     95  C   UNL A   1      34.426  31.378  27.725  1.00  0.00     0.056 A 
ATOM     96  C   UNL A   1      35.434  30.465  28.066  1.00  0.00     0.013 A 
BRANCH  95  97
ATOM     97  C   UNL A   1      34.437  32.764  28.316  1.00  0.00     0.416 C 
ATOM     98  F   UNL A   1      34.106  32.756  29.642  1.00  0.00    -0.166 F 
ATOM     99  F   UNL A   1      35.657  33.364  28.249  1.00  0.00    -0.166 F 
ATOM    100  F   UNL A   1      33.561  33.627  27.731  1.00  0.00    -0.166 F 
ENDBRANCH  95  97
ENDBRANCH  83  91
ENDBRANCH  78  80
ENDBRANCH  77  78
ENDBRANCH  76  77
ENDBRANCH  75  76
ENDBRANCH  74  75
ENDBRANCH  73  74
ENDBRANCH   1  73
TORSDOF 22
ENDMDL
MODEL 2
REMARK VINA RESULT:     -11.2      4.929      8.327
REMARK SMILES O=C(OCCOCCOCCOC(=O)c1cc(-c2cccc(C(F)(F)F)c2)nc2c(F)cccc12)c1ccc(-c2c3nc(c(-c4cc(S(=O)(=O)[O-])ccc4F)c4ccc([nH]4)c(-c4cc(S(=O)(=O)[O-])ccc4F)c4nc(c(-c5cc(S(=O)(=O)[O-])ccc5F)c5ccc2[nH]5)C=C4)C=C3)cc1
REMARK SMILES IDX 7 1 6 2 5 3 4 4 3 5 2 6 1 7 36 8 37 9 98 10 38 11 97 12
REMARK SMILES IDX 39 13 40 14 41 15 91 16 42 17 96 18 90 19 92 20 43 21 95 22
REMARK SMILES IDX 89 23 88 24 44 26 76 27 56 28 75 29 57 30 60 31 74 32 93 33
REMARK SMILES IDX 58 34 59 35 73 37 94 38 61 39 45 40 46 41 54 42 47 43 53 44
REMARK SMILES IDX 55 45 52 46 48 47 49 48 50 49 51 50 77 51 78 52 86 53 79 54
REMARK SMILES IDX 85 55 87 56 84 57 80 58 81 59 82 60 83 61 62 62 63 63 71 64
REMARK SMILES IDX 64 65 70 66 72 67 69 68 65 69 66 70 67 71 68 72 8 73 9 74
REMARK SMILES IDX 10 75 11 76 12 77 13 78 14 79 15 80 16 81 35 82 17 83 29 84
REMARK SMILES IDX 34 85 28 86 30 87 33 88 31 89 32 90 18 91 19 92 27 93 20 94
REMARK SMILES IDX 22 95 21 96 23 97 24 98 25 99 26 100
REMARK H PARENT 92 25 60 36
REMARK Flexibility Score: inf
ROOT
ATOM      1  C   UNL A   1      31.665  27.654  25.879  1.00  0.00     0.188 C 
ENDROOT
BRANCH   1   2
ATOM      2  O   UNL A   1      31.012  28.524  24.946  1.00  0.00    -0.376 OA
BRANCH   2   3
ATOM      3  C   UNL A   1      31.476  29.876  24.989  1.00  0.00     0.202 C 
BRANCH   3   4
ATOM      4  C   UNL A   1      31.900  30.346  26.386  1.00  0.00     0.261 C 
BRANCH   4   5
ATOM      5  O   UNL A   1      33.331  30.448  26.491  1.00  0.00    -0.460 OA
BRANCH   5   6
ATOM      6  C   UNL A   1      34.032  31.278  27.303  1.00  0.00     0.338 C 
ATOM      7  O   UNL A   1      33.617  32.421  27.492  1.00  0.00    -0.246 OA
BRANCH   6   8
ATOM      8  C   UNL A   1      35.260  30.854  28.036  1.00  0.00     0.060 A 
ATOM      9  C   UNL A   1      35.497  29.566  28.517  1.00  0.00     0.016 A 
ATOM     10  C   UNL A   1      36.277  31.813  28.179  1.00  0.00     0.016 A 
ATOM     11  C   UNL A   1      36.644  29.273  29.252  1.00  0.00     0.010 A 
ATOM     12  C   UNL A   1      37.469  31.499  28.843  1.00  0.00     0.010 A 
ATOM     13  C   UNL A   1      37.634  30.240  29.432  1.00  0.00    -0.014 A 
BRANCH  13  14
ATOM     14  C   UNL A   1      38.761  29.963  30.355  1.00  0.00     0.031 A 
ATOM     15  C   UNL A   1      39.883  29.084  29.879  1.00  0.00     0.074 A 
ATOM     16  C   UNL A   1      38.828  30.561  31.559  1.00  0.00     0.049 A 
ATOM     17  N   UNL A   1      40.927  28.641  30.528  1.00  0.00    -0.248 NA
ATOM     18  C   UNL A   1      39.811  28.642  28.478  1.00  0.00     0.031 C 
ATOM     19  C   UNL A   1      37.836  31.494  32.095  1.00  0.00     0.029 A 
ATOM     20  N   UNL A   1      39.781  30.487  32.542  1.00  0.00    -0.354 N 
ATOM     21  C   UNL A   1      41.624  27.849  29.622  1.00  0.00     0.074 A 
ATOM     22  C   UNL A   1      40.861  27.844  28.392  1.00  0.00     0.031 C 
ATOM     23  C   UNL A   1      38.246  31.917  33.301  1.00  0.00     0.029 A 
ATOM     24  C   UNL A   1      39.484  31.238  33.653  1.00  0.00     0.049 A 
ATOM     25  H   UNL A   1      40.601  29.948  32.459  1.00  0.00     0.167 HD
ATOM     26  C   UNL A   1      42.797  27.192  29.799  1.00  0.00     0.034 A 
ATOM     27  C   UNL A   1      40.114  31.335  34.839  1.00  0.00     0.034 A 
ATOM     28  C   UNL A   1      43.535  27.206  31.036  1.00  0.00     0.049 A 
ATOM     29  C   UNL A   1      41.366  30.530  35.049  1.00  0.00     0.074 A 
ATOM     30  C   UNL A   1      44.700  26.536  31.363  1.00  0.00     0.029 A 
ATOM     31  N   UNL A   1      43.170  27.938  32.162  1.00  0.00    -0.354 N 
ATOM     32  N   UNL A   1      41.976  29.722  34.212  1.00  0.00    -0.248 NA
ATOM     33  C   UNL A   1      42.010  30.645  36.362  1.00  0.00     0.031 C 
ATOM     34  C   UNL A   1      45.013  26.827  32.698  1.00  0.00     0.029 A 
ATOM     35  C   UNL A   1      44.077  27.724  33.187  1.00  0.00     0.049 A 
ATOM     36  H   UNL A   1      42.381  28.524  32.221  1.00  0.00     0.167 HD
ATOM     37  C   UNL A   1      43.080  29.233  34.898  1.00  0.00     0.074 A 
ATOM     38  C   UNL A   1      43.065  29.857  36.208  1.00  0.00     0.031 C 
ATOM     39  C   UNL A   1      44.022  28.346  34.488  1.00  0.00     0.034 A 
BRANCH  26  40
ATOM     40  C   UNL A   1      43.281  26.357  28.638  1.00  0.00     0.023 A 
ATOM     41  C   UNL A   1      44.311  26.802  27.790  1.00  0.00     0.031 A 
ATOM     42  C   UNL A   1      42.622  25.161  28.306  1.00  0.00     0.131 A 
ATOM     43  C   UNL A   1      44.581  26.111  26.597  1.00  0.00     0.055 A 
ATOM     44  C   UNL A   1      42.955  24.432  27.162  1.00  0.00     0.041 A 
ATOM     45  F   UNL A   1      41.613  24.703  29.063  1.00  0.00    -0.206 F 
ATOM     46  C   UNL A   1      43.926  24.918  26.289  1.00  0.00     0.022 A 
BRANCH  43  47
ATOM     47  S   UNL A   1      45.664  26.895  25.370  1.00  0.00     0.124 S 
ATOM     48  O   UNL A   1      44.715  27.719  24.623  1.00  0.00    -0.237 OA
ATOM     49  O   UNL A   1      46.617  27.617  26.204  1.00  0.00    -0.237 OA
ATOM     50  O   UNL A   1      46.215  25.764  24.626  1.00  0.00    -0.744 OA
ENDBRANCH  43  47
ENDBRANCH  26  40
BRANCH  27  51
ATOM     51  C   UNL A   1      39.531  32.142  35.948  1.00  0.00     0.023 A 
ATOM     52  C   UNL A   1      38.699  31.566  36.920  1.00  0.00     0.031 A 
ATOM     53  C   UNL A   1      39.768  33.526  36.012  1.00  0.00     0.131 A 
ATOM     54  C   UNL A   1      38.107  32.380  37.900  1.00  0.00     0.055 A 
ATOM     55  C   UNL A   1      39.205  34.325  37.009  1.00  0.00     0.041 A 
ATOM     56  F   UNL A   1      40.560  34.121  35.107  1.00  0.00    -0.206 F 
ATOM     57  C   UNL A   1      38.361  33.754  37.955  1.00  0.00     0.022 A 
BRANCH  54  58
ATOM     58  S   UNL A   1      36.968  31.624  39.092  1.00  0.00     0.124 S 
ATOM     59  O   UNL A   1      37.778  31.589  40.303  1.00  0.00    -0.237 OA
ATOM     60  O   UNL A   1      35.855  32.569  39.087  1.00  0.00    -0.237 OA
ATOM     61  O   UNL A   1      36.671  30.321  38.498  1.00  0.00    -0.744 OA
ENDBRANCH  54  58
ENDBRANCH  27  51
BRANCH  39  62
ATOM     62  C   UNL A   1      45.120  28.040  35.469  1.00  0.00     0.023 A 
ATOM     63  C   UNL A   1      44.892  27.233  36.597  1.00  0.00     0.031 A 
ATOM     64  C   UNL A   1      46.400  28.590  35.288  1.00  0.00     0.131 A 
ATOM     65  C   UNL A   1      45.916  27.042  37.533  1.00  0.00     0.055 A 
ATOM     66  C   UNL A   1      47.432  28.353  36.196  1.00  0.00     0.041 A 
ATOM     67  F   UNL A   1      46.664  29.370  34.228  1.00  0.00    -0.206 F 
ATOM     68  C   UNL A   1      47.189  27.585  37.332  1.00  0.00     0.022 A 
BRANCH  65  69
ATOM     69  S   UNL A   1      45.543  26.141  39.061  1.00  0.00     0.124 S 
ATOM     70  O   UNL A   1      45.825  24.762  38.676  1.00  0.00    -0.237 OA
ATOM     71  O   UNL A   1      46.473  26.741  40.013  1.00  0.00    -0.237 OA
ATOM     72  O   UNL A   1      44.132  26.441  39.300  1.00  0.00    -0.744 OA
ENDBRANCH  65  69
ENDBRANCH  39  62
ENDBRANCH  13  14
ENDBRANCH   6   8
ENDBRANCH   5   6
ENDBRANCH   4   5
ENDBRANCH   3   4
ENDBRANCH   2   3
ENDBRANCH   1   2
BRANCH   1  73
ATOM     73  C   UNL A   1      31.427  26.192  25.495  1.00  0.00     0.188 C 
BRANCH  73  74
ATOM     74  O   UNL A   1      30.598  25.462  26.403  1.00  0.00    -0.376 OA
BRANCH  74  75
ATOM     75  C   UNL A   1      30.738  24.043  26.406  1.00  0.00     0.202 C 
BRANCH  75  76
ATOM     76  C   UNL A   1      31.943  23.472  25.651  1.00  0.00     0.261 C 
BRANCH  76  77
ATOM     77  O   UNL A   1      31.665  22.987  24.324  1.00  0.00    -0.460 OA
BRANCH  77  78
ATOM     78  C   UNL A   1      32.773  22.741  23.588  1.00  0.00     0.338 C 
ATOM     79  O   UNL A   1      32.983  23.073  22.428  1.00  0.00    -0.246 OA
BRANCH  78  80
ATOM     80  C   UNL A   1      33.752  21.938  24.332  1.00  0.00     0.071 A 
ATOM     81  C   UNL A   1      34.894  22.581  24.809  1.00  0.00     0.045 A 
ATOM     82  C   UNL A   1      33.654  20.533  24.292  1.00  0.00     0.018 A 
ATOM     83  C   UNL A   1      35.965  21.792  25.188  1.00  0.00     0.072 A 
ATOM     84  C   UNL A   1      34.814  19.821  24.640  1.00  0.00     0.107 A 
ATOM     85  C   UNL A   1      32.482  19.828  23.912  1.00  0.00     0.011 A 
ATOM     86  N   UNL A   1      35.937  20.445  25.062  1.00  0.00    -0.245 NA
ATOM     87  C   UNL A   1      34.777  18.429  24.517  1.00  0.00     0.149 A 
ATOM     88  C   UNL A   1      32.465  18.437  23.860  1.00  0.00     0.004 A 
ATOM     89  F   UNL A   1      35.884  17.713  24.774  1.00  0.00    -0.205 F 
ATOM     90  C   UNL A   1      33.626  17.737  24.142  1.00  0.00     0.041 A 
BRANCH  83  91
ATOM     91  C   UNL A   1      37.227  22.349  25.695  1.00  0.00     0.001 A 
ATOM     92  C   UNL A   1      37.340  23.705  26.039  1.00  0.00     0.010 A 
ATOM     93  C   UNL A   1      38.358  21.531  25.869  1.00  0.00     0.023 A 
ATOM     94  C   UNL A   1      38.532  24.228  26.545  1.00  0.00     0.001 A 
ATOM     95  C   UNL A   1      39.572  22.046  26.356  1.00  0.00     0.056 A 
ATOM     96  C   UNL A   1      39.644  23.404  26.698  1.00  0.00     0.013 A 
BRANCH  95  97
ATOM     97  C   UNL A   1      40.792  21.171  26.493  1.00  0.00     0.416 C 
ATOM     98  F   UNL A   1      41.833  21.626  25.735  1.00  0.00    -0.166 F 
ATOM     99  F   UNL A   1      41.267  21.114  27.768  1.00  0.00    -0.166 F 
ATOM    100  F   UNL A   1      40.599  19.880  26.105  1.00  0.00    -0.166 F 
ENDBRANCH  95  97
ENDBRANCH  83  91
ENDBRANCH  78  80
ENDBRANCH  77  78
ENDBRANCH  76  77
ENDBRANCH  75  76
ENDBRANCH  74  75
ENDBRANCH  73  74
ENDBRANCH   1  73
TORSDOF 22
ENDMDL
MODEL 3
REMARK VINA RESULT:     -11.1      4.889     10.844
REMARK SMILES O=C(OCCOCCOCCOC(=O)c1cc(-c2cccc(C(F)(F)F)c2)nc2c(F)cccc12)c1ccc(-c2c3nc(c(-c4cc(S(=O)(=O)[O-])ccc4F)c4ccc([nH]4)c(-c4cc(S(=O)(=O)[O-])ccc4F)c4nc(c(-c5cc(S(=O)(=O)[O-])ccc5F)c5ccc2[nH]5)C=C4)C=C3)cc1
REMARK SMILES IDX 7 1 6 2 5 3 4 4 3 5 2 6 1 7 36 8 37 9 98 10 38 11 97 12
REMARK SMILES IDX 39 13 40 14 41 15 91 16 42 17 96 18 90 19 92 20 43 21 95 22
REMARK SMILES IDX 89 23 88 24 44 26 76 27 56 28 75 29 57 30 60 31 74 32 93 33
REMARK SMILES IDX 58 34 59 35 73 37 94 38 61 39 45 40 46 41 54 42 47 43 53 44
REMARK SMILES IDX 55 45 52 46 48 47 49 48 50 49 51 50 77 51 78 52 86 53 79 54
REMARK SMILES IDX 85 55 87 56 84 57 80 58 81 59 82 60 83 61 62 62 63 63 71 64
REMARK SMILES IDX 64 65 70 66 72 67 69 68 65 69 66 70 67 71 68 72 8 73 9 74
REMARK SMILES IDX 10 75 11 76 12 77 13 78 14 79 15 80 16 81 35 82 17 83 29 84
REMARK SMILES IDX 34 85 28 86 30 87 33 88 31 89 32 90 18 91 19 92 27 93 20 94
REMARK SMILES IDX 22 95 21 96 23 97 24 98 25 99 26 100
REMARK H PARENT 92 25 60 36
REMARK Flexibility Score: inf
ROOT
ATOM      1  C   UNL A   1      30.579  29.328  23.870  1.00  0.00     0.188 C 
ENDROOT
BRANCH   1   2
ATOM      2  O   UNL A   1      31.126  30.041  24.986  1.00  0.00    -0.376 OA
BRANCH   2   3
ATOM      3  C   UNL A   1      31.886  29.225  25.880  1.00  0.00     0.202 C 
BRANCH   3   4
ATOM      4  C   UNL A   1      33.244  29.823  26.269  1.00  0.00     0.261 C 
BRANCH   4   5
ATOM      5  O   UNL A   1      33.086  30.946  27.154  1.00  0.00    -0.460 OA
BRANCH   5   6
ATOM      6  C   UNL A   1      34.071  31.717  27.679  1.00  0.00     0.338 C 
ATOM      7  O   UNL A   1      33.921  32.938  27.710  1.00  0.00    -0.246 OA
BRANCH   6   8
ATOM      8  C   UNL A   1      35.313  31.154  28.282  1.00  0.00     0.060 A 
ATOM      9  C   UNL A   1      35.462  29.834  28.712  1.00  0.00     0.016 A 
ATOM     10  C   UNL A   1      36.430  32.003  28.347  1.00  0.00     0.016 A 
ATOM     11  C   UNL A   1      36.638  29.409  29.328  1.00  0.00     0.010 A 
ATOM     12  C   UNL A   1      37.640  31.555  28.887  1.00  0.00     0.010 A 
ATOM     13  C   UNL A   1      37.732  30.268  29.432  1.00  0.00    -0.014 A 
BRANCH  13  14
ATOM     14  C   UNL A   1      38.907  29.855  30.237  1.00  0.00     0.031 A 
ATOM     15  C   UNL A   1      39.032  30.368  31.644  1.00  0.00     0.074 A 
ATOM     16  C   UNL A   1      39.792  28.963  29.756  1.00  0.00     0.049 A 
ATOM     17  N   UNL A   1      40.001  30.209  32.506  1.00  0.00    -0.248 NA
ATOM     18  C   UNL A   1      37.909  31.177  32.142  1.00  0.00     0.031 C 
ATOM     19  C   UNL A   1      39.729  28.338  28.435  1.00  0.00     0.029 A 
ATOM     20  N   UNL A   1      40.910  28.414  30.331  1.00  0.00    -0.354 N 
ATOM     21  C   UNL A   1      39.617  30.917  33.640  1.00  0.00     0.074 A 
ATOM     22  C   UNL A   1      38.343  31.536  33.338  1.00  0.00     0.031 C 
ATOM     23  C   UNL A   1      40.753  27.478  28.311  1.00  0.00     0.029 A 
ATOM     24  C   UNL A   1      41.580  27.543  29.507  1.00  0.00     0.049 A 
ATOM     25  H   UNL A   1      41.204  28.624  31.247  1.00  0.00     0.167 HD
ATOM     26  C   UNL A   1      40.263  31.032  34.826  1.00  0.00     0.034 A 
ATOM     27  C   UNL A   1      42.751  26.901  29.678  1.00  0.00     0.034 A 
ATOM     28  C   UNL A   1      41.534  30.412  35.100  1.00  0.00     0.049 A 
ATOM     29  C   UNL A   1      43.498  27.111  30.965  1.00  0.00     0.074 A 
ATOM     30  C   UNL A   1      42.319  30.501  36.235  1.00  0.00     0.029 A 
ATOM     31  N   UNL A   1      42.209  29.577  34.215  1.00  0.00    -0.354 N 
ATOM     32  N   UNL A   1      43.163  27.845  32.001  1.00  0.00    -0.248 NA
ATOM     33  C   UNL A   1      44.781  26.413  31.103  1.00  0.00     0.031 C 
ATOM     34  C   UNL A   1      43.488  29.758  36.018  1.00  0.00     0.029 A 
ATOM     35  C   UNL A   1      43.406  29.158  34.771  1.00  0.00     0.049 A 
ATOM     36  H   UNL A   1      41.883  29.322  33.322  1.00  0.00     0.167 HD
ATOM     37  C   UNL A   1      44.196  27.695  32.918  1.00  0.00     0.074 A 
ATOM     38  C   UNL A   1      45.151  26.780  32.322  1.00  0.00     0.031 C 
ATOM     39  C   UNL A   1      44.346  28.262  34.142  1.00  0.00     0.034 A 
BRANCH  26  40
ATOM     40  C   UNL A   1      39.618  31.926  35.857  1.00  0.00     0.023 A 
ATOM     41  C   UNL A   1      38.927  31.396  36.963  1.00  0.00     0.031 A 
ATOM     42  C   UNL A   1      39.591  33.318  35.668  1.00  0.00     0.131 A 
ATOM     43  C   UNL A   1      38.153  32.242  37.773  1.00  0.00     0.055 A 
ATOM     44  C   UNL A   1      38.890  34.164  36.531  1.00  0.00     0.041 A 
ATOM     45  F   UNL A   1      40.209  33.877  34.616  1.00  0.00    -0.206 F 
ATOM     46  C   UNL A   1      38.148  33.624  37.578  1.00  0.00     0.022 A 
BRANCH  43  47
ATOM     47  S   UNL A   1      37.010  31.489  38.965  1.00  0.00     0.124 S 
ATOM     48  O   UNL A   1      37.778  31.577  40.206  1.00  0.00    -0.237 OA
ATOM     49  O   UNL A   1      35.842  32.356  38.875  1.00  0.00    -0.237 OA
ATOM     50  O   UNL A   1      36.824  30.132  38.452  1.00  0.00    -0.744 OA
ENDBRANCH  43  47
ENDBRANCH  26  40
BRANCH  27  51
ATOM     51  C   UNL A   1      43.338  26.082  28.580  1.00  0.00     0.023 A 
ATOM     52  C   UNL A   1      44.290  26.611  27.695  1.00  0.00     0.031 A 
ATOM     53  C   UNL A   1      42.905  24.760  28.377  1.00  0.00     0.131 A 
ATOM     54  C   UNL A   1      44.757  25.827  26.625  1.00  0.00     0.055 A 
ATOM     55  C   UNL A   1      43.398  23.975  27.334  1.00  0.00     0.041 A 
ATOM     56  F   UNL A   1      41.998  24.211  29.200  1.00  0.00    -0.206 F 
ATOM     57  C   UNL A   1      44.322  24.511  26.444  1.00  0.00     0.022 A 
BRANCH  54  58
ATOM     58  S   UNL A   1      45.922  26.565  25.447  1.00  0.00     0.124 S 
ATOM     59  O   UNL A   1      46.999  27.007  26.325  1.00  0.00    -0.237 OA
ATOM     60  O   UNL A   1      46.225  25.434  24.576  1.00  0.00    -0.237 OA
ATOM     61  O   UNL A   1      45.144  27.632  24.822  1.00  0.00    -0.744 OA
ENDBRANCH  54  58
ENDBRANCH  27  51
BRANCH  39  62
ATOM     62  C   UNL A   1      45.578  27.869  34.912  1.00  0.00     0.023 A 
ATOM     63  C   UNL A   1      45.577  26.768  35.785  1.00  0.00     0.031 A 
ATOM     64  C   UNL A   1      46.754  28.627  34.792  1.00  0.00     0.131 A 
ATOM     65  C   UNL A   1      46.717  26.486  36.548  1.00  0.00     0.055 A 
ATOM     66  C   UNL A   1      47.904  28.310  35.516  1.00  0.00     0.041 A 
ATOM     67  F   UNL A   1      46.801  29.691  33.974  1.00  0.00    -0.206 F 
ATOM     68  C   UNL A   1      47.885  27.242  36.409  1.00  0.00     0.022 A 
BRANCH  65  69
ATOM     69  S   UNL A   1      46.630  25.167  37.790  1.00  0.00     0.124 S 
ATOM     70  O   UNL A   1      46.722  23.968  36.963  1.00  0.00    -0.237 OA
ATOM     71  O   UNL A   1      47.788  25.453  38.631  1.00  0.00    -0.237 OA
ATOM     72  O   UNL A   1      45.333  25.383  38.428  1.00  0.00    -0.744 OA
ENDBRANCH  65  69
ENDBRANCH  39  62
ENDBRANCH  13  14
ENDBRANCH   6   8
ENDBRANCH   5   6
ENDBRANCH   4   5
ENDBRANCH   3   4
ENDBRANCH   2   3
ENDBRANCH   1   2
BRANCH   1  73
ATOM     73  C   UNL A   1      31.044  27.871  23.892  1.00  0.00     0.188 C 
BRANCH  73  74
ATOM     74  O   UNL A   1      30.002  26.912  24.093  1.00  0.00    -0.376 OA
BRANCH  74  75
ATOM     75  C   UNL A   1      30.382  25.654  24.645  1.00  0.00     0.202 C 
BRANCH  75  76
ATOM     76  C   UNL A   1      31.195  24.724  23.737  1.00  0.00     0.261 C 
BRANCH  76  77
ATOM     77  O   UNL A   1      32.409  24.206  24.313  1.00  0.00    -0.460 OA
BRANCH  77  78
ATOM     78  C   UNL A   1      33.033  23.288  23.541  1.00  0.00     0.338 C 
ATOM     79  O   UNL A   1      32.881  23.099  22.341  1.00  0.00    -0.246 OA
BRANCH  78  80
ATOM     80  C   UNL A   1      33.934  22.438  24.330  1.00  0.00     0.071 A 
ATOM     81  C   UNL A   1      35.105  23.012  24.824  1.00  0.00     0.045 A 
ATOM     82  C   UNL A   1      33.740  21.042  24.321  1.00  0.00     0.018 A 
ATOM     83  C   UNL A   1      36.108  22.161  25.250  1.00  0.00     0.072 A 
ATOM     84  C   UNL A   1      34.837  20.260  24.716  1.00  0.00     0.107 A 
ATOM     85  C   UNL A   1      32.532  20.410  23.925  1.00  0.00     0.011 A 
ATOM     86  N   UNL A   1      35.990  20.816  25.155  1.00  0.00    -0.245 NA
ATOM     87  C   UNL A   1      34.707  18.872  24.625  1.00  0.00     0.149 A 
ATOM     88  C   UNL A   1      32.419  19.023  23.904  1.00  0.00     0.004 A 
ATOM     89  F   UNL A   1      35.754  18.088  24.929  1.00  0.00    -0.205 F 
ATOM     90  C   UNL A   1      33.520  18.252  24.235  1.00  0.00     0.041 A 
BRANCH  83  91
ATOM     91  C   UNL A   1      37.392  22.642  25.779  1.00  0.00     0.001 A 
ATOM     92  C   UNL A   1      37.581  23.989  26.125  1.00  0.00     0.010 A 
ATOM     93  C   UNL A   1      38.469  21.758  25.974  1.00  0.00     0.023 A 
ATOM     94  C   UNL A   1      38.793  24.441  26.651  1.00  0.00     0.001 A 
ATOM     95  C   UNL A   1      39.704  22.200  26.482  1.00  0.00     0.056 A 
ATOM     96  C   UNL A   1      39.851  23.552  26.823  1.00  0.00     0.013 A 
BRANCH  95  97
ATOM     97  C   UNL A   1      40.866  21.254  26.640  1.00  0.00     0.416 C 
ATOM     98  F   UNL A   1      40.498  19.954  26.438  1.00  0.00    -0.166 F 
ATOM     99  F   UNL A   1      41.871  21.490  25.751  1.00  0.00    -0.166 F 
ATOM    100  F   UNL A   1      41.441  21.279  27.874  1.00  0.00    -0.166 F 
ENDBRANCH  95  97
ENDBRANCH  83  91
ENDBRANCH  78  80
ENDBRANCH  77  78
ENDBRANCH  76  77
ENDBRANCH  75  76
ENDBRANCH  74  75
ENDBRANCH  73  74
ENDBRANCH   1  73
TORSDOF 22
ENDMDL
