MODEL 1
REMARK VINA RESULT:     -10.3      0.000      0.000
REMARK SMILES C[C@@H](C(=O)OCCOCCOCCOC(=O)c1ccc(-c2c3nc(c(-c4cc(S(=O)(=O)[O-])ccc4F)c4ccc([nH]4)c(-c4cc(S(=O)(=O)[O-])ccc4F)c4nc(c(-c5cc(S(=O)(=O)[O-])ccc5F)c5ccc2[nH]5)C=C4)C=C3)cc1)c1ccc(C[C@@H]2CCC[C@@H]2O)cc1
REMARK SMILES IDX 9 1 8 2 7 3 6 4 5 5 3 6 4 7 2 8 1 9 80 10 81 11 92 12 82 13
REMARK SMILES IDX 91 14 83 15 84 16 85 17 86 18 89 19 87 20 88 21 90 22 10 24
REMARK SMILES IDX 11 25 12 26 13 27 14 28 15 29 16 30 17 31 18 32 79 33 19 34
REMARK SMILES IDX 78 35 20 36 21 37 22 38 72 39 23 40 77 41 71 42 73 43 24 44
REMARK SMILES IDX 76 45 70 46 69 47 25 49 57 50 37 51 56 52 38 53 41 54 55 55
REMARK SMILES IDX 74 56 39 57 40 58 54 60 75 61 42 62 26 63 27 64 35 65 28 66
REMARK SMILES IDX 34 67 36 68 33 69 29 70 30 71 31 72 32 73 58 74 59 75 67 76
REMARK SMILES IDX 60 77 66 78 68 79 65 80 61 81 62 82 63 83 64 84 43 85 44 86
REMARK SMILES IDX 52 87 45 88 51 89 53 90 50 91 46 92 47 93 48 94 49 95
REMARK H PARENT 90 23 73 48 41 59
REMARK Flexibility Score: inf
ROOT
ATOM      1  C   UNL A   1      32.611  36.550  31.878  1.00  0.00     0.188 C 
ENDROOT
BRANCH   1   2
ATOM      2  O   UNL A   1      32.138  36.751  30.550  1.00  0.00    -0.376 OA
BRANCH   2   3
ATOM      3  C   UNL A   1      32.981  36.357  29.468  1.00  0.00     0.202 C 
BRANCH   3   4
ATOM      4  C   UNL A   1      34.072  35.295  29.708  1.00  0.00     0.261 C 
BRANCH   4   5
ATOM      5  O   UNL A   1      33.589  33.935  29.699  1.00  0.00    -0.463 OA
BRANCH   5   6
ATOM      6  C   UNL A   1      33.602  33.287  28.504  1.00  0.00     0.313 C 
ATOM      7  O   UNL A   1      32.792  33.505  27.606  1.00  0.00    -0.252 OA
BRANCH   6   8
ATOM      8  C   UNL A   1      34.774  32.302  28.343  1.00  0.00     0.126 C 
ATOM      9  C   UNL A   1      36.036  32.948  27.748  1.00  0.00     0.025 C 
BRANCH   8  10
ATOM     10  C   UNL A   1      34.389  30.928  27.773  1.00  0.00    -0.034 A 
ATOM     11  C   UNL A   1      35.376  29.964  27.507  1.00  0.00     0.005 A 
ATOM     12  C   UNL A   1      33.079  30.625  27.363  1.00  0.00     0.005 A 
ATOM     13  C   UNL A   1      35.084  28.790  26.803  1.00  0.00     0.004 A 
ATOM     14  C   UNL A   1      32.791  29.456  26.640  1.00  0.00     0.004 A 
ATOM     15  C   UNL A   1      33.808  28.564  26.287  1.00  0.00    -0.048 A 
BRANCH  15  16
ATOM     16  C   UNL A   1      33.550  27.425  25.325  1.00  0.00     0.041 C 
BRANCH  16  17
ATOM     17  C   UNL A   1      33.636  25.974  25.863  1.00  0.00     0.022 C 
ATOM     18  C   UNL A   1      34.278  24.956  24.909  1.00  0.00     0.007 C 
ATOM     19  C   UNL A   1      32.327  25.274  26.242  1.00  0.00     0.117 C 
ATOM     20  C   UNL A   1      33.129  24.198  24.233  1.00  0.00     0.003 C 
ATOM     21  C   UNL A   1      31.851  24.613  24.953  1.00  0.00     0.032 C 
BRANCH  19  22
ATOM     22  O   UNL A   1      31.347  26.116  26.814  1.00  0.00    -0.393 OA
ATOM     23  H   UNL A   1      30.765  26.456  26.116  1.00  0.00     0.210 HD
ENDBRANCH  19  22
ENDBRANCH  16  17
ENDBRANCH  15  16
ENDBRANCH   8  10
ENDBRANCH   6   8
ENDBRANCH   5   6
ENDBRANCH   4   5
ENDBRANCH   3   4
ENDBRANCH   2   3
ENDBRANCH   1   2
BRANCH   1  24
ATOM     24  C   UNL A   1      33.624  37.554  32.450  1.00  0.00     0.188 C 
BRANCH  24  25
ATOM     25  O   UNL A   1      34.618  36.986  33.271  1.00  0.00    -0.376 OA
BRANCH  25  26
ATOM     26  C   UNL A   1      34.755  35.578  33.319  1.00  0.00     0.202 C 
BRANCH  26  27
ATOM     27  C   UNL A   1      36.000  34.851  32.768  1.00  0.00     0.261 C 
BRANCH  27  28
ATOM     28  O   UNL A   1      35.835  33.517  32.267  1.00  0.00    -0.460 OA
BRANCH  28  29
ATOM     29  C   UNL A   1      36.292  32.505  33.041  1.00  0.00     0.338 C 
ATOM     30  O   UNL A   1      35.817  32.130  34.104  1.00  0.00    -0.246 OA
BRANCH  29  31
ATOM     31  C   UNL A   1      37.305  31.763  32.252  1.00  0.00     0.060 A 
ATOM     32  C   UNL A   1      38.303  31.044  32.927  1.00  0.00     0.016 A 
ATOM     33  C   UNL A   1      37.248  31.744  30.858  1.00  0.00     0.016 A 
ATOM     34  C   UNL A   1      39.256  30.318  32.208  1.00  0.00     0.010 A 
ATOM     35  C   UNL A   1      38.221  31.042  30.138  1.00  0.00     0.010 A 
ATOM     36  C   UNL A   1      39.245  30.346  30.808  1.00  0.00    -0.014 A 
BRANCH  36  37
ATOM     37  C   UNL A   1      40.408  29.822  30.047  1.00  0.00     0.031 A 
ATOM     38  C   UNL A   1      41.592  30.729  29.850  1.00  0.00     0.074 A 
ATOM     39  C   UNL A   1      40.426  28.571  29.552  1.00  0.00     0.049 A 
ATOM     40  N   UNL A   1      42.684  30.536  29.157  1.00  0.00    -0.248 NA
ATOM     41  C   UNL A   1      41.523  32.038  30.517  1.00  0.00     0.031 C 
ATOM     42  C   UNL A   1      39.363  27.584  29.717  1.00  0.00     0.029 A 
ATOM     43  N   UNL A   1      41.378  27.918  28.806  1.00  0.00    -0.354 N 
ATOM     44  C   UNL A   1      43.422  31.708  29.282  1.00  0.00     0.074 A 
ATOM     45  C   UNL A   1      42.641  32.612  30.100  1.00  0.00     0.031 C 
ATOM     46  C   UNL A   1      39.723  26.449  29.092  1.00  0.00     0.029 A 
ATOM     47  C   UNL A   1      41.023  26.638  28.448  1.00  0.00     0.049 A 
ATOM     48  H   UNL A   1      42.235  28.329  28.550  1.00  0.00     0.167 HD
ATOM     49  C   UNL A   1      44.637  32.005  28.760  1.00  0.00     0.034 A 
ATOM     50  C   UNL A   1      41.660  25.737  27.672  1.00  0.00     0.034 A 
ATOM     51  C   UNL A   1      45.399  31.097  27.938  1.00  0.00     0.049 A 
ATOM     52  C   UNL A   1      42.981  26.118  27.038  1.00  0.00     0.074 A 
ATOM     53  C   UNL A   1      46.644  31.294  27.366  1.00  0.00     0.029 A 
ATOM     54  N   UNL A   1      44.987  29.825  27.559  1.00  0.00    -0.354 N 
ATOM     55  N   UNL A   1      43.667  27.233  27.156  1.00  0.00    -0.248 NA
ATOM     56  C   UNL A   1      43.607  25.123  26.156  1.00  0.00     0.031 C 
ATOM     57  C   UNL A   1      46.943  30.182  26.572  1.00  0.00     0.029 A 
ATOM     58  C   UNL A   1      45.933  29.246  26.728  1.00  0.00     0.049 A 
ATOM     59  H   UNL A   1      44.145  29.398  27.840  1.00  0.00     0.167 HD
ATOM     60  C   UNL A   1      44.818  27.057  26.388  1.00  0.00     0.074 A 
ATOM     61  C   UNL A   1      44.741  25.724  25.828  1.00  0.00     0.031 C 
ATOM     62  C   UNL A   1      45.845  27.918  26.165  1.00  0.00     0.034 A 
BRANCH  49  63
ATOM     63  C   UNL A   1      45.177  33.393  29.003  1.00  0.00     0.023 A 
ATOM     64  C   UNL A   1      44.707  34.513  28.295  1.00  0.00     0.031 A 
ATOM     65  C   UNL A   1      46.204  33.594  29.944  1.00  0.00     0.131 A 
ATOM     66  C   UNL A   1      45.309  35.765  28.487  1.00  0.00     0.055 A 
ATOM     67  C   UNL A   1      46.739  34.858  30.192  1.00  0.00     0.041 A 
ATOM     68  F   UNL A   1      46.715  32.559  30.630  1.00  0.00    -0.206 F 
ATOM     69  C   UNL A   1      46.303  35.951  29.450  1.00  0.00     0.022 A 
BRANCH  66  70
ATOM     70  S   UNL A   1      44.885  37.113  27.350  1.00  0.00     0.124 S 
ATOM     71  O   UNL A   1      44.027  36.429  26.386  1.00  0.00    -0.237 OA
ATOM     72  O   UNL A   1      44.224  38.071  28.228  1.00  0.00    -0.237 OA
ATOM     73  O   UNL A   1      46.182  37.540  26.824  1.00  0.00    -0.744 OA
ENDBRANCH  66  70
ENDBRANCH  49  63
BRANCH  50  74
ATOM     74  C   UNL A   1      41.057  24.396  27.399  1.00  0.00     0.023 A 
ATOM     75  C   UNL A   1      39.904  24.266  26.607  1.00  0.00     0.031 A 
ATOM     76  C   UNL A   1      41.579  23.231  27.990  1.00  0.00     0.131 A 
ATOM     77  C   UNL A   1      39.281  23.014  26.471  1.00  0.00     0.055 A 
ATOM     78  C   UNL A   1      40.996  21.978  27.796  1.00  0.00     0.041 A 
ATOM     79  F   UNL A   1      42.671  23.293  28.768  1.00  0.00    -0.206 F 
ATOM     80  C   UNL A   1      39.831  21.866  27.045  1.00  0.00     0.022 A 
BRANCH  77  81
ATOM     81  S   UNL A   1      37.680  22.925  25.623  1.00  0.00     0.124 S 
ATOM     82  O   UNL A   1      37.692  21.559  25.112  1.00  0.00    -0.237 OA
ATOM     83  O   UNL A   1      36.747  23.197  26.711  1.00  0.00    -0.237 OA
ATOM     84  O   UNL A   1      37.775  23.973  24.608  1.00  0.00    -0.744 OA
ENDBRANCH  77  81
ENDBRANCH  50  74
BRANCH  62  85
ATOM     85  C   UNL A   1      46.998  27.424  25.320  1.00  0.00     0.023 A 
ATOM     86  C   UNL A   1      47.184  27.846  23.991  1.00  0.00     0.031 A 
ATOM     87  C   UNL A   1      47.927  26.514  25.857  1.00  0.00     0.131 A 
ATOM     88  C   UNL A   1      48.239  27.316  23.230  1.00  0.00     0.055 A 
ATOM     89  C   UNL A   1      49.013  26.045  25.118  1.00  0.00     0.041 A 
ATOM     90  F   UNL A   1      47.800  26.073  27.120  1.00  0.00    -0.206 F 
ATOM     91  C   UNL A   1      49.165  26.434  23.791  1.00  0.00     0.022 A 
BRANCH  88  92
ATOM     92  S   UNL A   1      48.325  27.714  21.461  1.00  0.00     0.124 S 
ATOM     93  O   UNL A   1      49.402  28.698  21.425  1.00  0.00    -0.237 OA
ATOM     94  O   UNL A   1      48.625  26.417  20.863  1.00  0.00    -0.237 OA
ATOM     95  O   UNL A   1      46.994  28.241  21.163  1.00  0.00    -0.744 OA
ENDBRANCH  88  92
ENDBRANCH  62  85
ENDBRANCH  36  37
ENDBRANCH  29  31
ENDBRANCH  28  29
ENDBRANCH  27  28
ENDBRANCH  26  27
ENDBRANCH  25  26
ENDBRANCH  24  25
ENDBRANCH   1  24
TORSDOF 24
ENDMDL
MODEL 2
REMARK VINA RESULT:     -10.3      5.072      8.290
REMARK SMILES C[C@@H](C(=O)OCCOCCOCCOC(=O)c1ccc(-c2c3nc(c(-c4cc(S(=O)(=O)[O-])ccc4F)c4ccc([nH]4)c(-c4cc(S(=O)(=O)[O-])ccc4F)c4nc(c(-c5cc(S(=O)(=O)[O-])ccc5F)c5ccc2[nH]5)C=C4)C=C3)cc1)c1ccc(C[C@@H]2CCC[C@@H]2O)cc1
REMARK SMILES IDX 9 1 8 2 7 3 6 4 5 5 3 6 4 7 2 8 1 9 80 10 81 11 92 12 82 13
REMARK SMILES IDX 91 14 83 15 84 16 85 17 86 18 89 19 87 20 88 21 90 22 10 24
REMARK SMILES IDX 11 25 12 26 13 27 14 28 15 29 16 30 17 31 18 32 79 33 19 34
REMARK SMILES IDX 78 35 20 36 21 37 22 38 72 39 23 40 77 41 71 42 73 43 24 44
REMARK SMILES IDX 76 45 70 46 69 47 25 49 57 50 37 51 56 52 38 53 41 54 55 55
REMARK SMILES IDX 74 56 39 57 40 58 54 60 75 61 42 62 26 63 27 64 35 65 28 66
REMARK SMILES IDX 34 67 36 68 33 69 29 70 30 71 31 72 32 73 58 74 59 75 67 76
REMARK SMILES IDX 60 77 66 78 68 79 65 80 61 81 62 82 63 83 64 84 43 85 44 86
REMARK SMILES IDX 52 87 45 88 51 89 53 90 50 91 46 92 47 93 48 94 49 95
REMARK H PARENT 90 23 73 48 41 59
REMARK Flexibility Score: inf
ROOT
ATOM      1  C   UNL A   1      31.036  29.827  24.898  1.00  0.00     0.188 C 
ENDROOT
BRANCH   1   2
ATOM      2  O   UNL A   1      30.531  28.647  24.280  1.00  0.00    -0.376 OA
BRANCH   2   3
ATOM      3  C   UNL A   1      30.355  28.651  22.864  1.00  0.00     0.202 C 
BRANCH   3   4
ATOM      4  C   UNL A   1      31.424  27.995  21.967  1.00  0.00     0.261 C 
BRANCH   4   5
ATOM      5  O   UNL A   1      31.477  26.556  22.061  1.00  0.00    -0.463 OA
BRANCH   5   6
ATOM      6  C   UNL A   1      32.686  26.003  22.342  1.00  0.00     0.313 C 
ATOM      7  O   UNL A   1      33.651  26.065  21.583  1.00  0.00    -0.252 OA
BRANCH   6   8
ATOM      8  C   UNL A   1      32.765  25.351  23.734  1.00  0.00     0.126 C 
ATOM      9  C   UNL A   1      33.670  26.116  24.714  1.00  0.00     0.025 C 
BRANCH   8  10
ATOM     10  C   UNL A   1      32.923  23.824  23.724  1.00  0.00    -0.034 A 
ATOM     11  C   UNL A   1      32.547  23.074  22.596  1.00  0.00     0.005 A 
ATOM     12  C   UNL A   1      33.308  23.100  24.867  1.00  0.00     0.005 A 
ATOM     13  C   UNL A   1      32.487  21.676  22.630  1.00  0.00     0.004 A 
ATOM     14  C   UNL A   1      33.230  21.699  24.906  1.00  0.00     0.004 A 
ATOM     15  C   UNL A   1      32.744  20.978  23.810  1.00  0.00    -0.048 A 
BRANCH  15  16
ATOM     16  C   UNL A   1      32.446  19.498  23.918  1.00  0.00     0.041 C 
BRANCH  16  17
ATOM     17  C   UNL A   1      33.592  18.546  24.345  1.00  0.00     0.022 C 
ATOM     18  C   UNL A   1      33.899  17.404  23.365  1.00  0.00     0.007 C 
ATOM     19  C   UNL A   1      33.439  17.794  25.671  1.00  0.00     0.117 C 
ATOM     20  C   UNL A   1      33.208  16.151  23.915  1.00  0.00     0.003 C 
ATOM     21  C   UNL A   1      32.703  16.510  25.308  1.00  0.00     0.032 C 
BRANCH  19  22
ATOM     22  O   UNL A   1      32.791  18.522  26.694  1.00  0.00    -0.393 OA
ATOM     23  H   UNL A   1      33.297  19.326  26.890  1.00  0.00     0.210 HD
ENDBRANCH  19  22
ENDBRANCH  16  17
ENDBRANCH  15  16
ENDBRANCH   8  10
ENDBRANCH   6   8
ENDBRANCH   5   6
ENDBRANCH   4   5
ENDBRANCH   3   4
ENDBRANCH   2   3
ENDBRANCH   1   2
BRANCH   1  24
ATOM     24  C   UNL A   1      32.058  29.672  26.035  1.00  0.00     0.188 C 
BRANCH  24  25
ATOM     25  O   UNL A   1      32.348  30.861  26.732  1.00  0.00    -0.376 OA
BRANCH  25  26
ATOM     26  C   UNL A   1      31.488  31.976  26.587  1.00  0.00     0.202 C 
BRANCH  26  27
ATOM     27  C   UNL A   1      31.895  33.396  27.036  1.00  0.00     0.261 C 
BRANCH  27  28
ATOM     28  O   UNL A   1      32.802  33.520  28.140  1.00  0.00    -0.460 OA
BRANCH  28  29
ATOM     29  C   UNL A   1      33.942  34.220  27.928  1.00  0.00     0.338 C 
ATOM     30  O   UNL A   1      34.022  35.404  27.630  1.00  0.00    -0.246 OA
BRANCH  29  31
ATOM     31  C   UNL A   1      35.074  33.374  28.374  1.00  0.00     0.060 A 
ATOM     32  C   UNL A   1      34.835  32.031  28.704  1.00  0.00     0.016 A 
ATOM     33  C   UNL A   1      36.370  33.890  28.429  1.00  0.00     0.016 A 
ATOM     34  C   UNL A   1      35.888  31.206  29.104  1.00  0.00     0.010 A 
ATOM     35  C   UNL A   1      37.419  33.070  28.861  1.00  0.00     0.010 A 
ATOM     36  C   UNL A   1      37.180  31.732  29.225  1.00  0.00    -0.014 A 
BRANCH  36  37
ATOM     37  C   UNL A   1      38.237  30.950  29.918  1.00  0.00     0.031 A 
ATOM     38  C   UNL A   1      38.475  31.222  31.378  1.00  0.00     0.074 A 
ATOM     39  C   UNL A   1      38.961  30.013  29.278  1.00  0.00     0.049 A 
ATOM     40  N   UNL A   1      39.388  30.736  32.178  1.00  0.00    -0.248 NA
ATOM     41  C   UNL A   1      37.565  32.185  32.015  1.00  0.00     0.031 C 
ATOM     42  C   UNL A   1      38.791  29.628  27.880  1.00  0.00     0.029 A 
ATOM     43  N   UNL A   1      39.988  29.217  29.725  1.00  0.00    -0.354 N 
ATOM     44  C   UNL A   1      39.180  31.352  33.407  1.00  0.00     0.074 A 
ATOM     45  C   UNL A   1      38.068  32.264  33.237  1.00  0.00     0.031 C 
ATOM     46  C   UNL A   1      39.682  28.665  27.584  1.00  0.00     0.029 A 
ATOM     47  C   UNL A   1      40.514  28.393  28.757  1.00  0.00     0.049 A 
ATOM     48  H   UNL A   1      40.317  29.235  30.652  1.00  0.00     0.167 HD
ATOM     49  C   UNL A   1      39.858  31.179  34.568  1.00  0.00     0.034 A 
ATOM     50  C   UNL A   1      41.558  27.539  28.807  1.00  0.00     0.034 A 
ATOM     51  C   UNL A   1      40.970  30.274  34.719  1.00  0.00     0.049 A 
ATOM     52  C   UNL A   1      42.346  27.418  30.094  1.00  0.00     0.074 A 
ATOM     53  C   UNL A   1      41.720  30.016  35.853  1.00  0.00     0.029 A 
ATOM     54  N   UNL A   1      41.505  29.489  33.704  1.00  0.00    -0.354 N 
ATOM     55  N   UNL A   1      42.146  28.012  31.248  1.00  0.00    -0.248 NA
ATOM     56  C   UNL A   1      43.508  26.518  30.079  1.00  0.00     0.031 C 
ATOM     57  C   UNL A   1      42.759  29.146  35.504  1.00  0.00     0.029 A 
ATOM     58  C   UNL A   1      42.598  28.780  34.177  1.00  0.00     0.049 A 
ATOM     59  H   UNL A   1      41.157  29.443  32.784  1.00  0.00     0.167 HD
ATOM     60  C   UNL A   1      43.139  27.533  32.102  1.00  0.00     0.074 A 
ATOM     61  C   UNL A   1      43.923  26.588  31.335  1.00  0.00     0.031 C 
ATOM     62  C   UNL A   1      43.381  27.845  33.402  1.00  0.00     0.034 A 
BRANCH  49  63
ATOM     63  C   UNL A   1      39.456  32.040  35.741  1.00  0.00     0.023 A 
ATOM     64  C   UNL A   1      40.047  33.291  35.987  1.00  0.00     0.031 A 
ATOM     65  C   UNL A   1      38.480  31.584  36.646  1.00  0.00     0.131 A 
ATOM     66  C   UNL A   1      39.710  34.008  37.146  1.00  0.00     0.055 A 
ATOM     67  C   UNL A   1      38.087  32.342  37.750  1.00  0.00     0.041 A 
ATOM     68  F   UNL A   1      37.900  30.384  36.481  1.00  0.00    -0.206 F 
ATOM     69  C   UNL A   1      38.714  33.555  38.014  1.00  0.00     0.022 A 
BRANCH  66  70
ATOM     70  S   UNL A   1      40.702  35.462  37.583  1.00  0.00     0.124 S 
ATOM     71  O   UNL A   1      41.145  35.123  38.933  1.00  0.00    -0.237 OA
ATOM     72  O   UNL A   1      41.734  35.462  36.553  1.00  0.00    -0.237 OA
ATOM     73  O   UNL A   1      39.745  36.565  37.508  1.00  0.00    -0.744 OA
ENDBRANCH  66  70
ENDBRANCH  49  63
BRANCH  50  74
ATOM     74  C   UNL A   1      41.966  26.757  27.600  1.00  0.00     0.023 A 
ATOM     75  C   UNL A   1      41.687  25.384  27.495  1.00  0.00     0.031 A 
ATOM     76  C   UNL A   1      42.711  27.353  26.566  1.00  0.00     0.131 A 
ATOM     77  C   UNL A   1      42.194  24.644  26.414  1.00  0.00     0.055 A 
ATOM     78  C   UNL A   1      43.153  26.627  25.459  1.00  0.00     0.041 A 
ATOM     79  F   UNL A   1      43.021  28.658  26.616  1.00  0.00    -0.206 F 
ATOM     80  C   UNL A   1      42.909  25.260  25.386  1.00  0.00     0.022 A 
BRANCH  77  81
ATOM     81  S   UNL A   1      41.997  22.840  26.425  1.00  0.00     0.124 S 
ATOM     82  O   UNL A   1      40.571  22.700  26.695  1.00  0.00    -0.237 OA
ATOM     83  O   UNL A   1      42.436  22.481  25.080  1.00  0.00    -0.237 OA
ATOM     84  O   UNL A   1      42.883  22.409  27.505  1.00  0.00    -0.744 OA
ENDBRANCH  77  81
ENDBRANCH  50  74
BRANCH  62  85
ATOM     85  C   UNL A   1      44.511  27.116  34.095  1.00  0.00     0.023 A 
ATOM     86  C   UNL A   1      44.361  25.811  34.597  1.00  0.00     0.031 A 
ATOM     87  C   UNL A   1      45.762  27.741  34.254  1.00  0.00     0.131 A 
ATOM     88  C   UNL A   1      45.423  25.198  35.282  1.00  0.00     0.055 A 
ATOM     89  C   UNL A   1      46.835  27.101  34.873  1.00  0.00     0.041 A 
ATOM     90  F   UNL A   1      45.964  28.989  33.798  1.00  0.00    -0.206 F 
ATOM     91  C   UNL A   1      46.665  25.826  35.405  1.00  0.00     0.022 A 
BRANCH  88  92
ATOM     92  S   UNL A   1      45.130  23.605  36.101  1.00  0.00     0.124 S 
ATOM     93  O   UNL A   1      45.096  23.991  37.509  1.00  0.00    -0.237 OA
ATOM     94  O   UNL A   1      43.857  23.186  35.524  1.00  0.00    -0.237 OA
ATOM     95  O   UNL A   1      46.285  22.799  35.707  1.00  0.00    -0.744 OA
ENDBRANCH  88  92
ENDBRANCH  62  85
ENDBRANCH  36  37
ENDBRANCH  29  31
ENDBRANCH  28  29
ENDBRANCH  27  28
ENDBRANCH  26  27
ENDBRANCH  25  26
ENDBRANCH  24  25
ENDBRANCH   1  24
TORSDOF 24
ENDMDL
MODEL 3
REMARK VINA RESULT:     -10.0      4.528      8.182
REMARK SMILES C[C@@H](C(=O)OCCOCCOCCOC(=O)c1ccc(-c2c3nc(c(-c4cc(S(=O)(=O)[O-])ccc4F)c4ccc([nH]4)c(-c4cc(S(=O)(=O)[O-])ccc4F)c4nc(c(-c5cc(S(=O)(=O)[O-])ccc5F)c5ccc2[nH]5)C=C4)C=C3)cc1)c1ccc(C[C@@H]2CCC[C@@H]2O)cc1
REMARK SMILES IDX 9 1 8 2 7 3 6 4 5 5 3 6 4 7 2 8 1 9 80 10 81 11 92 12 82 13
REMARK SMILES IDX 91 14 83 15 84 16 85 17 86 18 89 19 87 20 88 21 90 22 10 24
REMARK SMILES IDX 11 25 12 26 13 27 14 28 15 29 16 30 17 31 18 32 79 33 19 34
REMARK SMILES IDX 78 35 20 36 21 37 22 38 72 39 23 40 77 41 71 42 73 43 24 44
REMARK SMILES IDX 76 45 70 46 69 47 25 49 57 50 37 51 56 52 38 53 41 54 55 55
REMARK SMILES IDX 74 56 39 57 40 58 54 60 75 61 42 62 26 63 27 64 35 65 28 66
REMARK SMILES IDX 34 67 36 68 33 69 29 70 30 71 31 72 32 73 58 74 59 75 67 76
REMARK SMILES IDX 60 77 66 78 68 79 65 80 61 81 62 82 63 83 64 84 43 85 44 86
REMARK SMILES IDX 52 87 45 88 51 89 53 90 50 91 46 92 47 93 48 94 49 95
REMARK H PARENT 90 23 73 48 41 59
REMARK Flexibility Score: inf
ROOT
ATOM      1  C   UNL A   1      32.596  36.235  31.140  1.00  0.00     0.188 C 
ENDROOT
BRANCH   1   2
ATOM      2  O   UNL A   1      32.316  36.362  29.749  1.00  0.00    -0.376 OA
BRANCH   2   3
ATOM      3  C   UNL A   1      33.327  35.972  28.821  1.00  0.00     0.202 C 
BRANCH   3   4
ATOM      4  C   UNL A   1      33.518  34.477  28.495  1.00  0.00     0.261 C 
BRANCH   4   5
ATOM      5  O   UNL A   1      34.782  33.931  28.925  1.00  0.00    -0.463 OA
BRANCH   5   6
ATOM      6  C   UNL A   1      35.004  32.616  28.665  1.00  0.00     0.313 C 
ATOM      7  O   UNL A   1      35.109  32.160  27.528  1.00  0.00    -0.252 OA
BRANCH   6   8
ATOM      8  C   UNL A   1      35.187  31.753  29.926  1.00  0.00     0.126 C 
ATOM      9  C   UNL A   1      34.760  32.468  31.219  1.00  0.00     0.025 C 
BRANCH   8  10
ATOM     10  C   UNL A   1      36.511  30.978  29.992  1.00  0.00    -0.034 A 
ATOM     11  C   UNL A   1      37.710  31.575  29.565  1.00  0.00     0.005 A 
ATOM     12  C   UNL A   1      36.569  29.616  30.337  1.00  0.00     0.005 A 
ATOM     13  C   UNL A   1      38.888  30.834  29.421  1.00  0.00     0.004 A 
ATOM     14  C   UNL A   1      37.747  28.870  30.174  1.00  0.00     0.004 A 
ATOM     15  C   UNL A   1      38.898  29.457  29.641  1.00  0.00    -0.048 A 
BRANCH  15  16
ATOM     16  C   UNL A   1      40.096  28.617  29.254  1.00  0.00     0.041 C 
BRANCH  16  17
ATOM     17  C   UNL A   1      41.124  29.215  28.259  1.00  0.00     0.022 C 
ATOM     18  C   UNL A   1      40.850  28.926  26.776  1.00  0.00     0.007 C 
ATOM     19  C   UNL A   1      42.588  28.787  28.401  1.00  0.00     0.117 C 
ATOM     20  C   UNL A   1      41.762  27.759  26.377  1.00  0.00     0.003 C 
ATOM     21  C   UNL A   1      42.711  27.531  27.547  1.00  0.00     0.032 C 
BRANCH  19  22
ATOM     22  O   UNL A   1      43.021  28.585  29.731  1.00  0.00    -0.393 OA
ATOM     23  H   UNL A   1      43.447  29.393  30.059  1.00  0.00     0.210 HD
ENDBRANCH  19  22
ENDBRANCH  16  17
ENDBRANCH  15  16
ENDBRANCH   8  10
ENDBRANCH   6   8
ENDBRANCH   5   6
ENDBRANCH   4   5
ENDBRANCH   3   4
ENDBRANCH   2   3
ENDBRANCH   1   2
BRANCH   1  24
ATOM     24  C   UNL A   1      33.317  37.394  31.845  1.00  0.00     0.188 C 
BRANCH  24  25
ATOM     25  O   UNL A   1      34.277  36.999  32.797  1.00  0.00    -0.376 OA
BRANCH  25  26
ATOM     26  C   UNL A   1      34.395  35.629  33.133  1.00  0.00     0.202 C 
BRANCH  26  27
ATOM     27  C   UNL A   1      35.743  34.990  33.530  1.00  0.00     0.261 C 
BRANCH  27  28
ATOM     28  O   UNL A   1      35.728  33.652  34.047  1.00  0.00    -0.460 OA
BRANCH  28  29
ATOM     29  C   UNL A   1      36.559  33.379  35.080  1.00  0.00     0.338 C 
ATOM     30  O   UNL A   1      36.293  33.476  36.271  1.00  0.00    -0.246 OA
BRANCH  29  31
ATOM     31  C   UNL A   1      37.751  32.694  34.526  1.00  0.00     0.060 A 
ATOM     32  C   UNL A   1      39.020  33.021  35.027  1.00  0.00     0.016 A 
ATOM     33  C   UNL A   1      37.615  31.708  33.547  1.00  0.00     0.016 A 
ATOM     34  C   UNL A   1      40.158  32.374  34.539  1.00  0.00     0.010 A 
ATOM     35  C   UNL A   1      38.759  31.084  33.037  1.00  0.00     0.010 A 
ATOM     36  C   UNL A   1      40.038  31.431  33.511  1.00  0.00    -0.014 A 
BRANCH  36  37
ATOM     37  C   UNL A   1      41.250  30.956  32.796  1.00  0.00     0.031 A 
ATOM     38  C   UNL A   1      41.919  29.703  33.292  1.00  0.00     0.074 A 
ATOM     39  C   UNL A   1      41.744  31.607  31.727  1.00  0.00     0.049 A 
ATOM     40  N   UNL A   1      43.028  29.137  32.894  1.00  0.00    -0.248 NA
ATOM     41  C   UNL A   1      41.247  29.005  34.398  1.00  0.00     0.031 C 
ATOM     42  C   UNL A   1      41.159  32.802  31.125  1.00  0.00     0.029 A 
ATOM     43  N   UNL A   1      42.854  31.351  30.958  1.00  0.00    -0.354 N 
ATOM     44  C   UNL A   1      43.203  28.030  33.717  1.00  0.00     0.074 A 
ATOM     45  C   UNL A   1      42.096  28.019  34.649  1.00  0.00     0.031 C 
ATOM     46  C   UNL A   1      41.916  33.175  30.077  1.00  0.00     0.029 A 
ATOM     47  C   UNL A   1      43.061  32.271  29.956  1.00  0.00     0.049 A 
ATOM     48  H   UNL A   1      43.448  30.581  31.111  1.00  0.00     0.167 HD
ATOM     49  C   UNL A   1      44.198  27.109  33.700  1.00  0.00     0.034 A 
ATOM     50  C   UNL A   1      44.067  32.384  29.064  1.00  0.00     0.034 A 
ATOM     51  C   UNL A   1      45.301  27.138  32.770  1.00  0.00     0.049 A 
ATOM     52  C   UNL A   1      45.206  31.387  29.113  1.00  0.00     0.074 A 
ATOM     53  C   UNL A   1      46.356  26.249  32.662  1.00  0.00     0.029 A 
ATOM     54  N   UNL A   1      45.501  28.111  31.799  1.00  0.00    -0.354 N 
ATOM     55  N   UNL A   1      45.365  30.348  29.901  1.00  0.00    -0.248 NA
ATOM     56  C   UNL A   1      46.306  31.587  28.159  1.00  0.00     0.031 C 
ATOM     57  C   UNL A   1      47.237  26.731  31.688  1.00  0.00     0.029 A 
ATOM     58  C   UNL A   1      46.683  27.866  31.117  1.00  0.00     0.049 A 
ATOM     59  H   UNL A   1      44.892  28.864  31.621  1.00  0.00     0.167 HD
ATOM     60  C   UNL A   1      46.568  29.756  29.514  1.00  0.00     0.074 A 
ATOM     61  C   UNL A   1      47.080  30.542  28.413  1.00  0.00     0.031 C 
ATOM     62  C   UNL A   1      47.192  28.662  30.023  1.00  0.00     0.034 A 
BRANCH  49  63
ATOM     63  C   UNL A   1      44.172  26.039  34.765  1.00  0.00     0.023 A 
ATOM     64  C   UNL A   1      44.422  26.326  36.118  1.00  0.00     0.031 A 
ATOM     65  C   UNL A   1      43.919  24.701  34.412  1.00  0.00     0.131 A 
ATOM     66  C   UNL A   1      44.485  25.282  37.054  1.00  0.00     0.055 A 
ATOM     67  C   UNL A   1      43.897  23.680  35.362  1.00  0.00     0.041 A 
ATOM     68  F   UNL A   1      43.703  24.360  33.131  1.00  0.00    -0.206 F 
ATOM     69  C   UNL A   1      44.196  23.965  36.690  1.00  0.00     0.022 A 
BRANCH  66  70
ATOM     70  S   UNL A   1      45.101  25.649  38.720  1.00  0.00     0.124 S 
ATOM     71  O   UNL A   1      46.343  26.359  38.427  1.00  0.00    -0.237 OA
ATOM     72  O   UNL A   1      44.023  26.452  39.285  1.00  0.00    -0.237 OA
ATOM     73  O   UNL A   1      45.275  24.326  39.320  1.00  0.00    -0.744 OA
ENDBRANCH  66  70
ENDBRANCH  49  63
BRANCH  50  74
ATOM     74  C   UNL A   1      44.090  33.500  28.070  1.00  0.00     0.023 A 
ATOM     75  C   UNL A   1      44.277  34.832  28.477  1.00  0.00     0.031 A 
ATOM     76  C   UNL A   1      43.848  33.262  26.705  1.00  0.00     0.131 A 
ATOM     77  C   UNL A   1      44.165  35.875  27.543  1.00  0.00     0.055 A 
ATOM     78  C   UNL A   1      43.806  34.297  25.769  1.00  0.00     0.041 A 
ATOM     79  F   UNL A   1      43.648  32.012  26.257  1.00  0.00    -0.206 F 
ATOM     80  C   UNL A   1      43.950  35.614  26.188  1.00  0.00     0.022 A 
BRANCH  77  81
ATOM     81  S   UNL A   1      44.197  37.588  28.142  1.00  0.00     0.124 S 
ATOM     82  O   UNL A   1      45.540  37.679  28.704  1.00  0.00    -0.237 OA
ATOM     83  O   UNL A   1      43.960  38.340  26.914  1.00  0.00    -0.237 OA
ATOM     84  O   UNL A   1      43.108  37.626  29.116  1.00  0.00    -0.744 OA
ENDBRANCH  77  81
ENDBRANCH  50  74
BRANCH  62  85
ATOM     85  C   UNL A   1      48.475  28.217  29.356  1.00  0.00     0.023 A 
ATOM     86  C   UNL A   1      48.500  27.191  28.395  1.00  0.00     0.031 A 
ATOM     87  C   UNL A   1      49.694  28.836  29.689  1.00  0.00     0.131 A 
ATOM     88  C   UNL A   1      49.724  26.777  27.845  1.00  0.00     0.055 A 
ATOM     89  C   UNL A   1      50.898  28.468  29.088  1.00  0.00     0.041 A 
ATOM     90  F   UNL A   1      49.733  29.820  30.602  1.00  0.00    -0.206 F 
ATOM     91  C   UNL A   1      50.920  27.422  28.170  1.00  0.00     0.022 A 
BRANCH  88  92
ATOM     92  S   UNL A   1      49.749  25.312  26.774  1.00  0.00     0.124 S 
ATOM     93  O   UNL A   1      49.460  25.890  25.465  1.00  0.00    -0.237 OA
ATOM     94  O   UNL A   1      51.106  24.809  26.962  1.00  0.00    -0.237 OA
ATOM     95  O   UNL A   1      48.692  24.465  27.325  1.00  0.00    -0.744 OA
ENDBRANCH  88  92
ENDBRANCH  62  85
ENDBRANCH  36  37
ENDBRANCH  29  31
ENDBRANCH  28  29
ENDBRANCH  27  28
ENDBRANCH  26  27
ENDBRANCH  25  26
ENDBRANCH  24  25
ENDBRANCH   1  24
TORSDOF 24
ENDMDL
