MODEL 1
REMARK VINA RESULT:     -10.2      0.000      0.000
REMARK SMILES O=C(Cc1cccn(C(F)F)c1=O)OCCOCCOCCOC(=O)c1ccc(-c2c3nc(c(-c4cc(S(=O)(=O)[O-])ccc4F)c4ccc([nH]4)c(-c4cc(S(=O)(=O)[O-])ccc4F)c4nc(c(-c5cc(S(=O)(=O)[O-])ccc5F)c5ccc2[nH]5)C=C4)C=C3)cc1
REMARK SMILES IDX 19 1 18 2 17 3 16 4 15 5 14 6 2 7 1 8 3 9 4 10 5 11 12 12
REMARK SMILES IDX 6 13 8 14 13 15 7 16 9 17 10 18 11 19 20 20 21 21 22 22
REMARK SMILES IDX 23 23 24 24 25 25 26 26 27 27 88 28 28 29 87 30 29 31 30 32
REMARK SMILES IDX 31 33 81 34 32 35 86 36 80 37 82 38 33 39 85 40 79 41 78 42
REMARK SMILES IDX 34 44 66 45 46 46 65 47 47 48 50 49 64 50 83 51 48 52 49 53
REMARK SMILES IDX 63 55 84 56 51 57 35 58 36 59 44 60 37 61 43 62 45 63 42 64
REMARK SMILES IDX 38 65 39 66 40 67 41 68 67 69 68 70 76 71 69 72 75 73 77 74
REMARK SMILES IDX 74 75 70 76 71 77 72 78 73 79 52 80 53 81 61 82 54 83 60 84
REMARK SMILES IDX 62 85 59 86 55 87 56 88 57 89 58 90
REMARK H PARENT 82 43 50 54
REMARK Flexibility Score: inf
ROOT
ATOM      1  C   UNL A   1      30.303  29.145  23.605  1.00  0.00     0.188 C 
ENDROOT
BRANCH   1   2
ATOM      2  C   UNL A   1      31.307  28.576  22.592  1.00  0.00     0.188 C 
BRANCH   2   3
ATOM      3  O   UNL A   1      32.653  28.943  22.819  1.00  0.00    -0.376 OA
BRANCH   3   4
ATOM      4  C   UNL A   1      33.637  27.975  22.515  1.00  0.00     0.202 C 
BRANCH   4   5
ATOM      5  C   UNL A   1      33.072  26.687  21.927  1.00  0.00     0.261 C 
BRANCH   5   6
ATOM      6  O   UNL A   1      33.017  25.506  22.771  1.00  0.00    -0.463 OA
BRANCH   6   7
ATOM      7  C   UNL A   1      33.860  24.473  22.971  1.00  0.00     0.310 C 
ATOM      8  O   UNL A   1      34.095  23.717  22.029  1.00  0.00    -0.252 OA
BRANCH   7   9
ATOM      9  C   UNL A   1      34.422  24.165  24.346  1.00  0.00     0.164 C 
BRANCH   9  10
ATOM     10  C   UNL A   1      35.198  22.903  24.531  1.00  0.00     0.029 A 
ATOM     11  C   UNL A   1      36.535  22.787  24.562  1.00  0.00     0.011 A 
ATOM     12  C   UNL A   1      34.353  21.667  24.700  1.00  0.00     0.258 A 
ATOM     13  C   UNL A   1      37.164  21.522  24.823  1.00  0.00     0.019 A 
ATOM     14  N   UNL A   1      35.041  20.478  24.840  1.00  0.00    -0.258 N 
ATOM     15  O   UNL A   1      33.129  21.760  24.719  1.00  0.00    -0.269 OA
ATOM     16  C   UNL A   1      36.418  20.418  24.930  1.00  0.00     0.095 A 
BRANCH  14  17
ATOM     17  C   UNL A   1      34.274  19.255  24.817  1.00  0.00     0.451 C 
ATOM     18  F   UNL A   1      33.398  19.313  23.779  1.00  0.00    -0.185 F 
ATOM     19  F   UNL A   1      35.100  18.208  24.551  1.00  0.00    -0.185 F 
ENDBRANCH  14  17
ENDBRANCH   9  10
ENDBRANCH   7   9
ENDBRANCH   6   7
ENDBRANCH   5   6
ENDBRANCH   4   5
ENDBRANCH   3   4
ENDBRANCH   2   3
ENDBRANCH   1   2
BRANCH   1  20
ATOM     20  O   UNL A   1      30.694  30.208  24.459  1.00  0.00    -0.376 OA
BRANCH  20  21
ATOM     21  C   UNL A   1      31.497  29.922  25.597  1.00  0.00     0.202 C 
BRANCH  21  22
ATOM     22  C   UNL A   1      31.960  31.074  26.507  1.00  0.00     0.261 C 
BRANCH  22  23
ATOM     23  O   UNL A   1      33.067  30.783  27.384  1.00  0.00    -0.460 OA
BRANCH  23  24
ATOM     24  C   UNL A   1      33.928  31.810  27.627  1.00  0.00     0.338 C 
ATOM     25  O   UNL A   1      33.662  32.996  27.617  1.00  0.00    -0.246 OA
BRANCH  24  26
ATOM     26  C   UNL A   1      35.238  31.277  28.078  1.00  0.00     0.060 A 
ATOM     27  C   UNL A   1      36.334  32.120  28.259  1.00  0.00     0.016 A 
ATOM     28  C   UNL A   1      35.354  29.908  28.360  1.00  0.00     0.016 A 
ATOM     29  C   UNL A   1      37.541  31.591  28.740  1.00  0.00     0.010 A 
ATOM     30  C   UNL A   1      36.567  29.379  28.819  1.00  0.00     0.010 A 
ATOM     31  C   UNL A   1      37.669  30.219  29.034  1.00  0.00    -0.014 A 
BRANCH  31  32
ATOM     32  C   UNL A   1      38.893  29.703  29.709  1.00  0.00     0.031 A 
ATOM     33  C   UNL A   1      39.335  30.208  31.054  1.00  0.00     0.074 A 
ATOM     34  C   UNL A   1      39.629  28.769  29.075  1.00  0.00     0.049 A 
ATOM     35  N   UNL A   1      40.344  29.806  31.786  1.00  0.00    -0.248 NA
ATOM     36  C   UNL A   1      38.554  31.299  31.656  1.00  0.00     0.031 C 
ATOM     37  C   UNL A   1      39.322  28.232  27.749  1.00  0.00     0.029 A 
ATOM     38  N   UNL A   1      40.777  28.107  29.444  1.00  0.00    -0.354 N 
ATOM     39  C   UNL A   1      40.315  30.580  32.941  1.00  0.00     0.074 A 
ATOM     40  C   UNL A   1      39.211  31.505  32.793  1.00  0.00     0.031 C 
ATOM     41  C   UNL A   1      40.243  27.312  27.426  1.00  0.00     0.029 A 
ATOM     42  C   UNL A   1      41.232  27.216  28.498  1.00  0.00     0.049 A 
ATOM     43  H   UNL A   1      41.231  28.257  30.305  1.00  0.00     0.167 HD
ATOM     44  C   UNL A   1      41.122  30.503  34.027  1.00  0.00     0.034 A 
ATOM     45  C   UNL A   1      42.317  26.413  28.485  1.00  0.00     0.034 A 
ATOM     46  C   UNL A   1      42.220  29.573  34.158  1.00  0.00     0.049 A 
ATOM     47  C   UNL A   1      43.218  26.371  29.696  1.00  0.00     0.074 A 
ATOM     48  C   UNL A   1      43.049  29.385  35.252  1.00  0.00     0.029 A 
ATOM     49  N   UNL A   1      42.652  28.688  33.181  1.00  0.00    -0.354 N 
ATOM     50  N   UNL A   1      43.099  27.018  30.830  1.00  0.00    -0.248 NA
ATOM     51  C   UNL A   1      44.388  25.481  29.640  1.00  0.00     0.031 C 
ATOM     52  C   UNL A   1      44.030  28.458  34.908  1.00  0.00     0.029 A 
ATOM     53  C   UNL A   1      43.760  27.986  33.634  1.00  0.00     0.049 A 
ATOM     54  H   UNL A   1      42.235  28.576  32.296  1.00  0.00     0.167 HD
ATOM     55  C   UNL A   1      44.155  26.591  31.631  1.00  0.00     0.074 A 
ATOM     56  C   UNL A   1      44.892  25.612  30.860  1.00  0.00     0.031 C 
ATOM     57  C   UNL A   1      44.481  26.982  32.888  1.00  0.00     0.034 A 
BRANCH  44  58
ATOM     58  C   UNL A   1      40.864  31.411  35.209  1.00  0.00     0.023 A 
ATOM     59  C   UNL A   1      39.728  31.207  36.019  1.00  0.00     0.031 A 
ATOM     60  C   UNL A   1      41.611  32.588  35.397  1.00  0.00     0.131 A 
ATOM     61  C   UNL A   1      39.339  32.194  36.936  1.00  0.00     0.055 A 
ATOM     62  C   UNL A   1      41.245  33.545  36.345  1.00  0.00     0.041 A 
ATOM     63  F   UNL A   1      42.694  32.836  34.644  1.00  0.00    -0.206 F 
ATOM     64  C   UNL A   1      40.094  33.359  37.106  1.00  0.00     0.022 A 
BRANCH  61  65
ATOM     65  S   UNL A   1      37.788  32.054  37.867  1.00  0.00     0.124 S 
ATOM     66  O   UNL A   1      36.930  33.005  37.162  1.00  0.00    -0.237 OA
ATOM     67  O   UNL A   1      37.444  30.648  37.679  1.00  0.00    -0.237 OA
ATOM     68  O   UNL A   1      38.156  32.442  39.224  1.00  0.00    -0.744 OA
ENDBRANCH  61  65
ENDBRANCH  44  58
BRANCH  45  69
ATOM     69  C   UNL A   1      42.570  25.550  27.291  1.00  0.00     0.023 A 
ATOM     70  C   UNL A   1      42.085  24.231  27.241  1.00  0.00     0.031 A 
ATOM     71  C   UNL A   1      43.373  25.996  26.227  1.00  0.00     0.131 A 
ATOM     72  C   UNL A   1      42.464  23.385  26.190  1.00  0.00     0.055 A 
ATOM     73  C   UNL A   1      43.682  25.175  25.140  1.00  0.00     0.041 A 
ATOM     74  F   UNL A   1      43.873  27.242  26.232  1.00  0.00    -0.206 F 
ATOM     75  C   UNL A   1      43.241  23.856  25.128  1.00  0.00     0.022 A 
BRANCH  72  76
ATOM     76  S   UNL A   1      42.076  21.613  26.237  1.00  0.00     0.124 S 
ATOM     77  O   UNL A   1      40.680  21.595  25.811  1.00  0.00    -0.237 OA
ATOM     78  O   UNL A   1      43.036  21.073  25.277  1.00  0.00    -0.237 OA
ATOM     79  O   UNL A   1      42.316  21.245  27.628  1.00  0.00    -0.744 OA
ENDBRANCH  72  76
ENDBRANCH  45  69
BRANCH  57  80
ATOM     80  C   UNL A   1      45.678  26.360  33.573  1.00  0.00     0.023 A 
ATOM     81  C   UNL A   1      45.495  25.271  34.449  1.00  0.00     0.031 A 
ATOM     82  C   UNL A   1      46.948  26.961  33.523  1.00  0.00     0.131 A 
ATOM     83  C   UNL A   1      46.539  24.863  35.287  1.00  0.00     0.055 A 
ATOM     84  C   UNL A   1      48.003  26.511  34.319  1.00  0.00     0.041 A 
ATOM     85  F   UNL A   1      47.175  28.008  32.714  1.00  0.00    -0.206 F 
ATOM     86  C   UNL A   1      47.796  25.472  35.222  1.00  0.00     0.022 A 
BRANCH  83  87
ATOM     87  S   UNL A   1      46.274  23.608  36.573  1.00  0.00     0.124 S 
ATOM     88  O   UNL A   1      45.056  22.948  36.106  1.00  0.00    -0.237 OA
ATOM     89  O   UNL A   1      47.491  22.810  36.478  1.00  0.00    -0.237 OA
ATOM     90  O   UNL A   1      46.124  24.386  37.799  1.00  0.00    -0.744 OA
ENDBRANCH  83  87
ENDBRANCH  57  80
ENDBRANCH  31  32
ENDBRANCH  24  26
ENDBRANCH  23  24
ENDBRANCH  22  23
ENDBRANCH  21  22
ENDBRANCH  20  21
ENDBRANCH   1  20
TORSDOF 22
ENDMDL
MODEL 2
REMARK VINA RESULT:     -10.2      1.896      2.441
REMARK SMILES O=C(Cc1cccn(C(F)F)c1=O)OCCOCCOCCOC(=O)c1ccc(-c2c3nc(c(-c4cc(S(=O)(=O)[O-])ccc4F)c4ccc([nH]4)c(-c4cc(S(=O)(=O)[O-])ccc4F)c4nc(c(-c5cc(S(=O)(=O)[O-])ccc5F)c5ccc2[nH]5)C=C4)C=C3)cc1
REMARK SMILES IDX 19 1 18 2 17 3 16 4 15 5 14 6 2 7 1 8 3 9 4 10 5 11 12 12
REMARK SMILES IDX 6 13 8 14 13 15 7 16 9 17 10 18 11 19 20 20 21 21 22 22
REMARK SMILES IDX 23 23 24 24 25 25 26 26 27 27 88 28 28 29 87 30 29 31 30 32
REMARK SMILES IDX 31 33 81 34 32 35 86 36 80 37 82 38 33 39 85 40 79 41 78 42
REMARK SMILES IDX 34 44 66 45 46 46 65 47 47 48 50 49 64 50 83 51 48 52 49 53
REMARK SMILES IDX 63 55 84 56 51 57 35 58 36 59 44 60 37 61 43 62 45 63 42 64
REMARK SMILES IDX 38 65 39 66 40 67 41 68 67 69 68 70 76 71 69 72 75 73 77 74
REMARK SMILES IDX 74 75 70 76 71 77 72 78 73 79 52 80 53 81 61 82 54 83 60 84
REMARK SMILES IDX 62 85 59 86 55 87 56 88 57 89 58 90
REMARK H PARENT 82 43 50 54
REMARK Flexibility Score: inf
ROOT
ATOM      1  C   UNL A   1      30.823  27.666  22.988  1.00  0.00     0.188 C 
ENDROOT
BRANCH   1   2
ATOM      2  C   UNL A   1      31.365  26.308  22.518  1.00  0.00     0.188 C 
BRANCH   2   3
ATOM      3  O   UNL A   1      32.772  26.184  22.559  1.00  0.00    -0.376 OA
BRANCH   3   4
ATOM      4  C   UNL A   1      33.289  24.998  23.130  1.00  0.00     0.202 C 
BRANCH   4   5
ATOM      5  C   UNL A   1      33.280  24.995  24.654  1.00  0.00     0.261 C 
BRANCH   5   6
ATOM      6  O   UNL A   1      32.184  24.333  25.339  1.00  0.00    -0.463 OA
BRANCH   6   7
ATOM      7  C   UNL A   1      32.032  23.845  26.586  1.00  0.00     0.310 C 
ATOM      8  O   UNL A   1      31.097  24.262  27.269  1.00  0.00    -0.252 OA
BRANCH   7   9
ATOM      9  C   UNL A   1      33.045  22.894  27.193  1.00  0.00     0.164 C 
BRANCH   9  10
ATOM     10  C   UNL A   1      33.603  21.805  26.337  1.00  0.00     0.029 A 
ATOM     11  C   UNL A   1      32.936  20.736  25.872  1.00  0.00     0.011 A 
ATOM     12  C   UNL A   1      35.059  21.970  25.983  1.00  0.00     0.258 A 
ATOM     13  C   UNL A   1      33.569  19.793  24.992  1.00  0.00     0.019 A 
ATOM     14  N   UNL A   1      35.613  20.961  25.220  1.00  0.00    -0.258 N 
ATOM     15  O   UNL A   1      35.672  22.963  26.362  1.00  0.00    -0.269 OA
ATOM     16  C   UNL A   1      34.870  19.914  24.712  1.00  0.00     0.095 A 
BRANCH  14  17
ATOM     17  C   UNL A   1      37.042  20.985  25.018  1.00  0.00     0.451 C 
ATOM     18  F   UNL A   1      37.497  19.705  24.989  1.00  0.00    -0.185 F 
ATOM     19  F   UNL A   1      37.317  21.507  23.792  1.00  0.00    -0.185 F 
ENDBRANCH  14  17
ENDBRANCH   9  10
ENDBRANCH   7   9
ENDBRANCH   6   7
ENDBRANCH   5   6
ENDBRANCH   4   5
ENDBRANCH   3   4
ENDBRANCH   2   3
ENDBRANCH   1   2
BRANCH   1  20
ATOM     20  O   UNL A   1      30.956  28.042  24.350  1.00  0.00    -0.376 OA
BRANCH  20  21
ATOM     21  C   UNL A   1      31.117  29.415  24.677  1.00  0.00     0.202 C 
BRANCH  21  22
ATOM     22  C   UNL A   1      32.403  29.882  25.381  1.00  0.00     0.261 C 
BRANCH  22  23
ATOM     23  O   UNL A   1      32.259  30.301  26.753  1.00  0.00    -0.460 OA
BRANCH  23  24
ATOM     24  C   UNL A   1      32.899  31.451  27.102  1.00  0.00     0.338 C 
ATOM     25  O   UNL A   1      32.434  32.574  27.082  1.00  0.00    -0.246 OA
BRANCH  24  26
ATOM     26  C   UNL A   1      34.229  31.135  27.679  1.00  0.00     0.060 A 
ATOM     27  C   UNL A   1      35.109  32.149  28.057  1.00  0.00     0.016 A 
ATOM     28  C   UNL A   1      34.582  29.792  27.879  1.00  0.00     0.016 A 
ATOM     29  C   UNL A   1      36.335  31.815  28.651  1.00  0.00     0.010 A 
ATOM     30  C   UNL A   1      35.816  29.461  28.453  1.00  0.00     0.010 A 
ATOM     31  C   UNL A   1      36.698  30.470  28.864  1.00  0.00    -0.014 A 
BRANCH  31  32
ATOM     32  C   UNL A   1      37.916  30.134  29.655  1.00  0.00     0.031 A 
ATOM     33  C   UNL A   1      38.160  30.701  31.025  1.00  0.00     0.074 A 
ATOM     34  C   UNL A   1      38.831  29.311  29.103  1.00  0.00     0.049 A 
ATOM     35  N   UNL A   1      39.145  30.448  31.850  1.00  0.00    -0.248 NA
ATOM     36  C   UNL A   1      37.183  31.673  31.537  1.00  0.00     0.031 C 
ATOM     37  C   UNL A   1      38.722  28.731  27.765  1.00  0.00     0.029 A 
ATOM     38  N   UNL A   1      40.021  28.819  29.584  1.00  0.00    -0.354 N 
ATOM     39  C   UNL A   1      38.903  31.213  32.986  1.00  0.00     0.074 A 
ATOM     40  C   UNL A   1      37.699  31.974  32.725  1.00  0.00     0.031 C 
ATOM     41  C   UNL A   1      39.789  27.950  27.539  1.00  0.00     0.029 A 
ATOM     42  C   UNL A   1      40.680  27.997  28.697  1.00  0.00     0.049 A 
ATOM     43  H   UNL A   1      40.370  29.033  30.479  1.00  0.00     0.167 HD
ATOM     44  C   UNL A   1      39.612  31.255  34.141  1.00  0.00     0.034 A 
ATOM     45  C   UNL A   1      41.864  27.355  28.793  1.00  0.00     0.034 A 
ATOM     46  C   UNL A   1      40.812  30.488  34.384  1.00  0.00     0.049 A 
ATOM     47  C   UNL A   1      42.648  27.444  30.080  1.00  0.00     0.074 A 
ATOM     48  C   UNL A   1      41.557  30.423  35.551  1.00  0.00     0.029 A 
ATOM     49  N   UNL A   1      41.450  29.670  33.463  1.00  0.00    -0.354 N 
ATOM     50  N   UNL A   1      42.338  28.072  31.189  1.00  0.00    -0.248 NA
ATOM     51  C   UNL A   1      43.932  26.728  30.143  1.00  0.00     0.031 C 
ATOM     52  C   UNL A   1      42.685  29.642  35.310  1.00  0.00     0.029 A 
ATOM     53  C   UNL A   1      42.600  29.133  34.025  1.00  0.00     0.049 A 
ATOM     54  H   UNL A   1      41.135  29.497  32.547  1.00  0.00     0.167 HD
ATOM     55  C   UNL A   1      43.367  27.800  32.088  1.00  0.00     0.074 A 
ATOM     56  C   UNL A   1      44.299  26.932  31.401  1.00  0.00     0.031 C 
ATOM     57  C   UNL A   1      43.520  28.237  33.362  1.00  0.00     0.034 A 
BRANCH  44  58
ATOM     58  C   UNL A   1      39.123  32.121  35.280  1.00  0.00     0.023 A 
ATOM     59  C   UNL A   1      39.583  33.448  35.404  1.00  0.00     0.031 A 
ATOM     60  C   UNL A   1      38.386  31.572  36.345  1.00  0.00     0.131 A 
ATOM     61  C   UNL A   1      39.352  34.158  36.591  1.00  0.00     0.055 A 
ATOM     62  C   UNL A   1      38.119  32.300  37.505  1.00  0.00     0.041 A 
ATOM     63  F   UNL A   1      37.935  30.308  36.282  1.00  0.00    -0.206 F 
ATOM     64  C   UNL A   1      38.619  33.592  37.639  1.00  0.00     0.022 A 
BRANCH  61  65
ATOM     65  S   UNL A   1      40.080  35.798  36.862  1.00  0.00     0.124 S 
ATOM     66  O   UNL A   1      39.653  36.517  35.663  1.00  0.00    -0.237 OA
ATOM     67  O   UNL A   1      39.435  36.217  38.103  1.00  0.00    -0.237 OA
ATOM     68  O   UNL A   1      41.512  35.537  36.949  1.00  0.00    -0.744 OA
ENDBRANCH  61  65
ENDBRANCH  44  58
BRANCH  45  69
ATOM     69  C   UNL A   1      42.343  26.532  27.641  1.00  0.00     0.023 A 
ATOM     70  C   UNL A   1      41.914  25.202  27.479  1.00  0.00     0.031 A 
ATOM     71  C   UNL A   1      43.299  27.028  26.739  1.00  0.00     0.131 A 
ATOM     72  C   UNL A   1      42.492  24.396  26.489  1.00  0.00     0.055 A 
ATOM     73  C   UNL A   1      43.813  26.247  25.702  1.00  0.00     0.041 A 
ATOM     74  F   UNL A   1      43.752  28.287  26.857  1.00  0.00    -0.206 F 
ATOM     75  C   UNL A   1      43.422  24.916  25.586  1.00  0.00     0.022 A 
BRANCH  72  76
ATOM     76  S   UNL A   1      42.156  22.614  26.430  1.00  0.00     0.124 S 
ATOM     77  O   UNL A   1      40.699  22.580  26.357  1.00  0.00    -0.237 OA
ATOM     78  O   UNL A   1      42.858  22.220  25.210  1.00  0.00    -0.237 OA
ATOM     79  O   UNL A   1      42.739  22.112  27.670  1.00  0.00    -0.744 OA
ENDBRANCH  72  76
ENDBRANCH  45  69
BRANCH  57  80
ATOM     80  C   UNL A   1      44.725  27.793  34.161  1.00  0.00     0.023 A 
ATOM     81  C   UNL A   1      44.631  26.662  34.998  1.00  0.00     0.031 A 
ATOM     82  C   UNL A   1      45.880  28.588  34.253  1.00  0.00     0.131 A 
ATOM     83  C   UNL A   1      45.636  26.400  35.936  1.00  0.00     0.055 A 
ATOM     84  C   UNL A   1      46.907  28.288  35.150  1.00  0.00     0.041 A 
ATOM     85  F   UNL A   1      46.017  29.682  33.487  1.00  0.00    -0.206 F 
ATOM     86  C   UNL A   1      46.779  27.202  36.012  1.00  0.00     0.022 A 
BRANCH  83  87
ATOM     87  S   UNL A   1      45.446  25.081  37.170  1.00  0.00     0.124 S 
ATOM     88  O   UNL A   1      44.701  25.760  38.228  1.00  0.00    -0.237 OA
ATOM     89  O   UNL A   1      44.696  24.073  36.428  1.00  0.00    -0.237 OA
ATOM     90  O   UNL A   1      46.818  24.720  37.513  1.00  0.00    -0.744 OA
ENDBRANCH  83  87
ENDBRANCH  57  80
ENDBRANCH  31  32
ENDBRANCH  24  26
ENDBRANCH  23  24
ENDBRANCH  22  23
ENDBRANCH  21  22
ENDBRANCH  20  21
ENDBRANCH   1  20
TORSDOF 22
ENDMDL
MODEL 3
REMARK VINA RESULT:      -9.8      1.921      7.890
REMARK SMILES O=C(Cc1cccn(C(F)F)c1=O)OCCOCCOCCOC(=O)c1ccc(-c2c3nc(c(-c4cc(S(=O)(=O)[O-])ccc4F)c4ccc([nH]4)c(-c4cc(S(=O)(=O)[O-])ccc4F)c4nc(c(-c5cc(S(=O)(=O)[O-])ccc5F)c5ccc2[nH]5)C=C4)C=C3)cc1
REMARK SMILES IDX 19 1 18 2 17 3 16 4 15 5 14 6 2 7 1 8 3 9 4 10 5 11 12 12
REMARK SMILES IDX 6 13 8 14 13 15 7 16 9 17 10 18 11 19 20 20 21 21 22 22
REMARK SMILES IDX 23 23 24 24 25 25 26 26 27 27 88 28 28 29 87 30 29 31 30 32
REMARK SMILES IDX 31 33 81 34 32 35 86 36 80 37 82 38 33 39 85 40 79 41 78 42
REMARK SMILES IDX 34 44 66 45 46 46 65 47 47 48 50 49 64 50 83 51 48 52 49 53
REMARK SMILES IDX 63 55 84 56 51 57 35 58 36 59 44 60 37 61 43 62 45 63 42 64
REMARK SMILES IDX 38 65 39 66 40 67 41 68 67 69 68 70 76 71 69 72 75 73 77 74
REMARK SMILES IDX 74 75 70 76 71 77 72 78 73 79 52 80 53 81 61 82 54 83 60 84
REMARK SMILES IDX 62 85 59 86 55 87 56 88 57 89 58 90
REMARK H PARENT 82 43 50 54
REMARK Flexibility Score: inf
ROOT
ATOM      1  C   UNL A   1      29.566  28.950  23.044  1.00  0.00     0.188 C 
ENDROOT
BRANCH   1   2
ATOM      2  C   UNL A   1      30.311  27.608  23.069  1.00  0.00     0.188 C 
BRANCH   2   3
ATOM      3  O   UNL A   1      29.818  26.671  24.005  1.00  0.00    -0.376 OA
BRANCH   3   4
ATOM      4  C   UNL A   1      30.423  25.393  24.005  1.00  0.00     0.202 C 
BRANCH   4   5
ATOM      5  C   UNL A   1      31.700  25.318  24.833  1.00  0.00     0.261 C 
BRANCH   5   6
ATOM      6  O   UNL A   1      32.976  25.346  24.142  1.00  0.00    -0.463 OA
BRANCH   6   7
ATOM      7  C   UNL A   1      33.355  25.040  22.884  1.00  0.00     0.310 C 
ATOM      8  O   UNL A   1      33.453  25.951  22.064  1.00  0.00    -0.252 OA
BRANCH   7   9
ATOM      9  C   UNL A   1      33.546  23.602  22.443  1.00  0.00     0.164 C 
BRANCH   9  10
ATOM     10  C   UNL A   1      34.106  22.624  23.422  1.00  0.00     0.029 A 
ATOM     11  C   UNL A   1      33.407  21.750  24.165  1.00  0.00     0.011 A 
ATOM     12  C   UNL A   1      35.607  22.656  23.550  1.00  0.00     0.258 A 
ATOM     13  C   UNL A   1      34.072  20.806  25.021  1.00  0.00     0.019 A 
ATOM     14  N   UNL A   1      36.154  21.788  24.474  1.00  0.00    -0.258 N 
ATOM     15  O   UNL A   1      36.266  23.417  22.847  1.00  0.00    -0.269 OA
ATOM     16  C   UNL A   1      35.399  20.862  25.168  1.00  0.00     0.095 A 
BRANCH  14  17
ATOM     17  C   UNL A   1      37.563  21.917  24.761  1.00  0.00     0.451 C 
ATOM     18  F   UNL A   1      37.733  22.940  25.641  1.00  0.00    -0.185 F 
ATOM     19  F   UNL A   1      38.000  20.798  25.399  1.00  0.00    -0.185 F 
ENDBRANCH  14  17
ENDBRANCH   9  10
ENDBRANCH   7   9
ENDBRANCH   6   7
ENDBRANCH   5   6
ENDBRANCH   4   5
ENDBRANCH   3   4
ENDBRANCH   2   3
ENDBRANCH   1   2
BRANCH   1  20
ATOM     20  O   UNL A   1      30.091  30.057  23.761  1.00  0.00    -0.376 OA
BRANCH  20  21
ATOM     21  C   UNL A   1      31.072  29.830  24.764  1.00  0.00     0.202 C 
BRANCH  21  22
ATOM     22  C   UNL A   1      31.348  30.919  25.815  1.00  0.00     0.261 C 
BRANCH  22  23
ATOM     23  O   UNL A   1      32.425  30.653  26.737  1.00  0.00    -0.460 OA
BRANCH  23  24
ATOM     24  C   UNL A   1      33.082  31.742  27.224  1.00  0.00     0.338 C 
ATOM     25  O   UNL A   1      32.637  32.867  27.337  1.00  0.00    -0.246 OA
BRANCH  24  26
ATOM     26  C   UNL A   1      34.402  31.335  27.767  1.00  0.00     0.060 A 
ATOM     27  C   UNL A   1      35.386  32.281  28.052  1.00  0.00     0.016 A 
ATOM     28  C   UNL A   1      34.640  29.977  28.030  1.00  0.00     0.016 A 
ATOM     29  C   UNL A   1      36.602  31.867  28.617  1.00  0.00     0.010 A 
ATOM     30  C   UNL A   1      35.863  29.564  28.573  1.00  0.00     0.010 A 
ATOM     31  C   UNL A   1      36.850  30.507  28.892  1.00  0.00    -0.014 A 
BRANCH  31  32
ATOM     32  C   UNL A   1      38.067  30.102  29.652  1.00  0.00     0.031 A 
ATOM     33  C   UNL A   1      39.061  29.119  29.102  1.00  0.00     0.074 A 
ATOM     34  C   UNL A   1      38.259  30.626  30.880  1.00  0.00     0.049 A 
ATOM     35  N   UNL A   1      40.193  28.722  29.627  1.00  0.00    -0.248 NA
ATOM     36  C   UNL A   1      38.752  28.501  27.804  1.00  0.00     0.031 C 
ATOM     37  C   UNL A   1      37.342  31.559  31.535  1.00  0.00     0.029 A 
ATOM     38  N   UNL A   1      39.271  30.457  31.795  1.00  0.00    -0.354 N 
ATOM     39  C   UNL A   1      40.743  27.821  28.722  1.00  0.00     0.074 A 
ATOM     40  C   UNL A   1      39.797  27.697  27.633  1.00  0.00     0.031 C 
ATOM     41  C   UNL A   1      37.841  31.894  32.733  1.00  0.00     0.029 A 
ATOM     42  C   UNL A   1      39.095  31.175  32.956  1.00  0.00     0.049 A 
ATOM     43  H   UNL A   1      40.051  29.877  31.634  1.00  0.00     0.167 HD
ATOM     44  C   UNL A   1      41.935  27.178  28.791  1.00  0.00     0.034 A 
ATOM     45  C   UNL A   1      39.845  31.249  34.076  1.00  0.00     0.034 A 
ATOM     46  C   UNL A   1      42.867  27.313  29.887  1.00  0.00     0.049 A 
ATOM     47  C   UNL A   1      41.153  30.499  34.139  1.00  0.00     0.074 A 
ATOM     48  C   UNL A   1      44.126  26.747  30.006  1.00  0.00     0.029 A 
ATOM     49  N   UNL A   1      42.653  28.046  31.045  1.00  0.00    -0.354 N 
ATOM     50  N   UNL A   1      41.715  29.752  33.219  1.00  0.00    -0.248 NA
ATOM     51  C   UNL A   1      41.940  30.610  35.377  1.00  0.00     0.031 C 
ATOM     52  C   UNL A   1      44.633  27.062  31.265  1.00  0.00     0.029 A 
ATOM     53  C   UNL A   1      43.740  27.909  31.898  1.00  0.00     0.049 A 
ATOM     54  H   UNL A   1      41.850  28.582  31.235  1.00  0.00     0.167 HD
ATOM     55  C   UNL A   1      42.932  29.333  33.752  1.00  0.00     0.074 A 
ATOM     56  C   UNL A   1      43.035  29.927  35.068  1.00  0.00     0.031 C 
ATOM     57  C   UNL A   1      43.870  28.526  33.198  1.00  0.00     0.034 A 
BRANCH  44  58
ATOM     58  C   UNL A   1      42.362  26.283  27.650  1.00  0.00     0.023 A 
ATOM     59  C   UNL A   1      42.068  24.905  27.686  1.00  0.00     0.031 A 
ATOM     60  C   UNL A   1      43.234  26.749  26.650  1.00  0.00     0.131 A 
ATOM     61  C   UNL A   1      42.689  24.035  26.779  1.00  0.00     0.055 A 
ATOM     62  C   UNL A   1      43.813  25.884  25.720  1.00  0.00     0.041 A 
ATOM     63  F   UNL A   1      43.557  28.051  26.578  1.00  0.00    -0.206 F 
ATOM     64  C   UNL A   1      43.556  24.518  25.794  1.00  0.00     0.022 A 
BRANCH  61  65
ATOM     65  S   UNL A   1      42.479  22.237  26.907  1.00  0.00     0.124 S 
ATOM     66  O   UNL A   1      42.558  22.028  28.351  1.00  0.00    -0.237 OA
ATOM     67  O   UNL A   1      41.157  22.041  26.321  1.00  0.00    -0.237 OA
ATOM     68  O   UNL A   1      43.598  21.698  26.142  1.00  0.00    -0.744 OA
ENDBRANCH  61  65
ENDBRANCH  44  58
BRANCH  45  69
ATOM     69  C   UNL A   1      39.384  32.115  35.205  1.00  0.00     0.023 A 
ATOM     70  C   UNL A   1      39.843  33.439  35.331  1.00  0.00     0.031 A 
ATOM     71  C   UNL A   1      38.556  31.607  36.220  1.00  0.00     0.131 A 
ATOM     72  C   UNL A   1      39.529  34.182  36.476  1.00  0.00     0.055 A 
ATOM     73  C   UNL A   1      38.179  32.379  37.321  1.00  0.00     0.041 A 
ATOM     74  F   UNL A   1      38.102  30.345  36.156  1.00  0.00    -0.206 F 
ATOM     75  C   UNL A   1      38.682  33.668  37.462  1.00  0.00     0.022 A 
BRANCH  72  76
ATOM     76  S   UNL A   1      40.321  35.784  36.789  1.00  0.00     0.124 S 
ATOM     77  O   UNL A   1      39.633  36.655  35.841  1.00  0.00    -0.237 OA
ATOM     78  O   UNL A   1      40.000  36.005  38.197  1.00  0.00    -0.237 OA
ATOM     79  O   UNL A   1      41.730  35.534  36.507  1.00  0.00    -0.744 OA
ENDBRANCH  72  76
ENDBRANCH  45  69
BRANCH  57  80
ATOM     80  C   UNL A   1      45.135  28.218  33.969  1.00  0.00     0.023 A 
ATOM     81  C   UNL A   1      45.148  27.156  34.896  1.00  0.00     0.031 A 
ATOM     82  C   UNL A   1      46.243  29.082  33.939  1.00  0.00     0.131 A 
ATOM     83  C   UNL A   1      46.209  27.029  35.801  1.00  0.00     0.055 A 
ATOM     84  C   UNL A   1      47.326  28.915  34.804  1.00  0.00     0.041 A 
ATOM     85  F   UNL A   1      46.279  30.116  33.083  1.00  0.00    -0.206 F 
ATOM     86  C   UNL A   1      47.303  27.898  35.755  1.00  0.00     0.022 A 
BRANCH  83  87
ATOM     87  S   UNL A   1      46.156  25.807  37.142  1.00  0.00     0.124 S 
ATOM     88  O   UNL A   1      46.175  26.659  38.330  1.00  0.00    -0.237 OA
ATOM     89  O   UNL A   1      44.891  25.125  36.886  1.00  0.00    -0.237 OA
ATOM     90  O   UNL A   1      47.357  25.005  36.937  1.00  0.00    -0.744 OA
ENDBRANCH  83  87
ENDBRANCH  57  80
ENDBRANCH  31  32
ENDBRANCH  24  26
ENDBRANCH  23  24
ENDBRANCH  22  23
ENDBRANCH  21  22
ENDBRANCH  20  21
ENDBRANCH   1  20
TORSDOF 22
ENDMDL
