MODEL 1
REMARK VINA RESULT:      -9.5      0.000      0.000
REMARK SMILES C[C@]12C(=O)N(c3ccc(C(=O)OCCOCCOCCOC(=O)c4ccc(-c5c6nc(c(-c7cc(S(=O)(=O)[O-])ccc7F)c7ccc([nH]7)c(-c7cc(S(=O)(=O)[O-])ccc7F)c7nc(c(-c8cc(S(=O)(=O)[O-])ccc8F)c8ccc5[nH]8)C=C7)C=C6)cc4)cc3)C(=O)[C@H]1[C@H]1c3ccccc3[C@@H]2c2ccccc21
REMARK SMILES IDX 17 1 16 2 15 3 14 4 13 5 12 6 10 7 11 8 9 9 6 10 7 11 88 12
REMARK SMILES IDX 8 13 87 14 5 15 1 16 2 17 3 18 91 19 99 20 4 21 89 22 92 23
REMARK SMILES IDX 98 24 100 25 90 26 93 27 105 28 97 29 101 30 94 31 104 32
REMARK SMILES IDX 96 33 102 34 95 35 103 36 18 37 19 38 20 39 21 40 22 41
REMARK SMILES IDX 23 42 24 43 25 44 86 45 26 46 85 47 27 48 28 49 29 50 79 51
REMARK SMILES IDX 30 52 84 53 78 54 80 55 31 56 83 57 77 58 76 59 32 61 64 62
REMARK SMILES IDX 44 63 63 64 45 65 48 66 62 67 81 68 46 69 47 70 61 72 82 73
REMARK SMILES IDX 49 74 33 75 34 76 42 77 35 78 41 79 43 80 40 81 36 82 37 83
REMARK SMILES IDX 38 84 39 85 65 86 66 87 74 88 67 89 73 90 75 91 72 92 68 93
REMARK SMILES IDX 69 94 70 95 71 96 50 97 51 98 59 99 52 100 58 101 60 102
REMARK SMILES IDX 57 103 53 104 54 105 55 106 56 107
REMARK H PARENT 80 60 48 71
REMARK Flexibility Score: inf
ROOT
ATOM      1  C   UNL A   1      33.882  35.112  29.015  1.00  0.00     0.188 C 
ENDROOT
BRANCH   1   2
ATOM      2  C   UNL A   1      34.582  34.216  27.967  1.00  0.00     0.188 C 
BRANCH   2   3
ATOM      3  O   UNL A   1      35.692  33.416  28.337  1.00  0.00    -0.376 OA
BRANCH   3   4
ATOM      4  C   UNL A   1      35.706  32.037  27.986  1.00  0.00     0.202 C 
BRANCH   4   5
ATOM      5  C   UNL A   1      36.179  31.008  29.016  1.00  0.00     0.261 C 
BRANCH   5   6
ATOM      6  O   UNL A   1      37.577  30.710  28.878  1.00  0.00    -0.460 OA
BRANCH   6   7
ATOM      7  C   UNL A   1      37.840  29.440  28.488  1.00  0.00     0.338 C 
ATOM      8  O   UNL A   1      37.059  28.644  27.996  1.00  0.00    -0.246 OA
BRANCH   7   9
ATOM      9  C   UNL A   1      39.289  29.191  28.556  1.00  0.00     0.060 A 
ATOM     10  C   UNL A   1      41.999  28.433  28.449  1.00  0.00     0.052 A 
ATOM     11  C   UNL A   1      41.400  29.158  27.398  1.00  0.00     0.028 A 
ATOM     12  C   UNL A   1      41.239  28.211  29.605  1.00  0.00     0.028 A 
ATOM     13  C   UNL A   1      40.045  29.482  27.423  1.00  0.00     0.018 A 
ATOM     14  C   UNL A   1      39.893  28.615  29.673  1.00  0.00     0.018 A 
BRANCH  10  15
ATOM     15  N   UNL A   1      43.240  27.779  28.197  1.00  0.00    -0.250 N 
ATOM     16  C   UNL A   1      46.075  26.914  26.312  1.00  0.00     0.024 C 
ATOM     17  C   UNL A   1      44.640  26.595  26.753  1.00  0.00     0.071 C 
ATOM     18  C   UNL A   1      43.890  27.872  26.992  1.00  0.00     0.241 C 
ATOM     19  C   UNL A   1      44.653  25.878  28.133  1.00  0.00     0.107 C 
ATOM     20  C   UNL A   1      43.779  25.774  25.723  1.00  0.00     0.066 C 
ATOM     21  O   UNL A   1      43.863  28.798  26.193  1.00  0.00    -0.273 OA
ATOM     22  C   UNL A   1      43.821  26.819  29.007  1.00  0.00     0.238 C 
ATOM     23  C   UNL A   1      44.040  24.442  27.986  1.00  0.00     0.063 C 
ATOM     24  C   UNL A   1      42.436  25.390  26.382  1.00  0.00    -0.036 A 
ATOM     25  C   UNL A   1      44.528  24.467  25.552  1.00  0.00    -0.036 A 
ATOM     26  O   UNL A   1      43.720  26.678  30.218  1.00  0.00    -0.274 OA
ATOM     27  C   UNL A   1      42.581  24.665  27.595  1.00  0.00    -0.036 A 
ATOM     28  C   UNL A   1      44.704  23.754  26.772  1.00  0.00    -0.036 A 
ATOM     29  C   UNL A   1      41.171  25.711  25.914  1.00  0.00     0.005 A 
ATOM     30  C   UNL A   1      44.968  23.969  24.333  1.00  0.00     0.005 A 
ATOM     31  C   UNL A   1      41.478  24.286  28.348  1.00  0.00     0.004 A 
ATOM     32  C   UNL A   1      45.327  22.516  26.744  1.00  0.00     0.004 A 
ATOM     33  C   UNL A   1      40.059  25.345  26.683  1.00  0.00     0.000 A 
ATOM     34  C   UNL A   1      45.598  22.731  24.319  1.00  0.00     0.000 A 
ATOM     35  C   UNL A   1      40.211  24.642  27.888  1.00  0.00     0.000 A 
ATOM     36  C   UNL A   1      45.775  22.012  25.512  1.00  0.00     0.000 A 
ENDBRANCH  10  15
ENDBRANCH   7   9
ENDBRANCH   6   7
ENDBRANCH   5   6
ENDBRANCH   4   5
ENDBRANCH   3   4
ENDBRANCH   2   3
ENDBRANCH   1   2
BRANCH   1  37
ATOM     37  O   UNL A   1      33.291  34.545  30.169  1.00  0.00    -0.376 OA
BRANCH  37  38
ATOM     38  C   UNL A   1      33.946  34.696  31.418  1.00  0.00     0.202 C 
BRANCH  38  39
ATOM     39  C   UNL A   1      35.313  34.044  31.633  1.00  0.00     0.261 C 
BRANCH  39  40
ATOM     40  O   UNL A   1      35.244  32.824  32.388  1.00  0.00    -0.460 OA
BRANCH  40  41
ATOM     41  C   UNL A   1      35.927  32.823  33.561  1.00  0.00     0.338 C 
ATOM     42  O   UNL A   1      35.499  33.114  34.665  1.00  0.00    -0.246 OA
BRANCH  41  43
ATOM     43  C   UNL A   1      37.253  32.227  33.323  1.00  0.00     0.060 A 
ATOM     44  C   UNL A   1      37.381  31.108  32.500  1.00  0.00     0.016 A 
ATOM     45  C   UNL A   1      38.376  32.801  33.934  1.00  0.00     0.016 A 
ATOM     46  C   UNL A   1      38.649  30.565  32.277  1.00  0.00     0.010 A 
ATOM     47  C   UNL A   1      39.638  32.242  33.729  1.00  0.00     0.010 A 
ATOM     48  C   UNL A   1      39.783  31.131  32.885  1.00  0.00    -0.014 A 
BRANCH  48  49
ATOM     49  C   UNL A   1      41.136  30.672  32.491  1.00  0.00     0.031 A 
ATOM     50  C   UNL A   1      41.834  29.559  33.206  1.00  0.00     0.074 A 
ATOM     51  C   UNL A   1      41.731  31.301  31.460  1.00  0.00     0.049 A 
ATOM     52  N   UNL A   1      42.987  29.008  32.927  1.00  0.00    -0.248 NA
ATOM     53  C   UNL A   1      41.163  28.992  34.384  1.00  0.00     0.031 C 
ATOM     54  C   UNL A   1      41.139  32.416  30.720  1.00  0.00     0.029 A 
ATOM     55  N   UNL A   1      42.948  31.106  30.861  1.00  0.00    -0.354 N 
ATOM     56  C   UNL A   1      43.170  28.006  33.871  1.00  0.00     0.074 A 
ATOM     57  C   UNL A   1      42.033  28.063  34.767  1.00  0.00     0.031 C 
ATOM     58  C   UNL A   1      41.992  32.804  29.762  1.00  0.00     0.029 A 
ATOM     59  C   UNL A   1      43.202  31.987  29.836  1.00  0.00     0.049 A 
ATOM     60  H   UNL A   1      43.580  30.403  31.137  1.00  0.00     0.167 HD
ATOM     61  C   UNL A   1      44.186  27.114  33.957  1.00  0.00     0.034 A 
ATOM     62  C   UNL A   1      44.286  32.130  29.047  1.00  0.00     0.034 A 
ATOM     63  C   UNL A   1      45.315  27.093  33.058  1.00  0.00     0.049 A 
ATOM     64  C   UNL A   1      45.426  31.159  29.196  1.00  0.00     0.074 A 
ATOM     65  C   UNL A   1      46.366  26.192  33.031  1.00  0.00     0.029 A 
ATOM     66  N   UNL A   1      45.555  28.010  32.044  1.00  0.00    -0.354 N 
ATOM     67  N   UNL A   1      45.533  30.139  30.018  1.00  0.00    -0.248 NA
ATOM     68  C   UNL A   1      46.586  31.336  28.312  1.00  0.00     0.031 C 
ATOM     69  C   UNL A   1      47.275  26.608  32.060  1.00  0.00     0.029 A 
ATOM     70  C   UNL A   1      46.758  27.722  31.418  1.00  0.00     0.049 A 
ATOM     71  H   UNL A   1      44.958  28.755  31.803  1.00  0.00     0.167 HD
ATOM     72  C   UNL A   1      46.760  29.546  29.737  1.00  0.00     0.074 A 
ATOM     73  C   UNL A   1      47.349  30.304  28.652  1.00  0.00     0.031 C 
ATOM     74  C   UNL A   1      47.341  28.474  30.331  1.00  0.00     0.034 A 
BRANCH  61  75
ATOM     75  C   UNL A   1      44.137  26.046  35.023  1.00  0.00     0.023 A 
ATOM     76  C   UNL A   1      44.511  26.346  36.348  1.00  0.00     0.031 A 
ATOM     77  C   UNL A   1      43.901  24.700  34.689  1.00  0.00     0.131 A 
ATOM     78  C   UNL A   1      44.687  25.310  37.274  1.00  0.00     0.055 A 
ATOM     79  C   UNL A   1      44.036  23.676  35.627  1.00  0.00     0.041 A 
ATOM     80  F   UNL A   1      43.552  24.360  33.437  1.00  0.00    -0.206 F 
ATOM     81  C   UNL A   1      44.446  23.977  36.922  1.00  0.00     0.022 A 
BRANCH  78  82
ATOM     82  S   UNL A   1      45.315  25.637  38.944  1.00  0.00     0.124 S 
ATOM     83  O   UNL A   1      45.107  24.348  39.600  1.00  0.00    -0.237 OA
ATOM     84  O   UNL A   1      46.709  25.986  38.683  1.00  0.00    -0.237 OA
ATOM     85  O   UNL A   1      44.473  26.724  39.429  1.00  0.00    -0.744 OA
ENDBRANCH  78  82
ENDBRANCH  61  75
BRANCH  62  86
ATOM     86  C   UNL A   1      44.285  33.212  28.020  1.00  0.00     0.023 A 
ATOM     87  C   UNL A   1      44.465  34.557  28.395  1.00  0.00     0.031 A 
ATOM     88  C   UNL A   1      43.968  32.936  26.681  1.00  0.00     0.131 A 
ATOM     89  C   UNL A   1      44.247  35.576  27.462  1.00  0.00     0.055 A 
ATOM     90  C   UNL A   1      43.826  33.953  25.735  1.00  0.00     0.041 A 
ATOM     91  F   UNL A   1      43.772  31.671  26.278  1.00  0.00    -0.206 F 
ATOM     92  C   UNL A   1      43.944  35.282  26.129  1.00  0.00     0.022 A 
BRANCH  89  93
ATOM     93  S   UNL A   1      44.199  37.315  27.981  1.00  0.00     0.124 S 
ATOM     94  O   UNL A   1      42.806  37.474  28.387  1.00  0.00    -0.237 OA
ATOM     95  O   UNL A   1      45.178  37.328  29.065  1.00  0.00    -0.237 OA
ATOM     96  O   UNL A   1      44.593  38.045  26.781  1.00  0.00    -0.744 OA
ENDBRANCH  89  93
ENDBRANCH  62  86
BRANCH  74  97
ATOM     97  C   UNL A   1      48.706  28.028  29.857  1.00  0.00     0.023 A 
ATOM     98  C   UNL A   1      48.820  27.137  28.772  1.00  0.00     0.031 A 
ATOM     99  C   UNL A   1      49.863  28.329  30.595  1.00  0.00     0.131 A 
ATOM    100  C   UNL A   1      50.051  26.527  28.498  1.00  0.00     0.055 A 
ATOM    101  C   UNL A   1      51.100  27.760  30.282  1.00  0.00     0.041 A 
ATOM    102  F   UNL A   1      49.806  29.167  31.643  1.00  0.00    -0.206 F 
ATOM    103  C   UNL A   1      51.192  26.840  29.243  1.00  0.00     0.022 A 
BRANCH 100 104
ATOM    104  S   UNL A   1      50.194  25.234  27.233  1.00  0.00     0.124 S 
ATOM    105  O   UNL A   1      49.763  24.045  27.964  1.00  0.00    -0.237 OA
ATOM    106  O   UNL A   1      49.268  25.705  26.208  1.00  0.00    -0.237 OA
ATOM    107  O   UNL A   1      51.607  25.256  26.864  1.00  0.00    -0.744 OA
ENDBRANCH 100 104
ENDBRANCH  74  97
ENDBRANCH  48  49
ENDBRANCH  41  43
ENDBRANCH  40  41
ENDBRANCH  39  40
ENDBRANCH  38  39
ENDBRANCH  37  38
ENDBRANCH   1  37
TORSDOF 21
ENDMDL
MODEL 2
REMARK VINA RESULT:      -9.2      5.656      9.506
REMARK SMILES C[C@]12C(=O)N(c3ccc(C(=O)OCCOCCOCCOC(=O)c4ccc(-c5c6nc(c(-c7cc(S(=O)(=O)[O-])ccc7F)c7ccc([nH]7)c(-c7cc(S(=O)(=O)[O-])ccc7F)c7nc(c(-c8cc(S(=O)(=O)[O-])ccc8F)c8ccc5[nH]8)C=C7)C=C6)cc4)cc3)C(=O)[C@H]1[C@H]1c3ccccc3[C@@H]2c2ccccc21
REMARK SMILES IDX 17 1 16 2 15 3 14 4 13 5 12 6 10 7 11 8 9 9 6 10 7 11 88 12
REMARK SMILES IDX 8 13 87 14 5 15 1 16 2 17 3 18 91 19 99 20 4 21 89 22 92 23
REMARK SMILES IDX 98 24 100 25 90 26 93 27 105 28 97 29 101 30 94 31 104 32
REMARK SMILES IDX 96 33 102 34 95 35 103 36 18 37 19 38 20 39 21 40 22 41
REMARK SMILES IDX 23 42 24 43 25 44 86 45 26 46 85 47 27 48 28 49 29 50 79 51
REMARK SMILES IDX 30 52 84 53 78 54 80 55 31 56 83 57 77 58 76 59 32 61 64 62
REMARK SMILES IDX 44 63 63 64 45 65 48 66 62 67 81 68 46 69 47 70 61 72 82 73
REMARK SMILES IDX 49 74 33 75 34 76 42 77 35 78 41 79 43 80 40 81 36 82 37 83
REMARK SMILES IDX 38 84 39 85 65 86 66 87 74 88 67 89 73 90 75 91 72 92 68 93
REMARK SMILES IDX 69 94 70 95 71 96 50 97 51 98 59 99 52 100 58 101 60 102
REMARK SMILES IDX 57 103 53 104 54 105 55 106 56 107
REMARK H PARENT 80 60 48 71
REMARK Flexibility Score: inf
ROOT
ATOM      1  C   UNL A   1      35.267  33.521  28.854  1.00  0.00     0.188 C 
ENDROOT
BRANCH   1   2
ATOM      2  C   UNL A   1      34.428  32.235  29.034  1.00  0.00     0.188 C 
BRANCH   2   3
ATOM      3  O   UNL A   1      33.670  31.718  27.955  1.00  0.00    -0.376 OA
BRANCH   3   4
ATOM      4  C   UNL A   1      34.114  30.539  27.292  1.00  0.00     0.202 C 
BRANCH   4   5
ATOM      5  C   UNL A   1      33.431  29.204  27.601  1.00  0.00     0.261 C 
BRANCH   5   6
ATOM      6  O   UNL A   1      32.058  29.190  27.180  1.00  0.00    -0.460 OA
BRANCH   6   7
ATOM      7  C   UNL A   1      31.883  28.946  25.859  1.00  0.00     0.338 C 
ATOM      8  O   UNL A   1      31.623  29.759  24.988  1.00  0.00    -0.246 OA
BRANCH   7   9
ATOM      9  C   UNL A   1      32.250  27.553  25.560  1.00  0.00     0.060 A 
ATOM     10  C   UNL A   1      32.860  24.964  24.634  1.00  0.00     0.052 A 
ATOM     11  C   UNL A   1      33.735  26.046  24.410  1.00  0.00     0.028 A 
ATOM     12  C   UNL A   1      31.737  25.190  25.441  1.00  0.00     0.028 A 
ATOM     13  C   UNL A   1      33.407  27.338  24.816  1.00  0.00     0.018 A 
ATOM     14  C   UNL A   1      31.445  26.476  25.931  1.00  0.00     0.018 A 
BRANCH  10  15
ATOM     15  N   UNL A   1      33.033  23.781  23.858  1.00  0.00    -0.250 N 
ATOM     16  C   UNL A   1      31.998  20.856  22.210  1.00  0.00     0.024 C 
ATOM     17  C   UNL A   1      32.548  21.530  23.474  1.00  0.00     0.071 C 
ATOM     18  C   UNL A   1      31.998  22.922  23.585  1.00  0.00     0.241 C 
ATOM     19  C   UNL A   1      34.087  21.721  23.351  1.00  0.00     0.107 C 
ATOM     20  C   UNL A   1      32.198  20.817  24.833  1.00  0.00     0.066 C 
ATOM     21  O   UNL A   1      30.809  23.187  23.480  1.00  0.00    -0.273 OA
ATOM     22  C   UNL A   1      34.249  23.237  23.484  1.00  0.00     0.238 C 
ATOM     23  C   UNL A   1      34.810  20.905  24.478  1.00  0.00     0.063 C 
ATOM     24  C   UNL A   1      32.962  21.514  25.979  1.00  0.00    -0.036 A 
ATOM     25  C   UNL A   1      32.821  19.440  24.715  1.00  0.00    -0.036 A 
ATOM     26  O   UNL A   1      35.314  23.807  23.289  1.00  0.00    -0.274 OA
ATOM     27  C   UNL A   1      34.370  21.551  25.789  1.00  0.00    -0.036 A 
ATOM     28  C   UNL A   1      34.226  19.474  24.491  1.00  0.00    -0.036 A 
ATOM     29  C   UNL A   1      32.400  22.099  27.104  1.00  0.00     0.005 A 
ATOM     30  C   UNL A   1      32.121  18.249  24.856  1.00  0.00     0.005 A 
ATOM     31  C   UNL A   1      35.206  22.186  26.696  1.00  0.00     0.004 A 
ATOM     32  C   UNL A   1      34.925  18.280  24.420  1.00  0.00     0.004 A 
ATOM     33  C   UNL A   1      33.243  22.756  28.010  1.00  0.00     0.000 A 
ATOM     34  C   UNL A   1      32.832  17.058  24.775  1.00  0.00     0.000 A 
ATOM     35  C   UNL A   1      34.631  22.800  27.807  1.00  0.00     0.000 A 
ATOM     36  C   UNL A   1      34.219  17.074  24.559  1.00  0.00     0.000 A 
ENDBRANCH  10  15
ENDBRANCH   7   9
ENDBRANCH   6   7
ENDBRANCH   5   6
ENDBRANCH   4   5
ENDBRANCH   3   4
ENDBRANCH   2   3
ENDBRANCH   1   2
BRANCH   1  37
ATOM     37  O   UNL A   1      34.640  34.756  28.562  1.00  0.00    -0.376 OA
BRANCH  37  38
ATOM     38  C   UNL A   1      33.253  34.898  28.829  1.00  0.00     0.202 C 
BRANCH  38  39
ATOM     39  C   UNL A   1      32.765  36.097  29.645  1.00  0.00     0.261 C 
BRANCH  39  40
ATOM     40  O   UNL A   1      33.479  36.270  30.878  1.00  0.00    -0.460 OA
BRANCH  40  41
ATOM     41  C   UNL A   1      33.070  35.483  31.906  1.00  0.00     0.338 C 
ATOM     42  O   UNL A   1      31.923  35.233  32.234  1.00  0.00    -0.246 OA
BRANCH  41  43
ATOM     43  C   UNL A   1      34.254  34.814  32.473  1.00  0.00     0.060 A 
ATOM     44  C   UNL A   1      34.101  33.698  33.296  1.00  0.00     0.016 A 
ATOM     45  C   UNL A   1      35.527  35.315  32.173  1.00  0.00     0.016 A 
ATOM     46  C   UNL A   1      35.236  33.071  33.814  1.00  0.00     0.010 A 
ATOM     47  C   UNL A   1      36.659  34.701  32.711  1.00  0.00     0.010 A 
ATOM     48  C   UNL A   1      36.520  33.565  33.521  1.00  0.00    -0.014 A 
BRANCH  48  49
ATOM     49  C   UNL A   1      37.716  32.783  33.912  1.00  0.00     0.031 A 
ATOM     50  C   UNL A   1      38.195  31.614  33.111  1.00  0.00     0.074 A 
ATOM     51  C   UNL A   1      38.365  33.155  35.032  1.00  0.00     0.049 A 
ATOM     52  N   UNL A   1      39.264  30.883  33.296  1.00  0.00    -0.248 NA
ATOM     53  C   UNL A   1      37.376  31.207  31.960  1.00  0.00     0.031 C 
ATOM     54  C   UNL A   1      37.955  34.264  35.893  1.00  0.00     0.029 A 
ATOM     55  N   UNL A   1      39.486  32.652  35.639  1.00  0.00    -0.354 N 
ATOM     56  C   UNL A   1      39.270  29.948  32.268  1.00  0.00     0.074 A 
ATOM     57  C   UNL A   1      38.065  30.170  31.495  1.00  0.00     0.031 C 
ATOM     58  C   UNL A   1      38.815  34.363  36.916  1.00  0.00     0.029 A 
ATOM     59  C   UNL A   1      39.821  33.307  36.801  1.00  0.00     0.049 A 
ATOM     60  H   UNL A   1      40.002  31.895  35.278  1.00  0.00     0.167 HD
ATOM     61  C   UNL A   1      40.210  29.011  31.995  1.00  0.00     0.034 A 
ATOM     62  C   UNL A   1      40.818  33.085  37.681  1.00  0.00     0.034 A 
ATOM     63  C   UNL A   1      41.393  28.803  32.795  1.00  0.00     0.049 A 
ATOM     64  C   UNL A   1      41.822  32.003  37.381  1.00  0.00     0.074 A 
ATOM     65  C   UNL A   1      42.432  27.917  32.566  1.00  0.00     0.029 A 
ATOM     66  N   UNL A   1      41.694  29.468  33.977  1.00  0.00    -0.354 N 
ATOM     67  N   UNL A   1      41.881  31.204  36.341  1.00  0.00    -0.248 NA
ATOM     68  C   UNL A   1      42.902  31.796  38.355  1.00  0.00     0.031 C 
ATOM     69  C   UNL A   1      43.314  27.988  33.642  1.00  0.00     0.029 A 
ATOM     70  C   UNL A   1      42.876  28.977  34.509  1.00  0.00     0.049 A 
ATOM     71  H   UNL A   1      41.148  30.183  34.377  1.00  0.00     0.167 HD
ATOM     72  C   UNL A   1      43.011  30.413  36.527  1.00  0.00     0.074 A 
ATOM     73  C   UNL A   1      43.622  30.848  37.766  1.00  0.00     0.031 C 
ATOM     74  C   UNL A   1      43.490  29.417  35.741  1.00  0.00     0.034 A 
BRANCH  61  75
ATOM     75  C   UNL A   1      40.053  28.151  30.765  1.00  0.00     0.023 A 
ATOM     76  C   UNL A   1      40.731  28.481  29.575  1.00  0.00     0.031 A 
ATOM     77  C   UNL A   1      39.094  27.122  30.718  1.00  0.00     0.131 A 
ATOM     78  C   UNL A   1      40.405  27.824  28.381  1.00  0.00     0.055 A 
ATOM     79  C   UNL A   1      38.805  26.441  29.535  1.00  0.00     0.041 A 
ATOM     80  F   UNL A   1      38.413  26.776  31.823  1.00  0.00    -0.206 F 
ATOM     81  C   UNL A   1      39.450  26.802  28.356  1.00  0.00     0.022 A 
BRANCH  78  82
ATOM     82  S   UNL A   1      41.143  28.322  26.801  1.00  0.00     0.124 S 
ATOM     83  O   UNL A   1      41.297  27.037  26.123  1.00  0.00    -0.237 OA
ATOM     84  O   UNL A   1      40.115  29.199  26.247  1.00  0.00    -0.237 OA
ATOM     85  O   UNL A   1      42.389  28.974  27.186  1.00  0.00    -0.744 OA
ENDBRANCH  78  82
ENDBRANCH  61  75
BRANCH  62  86
ATOM     86  C   UNL A   1      40.916  33.957  38.886  1.00  0.00     0.023 A 
ATOM     87  C   UNL A   1      40.081  33.741  39.998  1.00  0.00     0.031 A 
ATOM     88  C   UNL A   1      41.740  35.094  38.889  1.00  0.00     0.131 A 
ATOM     89  C   UNL A   1      40.029  34.689  41.026  1.00  0.00     0.055 A 
ATOM     90  C   UNL A   1      41.740  35.999  39.953  1.00  0.00     0.041 A 
ATOM     91  F   UNL A   1      42.543  35.352  37.845  1.00  0.00    -0.206 F 
ATOM     92  C   UNL A   1      40.865  35.809  41.019  1.00  0.00     0.022 A 
BRANCH  89  93
ATOM     93  S   UNL A   1      38.768  34.579  42.327  1.00  0.00     0.124 S 
ATOM     94  O   UNL A   1      37.660  33.937  41.625  1.00  0.00    -0.237 OA
ATOM     95  O   UNL A   1      39.443  33.754  43.326  1.00  0.00    -0.237 OA
ATOM     96  O   UNL A   1      38.549  35.968  42.715  1.00  0.00    -0.744 OA
ENDBRANCH  89  93
ENDBRANCH  62  86
BRANCH  74  97
ATOM     97  C   UNL A   1      44.738  28.682  36.174  1.00  0.00     0.023 A 
ATOM     98  C   UNL A   1      44.639  27.559  37.018  1.00  0.00     0.031 A 
ATOM     99  C   UNL A   1      46.015  29.205  35.912  1.00  0.00     0.131 A 
ATOM    100  C   UNL A   1      45.790  27.037  37.622  1.00  0.00     0.055 A 
ATOM    101  C   UNL A   1      47.165  28.647  36.473  1.00  0.00     0.041 A 
ATOM    102  F   UNL A   1      46.163  30.279  35.119  1.00  0.00    -0.206 F 
ATOM    103  C   UNL A   1      47.053  27.571  37.348  1.00  0.00     0.022 A 
BRANCH 100 104
ATOM    104  S   UNL A   1      45.680  25.715  38.861  1.00  0.00     0.124 S 
ATOM    105  O   UNL A   1      47.055  25.222  38.901  1.00  0.00    -0.237 OA
ATOM    106  O   UNL A   1      45.245  26.444  40.048  1.00  0.00    -0.237 OA
ATOM    107  O   UNL A   1      44.705  24.785  38.299  1.00  0.00    -0.744 OA
ENDBRANCH 100 104
ENDBRANCH  74  97
ENDBRANCH  48  49
ENDBRANCH  41  43
ENDBRANCH  40  41
ENDBRANCH  39  40
ENDBRANCH  38  39
ENDBRANCH  37  38
ENDBRANCH   1  37
TORSDOF 21
ENDMDL
MODEL 3
REMARK VINA RESULT:      -9.0      5.495      8.763
REMARK SMILES C[C@]12C(=O)N(c3ccc(C(=O)OCCOCCOCCOC(=O)c4ccc(-c5c6nc(c(-c7cc(S(=O)(=O)[O-])ccc7F)c7ccc([nH]7)c(-c7cc(S(=O)(=O)[O-])ccc7F)c7nc(c(-c8cc(S(=O)(=O)[O-])ccc8F)c8ccc5[nH]8)C=C7)C=C6)cc4)cc3)C(=O)[C@H]1[C@H]1c3ccccc3[C@@H]2c2ccccc21
REMARK SMILES IDX 17 1 16 2 15 3 14 4 13 5 12 6 10 7 11 8 9 9 6 10 7 11 88 12
REMARK SMILES IDX 8 13 87 14 5 15 1 16 2 17 3 18 91 19 99 20 4 21 89 22 92 23
REMARK SMILES IDX 98 24 100 25 90 26 93 27 105 28 97 29 101 30 94 31 104 32
REMARK SMILES IDX 96 33 102 34 95 35 103 36 18 37 19 38 20 39 21 40 22 41
REMARK SMILES IDX 23 42 24 43 25 44 86 45 26 46 85 47 27 48 28 49 29 50 79 51
REMARK SMILES IDX 30 52 84 53 78 54 80 55 31 56 83 57 77 58 76 59 32 61 64 62
REMARK SMILES IDX 44 63 63 64 45 65 48 66 62 67 81 68 46 69 47 70 61 72 82 73
REMARK SMILES IDX 49 74 33 75 34 76 42 77 35 78 41 79 43 80 40 81 36 82 37 83
REMARK SMILES IDX 38 84 39 85 65 86 66 87 74 88 67 89 73 90 75 91 72 92 68 93
REMARK SMILES IDX 69 94 70 95 71 96 50 97 51 98 59 99 52 100 58 101 60 102
REMARK SMILES IDX 57 103 53 104 54 105 55 106 56 107
REMARK H PARENT 80 60 48 71
REMARK Flexibility Score: inf
ROOT
ATOM      1  C   UNL A   1      35.250  33.649  28.778  1.00  0.00     0.188 C 
ENDROOT
BRANCH   1   2
ATOM      2  C   UNL A   1      34.455  32.368  29.120  1.00  0.00     0.188 C 
BRANCH   2   3
ATOM      3  O   UNL A   1      33.640  31.749  28.140  1.00  0.00    -0.376 OA
BRANCH   3   4
ATOM      4  C   UNL A   1      34.193  30.731  27.313  1.00  0.00     0.202 C 
BRANCH   4   5
ATOM      5  C   UNL A   1      33.686  29.294  27.454  1.00  0.00     0.261 C 
BRANCH   5   6
ATOM      6  O   UNL A   1      32.265  29.203  27.269  1.00  0.00    -0.460 OA
BRANCH   6   7
ATOM      7  C   UNL A   1      31.885  28.911  26.002  1.00  0.00     0.338 C 
ATOM      8  O   UNL A   1      31.398  29.674  25.186  1.00  0.00    -0.246 OA
BRANCH   7   9
ATOM      9  C   UNL A   1      32.329  27.553  25.653  1.00  0.00     0.060 A 
ATOM     10  C   UNL A   1      33.005  25.006  24.658  1.00  0.00     0.052 A 
ATOM     11  C   UNL A   1      33.688  26.164  24.230  1.00  0.00     0.028 A 
ATOM     12  C   UNL A   1      32.065  25.146  25.687  1.00  0.00     0.028 A 
ATOM     13  C   UNL A   1      33.315  27.430  24.676  1.00  0.00     0.018 A 
ATOM     14  C   UNL A   1      31.746  26.414  26.207  1.00  0.00     0.018 A 
BRANCH  10  15
ATOM     15  N   UNL A   1      33.136  23.818  23.880  1.00  0.00    -0.250 N 
ATOM     16  C   UNL A   1      31.997  20.924  22.247  1.00  0.00     0.024 C 
ATOM     17  C   UNL A   1      32.580  21.582  23.505  1.00  0.00     0.071 C 
ATOM     18  C   UNL A   1      32.073  22.990  23.619  1.00  0.00     0.241 C 
ATOM     19  C   UNL A   1      34.122  21.727  23.366  1.00  0.00     0.107 C 
ATOM     20  C   UNL A   1      32.220  20.882  24.867  1.00  0.00     0.066 C 
ATOM     21  O   UNL A   1      30.890  23.290  23.524  1.00  0.00    -0.273 OA
ATOM     22  C   UNL A   1      34.330  23.237  23.496  1.00  0.00     0.238 C 
ATOM     23  C   UNL A   1      34.831  20.890  24.487  1.00  0.00     0.063 C 
ATOM     24  C   UNL A   1      33.016  21.556  26.006  1.00  0.00    -0.036 A 
ATOM     25  C   UNL A   1      32.801  19.486  24.746  1.00  0.00    -0.036 A 
ATOM     26  O   UNL A   1      35.410  23.774  23.291  1.00  0.00    -0.274 OA
ATOM     27  C   UNL A   1      34.422  21.550  25.802  1.00  0.00    -0.036 A 
ATOM     28  C   UNL A   1      34.204  19.478  24.508  1.00  0.00    -0.036 A 
ATOM     29  C   UNL A   1      32.483  22.159  27.135  1.00  0.00     0.005 A 
ATOM     30  C   UNL A   1      32.067  18.317  24.894  1.00  0.00     0.005 A 
ATOM     31  C   UNL A   1      35.286  22.160  26.701  1.00  0.00     0.004 A 
ATOM     32  C   UNL A   1      34.866  18.263  24.431  1.00  0.00     0.004 A 
ATOM     33  C   UNL A   1      33.354  22.791  28.032  1.00  0.00     0.000 A 
ATOM     34  C   UNL A   1      32.740  17.105  24.808  1.00  0.00     0.000 A 
ATOM     35  C   UNL A   1      34.740  22.793  27.816  1.00  0.00     0.000 A 
ATOM     36  C   UNL A   1      34.126  17.078  24.579  1.00  0.00     0.000 A 
ENDBRANCH  10  15
ENDBRANCH   7   9
ENDBRANCH   6   7
ENDBRANCH   5   6
ENDBRANCH   4   5
ENDBRANCH   3   4
ENDBRANCH   2   3
ENDBRANCH   1   2
BRANCH   1  37
ATOM     37  O   UNL A   1      34.585  34.888  28.614  1.00  0.00    -0.376 OA
BRANCH  37  38
ATOM     38  C   UNL A   1      33.193  34.957  28.882  1.00  0.00     0.202 C 
BRANCH  38  39
ATOM     39  C   UNL A   1      32.653  36.085  29.762  1.00  0.00     0.261 C 
BRANCH  39  40
ATOM     40  O   UNL A   1      33.424  36.289  30.955  1.00  0.00    -0.460 OA
BRANCH  40  41
ATOM     41  C   UNL A   1      33.178  35.419  31.967  1.00  0.00     0.338 C 
ATOM     42  O   UNL A   1      32.099  35.164  32.477  1.00  0.00    -0.246 OA
BRANCH  41  43
ATOM     43  C   UNL A   1      34.417  34.672  32.245  1.00  0.00     0.060 A 
ATOM     44  C   UNL A   1      35.658  35.241  31.960  1.00  0.00     0.016 A 
ATOM     45  C   UNL A   1      34.326  33.388  32.799  1.00  0.00     0.016 A 
ATOM     46  C   UNL A   1      36.820  34.521  32.242  1.00  0.00     0.010 A 
ATOM     47  C   UNL A   1      35.489  32.661  33.058  1.00  0.00     0.010 A 
ATOM     48  C   UNL A   1      36.743  33.231  32.797  1.00  0.00    -0.014 A 
BRANCH  48  49
ATOM     49  C   UNL A   1      37.976  32.559  33.271  1.00  0.00     0.031 A 
ATOM     50  C   UNL A   1      38.671  32.974  34.529  1.00  0.00     0.074 A 
ATOM     51  C   UNL A   1      38.465  31.553  32.520  1.00  0.00     0.049 A 
ATOM     52  N   UNL A   1      39.716  32.432  35.099  1.00  0.00    -0.248 NA
ATOM     53  C   UNL A   1      38.135  34.144  35.237  1.00  0.00     0.031 C 
ATOM     54  C   UNL A   1      37.871  31.097  31.264  1.00  0.00     0.029 A 
ATOM     55  N   UNL A   1      39.557  30.743  32.692  1.00  0.00    -0.354 N 
ATOM     56  C   UNL A   1      39.948  33.170  36.252  1.00  0.00     0.074 A 
ATOM     57  C   UNL A   1      38.966  34.235  36.271  1.00  0.00     0.031 C 
ATOM     58  C   UNL A   1      38.602  30.085  30.778  1.00  0.00     0.029 A 
ATOM     59  C   UNL A   1      39.733  29.837  31.672  1.00  0.00     0.049 A 
ATOM     60  H   UNL A   1      40.158  30.804  33.469  1.00  0.00     0.167 HD
ATOM     61  C   UNL A   1      40.882  32.955  37.210  1.00  0.00     0.034 A 
ATOM     62  C   UNL A   1      40.696  28.915  31.470  1.00  0.00     0.034 A 
ATOM     63  C   UNL A   1      41.859  31.893  37.154  1.00  0.00     0.049 A 
ATOM     64  C   UNL A   1      41.755  28.729  32.524  1.00  0.00     0.074 A 
ATOM     65  C   UNL A   1      42.810  31.560  38.104  1.00  0.00     0.029 A 
ATOM     66  N   UNL A   1      42.026  31.005  36.100  1.00  0.00    -0.354 N 
ATOM     67  N   UNL A   1      41.892  29.357  33.670  1.00  0.00    -0.248 NA
ATOM     68  C   UNL A   1      42.781  27.708  32.278  1.00  0.00     0.031 C 
ATOM     69  C   UNL A   1      43.598  30.531  37.593  1.00  0.00     0.029 A 
ATOM     70  C   UNL A   1      43.092  30.158  36.357  1.00  0.00     0.049 A 
ATOM     71  H   UNL A   1      41.467  30.980  35.289  1.00  0.00     0.167 HD
ATOM     72  C   UNL A   1      43.005  28.796  34.286  1.00  0.00     0.074 A 
ATOM     73  C   UNL A   1      43.491  27.759  33.399  1.00  0.00     0.031 C 
ATOM     74  C   UNL A   1      43.571  29.118  35.476  1.00  0.00     0.034 A 
BRANCH  61  75
ATOM     75  C   UNL A   1      40.897  33.839  38.433  1.00  0.00     0.023 A 
ATOM     76  C   UNL A   1      40.016  33.588  39.502  1.00  0.00     0.031 A 
ATOM     77  C   UNL A   1      41.647  35.029  38.457  1.00  0.00     0.131 A 
ATOM     78  C   UNL A   1      39.869  34.536  40.523  1.00  0.00     0.055 A 
ATOM     79  C   UNL A   1      41.530  35.950  39.498  1.00  0.00     0.041 A 
ATOM     80  F   UNL A   1      42.495  35.320  37.457  1.00  0.00    -0.206 F 
ATOM     81  C   UNL A   1      40.625  35.713  40.529  1.00  0.00     0.022 A 
BRANCH  78  82
ATOM     82  S   UNL A   1      38.635  34.324  41.835  1.00  0.00     0.124 S 
ATOM     83  O   UNL A   1      37.792  33.264  41.284  1.00  0.00    -0.237 OA
ATOM     84  O   UNL A   1      39.462  33.932  42.973  1.00  0.00    -0.237 OA
ATOM     85  O   UNL A   1      38.001  35.632  41.935  1.00  0.00    -0.744 OA
ENDBRANCH  78  82
ENDBRANCH  61  75
BRANCH  62  86
ATOM     86  C   UNL A   1      40.638  28.079  30.237  1.00  0.00     0.023 A 
ATOM     87  C   UNL A   1      41.514  28.324  29.163  1.00  0.00     0.031 A 
ATOM     88  C   UNL A   1      39.625  27.124  30.058  1.00  0.00     0.131 A 
ATOM     89  C   UNL A   1      41.309  27.684  27.935  1.00  0.00     0.055 A 
ATOM     90  C   UNL A   1      39.471  26.431  28.856  1.00  0.00     0.041 A 
ATOM     91  F   UNL A   1      38.756  26.866  31.048  1.00  0.00    -0.206 F 
ATOM     92  C   UNL A   1      40.303  26.726  27.780  1.00  0.00     0.022 A 
BRANCH  89  93
ATOM     93  S   UNL A   1      42.243  28.182  26.461  1.00  0.00     0.124 S 
ATOM     94  O   UNL A   1      42.566  26.895  25.854  1.00  0.00    -0.237 OA
ATOM     95  O   UNL A   1      41.258  28.989  25.744  1.00  0.00    -0.237 OA
ATOM     96  O   UNL A   1      43.375  28.925  27.004  1.00  0.00    -0.744 OA
ENDBRANCH  89  93
ENDBRANCH  62  86
BRANCH  74  97
ATOM     97  C   UNL A   1      44.805  28.368  35.924  1.00  0.00     0.023 A 
ATOM     98  C   UNL A   1      44.720  27.430  36.971  1.00  0.00     0.031 A 
ATOM     99  C   UNL A   1      46.080  28.723  35.452  1.00  0.00     0.131 A 
ATOM    100  C   UNL A   1      45.890  26.929  37.555  1.00  0.00     0.055 A 
ATOM    101  C   UNL A   1      47.242  28.179  36.002  1.00  0.00     0.041 A 
ATOM    102  F   UNL A   1      46.216  29.619  34.461  1.00  0.00    -0.206 F 
ATOM    103  C   UNL A   1      47.150  27.293  37.071  1.00  0.00     0.022 A 
BRANCH 100 104
ATOM    104  S   UNL A   1      45.822  25.868  39.025  1.00  0.00     0.124 S 
ATOM    105  O   UNL A   1      45.054  24.724  38.540  1.00  0.00    -0.237 OA
ATOM    106  O   UNL A   1      47.235  25.607  39.280  1.00  0.00    -0.237 OA
ATOM    107  O   UNL A   1      45.144  26.690  40.023  1.00  0.00    -0.744 OA
ENDBRANCH 100 104
ENDBRANCH  74  97
ENDBRANCH  48  49
ENDBRANCH  41  43
ENDBRANCH  40  41
ENDBRANCH  39  40
ENDBRANCH  38  39
ENDBRANCH  37  38
ENDBRANCH   1  37
TORSDOF 21
ENDMDL
