MODEL 1
REMARK VINA RESULT:     -10.2      0.000      0.000
REMARK SMILES CC1(C)[C@@H](C(=O)NCCc2ccc(S(N)(=O)=O)cc2)[C@@H]1C(=O)OCCOCCOCCOC(=O)c1ccc(-c2c3nc(c(-c4cc(S(=O)(=O)[O-])ccc4F)c4ccc([nH]4)c(-c4cc(S(=O)(=O)[O-])ccc4F)c4nc(c(-c5cc(S(=O)(=O)[O-])ccc5F)c5ccc2[nH]5)C=C4)C=C3)cc1
REMARK SMILES IDX 26 1 25 2 24 3 23 4 21 5 22 6 20 7 1 8 2 9 3 10 4 11 5 12
REMARK SMILES IDX 6 13 7 14 8 16 9 17 10 18 11 19 19 20 12 21 18 22 13 23
REMARK SMILES IDX 14 24 16 25 17 26 15 27 27 30 28 31 29 32 30 33 31 34 32 35
REMARK SMILES IDX 33 36 34 37 35 38 36 39 97 40 37 41 96 42 38 43 39 44 40 45
REMARK SMILES IDX 90 46 41 47 95 48 89 49 91 50 42 51 94 52 88 53 87 54 43 56
REMARK SMILES IDX 75 57 55 58 74 59 56 60 59 61 73 62 92 63 57 64 58 65 72 67
REMARK SMILES IDX 93 68 60 69 44 70 45 71 53 72 46 73 52 74 54 75 51 76 47 77
REMARK SMILES IDX 48 78 49 79 50 80 76 81 77 82 85 83 78 84 84 85 86 86 83 87
REMARK SMILES IDX 79 88 80 89 81 90 82 91 61 92 62 93 70 94 63 95 69 96 71 97
REMARK SMILES IDX 68 98 64 99 65 100 66 101 67 102
REMARK H PARENT 7 15 15 28 15 29 91 55 59 66
REMARK Flexibility Score: inf
ROOT
ATOM      1  O   UNL A   1      34.961  31.629  27.618  1.00  0.00    -0.376 OA
ENDROOT
BRANCH   1   2
ATOM      2  C   UNL A   1      35.345  30.295  27.916  1.00  0.00     0.202 C 
BRANCH   2   3
ATOM      3  C   UNL A   1      34.737  29.092  27.168  1.00  0.00     0.261 C 
BRANCH   3   4
ATOM      4  O   UNL A   1      33.322  28.904  27.318  1.00  0.00    -0.463 OA
BRANCH   4   5
ATOM      5  C   UNL A   1      32.826  27.767  26.758  1.00  0.00     0.310 C 
ATOM      6  O   UNL A   1      31.889  27.114  27.191  1.00  0.00    -0.252 OA
BRANCH   5   7
ATOM      7  C   UNL A   1      33.466  27.472  25.446  1.00  0.00     0.118 C 
ATOM      8  C   UNL A   1      34.054  28.603  23.229  1.00  0.00     0.013 C 
ATOM      9  C   UNL A   1      32.973  28.111  24.168  1.00  0.00    -0.009 C 
ATOM     10  C   UNL A   1      31.756  28.999  24.183  1.00  0.00     0.013 C 
ATOM     11  C   UNL A   1      32.786  26.600  24.414  1.00  0.00     0.100 C 
BRANCH  11  12
ATOM     12  C   UNL A   1      33.459  25.694  23.445  1.00  0.00     0.224 C 
ATOM     13  O   UNL A   1      33.104  25.710  22.269  1.00  0.00    -0.275 OA
ATOM     14  N   UNL A   1      34.466  24.849  23.814  1.00  0.00    -0.355 N 
ATOM     15  H   UNL A   1      34.947  24.437  23.059  1.00  0.00     0.163 HD
BRANCH  14  16
ATOM     16  C   UNL A   1      34.953  24.453  25.120  1.00  0.00     0.120 C 
BRANCH  16  17
ATOM     17  C   UNL A   1      34.007  23.551  25.930  1.00  0.00     0.056 C 
BRANCH  17  18
ATOM     18  C   UNL A   1      33.739  22.146  25.428  1.00  0.00    -0.046 A 
ATOM     19  C   UNL A   1      34.815  21.310  25.073  1.00  0.00     0.005 A 
ATOM     20  C   UNL A   1      32.447  21.602  25.422  1.00  0.00     0.005 A 
ATOM     21  C   UNL A   1      34.603  19.973  24.717  1.00  0.00     0.022 A 
ATOM     22  C   UNL A   1      32.223  20.278  25.037  1.00  0.00     0.022 A 
ATOM     23  C   UNL A   1      33.303  19.466  24.695  1.00  0.00     0.082 A 
BRANCH  23  24
ATOM     24  S   UNL A   1      33.018  17.770  24.289  1.00  0.00     0.238 S 
ATOM     25  O   UNL A   1      34.291  17.078  24.281  1.00  0.00    -0.207 OA
ATOM     26  O   UNL A   1      31.881  17.281  25.025  1.00  0.00    -0.207 OA
BRANCH  24  27
ATOM     27  N   UNL A   1      32.517  17.849  22.690  1.00  0.00    -0.225 NA
ATOM     28  H   UNL A   1      32.111  16.954  22.417  1.00  0.00     0.137 HD
ATOM     29  H   UNL A   1      33.318  18.054  22.093  1.00  0.00     0.137 HD
ENDBRANCH  24  27
ENDBRANCH  23  24
ENDBRANCH  17  18
ENDBRANCH  16  17
ENDBRANCH  14  16
ENDBRANCH  11  12
ENDBRANCH   5   7
ENDBRANCH   4   5
ENDBRANCH   3   4
ENDBRANCH   2   3
ENDBRANCH   1   2
BRANCH   1  30
ATOM     30  C   UNL A   1      34.105  32.345  28.494  1.00  0.00     0.188 C 
BRANCH  30  31
ATOM     31  C   UNL A   1      33.308  33.552  27.969  1.00  0.00     0.188 C 
BRANCH  31  32
ATOM     32  O   UNL A   1      32.761  34.386  28.962  1.00  0.00    -0.376 OA
BRANCH  32  33
ATOM     33  C   UNL A   1      33.378  35.640  29.191  1.00  0.00     0.202 C 
BRANCH  33  34
ATOM     34  C   UNL A   1      33.006  36.563  30.375  1.00  0.00     0.261 C 
BRANCH  34  35
ATOM     35  O   UNL A   1      33.658  36.361  31.638  1.00  0.00    -0.460 OA
BRANCH  35  36
ATOM     36  C   UNL A   1      33.406  35.195  32.282  1.00  0.00     0.338 C 
ATOM     37  O   UNL A   1      32.316  34.799  32.654  1.00  0.00    -0.246 OA
BRANCH  36  38
ATOM     38  C   UNL A   1      34.634  34.362  32.243  1.00  0.00     0.060 A 
ATOM     39  C   UNL A   1      34.525  32.981  32.465  1.00  0.00     0.016 A 
ATOM     40  C   UNL A   1      35.884  34.934  32.001  1.00  0.00     0.016 A 
ATOM     41  C   UNL A   1      35.667  32.178  32.482  1.00  0.00     0.010 A 
ATOM     42  C   UNL A   1      37.031  34.130  32.042  1.00  0.00     0.010 A 
ATOM     43  C   UNL A   1      36.933  32.753  32.317  1.00  0.00    -0.014 A 
BRANCH  43  44
ATOM     44  C   UNL A   1      38.152  31.957  32.627  1.00  0.00     0.031 A 
ATOM     45  C   UNL A   1      38.890  32.247  33.908  1.00  0.00     0.074 A 
ATOM     46  C   UNL A   1      38.580  30.973  31.815  1.00  0.00     0.049 A 
ATOM     47  N   UNL A   1      39.994  31.720  34.374  1.00  0.00    -0.248 NA
ATOM     48  C   UNL A   1      38.302  33.276  34.778  1.00  0.00     0.031 C 
ATOM     49  C   UNL A   1      37.927  30.558  30.575  1.00  0.00     0.029 A 
ATOM     50  N   UNL A   1      39.673  30.145  31.911  1.00  0.00    -0.354 N 
ATOM     51  C   UNL A   1      40.237  32.358  35.586  1.00  0.00     0.074 A 
ATOM     52  C   UNL A   1      39.187  33.340  35.761  1.00  0.00     0.031 C 
ATOM     53  C   UNL A   1      38.635  29.557  30.023  1.00  0.00     0.029 A 
ATOM     54  C   UNL A   1      39.815  29.287  30.845  1.00  0.00     0.049 A 
ATOM     55  H   UNL A   1      40.296  30.163  32.674  1.00  0.00     0.167 HD
ATOM     56  C   UNL A   1      41.236  32.140  36.478  1.00  0.00     0.034 A 
ATOM     57  C   UNL A   1      40.797  28.408  30.551  1.00  0.00     0.034 A 
ATOM     58  C   UNL A   1      42.284  31.167  36.286  1.00  0.00     0.049 A 
ATOM     59  C   UNL A   1      41.954  28.249  31.513  1.00  0.00     0.074 A 
ATOM     60  C   UNL A   1      43.337  30.860  37.129  1.00  0.00     0.029 A 
ATOM     61  N   UNL A   1      42.423  30.354  35.168  1.00  0.00    -0.354 N 
ATOM     62  N   UNL A   1      42.170  28.856  32.658  1.00  0.00    -0.248 NA
ATOM     63  C   UNL A   1      42.995  27.279  31.145  1.00  0.00     0.031 C 
ATOM     64  C   UNL A   1      44.159  29.929  36.485  1.00  0.00     0.029 A 
ATOM     65  C   UNL A   1      43.565  29.575  35.284  1.00  0.00     0.049 A 
ATOM     66  H   UNL A   1      41.802  30.334  34.404  1.00  0.00     0.167 HD
ATOM     67  C   UNL A   1      43.348  28.307  33.165  1.00  0.00     0.074 A 
ATOM     68  C   UNL A   1      43.787  27.315  32.205  1.00  0.00     0.031 C 
ATOM     69  C   UNL A   1      44.001  28.590  34.321  1.00  0.00     0.034 A 
BRANCH  56  70
ATOM     70  C   UNL A   1      41.269  33.012  37.712  1.00  0.00     0.023 A 
ATOM     71  C   UNL A   1      40.618  32.641  38.902  1.00  0.00     0.031 A 
ATOM     72  C   UNL A   1      41.943  34.246  37.689  1.00  0.00     0.131 A 
ATOM     73  C   UNL A   1      40.591  33.527  39.991  1.00  0.00     0.055 A 
ATOM     74  C   UNL A   1      41.988  35.083  38.806  1.00  0.00     0.041 A 
ATOM     75  F   UNL A   1      42.560  34.668  36.574  1.00  0.00    -0.206 F 
ATOM     76  C   UNL A   1      41.296  34.732  39.961  1.00  0.00     0.022 A 
BRANCH  73  77
ATOM     77  S   UNL A   1      39.495  33.153  41.387  1.00  0.00     0.124 S 
ATOM     78  O   UNL A   1      40.186  33.815  42.491  1.00  0.00    -0.237 OA
ATOM     79  O   UNL A   1      38.235  33.756  40.970  1.00  0.00    -0.237 OA
ATOM     80  O   UNL A   1      39.501  31.693  41.445  1.00  0.00    -0.744 OA
ENDBRANCH  73  77
ENDBRANCH  56  70
BRANCH  57  81
ATOM     81  C   UNL A   1      40.763  27.629  29.277  1.00  0.00     0.023 A 
ATOM     82  C   UNL A   1      41.648  27.912  28.225  1.00  0.00     0.031 A 
ATOM     83  C   UNL A   1      39.793  26.632  29.068  1.00  0.00     0.131 A 
ATOM     84  C   UNL A   1      41.515  27.244  26.997  1.00  0.00     0.055 A 
ATOM     85  C   UNL A   1      39.705  25.925  27.867  1.00  0.00     0.041 A 
ATOM     86  F   UNL A   1      38.912  26.326  30.035  1.00  0.00    -0.206 F 
ATOM     87  C   UNL A   1      40.561  26.241  26.816  1.00  0.00     0.022 A 
BRANCH  84  88
ATOM     88  S   UNL A   1      42.539  27.780  25.598  1.00  0.00     0.124 S 
ATOM     89  O   UNL A   1      43.828  28.001  26.244  1.00  0.00    -0.237 OA
ATOM     90  O   UNL A   1      42.459  26.630  24.705  1.00  0.00    -0.237 OA
ATOM     91  O   UNL A   1      41.864  28.986  25.123  1.00  0.00    -0.744 OA
ENDBRANCH  84  88
ENDBRANCH  57  81
BRANCH  69  92
ATOM     92  C   UNL A   1      45.228  27.766  34.648  1.00  0.00     0.023 A 
ATOM     93  C   UNL A   1      45.154  26.567  35.377  1.00  0.00     0.031 A 
ATOM     94  C   UNL A   1      46.498  28.201  34.225  1.00  0.00     0.131 A 
ATOM     95  C   UNL A   1      46.330  25.881  35.719  1.00  0.00     0.055 A 
ATOM     96  C   UNL A   1      47.657  27.476  34.506  1.00  0.00     0.041 A 
ATOM     97  F   UNL A   1      46.635  29.341  33.529  1.00  0.00    -0.206 F 
ATOM     98  C   UNL A   1      47.580  26.317  35.271  1.00  0.00     0.022 A 
BRANCH  95  99
ATOM     99  S   UNL A   1      46.219  24.474  36.858  1.00  0.00     0.124 S 
ATOM    100  O   UNL A   1      45.640  25.090  38.047  1.00  0.00    -0.237 OA
ATOM    101  O   UNL A   1      45.353  23.552  36.132  1.00  0.00    -0.237 OA
ATOM    102  O   UNL A   1      47.608  24.037  37.002  1.00  0.00    -0.744 OA
ENDBRANCH  95  99
ENDBRANCH  69  92
ENDBRANCH  43  44
ENDBRANCH  36  38
ENDBRANCH  35  36
ENDBRANCH  34  35
ENDBRANCH  33  34
ENDBRANCH  32  33
ENDBRANCH  31  32
ENDBRANCH  30  31
ENDBRANCH   1  30
TORSDOF 26
ENDMDL
MODEL 2
REMARK VINA RESULT:      -9.5      5.785     10.335
REMARK SMILES CC1(C)[C@@H](C(=O)NCCc2ccc(S(N)(=O)=O)cc2)[C@@H]1C(=O)OCCOCCOCCOC(=O)c1ccc(-c2c3nc(c(-c4cc(S(=O)(=O)[O-])ccc4F)c4ccc([nH]4)c(-c4cc(S(=O)(=O)[O-])ccc4F)c4nc(c(-c5cc(S(=O)(=O)[O-])ccc5F)c5ccc2[nH]5)C=C4)C=C3)cc1
REMARK SMILES IDX 26 1 25 2 24 3 23 4 21 5 22 6 20 7 1 8 2 9 3 10 4 11 5 12
REMARK SMILES IDX 6 13 7 14 8 16 9 17 10 18 11 19 19 20 12 21 18 22 13 23
REMARK SMILES IDX 14 24 16 25 17 26 15 27 27 30 28 31 29 32 30 33 31 34 32 35
REMARK SMILES IDX 33 36 34 37 35 38 36 39 97 40 37 41 96 42 38 43 39 44 40 45
REMARK SMILES IDX 90 46 41 47 95 48 89 49 91 50 42 51 94 52 88 53 87 54 43 56
REMARK SMILES IDX 75 57 55 58 74 59 56 60 59 61 73 62 92 63 57 64 58 65 72 67
REMARK SMILES IDX 93 68 60 69 44 70 45 71 53 72 46 73 52 74 54 75 51 76 47 77
REMARK SMILES IDX 48 78 49 79 50 80 76 81 77 82 85 83 78 84 84 85 86 86 83 87
REMARK SMILES IDX 79 88 80 89 81 90 82 91 61 92 62 93 70 94 63 95 69 96 71 97
REMARK SMILES IDX 68 98 64 99 65 100 66 101 67 102
REMARK H PARENT 7 15 15 28 15 29 91 55 59 66
REMARK Flexibility Score: inf
ROOT
ATOM      1  O   UNL A   1      36.576  22.935  26.088  1.00  0.00    -0.376 OA
ENDROOT
BRANCH   1   2
ATOM      2  C   UNL A   1      35.324  23.580  26.271  1.00  0.00     0.202 C 
BRANCH   2   3
ATOM      3  C   UNL A   1      34.923  24.815  25.441  1.00  0.00     0.261 C 
BRANCH   3   4
ATOM      4  O   UNL A   1      34.241  25.860  26.151  1.00  0.00    -0.463 OA
BRANCH   4   5
ATOM      5  C   UNL A   1      32.900  25.931  25.929  1.00  0.00     0.310 C 
ATOM      6  O   UNL A   1      32.064  25.173  26.395  1.00  0.00    -0.252 OA
BRANCH   5   7
ATOM      7  C   UNL A   1      32.531  27.150  25.157  1.00  0.00     0.118 C 
ATOM      8  C   UNL A   1      32.425  29.693  25.400  1.00  0.00     0.013 C 
ATOM      9  C   UNL A   1      31.890  28.342  25.828  1.00  0.00    -0.009 C 
ATOM     10  C   UNL A   1      31.528  28.288  27.290  1.00  0.00     0.013 C 
ATOM     11  C   UNL A   1      31.089  27.474  24.838  1.00  0.00     0.100 C 
BRANCH  11  12
ATOM     12  C   UNL A   1      30.591  28.168  23.619  1.00  0.00     0.224 C 
ATOM     13  O   UNL A   1      29.539  28.799  23.681  1.00  0.00    -0.275 OA
ATOM     14  N   UNL A   1      31.266  28.134  22.433  1.00  0.00    -0.355 N 
ATOM     15  H   UNL A   1      30.935  28.771  21.759  1.00  0.00     0.163 HD
BRANCH  14  16
ATOM     16  C   UNL A   1      32.386  27.328  21.992  1.00  0.00     0.120 C 
BRANCH  16  17
ATOM     17  C   UNL A   1      32.017  25.964  21.382  1.00  0.00     0.056 C 
BRANCH  17  18
ATOM     18  C   UNL A   1      32.253  24.715  22.206  1.00  0.00    -0.046 A 
ATOM     19  C   UNL A   1      31.257  24.258  23.091  1.00  0.00     0.005 A 
ATOM     20  C   UNL A   1      33.394  23.920  22.027  1.00  0.00     0.005 A 
ATOM     21  C   UNL A   1      31.402  23.046  23.778  1.00  0.00     0.022 A 
ATOM     22  C   UNL A   1      33.561  22.726  22.732  1.00  0.00     0.022 A 
ATOM     23  C   UNL A   1      32.560  22.289  23.597  1.00  0.00     0.082 A 
BRANCH  23  24
ATOM     24  S   UNL A   1      32.744  20.737  24.422  1.00  0.00     0.238 S 
ATOM     25  O   UNL A   1      32.211  19.695  23.567  1.00  0.00    -0.207 OA
ATOM     26  O   UNL A   1      34.057  20.653  25.008  1.00  0.00    -0.207 OA
BRANCH  24  27
ATOM     27  N   UNL A   1      31.684  20.873  25.714  1.00  0.00    -0.225 NA
ATOM     28  H   UNL A   1      31.138  20.015  25.797  1.00  0.00     0.137 HD
ATOM     29  H   UNL A   1      31.055  21.661  25.556  1.00  0.00     0.137 HD
ENDBRANCH  24  27
ENDBRANCH  23  24
ENDBRANCH  17  18
ENDBRANCH  16  17
ENDBRANCH  14  16
ENDBRANCH  11  12
ENDBRANCH   5   7
ENDBRANCH   4   5
ENDBRANCH   3   4
ENDBRANCH   2   3
ENDBRANCH   1   2
BRANCH   1  30
ATOM     30  C   UNL A   1      37.721  23.677  25.701  1.00  0.00     0.188 C 
BRANCH  30  31
ATOM     31  C   UNL A   1      38.818  23.988  26.733  1.00  0.00     0.188 C 
BRANCH  31  32
ATOM     32  O   UNL A   1      39.727  22.942  26.975  1.00  0.00    -0.376 OA
BRANCH  32  33
ATOM     33  C   UNL A   1      41.098  23.175  26.702  1.00  0.00     0.202 C 
BRANCH  33  34
ATOM     34  C   UNL A   1      41.966  24.165  27.513  1.00  0.00     0.261 C 
BRANCH  34  35
ATOM     35  O   UNL A   1      42.868  25.031  26.806  1.00  0.00    -0.460 OA
BRANCH  35  36
ATOM     36  C   UNL A   1      42.314  25.996  26.031  1.00  0.00     0.338 C 
ATOM     37  O   UNL A   1      41.522  25.823  25.123  1.00  0.00    -0.246 OA
BRANCH  36  38
ATOM     38  C   UNL A   1      42.636  27.318  26.627  1.00  0.00     0.060 A 
ATOM     39  C   UNL A   1      43.553  27.379  27.687  1.00  0.00     0.016 A 
ATOM     40  C   UNL A   1      42.034  28.485  26.154  1.00  0.00     0.016 A 
ATOM     41  C   UNL A   1      43.841  28.601  28.299  1.00  0.00     0.010 A 
ATOM     42  C   UNL A   1      42.306  29.706  26.786  1.00  0.00     0.010 A 
ATOM     43  C   UNL A   1      43.184  29.766  27.884  1.00  0.00    -0.014 A 
BRANCH  43  44
ATOM     44  C   UNL A   1      43.265  30.996  28.719  1.00  0.00     0.031 A 
ATOM     45  C   UNL A   1      44.337  32.007  28.403  1.00  0.00     0.074 A 
ATOM     46  C   UNL A   1      42.389  31.236  29.712  1.00  0.00     0.049 A 
ATOM     47  N   UNL A   1      44.633  33.128  29.011  1.00  0.00    -0.248 NA
ATOM     48  C   UNL A   1      45.193  31.706  27.246  1.00  0.00     0.031 C 
ATOM     49  C   UNL A   1      41.275  30.365  30.083  1.00  0.00     0.029 A 
ATOM     50  N   UNL A   1      42.302  32.287  30.595  1.00  0.00    -0.354 N 
ATOM     51  C   UNL A   1      45.713  33.662  28.315  1.00  0.00     0.074 A 
ATOM     52  C   UNL A   1      46.044  32.720  27.268  1.00  0.00     0.031 C 
ATOM     53  C   UNL A   1      40.620  30.914  31.122  1.00  0.00     0.029 A 
ATOM     54  C   UNL A   1      41.290  32.153  31.518  1.00  0.00     0.049 A 
ATOM     55  H   UNL A   1      42.907  33.063  30.567  1.00  0.00     0.167 HD
ATOM     56  C   UNL A   1      46.363  34.835  28.524  1.00  0.00     0.034 A 
ATOM     57  C   UNL A   1      40.961  32.924  32.575  1.00  0.00     0.034 A 
ATOM     58  C   UNL A   1      46.031  35.760  29.580  1.00  0.00     0.049 A 
ATOM     59  C   UNL A   1      41.761  34.180  32.848  1.00  0.00     0.074 A 
ATOM     60  C   UNL A   1      46.619  36.977  29.874  1.00  0.00     0.029 A 
ATOM     61  N   UNL A   1      45.033  35.564  30.527  1.00  0.00    -0.354 N 
ATOM     62  N   UNL A   1      42.779  34.675  32.181  1.00  0.00    -0.248 NA
ATOM     63  C   UNL A   1      41.361  34.982  34.012  1.00  0.00     0.031 C 
ATOM     64  C   UNL A   1      46.039  37.475  31.045  1.00  0.00     0.029 A 
ATOM     65  C   UNL A   1      45.017  36.621  31.426  1.00  0.00     0.049 A 
ATOM     66  H   UNL A   1      44.428  34.788  30.557  1.00  0.00     0.167 HD
ATOM     67  C   UNL A   1      43.109  35.870  32.821  1.00  0.00     0.074 A 
ATOM     68  C   UNL A   1      42.176  36.022  33.918  1.00  0.00     0.031 C 
ATOM     69  C   UNL A   1      44.086  36.765  32.523  1.00  0.00     0.034 A 
BRANCH  56  70
ATOM     70  C   UNL A   1      47.534  35.150  27.621  1.00  0.00     0.023 A 
ATOM     71  C   UNL A   1      48.847  34.767  27.945  1.00  0.00     0.031 A 
ATOM     72  C   UNL A   1      47.335  35.869  26.429  1.00  0.00     0.131 A 
ATOM     73  C   UNL A   1      49.916  35.168  27.127  1.00  0.00     0.055 A 
ATOM     74  C   UNL A   1      48.392  36.188  25.574  1.00  0.00     0.041 A 
ATOM     75  F   UNL A   1      46.108  36.286  26.079  1.00  0.00    -0.206 F 
ATOM     76  C   UNL A   1      49.694  35.851  25.930  1.00  0.00     0.022 A 
BRANCH  73  77
ATOM     77  S   UNL A   1      51.609  34.922  27.731  1.00  0.00     0.124 S 
ATOM     78  O   UNL A   1      52.096  36.298  27.813  1.00  0.00    -0.237 OA
ATOM     79  O   UNL A   1      51.396  34.243  29.003  1.00  0.00    -0.237 OA
ATOM     80  O   UNL A   1      52.230  34.112  26.686  1.00  0.00    -0.744 OA
ENDBRANCH  73  77
ENDBRANCH  56  70
BRANCH  57  81
ATOM     81  C   UNL A   1      39.848  32.527  33.489  1.00  0.00     0.023 A 
ATOM     82  C   UNL A   1      38.581  33.125  33.399  1.00  0.00     0.031 A 
ATOM     83  C   UNL A   1      40.059  31.588  34.515  1.00  0.00     0.131 A 
ATOM     84  C   UNL A   1      37.591  32.818  34.346  1.00  0.00     0.055 A 
ATOM     85  C   UNL A   1      39.051  31.238  35.416  1.00  0.00     0.041 A 
ATOM     86  F   UNL A   1      41.254  30.992  34.657  1.00  0.00    -0.206 F 
ATOM     87  C   UNL A   1      37.812  31.866  35.344  1.00  0.00     0.022 A 
BRANCH  84  88
ATOM     88  S   UNL A   1      36.041  33.760  34.322  1.00  0.00     0.124 S 
ATOM     89  O   UNL A   1      35.172  32.879  33.551  1.00  0.00    -0.237 OA
ATOM     90  O   UNL A   1      35.736  33.878  35.744  1.00  0.00    -0.237 OA
ATOM     91  O   UNL A   1      36.411  35.010  33.660  1.00  0.00    -0.744 OA
ENDBRANCH  84  88
ENDBRANCH  57  81
BRANCH  69  92
ATOM     92  C   UNL A   1      44.155  38.025  33.357  1.00  0.00     0.023 A 
ATOM     93  C   UNL A   1      43.409  39.174  33.042  1.00  0.00     0.031 A 
ATOM     94  C   UNL A   1      44.996  38.076  34.485  1.00  0.00     0.131 A 
ATOM     95  C   UNL A   1      43.567  40.343  33.805  1.00  0.00     0.055 A 
ATOM     96  C   UNL A   1      45.094  39.217  35.282  1.00  0.00     0.041 A 
ATOM     97  F   UNL A   1      45.737  37.013  34.834  1.00  0.00    -0.206 F 
ATOM     98  C   UNL A   1      44.389  40.366  34.934  1.00  0.00     0.022 A 
BRANCH  95  99
ATOM     99  S   UNL A   1      42.774  41.871  33.233  1.00  0.00     0.124 S 
ATOM    100  O   UNL A   1      43.914  42.639  32.743  1.00  0.00    -0.237 OA
ATOM    101  O   UNL A   1      41.850  41.381  32.215  1.00  0.00    -0.237 OA
ATOM    102  O   UNL A   1      42.142  42.402  34.440  1.00  0.00    -0.744 OA
ENDBRANCH  95  99
ENDBRANCH  69  92
ENDBRANCH  43  44
ENDBRANCH  36  38
ENDBRANCH  35  36
ENDBRANCH  34  35
ENDBRANCH  33  34
ENDBRANCH  32  33
ENDBRANCH  31  32
ENDBRANCH  30  31
ENDBRANCH   1  30
TORSDOF 26
ENDMDL
MODEL 3
REMARK VINA RESULT:      -9.3      1.999      2.612
REMARK SMILES CC1(C)[C@@H](C(=O)NCCc2ccc(S(N)(=O)=O)cc2)[C@@H]1C(=O)OCCOCCOCCOC(=O)c1ccc(-c2c3nc(c(-c4cc(S(=O)(=O)[O-])ccc4F)c4ccc([nH]4)c(-c4cc(S(=O)(=O)[O-])ccc4F)c4nc(c(-c5cc(S(=O)(=O)[O-])ccc5F)c5ccc2[nH]5)C=C4)C=C3)cc1
REMARK SMILES IDX 26 1 25 2 24 3 23 4 21 5 22 6 20 7 1 8 2 9 3 10 4 11 5 12
REMARK SMILES IDX 6 13 7 14 8 16 9 17 10 18 11 19 19 20 12 21 18 22 13 23
REMARK SMILES IDX 14 24 16 25 17 26 15 27 27 30 28 31 29 32 30 33 31 34 32 35
REMARK SMILES IDX 33 36 34 37 35 38 36 39 97 40 37 41 96 42 38 43 39 44 40 45
REMARK SMILES IDX 90 46 41 47 95 48 89 49 91 50 42 51 94 52 88 53 87 54 43 56
REMARK SMILES IDX 75 57 55 58 74 59 56 60 59 61 73 62 92 63 57 64 58 65 72 67
REMARK SMILES IDX 93 68 60 69 44 70 45 71 53 72 46 73 52 74 54 75 51 76 47 77
REMARK SMILES IDX 48 78 49 79 50 80 76 81 77 82 85 83 78 84 84 85 86 86 83 87
REMARK SMILES IDX 79 88 80 89 81 90 82 91 61 92 62 93 70 94 63 95 69 96 71 97
REMARK SMILES IDX 68 98 64 99 65 100 66 101 67 102
REMARK H PARENT 7 15 15 28 15 29 91 55 59 66
REMARK Flexibility Score: inf
ROOT
ATOM      1  O   UNL A   1      34.522  31.510  27.452  1.00  0.00    -0.376 OA
ENDROOT
BRANCH   1   2
ATOM      2  C   UNL A   1      34.771  30.185  27.901  1.00  0.00     0.202 C 
BRANCH   2   3
ATOM      3  C   UNL A   1      34.283  28.958  27.108  1.00  0.00     0.261 C 
BRANCH   3   4
ATOM      4  O   UNL A   1      32.883  28.655  27.207  1.00  0.00    -0.463 OA
BRANCH   4   5
ATOM      5  C   UNL A   1      32.516  27.441  26.716  1.00  0.00     0.310 C 
ATOM      6  O   UNL A   1      31.603  26.751  27.142  1.00  0.00    -0.252 OA
BRANCH   5   7
ATOM      7  C   UNL A   1      33.269  27.094  25.479  1.00  0.00     0.118 C 
ATOM      8  C   UNL A   1      33.807  28.025  23.159  1.00  0.00     0.013 C 
ATOM      9  C   UNL A   1      32.760  27.486  24.111  1.00  0.00    -0.009 C 
ATOM     10  C   UNL A   1      31.423  28.165  23.965  1.00  0.00     0.013 C 
ATOM     11  C   UNL A   1      32.792  26.006  24.544  1.00  0.00     0.100 C 
BRANCH  11  12
ATOM     12  C   UNL A   1      33.651  25.107  23.726  1.00  0.00     0.224 C 
ATOM     13  O   UNL A   1      33.358  24.911  22.549  1.00  0.00    -0.275 OA
ATOM     14  N   UNL A   1      34.761  24.497  24.235  1.00  0.00    -0.355 N 
ATOM     15  H   UNL A   1      35.340  24.077  23.558  1.00  0.00     0.163 HD
BRANCH  14  16
ATOM     16  C   UNL A   1      35.238  24.359  25.596  1.00  0.00     0.120 C 
BRANCH  16  17
ATOM     17  C   UNL A   1      34.623  23.199  26.396  1.00  0.00     0.056 C 
BRANCH  17  18
ATOM     18  C   UNL A   1      34.231  21.935  25.655  1.00  0.00    -0.046 A 
ATOM     19  C   UNL A   1      35.210  20.970  25.348  1.00  0.00     0.005 A 
ATOM     20  C   UNL A   1      32.892  21.636  25.369  1.00  0.00     0.005 A 
ATOM     21  C   UNL A   1      34.858  19.745  24.767  1.00  0.00     0.022 A 
ATOM     22  C   UNL A   1      32.537  20.430  24.761  1.00  0.00     0.022 A 
ATOM     23  C   UNL A   1      33.520  19.485  24.472  1.00  0.00     0.082 A 
BRANCH  23  24
ATOM     24  S   UNL A   1      33.049  17.930  23.777  1.00  0.00     0.238 S 
ATOM     25  O   UNL A   1      32.404  18.172  22.502  1.00  0.00    -0.207 OA
ATOM     26  O   UNL A   1      34.128  16.987  23.926  1.00  0.00    -0.207 OA
BRANCH  24  27
ATOM     27  N   UNL A   1      31.846  17.404  24.820  1.00  0.00    -0.225 NA
ATOM     28  H   UNL A   1      31.984  16.415  25.027  1.00  0.00     0.137 HD
ATOM     29  H   UNL A   1      30.934  17.535  24.381  1.00  0.00     0.137 HD
ENDBRANCH  24  27
ENDBRANCH  23  24
ENDBRANCH  17  18
ENDBRANCH  16  17
ENDBRANCH  14  16
ENDBRANCH  11  12
ENDBRANCH   5   7
ENDBRANCH   4   5
ENDBRANCH   3   4
ENDBRANCH   2   3
ENDBRANCH   1   2
BRANCH   1  30
ATOM     30  C   UNL A   1      34.041  32.497  28.350  1.00  0.00     0.188 C 
BRANCH  30  31
ATOM     31  C   UNL A   1      33.319  33.741  27.805  1.00  0.00     0.188 C 
BRANCH  31  32
ATOM     32  O   UNL A   1      32.653  34.518  28.771  1.00  0.00    -0.376 OA
BRANCH  32  33
ATOM     33  C   UNL A   1      33.358  35.601  29.354  1.00  0.00     0.202 C 
BRANCH  33  34
ATOM     34  C   UNL A   1      32.830  36.398  30.569  1.00  0.00     0.261 C 
BRANCH  34  35
ATOM     35  O   UNL A   1      33.534  36.299  31.817  1.00  0.00    -0.460 OA
BRANCH  35  36
ATOM     36  C   UNL A   1      33.348  35.167  32.540  1.00  0.00     0.338 C 
ATOM     37  O   UNL A   1      32.278  34.638  32.786  1.00  0.00    -0.246 OA
BRANCH  36  38
ATOM     38  C   UNL A   1      34.672  34.539  32.777  1.00  0.00     0.060 A 
ATOM     39  C   UNL A   1      34.721  33.227  33.273  1.00  0.00     0.016 A 
ATOM     40  C   UNL A   1      35.854  35.236  32.524  1.00  0.00     0.016 A 
ATOM     41  C   UNL A   1      35.950  32.625  33.551  1.00  0.00     0.010 A 
ATOM     42  C   UNL A   1      37.085  34.638  32.826  1.00  0.00     0.010 A 
ATOM     43  C   UNL A   1      37.140  33.342  33.374  1.00  0.00    -0.014 A 
BRANCH  43  44
ATOM     44  C   UNL A   1      38.411  32.816  33.943  1.00  0.00     0.031 A 
ATOM     45  C   UNL A   1      38.716  33.094  35.392  1.00  0.00     0.074 A 
ATOM     46  C   UNL A   1      39.262  32.077  33.208  1.00  0.00     0.049 A 
ATOM     47  N   UNL A   1      39.772  32.780  36.098  1.00  0.00    -0.248 NA
ATOM     48  C   UNL A   1      37.689  33.833  36.142  1.00  0.00     0.031 C 
ATOM     49  C   UNL A   1      39.057  31.692  31.813  1.00  0.00     0.029 A 
ATOM     50  N   UNL A   1      40.475  31.519  33.536  1.00  0.00    -0.354 N 
ATOM     51  C   UNL A   1      39.542  33.289  37.372  1.00  0.00     0.074 A 
ATOM     52  C   UNL A   1      38.264  33.967  37.327  1.00  0.00     0.031 C 
ATOM     53  C   UNL A   1      40.112  30.966  31.402  1.00  0.00     0.029 A 
ATOM     54  C   UNL A   1      41.087  30.869  32.489  1.00  0.00     0.049 A 
ATOM     55  H   UNL A   1      40.868  31.578  34.436  1.00  0.00     0.167 HD
ATOM     56  C   UNL A   1      40.317  33.191  38.481  1.00  0.00     0.034 A 
ATOM     57  C   UNL A   1      42.303  30.289  32.408  1.00  0.00     0.034 A 
ATOM     58  C   UNL A   1      41.596  32.522  38.509  1.00  0.00     0.049 A 
ATOM     59  C   UNL A   1      43.195  30.275  33.631  1.00  0.00     0.074 A 
ATOM     60  C   UNL A   1      42.456  32.357  39.580  1.00  0.00     0.029 A 
ATOM     61  N   UNL A   1      42.206  31.920  37.415  1.00  0.00    -0.354 N 
ATOM     62  N   UNL A   1      42.963  30.756  34.831  1.00  0.00    -0.248 NA
ATOM     63  C   UNL A   1      44.508  29.631  33.488  1.00  0.00     0.031 C 
ATOM     64  C   UNL A   1      43.621  31.737  39.116  1.00  0.00     0.029 A 
ATOM     65  C   UNL A   1      43.447  31.419  37.779  1.00  0.00     0.049 A 
ATOM     66  H   UNL A   1      41.815  31.860  36.514  1.00  0.00     0.167 HD
ATOM     67  C   UNL A   1      44.085  30.432  35.595  1.00  0.00     0.074 A 
ATOM     68  C   UNL A   1      44.983  29.707  34.722  1.00  0.00     0.031 C 
ATOM     69  C   UNL A   1      44.343  30.700  36.901  1.00  0.00     0.034 A 
BRANCH  56  70
ATOM     70  C   UNL A   1      39.824  33.872  39.737  1.00  0.00     0.023 A 
ATOM     71  C   UNL A   1      38.934  33.243  40.624  1.00  0.00     0.031 A 
ATOM     72  C   UNL A   1      40.234  35.184  40.037  1.00  0.00     0.131 A 
ATOM     73  C   UNL A   1      38.425  33.950  41.725  1.00  0.00     0.055 A 
ATOM     74  C   UNL A   1      39.793  35.850  41.183  1.00  0.00     0.041 A 
ATOM     75  F   UNL A   1      41.062  35.847  39.215  1.00  0.00    -0.206 F 
ATOM     76  C   UNL A   1      38.871  35.239  42.026  1.00  0.00     0.022 A 
BRANCH  73  77
ATOM     77  S   UNL A   1      37.057  33.221  42.667  1.00  0.00     0.124 S 
ATOM     78  O   UNL A   1      36.289  34.408  43.039  1.00  0.00    -0.237 OA
ATOM     79  O   UNL A   1      36.434  32.339  41.688  1.00  0.00    -0.237 OA
ATOM     80  O   UNL A   1      37.726  32.549  43.779  1.00  0.00    -0.744 OA
ENDBRANCH  73  77
ENDBRANCH  56  70
BRANCH  57  81
ATOM     81  C   UNL A   1      42.781  29.702  31.120  1.00  0.00     0.023 A 
ATOM     82  C   UNL A   1      43.394  30.496  30.139  1.00  0.00     0.031 A 
ATOM     83  C   UNL A   1      42.566  28.343  30.825  1.00  0.00     0.131 A 
ATOM     84  C   UNL A   1      43.724  29.941  28.892  1.00  0.00     0.055 A 
ATOM     85  C   UNL A   1      42.955  27.780  29.607  1.00  0.00     0.041 A 
ATOM     86  F   UNL A   1      41.974  27.537  31.721  1.00  0.00    -0.206 F 
ATOM     87  C   UNL A   1      43.525  28.584  28.626  1.00  0.00     0.022 A 
BRANCH  84  88
ATOM     88  S   UNL A   1      44.324  31.042  27.580  1.00  0.00     0.124 S 
ATOM     89  O   UNL A   1      45.740  30.696  27.529  1.00  0.00    -0.237 OA
ATOM     90  O   UNL A   1      43.519  30.619  26.439  1.00  0.00    -0.237 OA
ATOM     91  O   UNL A   1      44.025  32.377  28.092  1.00  0.00    -0.744 OA
ENDBRANCH  84  88
ENDBRANCH  57  81
BRANCH  69  92
ATOM     92  C   UNL A   1      45.624  30.147  37.486  1.00  0.00     0.023 A 
ATOM     93  C   UNL A   1      45.694  28.867  38.061  1.00  0.00     0.031 A 
ATOM     94  C   UNL A   1      46.796  30.927  37.473  1.00  0.00     0.131 A 
ATOM     95  C   UNL A   1      46.889  28.432  38.658  1.00  0.00     0.055 A 
ATOM     96  C   UNL A   1      47.999  30.460  38.003  1.00  0.00     0.041 A 
ATOM     97  F   UNL A   1      46.792  32.161  36.942  1.00  0.00    -0.206 F 
ATOM     98  C   UNL A   1      48.047  29.212  38.615  1.00  0.00     0.022 A 
BRANCH  95  99
ATOM     99  S   UNL A   1      46.879  26.880  39.597  1.00  0.00     0.124 S 
ATOM    100  O   UNL A   1      45.793  27.105  40.545  1.00  0.00    -0.237 OA
ATOM    101  O   UNL A   1      46.623  25.888  38.558  1.00  0.00    -0.237 OA
ATOM    102  O   UNL A   1      48.216  26.827  40.188  1.00  0.00    -0.744 OA
ENDBRANCH  95  99
ENDBRANCH  69  92
ENDBRANCH  43  44
ENDBRANCH  36  38
ENDBRANCH  35  36
ENDBRANCH  34  35
ENDBRANCH  33  34
ENDBRANCH  32  33
ENDBRANCH  31  32
ENDBRANCH  30  31
ENDBRANCH   1  30
TORSDOF 26
ENDMDL
