MODEL 1
REMARK VINA RESULT:     -10.9      0.000      0.000
REMARK SMILES Cc1ccnc(C(=O)c2[nH]c3ccc(C(C)(C)C)cc3c2CC(=O)OCCOCCOCCOC(=O)c2ccc(-c3c4nc(c(-c5cc(S(=O)(=O)[O-])ccc5F)c5ccc([nH]5)c(-c5cc(S(=O)(=O)[O-])ccc5F)c5nc(c(-c6cc(S(=O)(=O)[O-])ccc6F)c6ccc3[nH]6)C=C5)C=C4)cc2)c1
REMARK SMILES IDX 29 1 28 2 27 3 26 4 25 5 23 6 24 7 22 8 21 9 9 10 10 11
REMARK SMILES IDX 11 12 20 14 12 15 19 16 13 17 14 18 7 19 8 20 6 21 1 22 2 23
REMARK SMILES IDX 3 24 100 25 4 26 5 27 15 28 16 29 17 30 18 31 30 32 31 33
REMARK SMILES IDX 32 34 33 35 34 36 35 37 36 38 37 39 38 40 99 41 39 42 98 43
REMARK SMILES IDX 40 44 41 45 42 46 92 47 43 48 97 49 91 50 93 51 44 52 96 53
REMARK SMILES IDX 90 54 89 55 45 57 77 58 57 59 76 60 58 61 61 62 75 63 94 64
REMARK SMILES IDX 59 65 60 66 74 68 95 69 62 70 46 71 47 72 55 73 48 74 54 75
REMARK SMILES IDX 56 76 53 77 49 78 50 79 51 80 52 81 78 82 79 83 87 84 80 85
REMARK SMILES IDX 86 86 88 87 85 88 81 89 82 90 83 91 84 92 63 93 64 94 72 95
REMARK SMILES IDX 65 96 71 97 73 98 70 99 66 100 67 101 68 102 69 103
REMARK H PARENT 10 13 93 56 61 67
REMARK Flexibility Score: inf
ROOT
ATOM      1  C   UNL A   1      40.480  20.918  26.738  1.00  0.00     0.188 C 
ENDROOT
BRANCH   1   2
ATOM      2  O   UNL A   1      39.387  21.828  26.650  1.00  0.00    -0.376 OA
BRANCH   2   3
ATOM      3  C   UNL A   1      38.607  21.817  25.463  1.00  0.00     0.202 C 
BRANCH   3   4
ATOM      4  C   UNL A   1      37.137  21.432  25.629  1.00  0.00     0.261 C 
BRANCH   4   5
ATOM      5  O   UNL A   1      36.260  22.575  25.538  1.00  0.00    -0.463 OA
BRANCH   5   6
ATOM      6  C   UNL A   1      35.895  22.937  24.282  1.00  0.00     0.310 C 
ATOM      7  O   UNL A   1      36.577  23.682  23.578  1.00  0.00    -0.252 OA
BRANCH   6   8
ATOM      8  C   UNL A   1      34.634  22.287  23.742  1.00  0.00     0.161 C 
BRANCH   8   9
ATOM      9  C   UNL A   1      33.434  22.082  24.643  1.00  0.00     0.000 A 
ATOM     10  C   UNL A   1      32.598  20.961  24.728  1.00  0.00     0.093 A 
ATOM     11  N   UNL A   1      31.661  21.226  25.702  1.00  0.00    -0.352 N 
ATOM     12  C   UNL A   1      31.611  22.576  25.937  1.00  0.00     0.046 A 
ATOM     13  H   UNL A   1      31.111  20.549  26.160  1.00  0.00     0.167 HD
ATOM     14  C   UNL A   1      32.723  23.129  25.312  1.00  0.00     0.004 A 
ATOM     15  C   UNL A   1      30.655  23.343  26.603  1.00  0.00     0.027 A 
ATOM     16  C   UNL A   1      32.868  24.527  25.324  1.00  0.00     0.015 A 
ATOM     17  C   UNL A   1      30.778  24.737  26.513  1.00  0.00     0.006 A 
ATOM     18  C   UNL A   1      31.851  25.351  25.848  1.00  0.00    -0.042 A 
BRANCH  10  19
ATOM     19  C   UNL A   1      32.648  19.738  23.950  1.00  0.00     0.227 C 
ATOM     20  O   UNL A   1      32.153  19.653  22.828  1.00  0.00    -0.285 OA
BRANCH  19  21
ATOM     21  C   UNL A   1      33.269  18.513  24.532  1.00  0.00     0.113 A 
ATOM     22  C   UNL A   1      32.269  15.078  25.752  1.00  0.00     0.044 C 
ATOM     23  C   UNL A   1      33.078  16.257  25.300  1.00  0.00    -0.047 A 
ATOM     24  C   UNL A   1      34.449  16.117  25.067  1.00  0.00     0.023 A 
ATOM     25  C   UNL A   1      32.468  17.481  25.004  1.00  0.00     0.036 A 
ATOM     26  C   UNL A   1      35.168  17.221  24.644  1.00  0.00     0.112 A 
ATOM     27  N   UNL A   1      34.614  18.431  24.409  1.00  0.00    -0.253 NA
ENDBRANCH  19  21
ENDBRANCH  10  19
BRANCH  18  28
ATOM     28  C   UNL A   1      31.914  26.861  25.568  1.00  0.00    -0.013 C 
ATOM     29  C   UNL A   1      31.605  27.644  26.858  1.00  0.00     0.016 C 
ATOM     30  C   UNL A   1      33.339  27.216  25.078  1.00  0.00     0.016 C 
ATOM     31  C   UNL A   1      30.931  27.336  24.477  1.00  0.00     0.016 C 
ENDBRANCH  18  28
ENDBRANCH   8   9
ENDBRANCH   6   8
ENDBRANCH   5   6
ENDBRANCH   4   5
ENDBRANCH   3   4
ENDBRANCH   2   3
ENDBRANCH   1   2
BRANCH   1  32
ATOM     32  C   UNL A   1      40.335  19.510  26.119  1.00  0.00     0.188 C 
BRANCH  32  33
ATOM     33  O   UNL A   1      41.502  18.774  25.776  1.00  0.00    -0.376 OA
BRANCH  33  34
ATOM     34  C   UNL A   1      42.738  19.471  25.819  1.00  0.00     0.202 C 
BRANCH  34  35
ATOM     35  C   UNL A   1      43.862  18.830  25.008  1.00  0.00     0.261 C 
BRANCH  35  36
ATOM     36  O   UNL A   1      44.352  19.727  23.993  1.00  0.00    -0.460 OA
BRANCH  36  37
ATOM     37  C   UNL A   1      45.403  20.482  24.396  1.00  0.00     0.338 C 
ATOM     38  O   UNL A   1      46.581  20.207  24.243  1.00  0.00    -0.246 OA
BRANCH  37  39
ATOM     39  C   UNL A   1      44.970  21.726  25.071  1.00  0.00     0.060 A 
ATOM     40  C   UNL A   1      44.563  22.829  24.332  1.00  0.00     0.016 A 
ATOM     41  C   UNL A   1      45.247  21.882  26.428  1.00  0.00     0.016 A 
ATOM     42  C   UNL A   1      44.614  24.111  24.893  1.00  0.00     0.010 A 
ATOM     43  C   UNL A   1      45.188  23.155  27.017  1.00  0.00     0.010 A 
ATOM     44  C   UNL A   1      44.955  24.303  26.237  1.00  0.00    -0.014 A 
BRANCH  44  45
ATOM     45  C   UNL A   1      45.184  25.681  26.787  1.00  0.00     0.031 A 
ATOM     46  C   UNL A   1      44.037  26.454  27.410  1.00  0.00     0.074 A 
ATOM     47  C   UNL A   1      46.417  26.232  26.806  1.00  0.00     0.049 A 
ATOM     48  N   UNL A   1      43.986  27.706  27.795  1.00  0.00    -0.248 NA
ATOM     49  C   UNL A   1      42.779  25.720  27.631  1.00  0.00     0.031 C 
ATOM     50  C   UNL A   1      47.645  25.580  26.347  1.00  0.00     0.029 A 
ATOM     51  N   UNL A   1      46.846  27.466  27.240  1.00  0.00    -0.354 N 
ATOM     52  C   UNL A   1      42.695  27.916  28.272  1.00  0.00     0.074 A 
ATOM     53  C   UNL A   1      41.984  26.666  28.113  1.00  0.00     0.031 C 
ATOM     54  C   UNL A   1      48.687  26.398  26.561  1.00  0.00     0.029 A 
ATOM     55  C   UNL A   1      48.195  27.679  27.053  1.00  0.00     0.049 A 
ATOM     56  H   UNL A   1      46.247  28.133  27.646  1.00  0.00     0.167 HD
ATOM     57  C   UNL A   1      42.146  29.045  28.790  1.00  0.00     0.034 A 
ATOM     58  C   UNL A   1      48.948  28.790  27.193  1.00  0.00     0.034 A 
ATOM     59  C   UNL A   1      42.854  30.295  28.943  1.00  0.00     0.049 A 
ATOM     60  C   UNL A   1      48.281  30.069  27.634  1.00  0.00     0.074 A 
ATOM     61  C   UNL A   1      42.372  31.510  29.399  1.00  0.00     0.029 A 
ATOM     62  N   UNL A   1      44.196  30.491  28.647  1.00  0.00    -0.354 N 
ATOM     63  N   UNL A   1      47.033  30.274  27.990  1.00  0.00    -0.248 NA
ATOM     64  C   UNL A   1      49.125  31.270  27.681  1.00  0.00     0.031 C 
ATOM     65  C   UNL A   1      43.400  32.455  29.309  1.00  0.00     0.029 A 
ATOM     66  C   UNL A   1      44.549  31.813  28.880  1.00  0.00     0.049 A 
ATOM     67  H   UNL A   1      44.810  29.793  28.320  1.00  0.00     0.167 HD
ATOM     68  C   UNL A   1      46.953  31.626  28.317  1.00  0.00     0.074 A 
ATOM     69  C   UNL A   1      48.284  32.171  28.159  1.00  0.00     0.031 C 
ATOM     70  C   UNL A   1      45.873  32.356  28.701  1.00  0.00     0.034 A 
BRANCH  57  71
ATOM     71  C   UNL A   1      40.681  29.006  29.163  1.00  0.00     0.023 A 
ATOM     72  C   UNL A   1      40.254  28.923  30.499  1.00  0.00     0.031 A 
ATOM     73  C   UNL A   1      39.698  29.064  28.160  1.00  0.00     0.131 A 
ATOM     74  C   UNL A   1      38.881  28.858  30.792  1.00  0.00     0.055 A 
ATOM     75  C   UNL A   1      38.334  29.066  28.461  1.00  0.00     0.041 A 
ATOM     76  F   UNL A   1      40.047  29.122  26.865  1.00  0.00    -0.206 F 
ATOM     77  C   UNL A   1      37.919  28.954  29.784  1.00  0.00     0.022 A 
BRANCH  74  78
ATOM     78  S   UNL A   1      38.370  28.537  32.503  1.00  0.00     0.124 S 
ATOM     79  O   UNL A   1      38.448  27.079  32.567  1.00  0.00    -0.237 OA
ATOM     80  O   UNL A   1      39.372  29.262  33.274  1.00  0.00    -0.237 OA
ATOM     81  O   UNL A   1      37.016  29.085  32.565  1.00  0.00    -0.744 OA
ENDBRANCH  74  78
ENDBRANCH  57  71
BRANCH  58  82
ATOM     82  C   UNL A   1      50.395  28.789  26.810  1.00  0.00     0.023 A 
ATOM     83  C   UNL A   1      50.799  28.970  25.478  1.00  0.00     0.031 A 
ATOM     84  C   UNL A   1      51.394  28.513  27.764  1.00  0.00     0.131 A 
ATOM     85  C   UNL A   1      52.153  28.819  25.129  1.00  0.00     0.055 A 
ATOM     86  C   UNL A   1      52.745  28.444  27.426  1.00  0.00     0.041 A 
ATOM     87  F   UNL A   1      51.069  28.303  29.050  1.00  0.00    -0.206 F 
ATOM     88  C   UNL A   1      53.130  28.580  26.097  1.00  0.00     0.022 A 
BRANCH  85  89
ATOM     89  S   UNL A   1      52.601  28.799  23.371  1.00  0.00     0.124 S 
ATOM     90  O   UNL A   1      51.404  28.228  22.765  1.00  0.00    -0.237 OA
ATOM     91  O   UNL A   1      52.844  30.213  23.104  1.00  0.00    -0.237 OA
ATOM     92  O   UNL A   1      53.787  27.946  23.331  1.00  0.00    -0.744 OA
ENDBRANCH  85  89
ENDBRANCH  58  82
BRANCH  70  93
ATOM     93  C   UNL A   1      46.118  33.814  29.010  1.00  0.00     0.023 A 
ATOM     94  C   UNL A   1      46.109  34.791  27.998  1.00  0.00     0.031 A 
ATOM     95  C   UNL A   1      46.438  34.222  30.316  1.00  0.00     0.131 A 
ATOM     96  C   UNL A   1      46.511  36.103  28.288  1.00  0.00     0.055 A 
ATOM     97  C   UNL A   1      46.761  35.548  30.614  1.00  0.00     0.041 A 
ATOM     98  F   UNL A   1      46.463  33.336  31.325  1.00  0.00    -0.206 F 
ATOM     99  C   UNL A   1      46.822  36.492  29.594  1.00  0.00     0.022 A 
BRANCH  96 100
ATOM    100  S   UNL A   1      46.771  37.254  26.910  1.00  0.00     0.124 S 
ATOM    101  O   UNL A   1      48.066  37.840  27.245  1.00  0.00    -0.237 OA
ATOM    102  O   UNL A   1      46.754  36.365  25.754  1.00  0.00    -0.237 OA
ATOM    103  O   UNL A   1      45.633  38.168  27.007  1.00  0.00    -0.744 OA
ENDBRANCH  96 100
ENDBRANCH  70  93
ENDBRANCH  44  45
ENDBRANCH  37  39
ENDBRANCH  36  37
ENDBRANCH  35  36
ENDBRANCH  34  35
ENDBRANCH  33  34
ENDBRANCH  32  33
ENDBRANCH   1  32
TORSDOF 24
ENDMDL
MODEL 2
REMARK VINA RESULT:     -10.8      0.786      7.344
REMARK SMILES Cc1ccnc(C(=O)c2[nH]c3ccc(C(C)(C)C)cc3c2CC(=O)OCCOCCOCCOC(=O)c2ccc(-c3c4nc(c(-c5cc(S(=O)(=O)[O-])ccc5F)c5ccc([nH]5)c(-c5cc(S(=O)(=O)[O-])ccc5F)c5nc(c(-c6cc(S(=O)(=O)[O-])ccc6F)c6ccc3[nH]6)C=C5)C=C4)cc2)c1
REMARK SMILES IDX 29 1 28 2 27 3 26 4 25 5 23 6 24 7 22 8 21 9 9 10 10 11
REMARK SMILES IDX 11 12 20 14 12 15 19 16 13 17 14 18 7 19 8 20 6 21 1 22 2 23
REMARK SMILES IDX 3 24 100 25 4 26 5 27 15 28 16 29 17 30 18 31 30 32 31 33
REMARK SMILES IDX 32 34 33 35 34 36 35 37 36 38 37 39 38 40 99 41 39 42 98 43
REMARK SMILES IDX 40 44 41 45 42 46 92 47 43 48 97 49 91 50 93 51 44 52 96 53
REMARK SMILES IDX 90 54 89 55 45 57 77 58 57 59 76 60 58 61 61 62 75 63 94 64
REMARK SMILES IDX 59 65 60 66 74 68 95 69 62 70 46 71 47 72 55 73 48 74 54 75
REMARK SMILES IDX 56 76 53 77 49 78 50 79 51 80 52 81 78 82 79 83 87 84 80 85
REMARK SMILES IDX 86 86 88 87 85 88 81 89 82 90 83 91 84 92 63 93 64 94 72 95
REMARK SMILES IDX 65 96 71 97 73 98 70 99 66 100 67 101 68 102 69 103
REMARK H PARENT 10 13 93 56 61 67
REMARK Flexibility Score: inf
ROOT
ATOM      1  C   UNL A   1      40.707  21.119  26.630  1.00  0.00     0.188 C 
ENDROOT
BRANCH   1   2
ATOM      2  O   UNL A   1      39.712  22.134  26.727  1.00  0.00    -0.376 OA
BRANCH   2   3
ATOM      3  C   UNL A   1      38.464  21.904  26.089  1.00  0.00     0.202 C 
BRANCH   3   4
ATOM      4  C   UNL A   1      37.725  23.146  25.590  1.00  0.00     0.261 C 
BRANCH   4   5
ATOM      5  O   UNL A   1      36.342  22.871  25.280  1.00  0.00    -0.463 OA
BRANCH   5   6
ATOM      6  C   UNL A   1      36.023  22.886  23.961  1.00  0.00     0.310 C 
ATOM      7  O   UNL A   1      36.766  23.354  23.100  1.00  0.00    -0.252 OA
BRANCH   6   8
ATOM      8  C   UNL A   1      34.725  22.193  23.584  1.00  0.00     0.161 C 
BRANCH   8   9
ATOM      9  C   UNL A   1      33.602  22.072  24.592  1.00  0.00     0.000 A 
ATOM     10  C   UNL A   1      32.720  20.999  24.779  1.00  0.00     0.093 A 
ATOM     11  N   UNL A   1      31.889  21.334  25.825  1.00  0.00    -0.352 N 
ATOM     12  C   UNL A   1      31.931  22.690  26.030  1.00  0.00     0.046 A 
ATOM     13  H   UNL A   1      31.348  20.698  26.347  1.00  0.00     0.167 HD
ATOM     14  C   UNL A   1      33.010  23.169  25.295  1.00  0.00     0.004 A 
ATOM     15  C   UNL A   1      31.080  23.521  26.758  1.00  0.00     0.027 A 
ATOM     16  C   UNL A   1      33.228  24.557  25.259  1.00  0.00     0.015 A 
ATOM     17  C   UNL A   1      31.267  24.904  26.623  1.00  0.00     0.006 A 
ATOM     18  C   UNL A   1      32.306  25.446  25.850  1.00  0.00    -0.042 A 
BRANCH  10  19
ATOM     19  C   UNL A   1      32.636  19.760  24.030  1.00  0.00     0.227 C 
ATOM     20  O   UNL A   1      32.039  19.680  22.958  1.00  0.00    -0.285 OA
BRANCH  19  21
ATOM     21  C   UNL A   1      33.240  18.515  24.586  1.00  0.00     0.113 A 
ATOM     22  C   UNL A   1      32.183  15.104  25.825  1.00  0.00     0.044 C 
ATOM     23  C   UNL A   1      33.010  16.262  25.350  1.00  0.00    -0.047 A 
ATOM     24  C   UNL A   1      34.368  16.083  25.071  1.00  0.00     0.023 A 
ATOM     25  C   UNL A   1      32.426  17.504  25.080  1.00  0.00     0.036 A 
ATOM     26  C   UNL A   1      35.104  17.169  24.630  1.00  0.00     0.112 A 
ATOM     27  N   UNL A   1      34.578  18.395  24.418  1.00  0.00    -0.253 NA
ENDBRANCH  19  21
ENDBRANCH  10  19
BRANCH  18  28
ATOM     28  C   UNL A   1      32.422  26.944  25.528  1.00  0.00    -0.013 C 
ATOM     29  C   UNL A   1      33.505  27.164  24.455  1.00  0.00     0.016 C 
ATOM     30  C   UNL A   1      31.058  27.445  24.995  1.00  0.00     0.016 C 
ATOM     31  C   UNL A   1      32.778  27.819  26.748  1.00  0.00     0.016 C 
ENDBRANCH  18  28
ENDBRANCH   8   9
ENDBRANCH   6   8
ENDBRANCH   5   6
ENDBRANCH   4   5
ENDBRANCH   3   4
ENDBRANCH   2   3
ENDBRANCH   1   2
BRANCH   1  32
ATOM     32  C   UNL A   1      40.336  19.764  25.987  1.00  0.00     0.188 C 
BRANCH  32  33
ATOM     33  O   UNL A   1      41.366  18.841  25.660  1.00  0.00    -0.376 OA
BRANCH  33  34
ATOM     34  C   UNL A   1      42.663  19.115  26.169  1.00  0.00     0.202 C 
BRANCH  34  35
ATOM     35  C   UNL A   1      43.812  18.605  25.302  1.00  0.00     0.261 C 
BRANCH  35  36
ATOM     36  O   UNL A   1      44.114  19.527  24.238  1.00  0.00    -0.460 OA
BRANCH  36  37
ATOM     37  C   UNL A   1      45.124  20.382  24.530  1.00  0.00     0.338 C 
ATOM     38  O   UNL A   1      46.311  20.178  24.343  1.00  0.00    -0.246 OA
BRANCH  37  39
ATOM     39  C   UNL A   1      44.631  21.644  25.127  1.00  0.00     0.060 A 
ATOM     40  C   UNL A   1      44.205  22.691  24.320  1.00  0.00     0.016 A 
ATOM     41  C   UNL A   1      44.867  21.881  26.480  1.00  0.00     0.016 A 
ATOM     42  C   UNL A   1      44.197  24.002  24.813  1.00  0.00     0.010 A 
ATOM     43  C   UNL A   1      44.749  23.181  26.997  1.00  0.00     0.010 A 
ATOM     44  C   UNL A   1      44.497  24.277  26.152  1.00  0.00    -0.014 A 
BRANCH  44  45
ATOM     45  C   UNL A   1      44.663  25.689  26.632  1.00  0.00     0.031 A 
ATOM     46  C   UNL A   1      46.023  26.359  26.574  1.00  0.00     0.074 A 
ATOM     47  C   UNL A   1      43.606  26.414  27.056  1.00  0.00     0.049 A 
ATOM     48  N   UNL A   1      46.412  27.505  27.081  1.00  0.00    -0.248 NA
ATOM     49  C   UNL A   1      47.089  25.647  25.848  1.00  0.00     0.031 C 
ATOM     50  C   UNL A   1      42.215  25.958  27.073  1.00  0.00     0.029 A 
ATOM     51  N   UNL A   1      43.532  27.699  27.546  1.00  0.00    -0.354 N 
ATOM     52  C   UNL A   1      47.761  27.634  26.763  1.00  0.00     0.074 A 
ATOM     53  C   UNL A   1      48.133  26.442  26.033  1.00  0.00     0.031 C 
ATOM     54  C   UNL A   1      41.427  26.954  27.506  1.00  0.00     0.029 A 
ATOM     55  C   UNL A   1      42.260  28.077  27.919  1.00  0.00     0.049 A 
ATOM     56  H   UNL A   1      44.314  28.292  27.624  1.00  0.00     0.167 HD
ATOM     57  C   UNL A   1      48.616  28.649  27.054  1.00  0.00     0.034 A 
ATOM     58  C   UNL A   1      41.812  29.166  28.577  1.00  0.00     0.034 A 
ATOM     59  C   UNL A   1      48.245  29.836  27.788  1.00  0.00     0.049 A 
ATOM     60  C   UNL A   1      42.808  30.211  29.015  1.00  0.00     0.074 A 
ATOM     61  C   UNL A   1      49.049  30.891  28.187  1.00  0.00     0.029 A 
ATOM     62  N   UNL A   1      46.963  30.130  28.232  1.00  0.00    -0.354 N 
ATOM     63  N   UNL A   1      44.100  30.271  28.789  1.00  0.00    -0.248 NA
ATOM     64  C   UNL A   1      42.282  31.329  29.808  1.00  0.00     0.031 C 
ATOM     65  C   UNL A   1      48.270  31.783  28.933  1.00  0.00     0.029 A 
ATOM     66  C   UNL A   1      46.962  31.332  28.927  1.00  0.00     0.049 A 
ATOM     67  H   UNL A   1      46.169  29.568  28.076  1.00  0.00     0.167 HD
ATOM     68  C   UNL A   1      44.534  31.445  29.402  1.00  0.00     0.074 A 
ATOM     69  C   UNL A   1      43.361  32.078  29.964  1.00  0.00     0.031 C 
ATOM     70  C   UNL A   1      45.792  31.949  29.503  1.00  0.00     0.034 A 
BRANCH  57  71
ATOM     71  C   UNL A   1      50.062  28.488  26.643  1.00  0.00     0.023 A 
ATOM     72  C   UNL A   1      50.525  28.877  25.375  1.00  0.00     0.031 A 
ATOM     73  C   UNL A   1      50.993  27.943  27.546  1.00  0.00     0.131 A 
ATOM     74  C   UNL A   1      51.873  28.677  25.031  1.00  0.00     0.055 A 
ATOM     75  C   UNL A   1      52.345  27.809  27.222  1.00  0.00     0.041 A 
ATOM     76  F   UNL A   1      50.604  27.534  28.764  1.00  0.00    -0.206 F 
ATOM     77  C   UNL A   1      52.791  28.169  25.954  1.00  0.00     0.022 A 
BRANCH  74  78
ATOM     78  S   UNL A   1      52.390  28.991  23.320  1.00  0.00     0.124 S 
ATOM     79  O   UNL A   1      51.372  29.939  22.873  1.00  0.00    -0.237 OA
ATOM     80  O   UNL A   1      53.733  29.531  23.489  1.00  0.00    -0.237 OA
ATOM     81  O   UNL A   1      52.320  27.672  22.693  1.00  0.00    -0.744 OA
ENDBRANCH  74  78
ENDBRANCH  57  71
BRANCH  58  82
ATOM     82  C   UNL A   1      40.372  29.287  28.968  1.00  0.00     0.023 A 
ATOM     83  C   UNL A   1      39.968  29.198  30.309  1.00  0.00     0.031 A 
ATOM     84  C   UNL A   1      39.365  29.403  27.989  1.00  0.00     0.131 A 
ATOM     85  C   UNL A   1      38.600  29.169  30.629  1.00  0.00     0.055 A 
ATOM     86  C   UNL A   1      38.011  29.456  28.319  1.00  0.00     0.041 A 
ATOM     87  F   UNL A   1      39.686  29.465  26.686  1.00  0.00    -0.206 F 
ATOM     88  C   UNL A   1      37.620  29.321  29.645  1.00  0.00     0.022 A 
BRANCH  85  89
ATOM     89  S   UNL A   1      38.113  28.791  32.335  1.00  0.00     0.124 S 
ATOM     90  O   UNL A   1      39.013  29.647  33.099  1.00  0.00    -0.237 OA
ATOM     91  O   UNL A   1      36.704  29.174  32.341  1.00  0.00    -0.237 OA
ATOM     92  O   UNL A   1      38.367  27.357  32.452  1.00  0.00    -0.744 OA
ENDBRANCH  85  89
ENDBRANCH  58  82
BRANCH  70  93
ATOM     93  C   UNL A   1      45.935  33.270  30.220  1.00  0.00     0.023 A 
ATOM     94  C   UNL A   1      45.835  34.494  29.533  1.00  0.00     0.031 A 
ATOM     95  C   UNL A   1      46.250  33.308  31.590  1.00  0.00     0.131 A 
ATOM     96  C   UNL A   1      46.145  35.693  30.191  1.00  0.00     0.055 A 
ATOM     97  C   UNL A   1      46.480  34.512  32.258  1.00  0.00     0.041 A 
ATOM     98  F   UNL A   1      46.359  32.174  32.299  1.00  0.00    -0.206 F 
ATOM     99  C   UNL A   1      46.452  35.712  31.554  1.00  0.00     0.022 A 
BRANCH  96 100
ATOM    100  S   UNL A   1      46.293  37.209  29.205  1.00  0.00     0.124 S 
ATOM    101  O   UNL A   1      47.705  37.541  29.370  1.00  0.00    -0.237 OA
ATOM    102  O   UNL A   1      45.896  36.755  27.875  1.00  0.00    -0.237 OA
ATOM    103  O   UNL A   1      45.359  38.130  29.849  1.00  0.00    -0.744 OA
ENDBRANCH  96 100
ENDBRANCH  70  93
ENDBRANCH  44  45
ENDBRANCH  37  39
ENDBRANCH  36  37
ENDBRANCH  35  36
ENDBRANCH  34  35
ENDBRANCH  33  34
ENDBRANCH  32  33
ENDBRANCH   1  32
TORSDOF 24
ENDMDL
MODEL 3
REMARK VINA RESULT:     -10.5      4.796     10.694
REMARK SMILES Cc1ccnc(C(=O)c2[nH]c3ccc(C(C)(C)C)cc3c2CC(=O)OCCOCCOCCOC(=O)c2ccc(-c3c4nc(c(-c5cc(S(=O)(=O)[O-])ccc5F)c5ccc([nH]5)c(-c5cc(S(=O)(=O)[O-])ccc5F)c5nc(c(-c6cc(S(=O)(=O)[O-])ccc6F)c6ccc3[nH]6)C=C5)C=C4)cc2)c1
REMARK SMILES IDX 29 1 28 2 27 3 26 4 25 5 23 6 24 7 22 8 21 9 9 10 10 11
REMARK SMILES IDX 11 12 20 14 12 15 19 16 13 17 14 18 7 19 8 20 6 21 1 22 2 23
REMARK SMILES IDX 3 24 100 25 4 26 5 27 15 28 16 29 17 30 18 31 30 32 31 33
REMARK SMILES IDX 32 34 33 35 34 36 35 37 36 38 37 39 38 40 99 41 39 42 98 43
REMARK SMILES IDX 40 44 41 45 42 46 92 47 43 48 97 49 91 50 93 51 44 52 96 53
REMARK SMILES IDX 90 54 89 55 45 57 77 58 57 59 76 60 58 61 61 62 75 63 94 64
REMARK SMILES IDX 59 65 60 66 74 68 95 69 62 70 46 71 47 72 55 73 48 74 54 75
REMARK SMILES IDX 56 76 53 77 49 78 50 79 51 80 52 81 78 82 79 83 87 84 80 85
REMARK SMILES IDX 86 86 88 87 85 88 81 89 82 90 83 91 84 92 63 93 64 94 72 95
REMARK SMILES IDX 65 96 71 97 73 98 70 99 66 100 67 101 68 102 69 103
REMARK H PARENT 10 13 93 56 61 67
REMARK Flexibility Score: inf
ROOT
ATOM      1  C   UNL A   1      34.305  32.362  28.862  1.00  0.00     0.188 C 
ENDROOT
BRANCH   1   2
ATOM      2  O   UNL A   1      35.395  31.766  28.165  1.00  0.00    -0.376 OA
BRANCH   2   3
ATOM      3  C   UNL A   1      35.186  30.495  27.567  1.00  0.00     0.202 C 
BRANCH   3   4
ATOM      4  C   UNL A   1      33.729  30.097  27.327  1.00  0.00     0.261 C 
BRANCH   4   5
ATOM      5  O   UNL A   1      33.593  28.698  26.997  1.00  0.00    -0.463 OA
BRANCH   5   6
ATOM      6  C   UNL A   1      33.139  28.431  25.747  1.00  0.00     0.310 C 
ATOM      7  O   UNL A   1      33.504  29.062  24.756  1.00  0.00    -0.252 OA
BRANCH   6   8
ATOM      8  C   UNL A   1      32.219  27.229  25.615  1.00  0.00     0.161 C 
BRANCH   8   9
ATOM      9  C   UNL A   1      32.105  26.496  24.295  1.00  0.00     0.000 A 
ATOM     10  C   UNL A   1      31.000  26.426  23.438  1.00  0.00     0.093 A 
ATOM     11  N   UNL A   1      31.375  25.666  22.351  1.00  0.00    -0.352 N 
ATOM     12  C   UNL A   1      32.491  24.933  22.668  1.00  0.00     0.046 A 
ATOM     13  H   UNL A   1      30.914  25.652  21.481  1.00  0.00     0.167 HD
ATOM     14  C   UNL A   1      32.982  25.451  23.860  1.00  0.00     0.004 A 
ATOM     15  C   UNL A   1      33.063  23.836  22.023  1.00  0.00     0.027 A 
ATOM     16  C   UNL A   1      34.083  24.816  24.459  1.00  0.00     0.015 A 
ATOM     17  C   UNL A   1      34.098  23.169  22.694  1.00  0.00     0.006 A 
ATOM     18  C   UNL A   1      34.598  23.615  23.928  1.00  0.00    -0.042 A 
BRANCH  10  19
ATOM     19  C   UNL A   1      29.681  27.003  23.618  1.00  0.00     0.227 C 
ATOM     20  O   UNL A   1      28.790  26.423  24.234  1.00  0.00    -0.285 OA
BRANCH  19  21
ATOM     21  C   UNL A   1      29.356  28.319  22.996  1.00  0.00     0.113 A 
ATOM     22  C   UNL A   1      27.275  31.397  23.687  1.00  0.00     0.044 C 
ATOM     23  C   UNL A   1      28.274  30.448  23.095  1.00  0.00    -0.047 A 
ATOM     24  C   UNL A   1      29.198  30.904  22.152  1.00  0.00     0.023 A 
ATOM     25  C   UNL A   1      28.369  29.126  23.545  1.00  0.00     0.036 A 
ATOM     26  C   UNL A   1      30.111  30.006  21.627  1.00  0.00     0.112 A 
ATOM     27  N   UNL A   1      30.186  28.710  22.000  1.00  0.00    -0.253 NA
ENDBRANCH  19  21
ENDBRANCH  10  19
BRANCH  18  28
ATOM     28  C   UNL A   1      35.592  22.805  24.775  1.00  0.00    -0.013 C 
ATOM     29  C   UNL A   1      35.109  21.347  24.894  1.00  0.00     0.016 C 
ATOM     30  C   UNL A   1      36.976  22.835  24.082  1.00  0.00     0.016 C 
ATOM     31  C   UNL A   1      35.791  23.357  26.202  1.00  0.00     0.016 C 
ENDBRANCH  18  28
ENDBRANCH   8   9
ENDBRANCH   6   8
ENDBRANCH   5   6
ENDBRANCH   4   5
ENDBRANCH   3   4
ENDBRANCH   2   3
ENDBRANCH   1   2
BRANCH   1  32
ATOM     32  C   UNL A   1      34.597  33.426  29.943  1.00  0.00     0.188 C 
BRANCH  32  33
ATOM     33  O   UNL A   1      34.031  33.279  31.239  1.00  0.00    -0.376 OA
BRANCH  33  34
ATOM     34  C   UNL A   1      34.883  33.532  32.347  1.00  0.00     0.202 C 
BRANCH  34  35
ATOM     35  C   UNL A   1      36.098  34.400  32.034  1.00  0.00     0.261 C 
BRANCH  35  36
ATOM     36  O   UNL A   1      37.325  33.721  32.364  1.00  0.00    -0.460 OA
BRANCH  36  37
ATOM     37  C   UNL A   1      37.947  33.170  31.294  1.00  0.00     0.338 C 
ATOM     38  O   UNL A   1      37.665  32.105  30.773  1.00  0.00    -0.246 OA
BRANCH  37  39
ATOM     39  C   UNL A   1      39.053  34.018  30.794  1.00  0.00     0.060 A 
ATOM     40  C   UNL A   1      39.052  34.487  29.487  1.00  0.00     0.016 A 
ATOM     41  C   UNL A   1      40.224  34.101  31.545  1.00  0.00     0.016 A 
ATOM     42  C   UNL A   1      40.252  34.860  28.871  1.00  0.00     0.010 A 
ATOM     43  C   UNL A   1      41.405  34.581  30.956  1.00  0.00     0.010 A 
ATOM     44  C   UNL A   1      41.457  34.886  29.584  1.00  0.00    -0.014 A 
BRANCH  44  45
ATOM     45  C   UNL A   1      42.765  35.110  28.882  1.00  0.00     0.031 A 
ATOM     46  C   UNL A   1      43.674  33.936  28.570  1.00  0.00     0.074 A 
ATOM     47  C   UNL A   1      43.129  36.337  28.452  1.00  0.00     0.049 A 
ATOM     48  N   UNL A   1      44.905  33.930  28.118  1.00  0.00    -0.248 NA
ATOM     49  C   UNL A   1      43.125  32.588  28.794  1.00  0.00     0.031 C 
ATOM     50  C   UNL A   1      42.322  37.553  28.574  1.00  0.00     0.029 A 
ATOM     51  N   UNL A   1      44.270  36.767  27.811  1.00  0.00    -0.354 N 
ATOM     52  C   UNL A   1      45.283  32.592  28.034  1.00  0.00     0.074 A 
ATOM     53  C   UNL A   1      44.158  31.811  28.497  1.00  0.00     0.031 C 
ATOM     54  C   UNL A   1      42.970  38.574  27.994  1.00  0.00     0.029 A 
ATOM     55  C   UNL A   1      44.290  38.124  27.570  1.00  0.00     0.049 A 
ATOM     56  H   UNL A   1      45.002  36.162  27.551  1.00  0.00     0.167 HD
ATOM     57  C   UNL A   1      46.461  32.061  27.615  1.00  0.00     0.034 A 
ATOM     58  C   UNL A   1      45.273  38.933  27.123  1.00  0.00     0.034 A 
ATOM     59  C   UNL A   1      47.586  32.841  27.157  1.00  0.00     0.049 A 
ATOM     60  C   UNL A   1      46.619  38.332  26.800  1.00  0.00     0.074 A 
ATOM     61  C   UNL A   1      48.841  32.402  26.770  1.00  0.00     0.029 A 
ATOM     62  N   UNL A   1      47.595  34.223  27.023  1.00  0.00    -0.354 N 
ATOM     63  N   UNL A   1      46.991  37.073  26.817  1.00  0.00    -0.248 NA
ATOM     64  C   UNL A   1      47.680  39.268  26.407  1.00  0.00     0.031 C 
ATOM     65  C   UNL A   1      49.629  33.520  26.472  1.00  0.00     0.029 A 
ATOM     66  C   UNL A   1      48.841  34.653  26.589  1.00  0.00     0.049 A 
ATOM     67  H   UNL A   1      46.828  34.813  27.206  1.00  0.00     0.167 HD
ATOM     68  C   UNL A   1      48.326  37.070  26.422  1.00  0.00     0.074 A 
ATOM     69  C   UNL A   1      48.676  38.443  26.131  1.00  0.00     0.031 C 
ATOM     70  C   UNL A   1      49.191  36.027  26.321  1.00  0.00     0.034 A 
BRANCH  57  71
ATOM     71  C   UNL A   1      46.622  30.559  27.700  1.00  0.00     0.023 A 
ATOM     72  C   UNL A   1      46.433  29.724  26.586  1.00  0.00     0.031 A 
ATOM     73  C   UNL A   1      46.984  29.959  28.919  1.00  0.00     0.131 A 
ATOM     74  C   UNL A   1      46.564  28.332  26.725  1.00  0.00     0.055 A 
ATOM     75  C   UNL A   1      47.179  28.581  29.035  1.00  0.00     0.041 A 
ATOM     76  F   UNL A   1      47.157  30.705  30.022  1.00  0.00    -0.206 F 
ATOM     77  C   UNL A   1      46.960  27.758  27.935  1.00  0.00     0.022 A 
BRANCH  74  78
ATOM     78  S   UNL A   1      46.105  27.271  25.327  1.00  0.00     0.124 S 
ATOM     79  O   UNL A   1      44.732  26.907  25.670  1.00  0.00    -0.237 OA
ATOM     80  O   UNL A   1      46.260  28.164  24.187  1.00  0.00    -0.237 OA
ATOM     81  O   UNL A   1      47.069  26.174  25.398  1.00  0.00    -0.744 OA
ENDBRANCH  74  78
ENDBRANCH  57  71
BRANCH  58  82
ATOM     82  C   UNL A   1      45.074  40.415  27.055  1.00  0.00     0.023 A 
ATOM     83  C   UNL A   1      44.594  41.036  25.891  1.00  0.00     0.031 A 
ATOM     84  C   UNL A   1      45.450  41.244  28.130  1.00  0.00     0.131 A 
ATOM     85  C   UNL A   1      44.556  42.439  25.809  1.00  0.00     0.055 A 
ATOM     86  C   UNL A   1      45.334  42.633  28.072  1.00  0.00     0.041 A 
ATOM     87  F   UNL A   1      45.942  40.712  29.261  1.00  0.00    -0.206 F 
ATOM     88  C   UNL A   1      44.902  43.240  26.900  1.00  0.00     0.022 A 
BRANCH  85  89
ATOM     89  S   UNL A   1      44.183  43.207  24.208  1.00  0.00     0.124 S 
ATOM     90  O   UNL A   1      44.452  44.614  24.484  1.00  0.00    -0.237 OA
ATOM     91  O   UNL A   1      45.128  42.535  23.322  1.00  0.00    -0.237 OA
ATOM     92  O   UNL A   1      42.778  42.872  23.988  1.00  0.00    -0.744 OA
ENDBRANCH  85  89
ENDBRANCH  58  82
BRANCH  70  93
ATOM     93  C   UNL A   1      50.585  36.350  25.837  1.00  0.00     0.023 A 
ATOM     94  C   UNL A   1      51.649  36.541  26.737  1.00  0.00     0.031 A 
ATOM     95  C   UNL A   1      50.838  36.543  24.468  1.00  0.00     0.131 A 
ATOM     96  C   UNL A   1      52.886  37.009  26.269  1.00  0.00     0.055 A 
ATOM     97  C   UNL A   1      52.094  36.933  24.000  1.00  0.00     0.041 A 
ATOM     98  F   UNL A   1      49.863  36.375  23.560  1.00  0.00    -0.206 F 
ATOM     99  C   UNL A   1      53.120  37.192  24.904  1.00  0.00     0.022 A 
BRANCH  96 100
ATOM    100  S   UNL A   1      54.132  37.525  27.482  1.00  0.00     0.124 S 
ATOM    101  O   UNL A   1      54.399  36.277  28.192  1.00  0.00    -0.237 OA
ATOM    102  O   UNL A   1      55.211  38.016  26.631  1.00  0.00    -0.237 OA
ATOM    103  O   UNL A   1      53.445  38.550  28.266  1.00  0.00    -0.744 OA
ENDBRANCH  96 100
ENDBRANCH  70  93
ENDBRANCH  44  45
ENDBRANCH  37  39
ENDBRANCH  36  37
ENDBRANCH  35  36
ENDBRANCH  34  35
ENDBRANCH  33  34
ENDBRANCH  32  33
ENDBRANCH   1  32
TORSDOF 24
ENDMDL
