MODEL 1
REMARK VINA RESULT:     -10.3      0.000      0.000
REMARK SMILES O=C(OCCOCCOCCOC(=O)[C@@H]1CC[C@@H](CN2C(=O)CC3(CCCC3)CC2=O)O1)c1ccc(-c2c3nc(c(-c4cc(S(=O)(=O)[O-])ccc4F)c4ccc([nH]4)c(-c4cc(S(=O)(=O)[O-])ccc4F)c4nc(c(-c5cc(S(=O)(=O)[O-])ccc5F)c5ccc2[nH]5)C=C4)C=C3)cc1
REMARK SMILES IDX 7 1 6 2 5 3 4 4 3 5 2 6 1 7 33 8 34 9 95 10 35 11 94 12
REMARK SMILES IDX 36 13 37 14 38 15 88 16 39 17 93 18 87 19 89 20 40 21 92 22
REMARK SMILES IDX 86 23 85 24 41 26 73 27 53 28 72 29 54 30 57 31 71 32 90 33
REMARK SMILES IDX 55 34 56 35 70 37 91 38 58 39 42 40 43 41 51 42 44 43 50 44
REMARK SMILES IDX 52 45 49 46 45 47 46 48 47 49 48 50 74 51 75 52 83 53 76 54
REMARK SMILES IDX 82 55 84 56 81 57 77 58 78 59 79 60 80 61 59 62 60 63 68 64
REMARK SMILES IDX 61 65 67 66 69 67 66 68 62 69 63 70 64 71 65 72 8 73 9 74
REMARK SMILES IDX 10 75 11 76 12 77 13 78 14 79 15 80 16 81 32 82 17 83 18 84
REMARK SMILES IDX 19 85 20 86 21 87 30 88 22 89 23 90 29 91 31 92 24 93 25 94
REMARK SMILES IDX 28 95 26 96 27 97
REMARK H PARENT 89 25 57 36
REMARK Flexibility Score: inf
ROOT
ATOM      1  C   UNL A   1      41.162  21.514  27.035  1.00  0.00     0.188 C 
ENDROOT
BRANCH   1   2
ATOM      2  O   UNL A   1      40.925  20.162  27.448  1.00  0.00    -0.376 OA
BRANCH   2   3
ATOM      3  C   UNL A   1      42.058  19.301  27.291  1.00  0.00     0.202 C 
BRANCH   3   4
ATOM      4  C   UNL A   1      42.417  18.996  25.831  1.00  0.00     0.261 C 
BRANCH   4   5
ATOM      5  O   UNL A   1      43.836  19.078  25.617  1.00  0.00    -0.460 OA
BRANCH   5   6
ATOM      6  C   UNL A   1      44.510  20.057  24.959  1.00  0.00     0.338 C 
ATOM      7  O   UNL A   1      45.204  19.752  23.990  1.00  0.00    -0.246 OA
BRANCH   6   8
ATOM      8  C   UNL A   1      44.397  21.500  25.317  1.00  0.00     0.060 A 
ATOM      9  C   UNL A   1      44.008  22.511  24.434  1.00  0.00     0.016 A 
ATOM     10  C   UNL A   1      44.642  21.847  26.652  1.00  0.00     0.016 A 
ATOM     11  C   UNL A   1      44.026  23.849  24.820  1.00  0.00     0.010 A 
ATOM     12  C   UNL A   1      44.561  23.181  27.067  1.00  0.00     0.010 A 
ATOM     13  C   UNL A   1      44.307  24.204  26.138  1.00  0.00    -0.014 A 
BRANCH  13  14
ATOM     14  C   UNL A   1      44.446  25.633  26.524  1.00  0.00     0.031 A 
ATOM     15  C   UNL A   1      45.821  26.243  26.539  1.00  0.00     0.074 A 
ATOM     16  C   UNL A   1      43.372  26.386  26.837  1.00  0.00     0.049 A 
ATOM     17  N   UNL A   1      46.222  27.401  26.993  1.00  0.00    -0.248 NA
ATOM     18  C   UNL A   1      46.895  25.426  25.950  1.00  0.00     0.031 C 
ATOM     19  C   UNL A   1      41.977  25.948  26.778  1.00  0.00     0.029 A 
ATOM     20  N   UNL A   1      43.295  27.665  27.329  1.00  0.00    -0.354 N 
ATOM     21  C   UNL A   1      47.586  27.457  26.730  1.00  0.00     0.074 A 
ATOM     22  C   UNL A   1      47.960  26.177  26.170  1.00  0.00     0.031 C 
ATOM     23  C   UNL A   1      41.193  26.894  27.319  1.00  0.00     0.029 A 
ATOM     24  C   UNL A   1      42.032  27.991  27.772  1.00  0.00     0.049 A 
ATOM     25  H   UNL A   1      44.060  28.284  27.361  1.00  0.00     0.167 HD
ATOM     26  C   UNL A   1      48.439  28.499  26.890  1.00  0.00     0.034 A 
ATOM     27  C   UNL A   1      41.611  29.025  28.524  1.00  0.00     0.034 A 
ATOM     28  C   UNL A   1      48.045  29.762  27.463  1.00  0.00     0.049 A 
ATOM     29  C   UNL A   1      42.598  30.099  28.879  1.00  0.00     0.074 A 
ATOM     30  C   UNL A   1      48.803  30.898  27.677  1.00  0.00     0.029 A 
ATOM     31  N   UNL A   1      46.764  30.047  27.924  1.00  0.00    -0.354 N 
ATOM     32  N   UNL A   1      43.886  30.150  28.629  1.00  0.00    -0.248 NA
ATOM     33  C   UNL A   1      42.067  31.273  29.577  1.00  0.00     0.031 C 
ATOM     34  C   UNL A   1      47.994  31.852  28.311  1.00  0.00     0.029 A 
ATOM     35  C   UNL A   1      46.716  31.331  28.442  1.00  0.00     0.049 A 
ATOM     36  H   UNL A   1      46.001  29.426  27.890  1.00  0.00     0.167 HD
ATOM     37  C   UNL A   1      44.309  31.394  29.081  1.00  0.00     0.074 A 
ATOM     38  C   UNL A   1      43.142  32.045  29.648  1.00  0.00     0.031 C 
ATOM     39  C   UNL A   1      45.540  31.960  28.998  1.00  0.00     0.034 A 
BRANCH  26  40
ATOM     40  C   UNL A   1      49.867  28.269  26.455  1.00  0.00     0.023 A 
ATOM     41  C   UNL A   1      50.290  28.584  25.148  1.00  0.00     0.031 A 
ATOM     42  C   UNL A   1      50.781  27.620  27.301  1.00  0.00     0.131 A 
ATOM     43  C   UNL A   1      51.539  28.142  24.688  1.00  0.00     0.055 A 
ATOM     44  C   UNL A   1      52.060  27.265  26.865  1.00  0.00     0.041 A 
ATOM     45  F   UNL A   1      50.432  27.276  28.551  1.00  0.00    -0.206 F 
ATOM     46  C   UNL A   1      52.437  27.502  25.545  1.00  0.00     0.022 A 
BRANCH  43  47
ATOM     47  S   UNL A   1      51.886  28.233  22.908  1.00  0.00     0.124 S 
ATOM     48  O   UNL A   1      53.135  28.990  22.886  1.00  0.00    -0.237 OA
ATOM     49  O   UNL A   1      51.983  26.828  22.533  1.00  0.00    -0.237 OA
ATOM     50  O   UNL A   1      50.728  28.945  22.369  1.00  0.00    -0.744 OA
ENDBRANCH  43  47
ENDBRANCH  26  40
BRANCH  27  51
ATOM     51  C   UNL A   1      40.210  29.061  29.021  1.00  0.00     0.023 A 
ATOM     52  C   UNL A   1      39.908  28.865  30.375  1.00  0.00     0.031 A 
ATOM     53  C   UNL A   1      39.147  29.294  28.129  1.00  0.00     0.131 A 
ATOM     54  C   UNL A   1      38.569  28.882  30.799  1.00  0.00     0.055 A 
ATOM     55  C   UNL A   1      37.820  29.337  28.560  1.00  0.00     0.041 A 
ATOM     56  F   UNL A   1      39.385  29.500  26.824  1.00  0.00    -0.206 F 
ATOM     57  C   UNL A   1      37.525  29.123  29.902  1.00  0.00     0.022 A 
BRANCH  54  58
ATOM     58  S   UNL A   1      38.204  28.550  32.545  1.00  0.00     0.124 S 
ATOM     59  O   UNL A   1      38.115  27.094  32.561  1.00  0.00    -0.237 OA
ATOM     60  O   UNL A   1      39.366  29.129  33.213  1.00  0.00    -0.237 OA
ATOM     61  O   UNL A   1      36.944  29.255  32.770  1.00  0.00    -0.744 OA
ENDBRANCH  54  58
ENDBRANCH  27  51
BRANCH  39  62
ATOM     62  C   UNL A   1      45.643  33.392  29.445  1.00  0.00     0.023 A 
ATOM     63  C   UNL A   1      45.339  34.463  28.590  1.00  0.00     0.031 A 
ATOM     64  C   UNL A   1      46.100  33.681  30.743  1.00  0.00     0.131 A 
ATOM     65  C   UNL A   1      45.549  35.778  29.025  1.00  0.00     0.055 A 
ATOM     66  C   UNL A   1      46.259  34.993  31.188  1.00  0.00     0.041 A 
ATOM     67  F   UNL A   1      46.409  32.690  31.595  1.00  0.00    -0.206 F 
ATOM     68  C   UNL A   1      45.994  36.050  30.323  1.00  0.00     0.022 A 
BRANCH  65  69
ATOM     69  S   UNL A   1      45.317  37.134  27.843  1.00  0.00     0.124 S 
ATOM     70  O   UNL A   1      46.630  37.213  27.212  1.00  0.00    -0.237 OA
ATOM     71  O   UNL A   1      44.234  36.633  27.002  1.00  0.00    -0.237 OA
ATOM     72  O   UNL A   1      44.966  38.272  28.691  1.00  0.00    -0.744 OA
ENDBRANCH  65  69
ENDBRANCH  39  62
ENDBRANCH  13  14
ENDBRANCH   6   8
ENDBRANCH   5   6
ENDBRANCH   4   5
ENDBRANCH   3   4
ENDBRANCH   2   3
ENDBRANCH   1   2
BRANCH   1  73
ATOM     73  C   UNL A   1      39.835  22.263  26.872  1.00  0.00     0.188 C 
BRANCH  73  74
ATOM     74  O   UNL A   1      39.009  21.783  25.802  1.00  0.00    -0.376 OA
BRANCH  74  75
ATOM     75  C   UNL A   1      37.702  22.359  25.695  1.00  0.00     0.202 C 
BRANCH  75  76
ATOM     76  C   UNL A   1      36.810  21.722  24.623  1.00  0.00     0.261 C 
BRANCH  76  77
ATOM     77  O   UNL A   1      36.037  20.649  25.175  1.00  0.00    -0.461 OA
BRANCH  77  78
ATOM     78  C   UNL A   1      34.684  20.744  25.018  1.00  0.00     0.335 C 
ATOM     79  O   UNL A   1      33.906  19.796  25.006  1.00  0.00    -0.249 OA
BRANCH  78  80
ATOM     80  C   UNL A   1      34.264  22.220  24.985  1.00  0.00     0.228 C 
ATOM     81  C   UNL A   1      33.948  22.704  26.389  1.00  0.00     0.047 C 
ATOM     82  O   UNL A   1      33.134  22.500  24.172  1.00  0.00    -0.361 OA
ATOM     83  C   UNL A   1      32.446  22.864  26.428  1.00  0.00     0.037 C 
ATOM     84  C   UNL A   1      31.968  22.683  24.992  1.00  0.00     0.139 C 
BRANCH  84  85
ATOM     85  C   UNL A   1      31.102  23.841  24.432  1.00  0.00     0.160 C 
BRANCH  85  86
ATOM     86  N   UNL A   1      31.506  25.124  25.009  1.00  0.00    -0.280 N 
ATOM     87  C   UNL A   1      30.768  25.722  26.006  1.00  0.00     0.229 C 
ATOM     88  C   UNL A   1      32.566  25.781  24.436  1.00  0.00     0.229 C 
ATOM     89  O   UNL A   1      29.724  25.237  26.451  1.00  0.00    -0.274 OA
ATOM     90  C   UNL A   1      31.309  27.011  26.624  1.00  0.00     0.108 C 
ATOM     91  C   UNL A   1      33.435  26.464  25.439  1.00  0.00     0.108 C 
ATOM     92  O   UNL A   1      32.753  25.898  23.233  1.00  0.00    -0.274 OA
ATOM     93  C   UNL A   1      32.623  27.588  26.057  1.00  0.00    -0.012 C 
ATOM     94  C   UNL A   1      33.452  28.275  27.173  1.00  0.00     0.008 C 
ATOM     95  C   UNL A   1      32.368  28.708  25.012  1.00  0.00     0.008 C 
ATOM     96  C   UNL A   1      33.833  29.644  26.629  1.00  0.00     0.001 C 
ATOM     97  C   UNL A   1      32.654  30.009  25.746  1.00  0.00     0.001 C 
ENDBRANCH  85  86
ENDBRANCH  84  85
ENDBRANCH  78  80
ENDBRANCH  77  78
ENDBRANCH  76  77
ENDBRANCH  75  76
ENDBRANCH  74  75
ENDBRANCH  73  74
ENDBRANCH   1  73
TORSDOF 22
ENDMDL
MODEL 2
REMARK VINA RESULT:     -10.2      2.703      9.178
REMARK SMILES O=C(OCCOCCOCCOC(=O)[C@@H]1CC[C@@H](CN2C(=O)CC3(CCCC3)CC2=O)O1)c1ccc(-c2c3nc(c(-c4cc(S(=O)(=O)[O-])ccc4F)c4ccc([nH]4)c(-c4cc(S(=O)(=O)[O-])ccc4F)c4nc(c(-c5cc(S(=O)(=O)[O-])ccc5F)c5ccc2[nH]5)C=C4)C=C3)cc1
REMARK SMILES IDX 7 1 6 2 5 3 4 4 3 5 2 6 1 7 33 8 34 9 95 10 35 11 94 12
REMARK SMILES IDX 36 13 37 14 38 15 88 16 39 17 93 18 87 19 89 20 40 21 92 22
REMARK SMILES IDX 86 23 85 24 41 26 73 27 53 28 72 29 54 30 57 31 71 32 90 33
REMARK SMILES IDX 55 34 56 35 70 37 91 38 58 39 42 40 43 41 51 42 44 43 50 44
REMARK SMILES IDX 52 45 49 46 45 47 46 48 47 49 48 50 74 51 75 52 83 53 76 54
REMARK SMILES IDX 82 55 84 56 81 57 77 58 78 59 79 60 80 61 59 62 60 63 68 64
REMARK SMILES IDX 61 65 67 66 69 67 66 68 62 69 63 70 64 71 65 72 8 73 9 74
REMARK SMILES IDX 10 75 11 76 12 77 13 78 14 79 15 80 16 81 32 82 17 83 18 84
REMARK SMILES IDX 19 85 20 86 21 87 30 88 22 89 23 90 29 91 31 92 24 93 25 94
REMARK SMILES IDX 28 95 26 96 27 97
REMARK H PARENT 89 25 57 36
REMARK Flexibility Score: inf
ROOT
ATOM      1  C   UNL A   1      34.238  31.922  27.724  1.00  0.00     0.188 C 
ENDROOT
BRANCH   1   2
ATOM      2  O   UNL A   1      34.461  33.324  27.921  1.00  0.00    -0.376 OA
BRANCH   2   3
ATOM      3  C   UNL A   1      33.661  33.898  28.959  1.00  0.00     0.202 C 
BRANCH   3   4
ATOM      4  C   UNL A   1      34.402  34.090  30.289  1.00  0.00     0.261 C 
BRANCH   4   5
ATOM      5  O   UNL A   1      34.283  32.926  31.123  1.00  0.00    -0.460 OA
BRANCH   5   6
ATOM      6  C   UNL A   1      35.217  32.430  31.976  1.00  0.00     0.338 C 
ATOM      7  O   UNL A   1      35.046  32.564  33.187  1.00  0.00    -0.246 OA
BRANCH   6   8
ATOM      8  C   UNL A   1      36.412  31.668  31.515  1.00  0.00     0.060 A 
ATOM      9  C   UNL A   1      37.317  31.018  32.358  1.00  0.00     0.016 A 
ATOM     10  C   UNL A   1      36.598  31.551  30.130  1.00  0.00     0.016 A 
ATOM     11  C   UNL A   1      38.466  30.413  31.853  1.00  0.00     0.010 A 
ATOM     12  C   UNL A   1      37.699  30.856  29.617  1.00  0.00     0.010 A 
ATOM     13  C   UNL A   1      38.676  30.328  30.478  1.00  0.00    -0.014 A 
BRANCH  13  14
ATOM     14  C   UNL A   1      39.955  29.794  29.939  1.00  0.00     0.031 A 
ATOM     15  C   UNL A   1      41.108  30.742  29.753  1.00  0.00     0.074 A 
ATOM     16  C   UNL A   1      40.101  28.488  29.639  1.00  0.00     0.049 A 
ATOM     17  N   UNL A   1      42.255  30.562  29.154  1.00  0.00    -0.248 NA
ATOM     18  C   UNL A   1      40.939  32.083  30.334  1.00  0.00     0.031 C 
ATOM     19  C   UNL A   1      39.098  27.445  29.853  1.00  0.00     0.029 A 
ATOM     20  N   UNL A   1      41.138  27.825  29.028  1.00  0.00    -0.354 N 
ATOM     21  C   UNL A   1      42.948  31.758  29.300  1.00  0.00     0.074 A 
ATOM     22  C   UNL A   1      42.053  32.686  29.955  1.00  0.00     0.031 C 
ATOM     23  C   UNL A   1      39.515  26.303  29.284  1.00  0.00     0.029 A 
ATOM     24  C   UNL A   1      40.805  26.542  28.656  1.00  0.00     0.049 A 
ATOM     25  H   UNL A   1      42.023  28.226  28.872  1.00  0.00     0.167 HD
ATOM     26  C   UNL A   1      44.232  32.040  28.968  1.00  0.00     0.034 A 
ATOM     27  C   UNL A   1      41.438  25.679  27.840  1.00  0.00     0.034 A 
ATOM     28  C   UNL A   1      45.102  31.102  28.304  1.00  0.00     0.049 A 
ATOM     29  C   UNL A   1      42.785  26.062  27.300  1.00  0.00     0.074 A 
ATOM     30  C   UNL A   1      46.420  31.257  27.916  1.00  0.00     0.029 A 
ATOM     31  N   UNL A   1      44.723  29.820  27.920  1.00  0.00    -0.354 N 
ATOM     32  N   UNL A   1      43.438  27.192  27.440  1.00  0.00    -0.248 NA
ATOM     33  C   UNL A   1      43.499  25.038  26.532  1.00  0.00     0.031 C 
ATOM     34  C   UNL A   1      46.822  30.087  27.256  1.00  0.00     0.029 A 
ATOM     35  C   UNL A   1      45.773  29.182  27.280  1.00  0.00     0.049 A 
ATOM     36  H   UNL A   1      43.836  29.423  28.078  1.00  0.00     0.167 HD
ATOM     37  C   UNL A   1      44.671  26.993  26.833  1.00  0.00     0.074 A 
ATOM     38  C   UNL A   1      44.654  25.644  26.297  1.00  0.00     0.031 C 
ATOM     39  C   UNL A   1      45.734  27.834  26.759  1.00  0.00     0.034 A 
BRANCH  26  40
ATOM     40  C   UNL A   1      44.723  33.428  29.308  1.00  0.00     0.023 A 
ATOM     41  C   UNL A   1      44.553  34.500  28.410  1.00  0.00     0.031 A 
ATOM     42  C   UNL A   1      45.470  33.662  30.474  1.00  0.00     0.131 A 
ATOM     43  C   UNL A   1      45.222  35.713  28.629  1.00  0.00     0.055 A 
ATOM     44  C   UNL A   1      46.059  34.903  30.732  1.00  0.00     0.041 A 
ATOM     45  F   UNL A   1      45.684  32.676  31.359  1.00  0.00    -0.206 F 
ATOM     46  C   UNL A   1      45.958  35.930  29.796  1.00  0.00     0.022 A 
BRANCH  43  47
ATOM     47  S   UNL A   1      45.286  36.923  27.275  1.00  0.00     0.124 S 
ATOM     48  O   UNL A   1      43.866  37.156  27.018  1.00  0.00    -0.237 OA
ATOM     49  O   UNL A   1      46.017  38.031  27.875  1.00  0.00    -0.237 OA
ATOM     50  O   UNL A   1      45.993  36.210  26.212  1.00  0.00    -0.744 OA
ENDBRANCH  43  47
ENDBRANCH  26  40
BRANCH  27  51
ATOM     51  C   UNL A   1      40.780  24.401  27.455  1.00  0.00     0.023 A 
ATOM     52  C   UNL A   1      39.559  24.384  26.767  1.00  0.00     0.031 A 
ATOM     53  C   UNL A   1      41.378  23.170  27.780  1.00  0.00     0.131 A 
ATOM     54  C   UNL A   1      38.959  23.156  26.445  1.00  0.00     0.055 A 
ATOM     55  C   UNL A   1      40.791  21.951  27.433  1.00  0.00     0.041 A 
ATOM     56  F   UNL A   1      42.553  23.133  28.427  1.00  0.00    -0.206 F 
ATOM     57  C   UNL A   1      39.569  21.941  26.768  1.00  0.00     0.022 A 
BRANCH  54  58
ATOM     58  S   UNL A   1      37.341  23.166  25.622  1.00  0.00     0.124 S 
ATOM     59  O   UNL A   1      37.711  23.421  24.235  1.00  0.00    -0.237 OA
ATOM     60  O   UNL A   1      36.845  21.825  25.917  1.00  0.00    -0.237 OA
ATOM     61  O   UNL A   1      36.627  24.252  26.289  1.00  0.00    -0.744 OA
ENDBRANCH  54  58
ENDBRANCH  27  51
BRANCH  39  62
ATOM     62  C   UNL A   1      46.991  27.266  26.163  1.00  0.00     0.023 A 
ATOM     63  C   UNL A   1      47.397  27.567  24.853  1.00  0.00     0.031 A 
ATOM     64  C   UNL A   1      47.770  26.368  26.914  1.00  0.00     0.131 A 
ATOM     65  C   UNL A   1      48.522  26.931  24.312  1.00  0.00     0.055 A 
ATOM     66  C   UNL A   1      48.918  25.777  26.389  1.00  0.00     0.041 A 
ATOM     67  F   UNL A   1      47.419  26.045  28.169  1.00  0.00    -0.206 F 
ATOM     68  C   UNL A   1      49.293  26.048  25.076  1.00  0.00     0.022 A 
BRANCH  65  69
ATOM     69  S   UNL A   1      48.920  27.203  22.564  1.00  0.00     0.124 S 
ATOM     70  O   UNL A   1      50.356  27.460  22.616  1.00  0.00    -0.237 OA
ATOM     71  O   UNL A   1      48.520  25.940  21.953  1.00  0.00    -0.237 OA
ATOM     72  O   UNL A   1      48.096  28.355  22.200  1.00  0.00    -0.744 OA
ENDBRANCH  65  69
ENDBRANCH  39  62
ENDBRANCH  13  14
ENDBRANCH   6   8
ENDBRANCH   5   6
ENDBRANCH   4   5
ENDBRANCH   3   4
ENDBRANCH   2   3
ENDBRANCH   1   2
BRANCH   1  73
ATOM     73  C   UNL A   1      32.741  31.637  27.560  1.00  0.00     0.188 C 
BRANCH  73  74
ATOM     74  O   UNL A   1      32.340  31.321  26.219  1.00  0.00    -0.376 OA
BRANCH  74  75
ATOM     75  C   UNL A   1      32.461  29.951  25.821  1.00  0.00     0.202 C 
BRANCH  75  76
ATOM     76  C   UNL A   1      31.360  29.462  24.873  1.00  0.00     0.261 C 
BRANCH  76  77
ATOM     77  O   UNL A   1      31.902  29.140  23.586  1.00  0.00    -0.461 OA
BRANCH  77  78
ATOM     78  C   UNL A   1      31.342  28.069  22.952  1.00  0.00     0.335 C 
ATOM     79  O   UNL A   1      30.327  28.105  22.265  1.00  0.00    -0.249 OA
BRANCH  78  80
ATOM     80  C   UNL A   1      32.239  26.835  23.120  1.00  0.00     0.228 C 
ATOM     81  C   UNL A   1      31.433  25.568  22.889  1.00  0.00     0.047 C 
ATOM     82  O   UNL A   1      32.861  26.718  24.391  1.00  0.00    -0.361 OA
ATOM     83  C   UNL A   1      31.277  24.938  24.254  1.00  0.00     0.037 C 
ATOM     84  C   UNL A   1      32.179  25.737  25.189  1.00  0.00     0.139 C 
BRANCH  84  85
ATOM     85  C   UNL A   1      33.206  24.899  25.992  1.00  0.00     0.160 C 
BRANCH  85  86
ATOM     86  N   UNL A   1      33.336  23.552  25.432  1.00  0.00    -0.280 N 
ATOM     87  C   UNL A   1      34.021  23.332  24.258  1.00  0.00     0.229 C 
ATOM     88  C   UNL A   1      32.641  22.536  26.038  1.00  0.00     0.229 C 
ATOM     89  O   UNL A   1      34.537  24.240  23.601  1.00  0.00    -0.274 OA
ATOM     90  C   UNL A   1      34.194  21.887  23.791  1.00  0.00     0.108 C 
ATOM     91  C   UNL A   1      33.404  21.253  26.072  1.00  0.00     0.108 C 
ATOM     92  O   UNL A   1      31.485  22.610  26.429  1.00  0.00    -0.274 OA
ATOM     93  C   UNL A   1      33.549  20.770  24.639  1.00  0.00    -0.012 C 
ATOM     94  C   UNL A   1      34.414  19.484  24.609  1.00  0.00     0.008 C 
ATOM     95  C   UNL A   1      32.171  20.330  24.075  1.00  0.00     0.008 C 
ATOM     96  C   UNL A   1      33.461  18.347  24.273  1.00  0.00     0.001 C 
ATOM     97  C   UNL A   1      32.434  19.007  23.373  1.00  0.00     0.001 C 
ENDBRANCH  85  86
ENDBRANCH  84  85
ENDBRANCH  78  80
ENDBRANCH  77  78
ENDBRANCH  76  77
ENDBRANCH  75  76
ENDBRANCH  74  75
ENDBRANCH  73  74
ENDBRANCH   1  73
TORSDOF 22
ENDMDL
MODEL 3
REMARK VINA RESULT:     -10.0      1.707      2.152
REMARK SMILES O=C(OCCOCCOCCOC(=O)[C@@H]1CC[C@@H](CN2C(=O)CC3(CCCC3)CC2=O)O1)c1ccc(-c2c3nc(c(-c4cc(S(=O)(=O)[O-])ccc4F)c4ccc([nH]4)c(-c4cc(S(=O)(=O)[O-])ccc4F)c4nc(c(-c5cc(S(=O)(=O)[O-])ccc5F)c5ccc2[nH]5)C=C4)C=C3)cc1
REMARK SMILES IDX 7 1 6 2 5 3 4 4 3 5 2 6 1 7 33 8 34 9 95 10 35 11 94 12
REMARK SMILES IDX 36 13 37 14 38 15 88 16 39 17 93 18 87 19 89 20 40 21 92 22
REMARK SMILES IDX 86 23 85 24 41 26 73 27 53 28 72 29 54 30 57 31 71 32 90 33
REMARK SMILES IDX 55 34 56 35 70 37 91 38 58 39 42 40 43 41 51 42 44 43 50 44
REMARK SMILES IDX 52 45 49 46 45 47 46 48 47 49 48 50 74 51 75 52 83 53 76 54
REMARK SMILES IDX 82 55 84 56 81 57 77 58 78 59 79 60 80 61 59 62 60 63 68 64
REMARK SMILES IDX 61 65 67 66 69 67 66 68 62 69 63 70 64 71 65 72 8 73 9 74
REMARK SMILES IDX 10 75 11 76 12 77 13 78 14 79 15 80 16 81 32 82 17 83 18 84
REMARK SMILES IDX 19 85 20 86 21 87 30 88 22 89 23 90 29 91 31 92 24 93 25 94
REMARK SMILES IDX 28 95 26 96 27 97
REMARK H PARENT 89 25 57 36
REMARK Flexibility Score: inf
ROOT
ATOM      1  C   UNL A   1      41.026  22.433  27.360  1.00  0.00     0.188 C 
ENDROOT
BRANCH   1   2
ATOM      2  O   UNL A   1      40.606  21.172  27.897  1.00  0.00    -0.376 OA
BRANCH   2   3
ATOM      3  C   UNL A   1      41.486  20.088  27.586  1.00  0.00     0.202 C 
BRANCH   3   4
ATOM      4  C   UNL A   1      41.568  19.754  26.091  1.00  0.00     0.261 C 
BRANCH   4   5
ATOM      5  O   UNL A   1      42.897  19.352  25.720  1.00  0.00    -0.460 OA
BRANCH   5   6
ATOM      6  C   UNL A   1      43.812  20.084  25.032  1.00  0.00     0.338 C 
ATOM      7  O   UNL A   1      44.307  19.608  24.011  1.00  0.00    -0.246 OA
BRANCH   6   8
ATOM      8  C   UNL A   1      44.197  21.472  25.419  1.00  0.00     0.060 A 
ATOM      9  C   UNL A   1      44.774  21.827  26.640  1.00  0.00     0.016 A 
ATOM     10  C   UNL A   1      44.017  22.475  24.456  1.00  0.00     0.016 A 
ATOM     11  C   UNL A   1      45.010  23.161  26.964  1.00  0.00     0.010 A 
ATOM     12  C   UNL A   1      44.349  23.803  24.743  1.00  0.00     0.010 A 
ATOM     13  C   UNL A   1      44.797  24.167  26.024  1.00  0.00    -0.014 A 
BRANCH  13  14
ATOM     14  C   UNL A   1      44.930  25.599  26.404  1.00  0.00     0.031 A 
ATOM     15  C   UNL A   1      46.294  26.232  26.355  1.00  0.00     0.074 A 
ATOM     16  C   UNL A   1      43.860  26.334  26.765  1.00  0.00     0.049 A 
ATOM     17  N   UNL A   1      46.696  27.397  26.790  1.00  0.00    -0.248 NA
ATOM     18  C   UNL A   1      47.353  25.432  25.718  1.00  0.00     0.031 C 
ATOM     19  C   UNL A   1      42.471  25.874  26.770  1.00  0.00     0.029 A 
ATOM     20  N   UNL A   1      43.783  27.613  27.259  1.00  0.00    -0.354 N 
ATOM     21  C   UNL A   1      48.045  27.475  26.465  1.00  0.00     0.074 A 
ATOM     22  C   UNL A   1      48.415  26.201  25.889  1.00  0.00     0.031 C 
ATOM     23  C   UNL A   1      41.696  26.806  27.346  1.00  0.00     0.029 A 
ATOM     24  C   UNL A   1      42.537  27.918  27.760  1.00  0.00     0.049 A 
ATOM     25  H   UNL A   1      44.538  28.244  27.257  1.00  0.00     0.167 HD
ATOM     26  C   UNL A   1      48.887  28.532  26.586  1.00  0.00     0.034 A 
ATOM     27  C   UNL A   1      42.134  28.945  28.530  1.00  0.00     0.034 A 
ATOM     28  C   UNL A   1      48.499  29.788  27.176  1.00  0.00     0.049 A 
ATOM     29  C   UNL A   1      43.118  30.035  28.840  1.00  0.00     0.074 A 
ATOM     30  C   UNL A   1      49.247  30.937  27.355  1.00  0.00     0.029 A 
ATOM     31  N   UNL A   1      47.235  30.052  27.696  1.00  0.00    -0.354 N 
ATOM     32  N   UNL A   1      44.392  30.108  28.531  1.00  0.00    -0.248 NA
ATOM     33  C   UNL A   1      42.599  31.201  29.561  1.00  0.00     0.031 C 
ATOM     34  C   UNL A   1      48.452  31.877  28.025  1.00  0.00     0.029 A 
ATOM     35  C   UNL A   1      47.190  31.336  28.215  1.00  0.00     0.049 A 
ATOM     36  H   UNL A   1      46.482  29.418  27.696  1.00  0.00     0.167 HD
ATOM     37  C   UNL A   1      44.814  31.359  28.963  1.00  0.00     0.074 A 
ATOM     38  C   UNL A   1      43.664  31.991  29.583  1.00  0.00     0.031 C 
ATOM     39  C   UNL A   1      46.030  31.946  28.824  1.00  0.00     0.034 A 
BRANCH  26  40
ATOM     40  C   UNL A   1      50.298  28.325  26.086  1.00  0.00     0.023 A 
ATOM     41  C   UNL A   1      50.648  28.619  24.754  1.00  0.00     0.031 A 
ATOM     42  C   UNL A   1      51.267  27.717  26.900  1.00  0.00     0.131 A 
ATOM     43  C   UNL A   1      51.884  28.196  24.243  1.00  0.00     0.055 A 
ATOM     44  C   UNL A   1      52.532  27.382  26.410  1.00  0.00     0.041 A 
ATOM     45  F   UNL A   1      50.988  27.395  28.173  1.00  0.00    -0.206 F 
ATOM     46  C   UNL A   1      52.838  27.597  25.067  1.00  0.00     0.022 A 
BRANCH  43  47
ATOM     47  S   UNL A   1      52.141  28.253  22.445  1.00  0.00     0.124 S 
ATOM     48  O   UNL A   1      51.009  29.068  22.009  1.00  0.00    -0.237 OA
ATOM     49  O   UNL A   1      53.455  28.873  22.334  1.00  0.00    -0.237 OA
ATOM     50  O   UNL A   1      52.077  26.848  22.045  1.00  0.00    -0.744 OA
ENDBRANCH  43  47
ENDBRANCH  26  40
BRANCH  27  51
ATOM     51  C   UNL A   1      40.756  28.959  29.091  1.00  0.00     0.023 A 
ATOM     52  C   UNL A   1      40.521  28.777  30.461  1.00  0.00     0.031 A 
ATOM     53  C   UNL A   1      39.649  29.154  28.246  1.00  0.00     0.131 A 
ATOM     54  C   UNL A   1      39.203  28.772  30.945  1.00  0.00     0.055 A 
ATOM     55  C   UNL A   1      38.342  29.175  28.736  1.00  0.00     0.041 A 
ATOM     56  F   UNL A   1      39.822  29.344  26.928  1.00  0.00    -0.206 F 
ATOM     57  C   UNL A   1      38.113  28.975  30.094  1.00  0.00     0.022 A 
BRANCH  54  58
ATOM     58  S   UNL A   1      38.925  28.459  32.711  1.00  0.00     0.124 S 
ATOM     59  O   UNL A   1      38.405  29.743  33.166  1.00  0.00    -0.237 OA
ATOM     60  O   UNL A   1      37.970  27.356  32.676  1.00  0.00    -0.237 OA
ATOM     61  O   UNL A   1      40.255  28.112  33.208  1.00  0.00    -0.744 OA
ENDBRANCH  54  58
ENDBRANCH  27  51
BRANCH  39  62
ATOM     62  C   UNL A   1      46.130  33.379  29.265  1.00  0.00     0.023 A 
ATOM     63  C   UNL A   1      46.508  33.732  30.571  1.00  0.00     0.031 A 
ATOM     64  C   UNL A   1      45.795  34.407  28.366  1.00  0.00     0.131 A 
ATOM     65  C   UNL A   1      46.487  35.078  30.958  1.00  0.00     0.055 A 
ATOM     66  C   UNL A   1      45.825  35.749  28.742  1.00  0.00     0.041 A 
ATOM     67  F   UNL A   1      45.422  34.118  27.109  1.00  0.00    -0.206 F 
ATOM     68  C   UNL A   1      46.161  36.090  30.049  1.00  0.00     0.022 A 
BRANCH  65  69
ATOM     69  S   UNL A   1      46.807  35.489  32.696  1.00  0.00     0.124 S 
ATOM     70  O   UNL A   1      45.534  36.072  33.108  1.00  0.00    -0.237 OA
ATOM     71  O   UNL A   1      47.129  34.187  33.270  1.00  0.00    -0.237 OA
ATOM     72  O   UNL A   1      47.926  36.428  32.625  1.00  0.00    -0.744 OA
ENDBRANCH  65  69
ENDBRANCH  39  62
ENDBRANCH  13  14
ENDBRANCH   6   8
ENDBRANCH   5   6
ENDBRANCH   4   5
ENDBRANCH   3   4
ENDBRANCH   2   3
ENDBRANCH   1   2
BRANCH   1  73
ATOM     73  C   UNL A   1      39.827  23.196  26.787  1.00  0.00     0.188 C 
BRANCH  73  74
ATOM     74  O   UNL A   1      38.718  22.366  26.412  1.00  0.00    -0.376 OA
BRANCH  74  75
ATOM     75  C   UNL A   1      37.662  23.000  25.683  1.00  0.00     0.202 C 
BRANCH  75  76
ATOM     76  C   UNL A   1      36.356  22.199  25.624  1.00  0.00     0.261 C 
BRANCH  76  77
ATOM     77  O   UNL A   1      35.340  22.823  26.420  1.00  0.00    -0.461 OA
BRANCH  77  78
ATOM     78  C   UNL A   1      34.211  22.085  26.633  1.00  0.00     0.335 C 
ATOM     79  O   UNL A   1      34.077  21.234  27.505  1.00  0.00    -0.249 OA
BRANCH  78  80
ATOM     80  C   UNL A   1      33.089  22.568  25.703  1.00  0.00     0.228 C 
ATOM     81  C   UNL A   1      32.339  21.377  25.130  1.00  0.00     0.047 C 
ATOM     82  O   UNL A   1      33.521  23.366  24.611  1.00  0.00    -0.361 OA
ATOM     83  C   UNL A   1      32.744  21.312  23.676  1.00  0.00     0.037 C 
ATOM     84  C   UNL A   1      33.535  22.587  23.403  1.00  0.00     0.139 C 
BRANCH  84  85
ATOM     85  C   UNL A   1      33.022  23.442  22.216  1.00  0.00     0.160 C 
BRANCH  85  86
ATOM     86  N   UNL A   1      32.381  24.669  22.692  1.00  0.00    -0.280 N 
ATOM     87  C   UNL A   1      31.075  24.669  23.126  1.00  0.00     0.229 C 
ATOM     88  C   UNL A   1      33.075  25.846  22.564  1.00  0.00     0.229 C 
ATOM     89  O   UNL A   1      30.365  23.660  23.119  1.00  0.00    -0.274 OA
ATOM     90  C   UNL A   1      30.510  25.969  23.698  1.00  0.00     0.108 C 
ATOM     91  C   UNL A   1      32.875  26.765  23.724  1.00  0.00     0.108 C 
ATOM     92  O   UNL A   1      33.717  26.182  21.579  1.00  0.00    -0.274 OA
ATOM     93  C   UNL A   1      31.423  27.213  23.706  1.00  0.00    -0.012 C 
ATOM     94  C   UNL A   1      31.139  28.100  24.946  1.00  0.00     0.008 C 
ATOM     95  C   UNL A   1      31.159  28.141  22.490  1.00  0.00     0.008 C 
ATOM     96  C   UNL A   1      30.967  29.515  24.416  1.00  0.00     0.001 C 
ATOM     97  C   UNL A   1      30.351  29.303  23.046  1.00  0.00     0.001 C 
ENDBRANCH  85  86
ENDBRANCH  84  85
ENDBRANCH  78  80
ENDBRANCH  77  78
ENDBRANCH  76  77
ENDBRANCH  75  76
ENDBRANCH  74  75
ENDBRANCH  73  74
ENDBRANCH   1  73
TORSDOF 22
ENDMDL
