MODEL 1
REMARK VINA RESULT:      -9.1      0.000      0.000
REMARK SMILES CC(C)C[C@H](CNC(=O)N[C@@H](C)c1nccs1)C(=O)OCCOCCOCCOC(=O)c1ccc(-c2c3nc(c(-c4cc(S(=O)(=O)[O-])ccc4F)c4ccc([nH]4)c(-c4cc(S(=O)(=O)[O-])ccc4F)c4nc(c(-c5cc(S(=O)(=O)[O-])ccc5F)c5ccc2[nH]5)C=C4)C=C3)cc1
REMARK SMILES IDX 24 1 23 2 22 3 21 4 20 5 18 6 19 7 5 8 4 9 2 10 1 11 3 12
REMARK SMILES IDX 6 13 7 14 8 15 9 17 10 18 11 20 12 21 13 22 14 23 17 24
REMARK SMILES IDX 15 25 16 26 25 27 26 28 27 29 28 30 29 31 30 32 31 33 32 34
REMARK SMILES IDX 33 35 94 36 34 37 93 38 35 39 36 40 37 41 87 42 38 43 92 44
REMARK SMILES IDX 86 45 88 46 39 47 91 48 85 49 84 50 40 52 72 53 52 54 71 55
REMARK SMILES IDX 53 56 56 57 70 58 89 59 54 60 55 61 69 63 90 64 57 65 41 66
REMARK SMILES IDX 42 67 50 68 43 69 49 70 51 71 48 72 44 73 45 74 46 75 47 76
REMARK SMILES IDX 73 77 74 78 82 79 75 80 81 81 83 82 80 83 76 84 77 85 78 86
REMARK SMILES IDX 79 87 58 88 59 89 67 90 60 91 66 92 68 93 65 94 61 95 62 96
REMARK SMILES IDX 63 97 64 98
REMARK H PARENT 7 16 10 19 88 51 56 62
REMARK Flexibility Score: inf
ROOT
ATOM      1  C   UNL A   1      39.729  22.352  26.430  1.00  0.00     0.188 C 
ENDROOT
BRANCH   1   2
ATOM      2  O   UNL A   1      38.770  21.822  25.522  1.00  0.00    -0.376 OA
BRANCH   2   3
ATOM      3  C   UNL A   1      37.382  21.990  25.750  1.00  0.00     0.202 C 
BRANCH   3   4
ATOM      4  C   UNL A   1      36.457  20.855  25.302  1.00  0.00     0.261 C 
BRANCH   4   5
ATOM      5  O   UNL A   1      35.164  21.248  24.792  1.00  0.00    -0.463 OA
BRANCH   5   6
ATOM      6  C   UNL A   1      34.124  21.101  25.658  1.00  0.00     0.310 C 
ATOM      7  O   UNL A   1      34.226  21.238  26.872  1.00  0.00    -0.252 OA
BRANCH   6   8
ATOM      8  C   UNL A   1      32.820  20.662  24.998  1.00  0.00     0.119 C 
BRANCH   8   9
ATOM      9  C   UNL A   1      33.111  19.451  24.085  1.00  0.00     0.020 C 
BRANCH   9  10
ATOM     10  C   UNL A   1      33.605  18.174  24.799  1.00  0.00    -0.017 C 
ATOM     11  C   UNL A   1      32.460  17.351  25.393  1.00  0.00     0.007 C 
ATOM     12  C   UNL A   1      34.407  17.315  23.817  1.00  0.00     0.007 C 
ENDBRANCH   9  10
ENDBRANCH   8   9
BRANCH   8  13
ATOM     13  C   UNL A   1      32.084  21.780  24.233  1.00  0.00     0.133 C 
BRANCH  13  14
ATOM     14  N   UNL A   1      32.784  22.215  23.029  1.00  0.00    -0.337 N 
ATOM     15  C   UNL A   1      33.208  23.372  22.517  1.00  0.00     0.315 C 
ATOM     16  H   UNL A   1      32.999  21.456  22.440  1.00  0.00     0.165 HD
ATOM     17  O   UNL A   1      33.652  23.341  21.366  1.00  0.00    -0.249 OA
ATOM     18  N   UNL A   1      33.184  24.546  23.142  1.00  0.00    -0.329 N 
ATOM     19  H   UNL A   1      33.376  25.295  22.533  1.00  0.00     0.166 HD
BRANCH  18  20
ATOM     20  C   UNL A   1      32.941  24.993  24.506  1.00  0.00     0.140 C 
ATOM     21  C   UNL A   1      34.229  24.836  25.319  1.00  0.00     0.039 C 
BRANCH  20  22
ATOM     22  C   UNL A   1      32.475  26.438  24.466  1.00  0.00     0.115 A 
ATOM     23  N   UNL A   1      31.617  26.984  25.306  1.00  0.00    -0.247 NA
ATOM     24  S   UNL A   1      33.048  27.496  23.226  1.00  0.00    -0.125 S 
ATOM     25  C   UNL A   1      31.404  28.312  24.975  1.00  0.00     0.123 A 
ATOM     26  C   UNL A   1      32.096  28.765  23.874  1.00  0.00     0.087 A 
ENDBRANCH  20  22
ENDBRANCH  18  20
ENDBRANCH  13  14
ENDBRANCH   8  13
ENDBRANCH   6   8
ENDBRANCH   5   6
ENDBRANCH   4   5
ENDBRANCH   3   4
ENDBRANCH   2   3
ENDBRANCH   1   2
BRANCH   1  27
ATOM     27  C   UNL A   1      40.870  21.469  26.952  1.00  0.00     0.188 C 
BRANCH  27  28
ATOM     28  O   UNL A   1      41.520  20.689  25.964  1.00  0.00    -0.376 OA
BRANCH  28  29
ATOM     29  C   UNL A   1      42.881  20.379  26.230  1.00  0.00     0.202 C 
BRANCH  29  30
ATOM     30  C   UNL A   1      43.847  21.137  25.313  1.00  0.00     0.261 C 
BRANCH  30  31
ATOM     31  O   UNL A   1      43.371  22.423  24.873  1.00  0.00    -0.460 OA
BRANCH  31  32
ATOM     32  C   UNL A   1      44.312  23.385  24.739  1.00  0.00     0.338 C 
ATOM     33  O   UNL A   1      45.227  23.401  23.939  1.00  0.00    -0.246 OA
BRANCH  32  34
ATOM     34  C   UNL A   1      43.922  24.535  25.578  1.00  0.00     0.060 A 
ATOM     35  C   UNL A   1      43.398  25.663  24.946  1.00  0.00     0.016 A 
ATOM     36  C   UNL A   1      44.135  24.536  26.956  1.00  0.00     0.016 A 
ATOM     37  C   UNL A   1      43.137  26.815  25.676  1.00  0.00     0.010 A 
ATOM     38  C   UNL A   1      43.896  25.711  27.685  1.00  0.00     0.010 A 
ATOM     39  C   UNL A   1      43.446  26.877  27.036  1.00  0.00    -0.014 A 
BRANCH  39  40
ATOM     40  C   UNL A   1      43.568  28.218  27.668  1.00  0.00     0.031 A 
ATOM     41  C   UNL A   1      42.343  28.797  28.333  1.00  0.00     0.074 A 
ATOM     42  C   UNL A   1      44.746  28.859  27.785  1.00  0.00     0.049 A 
ATOM     43  N   UNL A   1      42.155  29.979  28.858  1.00  0.00    -0.248 NA
ATOM     44  C   UNL A   1      41.173  27.909  28.413  1.00  0.00     0.031 C 
ATOM     45  C   UNL A   1      46.037  28.353  27.323  1.00  0.00     0.029 A 
ATOM     46  N   UNL A   1      45.046  30.075  28.351  1.00  0.00    -0.354 N 
ATOM     47  C   UNL A   1      40.828  29.997  29.280  1.00  0.00     0.074 A 
ATOM     48  C   UNL A   1      40.263  28.708  28.943  1.00  0.00     0.031 C 
ATOM     49  C   UNL A   1      46.992  29.249  27.632  1.00  0.00     0.029 A 
ATOM     50  C   UNL A   1      46.374  30.417  28.257  1.00  0.00     0.049 A 
ATOM     51  H   UNL A   1      44.371  30.647  28.783  1.00  0.00     0.167 HD
ATOM     52  C   UNL A   1      40.141  30.996  29.887  1.00  0.00     0.034 A 
ATOM     53  C   UNL A   1      47.009  31.557  28.603  1.00  0.00     0.034 A 
ATOM     54  C   UNL A   1      40.725  32.262  30.256  1.00  0.00     0.049 A 
ATOM     55  C   UNL A   1      46.211  32.693  29.201  1.00  0.00     0.074 A 
ATOM     56  C   UNL A   1      40.118  33.352  30.854  1.00  0.00     0.029 A 
ATOM     57  N   UNL A   1      42.057  32.605  30.068  1.00  0.00    -0.354 N 
ATOM     58  N   UNL A   1      44.933  32.742  29.500  1.00  0.00    -0.248 NA
ATOM     59  C   UNL A   1      46.944  33.932  29.498  1.00  0.00     0.031 C 
ATOM     60  C   UNL A   1      41.069  34.371  30.979  1.00  0.00     0.029 A 
ATOM     61  C   UNL A   1      42.287  33.893  30.524  1.00  0.00     0.049 A 
ATOM     62  H   UNL A   1      42.740  32.017  29.671  1.00  0.00     0.167 HD
ATOM     63  C   UNL A   1      44.720  34.006  30.049  1.00  0.00     0.074 A 
ATOM     64  C   UNL A   1      46.001  34.681  30.050  1.00  0.00     0.031 C 
ATOM     65  C   UNL A   1      43.569  34.557  30.516  1.00  0.00     0.034 A 
BRANCH  52  66
ATOM     66  C   UNL A   1      38.663  30.777  30.101  1.00  0.00     0.023 A 
ATOM     67  C   UNL A   1      37.695  31.251  29.199  1.00  0.00     0.031 A 
ATOM     68  C   UNL A   1      38.216  30.147  31.276  1.00  0.00     0.131 A 
ATOM     69  C   UNL A   1      36.333  31.164  29.529  1.00  0.00     0.055 A 
ATOM     70  C   UNL A   1      36.859  29.987  31.558  1.00  0.00     0.041 A 
ATOM     71  F   UNL A   1      39.096  29.698  32.187  1.00  0.00    -0.206 F 
ATOM     72  C   UNL A   1      35.908  30.515  30.691  1.00  0.00     0.022 A 
BRANCH  69  73
ATOM     73  S   UNL A   1      35.133  32.067  28.509  1.00  0.00     0.124 S 
ATOM     74  O   UNL A   1      34.365  32.784  29.523  1.00  0.00    -0.237 OA
ATOM     75  O   UNL A   1      35.995  32.883  27.661  1.00  0.00    -0.237 OA
ATOM     76  O   UNL A   1      34.403  31.005  27.820  1.00  0.00    -0.744 OA
ENDBRANCH  69  73
ENDBRANCH  52  66
BRANCH  53  77
ATOM     77  C   UNL A   1      48.468  31.726  28.343  1.00  0.00     0.023 A 
ATOM     78  C   UNL A   1      48.931  32.510  27.274  1.00  0.00     0.031 A 
ATOM     79  C   UNL A   1      49.422  31.042  29.118  1.00  0.00     0.131 A 
ATOM     80  C   UNL A   1      50.304  32.557  26.982  1.00  0.00     0.055 A 
ATOM     81  C   UNL A   1      50.790  31.132  28.856  1.00  0.00     0.041 A 
ATOM     82  F   UNL A   1      49.034  30.271  30.146  1.00  0.00    -0.206 F 
ATOM     83  C   UNL A   1      51.237  31.884  27.774  1.00  0.00     0.022 A 
BRANCH  80  84
ATOM     84  S   UNL A   1      50.850  33.453  25.501  1.00  0.00     0.124 S 
ATOM     85  O   UNL A   1      51.278  32.359  24.636  1.00  0.00    -0.237 OA
ATOM     86  O   UNL A   1      49.631  34.148  25.102  1.00  0.00    -0.237 OA
ATOM     87  O   UNL A   1      51.921  34.313  26.000  1.00  0.00    -0.744 OA
ENDBRANCH  80  84
ENDBRANCH  53  77
BRANCH  65  88
ATOM     88  C   UNL A   1      43.663  35.938  31.122  1.00  0.00     0.023 A 
ATOM     89  C   UNL A   1      43.628  37.101  30.333  1.00  0.00     0.031 A 
ATOM     90  C   UNL A   1      43.802  36.086  32.513  1.00  0.00     0.131 A 
ATOM     91  C   UNL A   1      43.787  38.359  30.936  1.00  0.00     0.055 A 
ATOM     92  C   UNL A   1      43.904  37.341  33.114  1.00  0.00     0.041 A 
ATOM     93  F   UNL A   1      43.842  35.008  33.314  1.00  0.00    -0.206 F 
ATOM     94  C   UNL A   1      43.911  38.486  32.323  1.00  0.00     0.022 A 
BRANCH  91  95
ATOM     95  S   UNL A   1      43.927  39.824  29.876  1.00  0.00     0.124 S 
ATOM     96  O   UNL A   1      44.007  40.903  30.854  1.00  0.00    -0.237 OA
ATOM     97  O   UNL A   1      45.149  39.551  29.127  1.00  0.00    -0.237 OA
ATOM     98  O   UNL A   1      42.697  39.795  29.085  1.00  0.00    -0.744 OA
ENDBRANCH  91  95
ENDBRANCH  65  88
ENDBRANCH  39  40
ENDBRANCH  32  34
ENDBRANCH  31  32
ENDBRANCH  30  31
ENDBRANCH  29  30
ENDBRANCH  28  29
ENDBRANCH  27  28
ENDBRANCH   1  27
TORSDOF 26
ENDMDL
MODEL 2
REMARK VINA RESULT:      -9.1      3.032      4.479
REMARK SMILES CC(C)C[C@H](CNC(=O)N[C@@H](C)c1nccs1)C(=O)OCCOCCOCCOC(=O)c1ccc(-c2c3nc(c(-c4cc(S(=O)(=O)[O-])ccc4F)c4ccc([nH]4)c(-c4cc(S(=O)(=O)[O-])ccc4F)c4nc(c(-c5cc(S(=O)(=O)[O-])ccc5F)c5ccc2[nH]5)C=C4)C=C3)cc1
REMARK SMILES IDX 24 1 23 2 22 3 21 4 20 5 18 6 19 7 5 8 4 9 2 10 1 11 3 12
REMARK SMILES IDX 6 13 7 14 8 15 9 17 10 18 11 20 12 21 13 22 14 23 17 24
REMARK SMILES IDX 15 25 16 26 25 27 26 28 27 29 28 30 29 31 30 32 31 33 32 34
REMARK SMILES IDX 33 35 94 36 34 37 93 38 35 39 36 40 37 41 87 42 38 43 92 44
REMARK SMILES IDX 86 45 88 46 39 47 91 48 85 49 84 50 40 52 72 53 52 54 71 55
REMARK SMILES IDX 53 56 56 57 70 58 89 59 54 60 55 61 69 63 90 64 57 65 41 66
REMARK SMILES IDX 42 67 50 68 43 69 49 70 51 71 48 72 44 73 45 74 46 75 47 76
REMARK SMILES IDX 73 77 74 78 82 79 75 80 81 81 83 82 80 83 76 84 77 85 78 86
REMARK SMILES IDX 79 87 58 88 59 89 67 90 60 91 66 92 68 93 65 94 61 95 62 96
REMARK SMILES IDX 63 97 64 98
REMARK H PARENT 7 16 10 19 88 51 56 62
REMARK Flexibility Score: inf
ROOT
ATOM      1  C   UNL A   1      35.226  23.046  24.961  1.00  0.00     0.188 C 
ENDROOT
BRANCH   1   2
ATOM      2  O   UNL A   1      34.698  22.291  23.876  1.00  0.00    -0.376 OA
BRANCH   2   3
ATOM      3  C   UNL A   1      33.971  22.922  22.837  1.00  0.00     0.202 C 
BRANCH   3   4
ATOM      4  C   UNL A   1      33.673  24.416  22.999  1.00  0.00     0.261 C 
BRANCH   4   5
ATOM      5  O   UNL A   1      32.383  24.864  22.529  1.00  0.00    -0.463 OA
BRANCH   5   6
ATOM      6  C   UNL A   1      31.350  24.685  23.398  1.00  0.00     0.310 C 
ATOM      7  O   UNL A   1      30.331  24.062  23.123  1.00  0.00    -0.252 OA
BRANCH   6   8
ATOM      8  C   UNL A   1      31.526  25.405  24.733  1.00  0.00     0.119 C 
BRANCH   8   9
ATOM      9  C   UNL A   1      31.696  24.347  25.846  1.00  0.00     0.020 C 
BRANCH   9  10
ATOM     10  C   UNL A   1      30.784  23.106  25.738  1.00  0.00    -0.017 C 
ATOM     11  C   UNL A   1      31.575  21.802  25.615  1.00  0.00     0.007 C 
ATOM     12  C   UNL A   1      29.861  23.039  26.959  1.00  0.00     0.007 C 
ENDBRANCH   9  10
ENDBRANCH   8   9
BRANCH   8  13
ATOM     13  C   UNL A   1      30.401  26.402  25.072  1.00  0.00     0.133 C 
BRANCH  13  14
ATOM     14  N   UNL A   1      29.902  27.129  23.909  1.00  0.00    -0.337 N 
ATOM     15  C   UNL A   1      30.342  28.104  23.111  1.00  0.00     0.315 C 
ATOM     16  H   UNL A   1      29.005  26.819  23.645  1.00  0.00     0.165 HD
ATOM     17  O   UNL A   1      29.537  28.555  22.292  1.00  0.00    -0.249 OA
ATOM     18  N   UNL A   1      31.564  28.626  23.134  1.00  0.00    -0.329 N 
ATOM     19  H   UNL A   1      31.629  29.444  22.590  1.00  0.00     0.166 HD
BRANCH  18  20
ATOM     20  C   UNL A   1      32.830  28.284  23.768  1.00  0.00     0.140 C 
ATOM     21  C   UNL A   1      33.976  28.632  22.815  1.00  0.00     0.039 C 
BRANCH  20  22
ATOM     22  C   UNL A   1      32.937  29.046  25.077  1.00  0.00     0.115 A 
ATOM     23  N   UNL A   1      33.928  28.941  25.939  1.00  0.00    -0.247 NA
ATOM     24  S   UNL A   1      31.676  30.129  25.551  1.00  0.00    -0.125 S 
ATOM     25  C   UNL A   1      33.703  29.765  27.030  1.00  0.00     0.123 A 
ATOM     26  C   UNL A   1      32.530  30.485  26.994  1.00  0.00     0.087 A 
ENDBRANCH  20  22
ENDBRANCH  18  20
ENDBRANCH  13  14
ENDBRANCH   8  13
ENDBRANCH   6   8
ENDBRANCH   5   6
ENDBRANCH   4   5
ENDBRANCH   3   4
ENDBRANCH   2   3
ENDBRANCH   1   2
BRANCH   1  27
ATOM     27  C   UNL A   1      36.593  22.688  25.560  1.00  0.00     0.188 C 
BRANCH  27  28
ATOM     28  O   UNL A   1      36.838  21.299  25.694  1.00  0.00    -0.376 OA
BRANCH  28  29
ATOM     29  C   UNL A   1      37.861  20.777  24.857  1.00  0.00     0.202 C 
BRANCH  29  30
ATOM     30  C   UNL A   1      38.543  19.544  25.461  1.00  0.00     0.261 C 
BRANCH  30  31
ATOM     31  O   UNL A   1      39.421  19.827  26.568  1.00  0.00    -0.460 OA
BRANCH  31  32
ATOM     32  C   UNL A   1      40.655  20.274  26.241  1.00  0.00     0.338 C 
ATOM     33  O   UNL A   1      41.447  19.739  25.490  1.00  0.00    -0.246 OA
BRANCH  32  34
ATOM     34  C   UNL A   1      40.809  21.642  26.774  1.00  0.00     0.060 A 
ATOM     35  C   UNL A   1      40.422  22.710  25.964  1.00  0.00     0.016 A 
ATOM     36  C   UNL A   1      41.391  21.878  28.019  1.00  0.00     0.016 A 
ATOM     37  C   UNL A   1      40.666  24.016  26.367  1.00  0.00     0.010 A 
ATOM     38  C   UNL A   1      41.659  23.198  28.410  1.00  0.00     0.010 A 
ATOM     39  C   UNL A   1      41.346  24.275  27.559  1.00  0.00    -0.014 A 
BRANCH  39  40
ATOM     40  C   UNL A   1      41.965  25.616  27.737  1.00  0.00     0.031 A 
ATOM     41  C   UNL A   1      41.226  26.623  28.583  1.00  0.00     0.074 A 
ATOM     42  C   UNL A   1      43.201  25.908  27.293  1.00  0.00     0.049 A 
ATOM     43  N   UNL A   1      41.492  27.884  28.808  1.00  0.00    -0.248 NA
ATOM     44  C   UNL A   1      40.023  26.130  29.270  1.00  0.00     0.031 C 
ATOM     45  C   UNL A   1      44.091  24.986  26.590  1.00  0.00     0.029 A 
ATOM     46  N   UNL A   1      43.929  27.070  27.387  1.00  0.00    -0.354 N 
ATOM     47  C   UNL A   1      40.457  28.349  29.615  1.00  0.00     0.074 A 
ATOM     48  C   UNL A   1      39.561  27.233  29.834  1.00  0.00     0.031 C 
ATOM     49  C   UNL A   1      45.249  25.616  26.323  1.00  0.00     0.029 A 
ATOM     50  C   UNL A   1      45.162  27.002  26.781  1.00  0.00     0.049 A 
ATOM     51  H   UNL A   1      43.599  27.875  27.846  1.00  0.00     0.167 HD
ATOM     52  C   UNL A   1      40.267  29.591  30.125  1.00  0.00     0.034 A 
ATOM     53  C   UNL A   1      46.095  27.958  26.588  1.00  0.00     0.034 A 
ATOM     54  C   UNL A   1      41.187  30.685  29.935  1.00  0.00     0.049 A 
ATOM     55  C   UNL A   1      45.827  29.360  27.087  1.00  0.00     0.074 A 
ATOM     56  C   UNL A   1      41.084  31.989  30.385  1.00  0.00     0.029 A 
ATOM     57  N   UNL A   1      42.388  30.600  29.242  1.00  0.00    -0.354 N 
ATOM     58  N   UNL A   1      44.797  29.819  27.760  1.00  0.00    -0.248 NA
ATOM     59  C   UNL A   1      46.850  30.374  26.792  1.00  0.00     0.031 C 
ATOM     60  C   UNL A   1      42.193  32.704  29.921  1.00  0.00     0.029 A 
ATOM     61  C   UNL A   1      43.026  31.830  29.240  1.00  0.00     0.049 A 
ATOM     62  H   UNL A   1      42.736  29.784  28.816  1.00  0.00     0.167 HD
ATOM     63  C   UNL A   1      45.065  31.167  27.992  1.00  0.00     0.074 A 
ATOM     64  C   UNL A   1      46.357  31.443  27.399  1.00  0.00     0.031 C 
ATOM     65  C   UNL A   1      44.313  32.093  28.642  1.00  0.00     0.034 A 
BRANCH  52  66
ATOM     66  C   UNL A   1      38.969  29.840  30.855  1.00  0.00     0.023 A 
ATOM     67  C   UNL A   1      37.941  30.628  30.312  1.00  0.00     0.031 A 
ATOM     68  C   UNL A   1      38.797  29.334  32.156  1.00  0.00     0.131 A 
ATOM     69  C   UNL A   1      36.828  30.961  31.101  1.00  0.00     0.055 A 
ATOM     70  C   UNL A   1      37.648  29.597  32.903  1.00  0.00     0.041 A 
ATOM     71  F   UNL A   1      39.757  28.596  32.736  1.00  0.00    -0.206 F 
ATOM     72  C   UNL A   1      36.663  30.432  32.383  1.00  0.00     0.022 A 
BRANCH  69  73
ATOM     73  S   UNL A   1      35.685  32.234  30.496  1.00  0.00     0.124 S 
ATOM     74  O   UNL A   1      36.466  33.452  30.697  1.00  0.00    -0.237 OA
ATOM     75  O   UNL A   1      35.472  31.831  29.111  1.00  0.00    -0.237 OA
ATOM     76  O   UNL A   1      34.524  32.096  31.373  1.00  0.00    -0.744 OA
ENDBRANCH  69  73
ENDBRANCH  52  66
BRANCH  53  77
ATOM     77  C   UNL A   1      47.347  27.660  25.835  1.00  0.00     0.023 A 
ATOM     78  C   UNL A   1      47.431  27.872  24.449  1.00  0.00     0.031 A 
ATOM     79  C   UNL A   1      48.458  27.089  26.482  1.00  0.00     0.131 A 
ATOM     80  C   UNL A   1      48.581  27.474  23.748  1.00  0.00     0.055 A 
ATOM     81  C   UNL A   1      49.618  26.741  25.789  1.00  0.00     0.041 A 
ATOM     82  F   UNL A   1      48.428  26.856  27.803  1.00  0.00    -0.206 F 
ATOM     83  C   UNL A   1      49.680  26.922  24.411  1.00  0.00     0.022 A 
BRANCH  80  84
ATOM     84  S   UNL A   1      48.592  27.616  21.939  1.00  0.00     0.124 S 
ATOM     85  O   UNL A   1      47.268  28.170  21.678  1.00  0.00    -0.237 OA
ATOM     86  O   UNL A   1      49.720  28.515  21.714  1.00  0.00    -0.237 OA
ATOM     87  O   UNL A   1      48.795  26.240  21.490  1.00  0.00    -0.744 OA
ENDBRANCH  80  84
ENDBRANCH  53  77
BRANCH  65  88
ATOM     88  C   UNL A   1      44.903  33.475  28.796  1.00  0.00     0.023 A 
ATOM     89  C   UNL A   1      45.715  33.822  29.890  1.00  0.00     0.031 A 
ATOM     90  C   UNL A   1      44.634  34.465  27.833  1.00  0.00     0.131 A 
ATOM     91  C   UNL A   1      46.185  35.138  30.024  1.00  0.00     0.055 A 
ATOM     92  C   UNL A   1      45.148  35.757  27.941  1.00  0.00     0.041 A 
ATOM     93  F   UNL A   1      43.864  34.189  26.768  1.00  0.00    -0.206 F 
ATOM     94  C   UNL A   1      45.917  36.104  29.049  1.00  0.00     0.022 A 
BRANCH  91  95
ATOM     95  S   UNL A   1      47.070  35.601  31.538  1.00  0.00     0.124 S 
ATOM     96  O   UNL A   1      45.979  35.753  32.495  1.00  0.00    -0.237 OA
ATOM     97  O   UNL A   1      47.947  34.455  31.748  1.00  0.00    -0.237 OA
ATOM     98  O   UNL A   1      47.750  36.843  31.172  1.00  0.00    -0.744 OA
ENDBRANCH  91  95
ENDBRANCH  65  88
ENDBRANCH  39  40
ENDBRANCH  32  34
ENDBRANCH  31  32
ENDBRANCH  30  31
ENDBRANCH  29  30
ENDBRANCH  28  29
ENDBRANCH  27  28
ENDBRANCH   1  27
TORSDOF 26
ENDMDL
MODEL 3
REMARK VINA RESULT:      -9.1      3.438     10.570
REMARK SMILES CC(C)C[C@H](CNC(=O)N[C@@H](C)c1nccs1)C(=O)OCCOCCOCCOC(=O)c1ccc(-c2c3nc(c(-c4cc(S(=O)(=O)[O-])ccc4F)c4ccc([nH]4)c(-c4cc(S(=O)(=O)[O-])ccc4F)c4nc(c(-c5cc(S(=O)(=O)[O-])ccc5F)c5ccc2[nH]5)C=C4)C=C3)cc1
REMARK SMILES IDX 24 1 23 2 22 3 21 4 20 5 18 6 19 7 5 8 4 9 2 10 1 11 3 12
REMARK SMILES IDX 6 13 7 14 8 15 9 17 10 18 11 20 12 21 13 22 14 23 17 24
REMARK SMILES IDX 15 25 16 26 25 27 26 28 27 29 28 30 29 31 30 32 31 33 32 34
REMARK SMILES IDX 33 35 94 36 34 37 93 38 35 39 36 40 37 41 87 42 38 43 92 44
REMARK SMILES IDX 86 45 88 46 39 47 91 48 85 49 84 50 40 52 72 53 52 54 71 55
REMARK SMILES IDX 53 56 56 57 70 58 89 59 54 60 55 61 69 63 90 64 57 65 41 66
REMARK SMILES IDX 42 67 50 68 43 69 49 70 51 71 48 72 44 73 45 74 46 75 47 76
REMARK SMILES IDX 73 77 74 78 82 79 75 80 81 81 83 82 80 83 76 84 77 85 78 86
REMARK SMILES IDX 79 87 58 88 59 89 67 90 60 91 66 92 68 93 65 94 61 95 62 96
REMARK SMILES IDX 63 97 64 98
REMARK H PARENT 7 16 10 19 88 51 56 62
REMARK Flexibility Score: inf
ROOT
ATOM      1  C   UNL A   1      33.901  34.568  28.887  1.00  0.00     0.188 C 
ENDROOT
BRANCH   1   2
ATOM      2  O   UNL A   1      33.249  33.352  28.535  1.00  0.00    -0.376 OA
BRANCH   2   3
ATOM      3  C   UNL A   1      33.992  32.168  28.309  1.00  0.00     0.202 C 
BRANCH   3   4
ATOM      4  C   UNL A   1      33.358  31.106  27.405  1.00  0.00     0.261 C 
BRANCH   4   5
ATOM      5  O   UNL A   1      33.419  29.744  27.882  1.00  0.00    -0.463 OA
BRANCH   5   6
ATOM      6  C   UNL A   1      33.898  28.833  26.991  1.00  0.00     0.310 C 
ATOM      7  O   UNL A   1      35.058  28.813  26.597  1.00  0.00    -0.252 OA
BRANCH   6   8
ATOM      8  C   UNL A   1      32.840  27.877  26.446  1.00  0.00     0.119 C 
BRANCH   8   9
ATOM      9  C   UNL A   1      33.543  26.598  25.941  1.00  0.00     0.020 C 
BRANCH   9  10
ATOM     10  C   UNL A   1      32.667  25.327  25.888  1.00  0.00    -0.017 C 
ATOM     11  C   UNL A   1      32.297  24.925  24.459  1.00  0.00     0.007 C 
ATOM     12  C   UNL A   1      33.396  24.171  26.579  1.00  0.00     0.007 C 
ENDBRANCH   9  10
ENDBRANCH   8   9
BRANCH   8  13
ATOM     13  C   UNL A   1      31.931  28.485  25.360  1.00  0.00     0.133 C 
BRANCH  13  14
ATOM     14  N   UNL A   1      32.643  28.833  24.135  1.00  0.00    -0.337 N 
ATOM     15  C   UNL A   1      32.437  28.706  22.822  1.00  0.00     0.315 C 
ATOM     16  H   UNL A   1      33.501  29.277  24.328  1.00  0.00     0.165 HD
ATOM     17  O   UNL A   1      33.374  29.013  22.082  1.00  0.00    -0.249 OA
ATOM     18  N   UNL A   1      31.315  28.272  22.257  1.00  0.00    -0.329 N 
ATOM     19  H   UNL A   1      31.429  28.089  21.297  1.00  0.00     0.166 HD
BRANCH  18  20
ATOM     20  C   UNL A   1      29.958  28.001  22.713  1.00  0.00     0.140 C 
ATOM     21  C   UNL A   1      30.018  27.102  23.951  1.00  0.00     0.039 C 
BRANCH  20  22
ATOM     22  C   UNL A   1      29.275  29.324  23.012  1.00  0.00     0.115 A 
ATOM     23  N   UNL A   1      29.859  30.378  23.546  1.00  0.00    -0.247 NA
ATOM     24  S   UNL A   1      27.589  29.519  22.683  1.00  0.00    -0.125 S 
ATOM     25  C   UNL A   1      28.945  31.408  23.695  1.00  0.00     0.123 A 
ATOM     26  C   UNL A   1      27.663  31.123  23.282  1.00  0.00     0.087 A 
ENDBRANCH  20  22
ENDBRANCH  18  20
ENDBRANCH  13  14
ENDBRANCH   8  13
ENDBRANCH   6   8
ENDBRANCH   5   6
ENDBRANCH   4   5
ENDBRANCH   3   4
ENDBRANCH   2   3
ENDBRANCH   1   2
BRANCH   1  27
ATOM     27  C   UNL A   1      33.416  35.383  30.093  1.00  0.00     0.188 C 
BRANCH  27  28
ATOM     28  O   UNL A   1      34.273  35.347  31.220  1.00  0.00    -0.376 OA
BRANCH  28  29
ATOM     29  C   UNL A   1      33.653  34.986  32.447  1.00  0.00     0.202 C 
BRANCH  29  30
ATOM     30  C   UNL A   1      33.845  33.505  32.790  1.00  0.00     0.261 C 
BRANCH  30  31
ATOM     31  O   UNL A   1      34.913  32.857  32.072  1.00  0.00    -0.460 OA
BRANCH  31  32
ATOM     32  C   UNL A   1      35.950  32.424  32.824  1.00  0.00     0.338 C 
ATOM     33  O   UNL A   1      36.099  32.586  34.020  1.00  0.00    -0.246 OA
BRANCH  32  34
ATOM     34  C   UNL A   1      36.776  31.521  31.998  1.00  0.00     0.060 A 
ATOM     35  C   UNL A   1      37.656  30.656  32.649  1.00  0.00     0.016 A 
ATOM     36  C   UNL A   1      36.742  31.574  30.605  1.00  0.00     0.016 A 
ATOM     37  C   UNL A   1      38.544  29.881  31.915  1.00  0.00     0.010 A 
ATOM     38  C   UNL A   1      37.660  30.809  29.868  1.00  0.00     0.010 A 
ATOM     39  C   UNL A   1      38.605  29.998  30.525  1.00  0.00    -0.014 A 
BRANCH  39  40
ATOM     40  C   UNL A   1      39.826  29.506  29.831  1.00  0.00     0.031 A 
ATOM     41  C   UNL A   1      41.034  30.409  29.811  1.00  0.00     0.074 A 
ATOM     42  C   UNL A   1      39.931  28.252  29.352  1.00  0.00     0.049 A 
ATOM     43  N   UNL A   1      42.176  30.266  29.190  1.00  0.00    -0.248 NA
ATOM     44  C   UNL A   1      40.931  31.642  30.606  1.00  0.00     0.031 C 
ATOM     45  C   UNL A   1      38.898  27.222  29.435  1.00  0.00     0.029 A 
ATOM     46  N   UNL A   1      40.976  27.629  28.713  1.00  0.00    -0.354 N 
ATOM     47  C   UNL A   1      42.906  31.418  29.474  1.00  0.00     0.074 A 
ATOM     48  C   UNL A   1      42.071  32.246  30.318  1.00  0.00     0.031 C 
ATOM     49  C   UNL A   1      39.364  26.092  28.874  1.00  0.00     0.029 A 
ATOM     50  C   UNL A   1      40.703  26.334  28.339  1.00  0.00     0.049 A 
ATOM     51  H   UNL A   1      41.839  28.069  28.539  1.00  0.00     0.167 HD
ATOM     52  C   UNL A   1      44.153  31.757  29.066  1.00  0.00     0.034 A 
ATOM     53  C   UNL A   1      41.436  25.460  27.618  1.00  0.00     0.034 A 
ATOM     54  C   UNL A   1      44.992  30.906  28.259  1.00  0.00     0.049 A 
ATOM     55  C   UNL A   1      42.790  25.886  27.098  1.00  0.00     0.074 A 
ATOM     56  C   UNL A   1      46.262  31.157  27.770  1.00  0.00     0.029 A 
ATOM     57  N   UNL A   1      44.648  29.631  27.828  1.00  0.00    -0.354 N 
ATOM     58  N   UNL A   1      43.430  27.018  27.282  1.00  0.00    -0.248 NA
ATOM     59  C   UNL A   1      43.514  24.916  26.265  1.00  0.00     0.031 C 
ATOM     60  C   UNL A   1      46.663  30.059  27.001  1.00  0.00     0.029 A 
ATOM     61  C   UNL A   1      45.673  29.092  27.068  1.00  0.00     0.049 A 
ATOM     62  H   UNL A   1      43.800  29.177  28.035  1.00  0.00     0.167 HD
ATOM     63  C   UNL A   1      44.645  26.880  26.612  1.00  0.00     0.074 A 
ATOM     64  C   UNL A   1      44.652  25.554  26.031  1.00  0.00     0.031 C 
ATOM     65  C   UNL A   1      45.666  27.768  26.491  1.00  0.00     0.034 A 
BRANCH  52  66
ATOM     66  C   UNL A   1      44.634  33.144  29.418  1.00  0.00     0.023 A 
ATOM     67  C   UNL A   1      44.439  34.245  28.567  1.00  0.00     0.031 A 
ATOM     68  C   UNL A   1      45.372  33.345  30.599  1.00  0.00     0.131 A 
ATOM     69  C   UNL A   1      45.049  35.474  28.867  1.00  0.00     0.055 A 
ATOM     70  C   UNL A   1      45.903  34.591  30.934  1.00  0.00     0.041 A 
ATOM     71  F   UNL A   1      45.612  32.323  31.436  1.00  0.00    -0.206 F 
ATOM     72  C   UNL A   1      45.759  35.661  30.055  1.00  0.00     0.022 A 
BRANCH  69  73
ATOM     73  S   UNL A   1      45.051  36.774  27.600  1.00  0.00     0.124 S 
ATOM     74  O   UNL A   1      46.314  37.454  27.877  1.00  0.00    -0.237 OA
ATOM     75  O   UNL A   1      44.996  36.005  26.362  1.00  0.00    -0.237 OA
ATOM     76  O   UNL A   1      43.853  37.552  27.906  1.00  0.00    -0.744 OA
ENDBRANCH  69  73
ENDBRANCH  52  66
BRANCH  53  77
ATOM     77  C   UNL A   1      40.897  24.111  27.278  1.00  0.00     0.023 A 
ATOM     78  C   UNL A   1      39.711  23.966  26.541  1.00  0.00     0.031 A 
ATOM     79  C   UNL A   1      41.525  22.945  27.751  1.00  0.00     0.131 A 
ATOM     80  C   UNL A   1      39.165  22.688  26.337  1.00  0.00     0.055 A 
ATOM     81  C   UNL A   1      41.006  21.673  27.502  1.00  0.00     0.041 A 
ATOM     82  F   UNL A   1      42.656  23.027  28.469  1.00  0.00    -0.206 F 
ATOM     83  C   UNL A   1      39.812  21.540  26.801  1.00  0.00     0.022 A 
BRANCH  80  84
ATOM     84  S   UNL A   1      37.551  22.550  25.518  1.00  0.00     0.124 S 
ATOM     85  O   UNL A   1      36.652  23.048  26.552  1.00  0.00    -0.237 OA
ATOM     86  O   UNL A   1      37.729  23.411  24.353  1.00  0.00    -0.237 OA
ATOM     87  O   UNL A   1      37.439  21.123  25.225  1.00  0.00    -0.744 OA
ENDBRANCH  80  84
ENDBRANCH  53  77
BRANCH  65  88
ATOM     88  C   UNL A   1      46.899  27.305  25.751  1.00  0.00     0.023 A 
ATOM     89  C   UNL A   1      47.156  27.681  24.422  1.00  0.00     0.031 A 
ATOM     90  C   UNL A   1      47.824  26.460  26.390  1.00  0.00     0.131 A 
ATOM     91  C   UNL A   1      48.280  27.169  23.755  1.00  0.00     0.055 A 
ATOM     92  C   UNL A   1      48.970  25.998  25.741  1.00  0.00     0.041 A 
ATOM     93  F   UNL A   1      47.628  26.068  27.660  1.00  0.00    -0.206 F 
ATOM     94  C   UNL A   1      49.196  26.341  24.411  1.00  0.00     0.022 A 
BRANCH  91  95
ATOM     95  S   UNL A   1      48.483  27.521  21.987  1.00  0.00     0.124 S 
ATOM     96  O   UNL A   1      48.535  26.181  21.413  1.00  0.00    -0.237 OA
ATOM     97  O   UNL A   1      47.286  28.297  21.685  1.00  0.00    -0.237 OA
ATOM     98  O   UNL A   1      49.738  28.269  21.927  1.00  0.00    -0.744 OA
ENDBRANCH  91  95
ENDBRANCH  65  88
ENDBRANCH  39  40
ENDBRANCH  32  34
ENDBRANCH  31  32
ENDBRANCH  30  31
ENDBRANCH  29  30
ENDBRANCH  28  29
ENDBRANCH  27  28
ENDBRANCH   1  27
TORSDOF 26
ENDMDL
