MODEL 1
REMARK VINA RESULT:      -8.8      0.000      0.000
REMARK SMILES CCCCCCNC(=O)Oc1cccc(-c2ccc([C@@H](C)C(=O)OCCOCCOCCOC(=O)c3ccc(-c4c5nc(c(-c6cc(S(=O)(=O)[O-])ccc6F)c6ccc([nH]6)c(-c6cc(S(=O)(=O)[O-])ccc6F)c6nc(c(-c7cc(S(=O)(=O)[O-])ccc7F)c7ccc4[nH]7)C=C6)C=C5)cc3)cc2)c1
REMARK SMILES IDX 25 1 24 2 22 3 23 4 20 5 21 6 19 7 16 8 17 9 100 10 18 11
REMARK SMILES IDX 99 12 15 13 11 14 12 15 101 16 13 17 14 18 10 19 8 20 7 21
REMARK SMILES IDX 9 23 6 24 5 25 4 26 3 27 2 28 1 29 26 30 27 31 28 32 29 33
REMARK SMILES IDX 30 34 31 35 32 36 33 37 34 38 35 39 36 40 37 41 98 42 38 43
REMARK SMILES IDX 97 44 39 45 40 46 41 47 91 48 42 49 96 50 90 51 92 52 43 53
REMARK SMILES IDX 95 54 89 55 88 56 44 58 76 59 56 60 75 61 57 62 60 63 74 64
REMARK SMILES IDX 93 65 58 66 59 67 73 69 94 70 61 71 45 72 46 73 54 74 47 75
REMARK SMILES IDX 53 76 55 77 52 78 48 79 49 80 50 81 51 82 77 83 78 84 86 85
REMARK SMILES IDX 79 86 85 87 87 88 84 89 80 90 81 91 82 92 83 93 62 94 63 95
REMARK SMILES IDX 71 96 64 97 70 98 72 99 69 100 65 101 66 102 67 103 68 104
REMARK H PARENT 7 22 92 57 60 68
REMARK Flexibility Score: inf
ROOT
ATOM      1  C   UNL A   1      43.101  21.494  26.266  1.00  0.00     0.261 C 
ENDROOT
BRANCH   1   2
ATOM      2  O   UNL A   1      41.738  21.444  25.790  1.00  0.00    -0.463 OA
BRANCH   2   3
ATOM      3  C   UNL A   1      40.767  21.681  26.709  1.00  0.00     0.313 C 
ATOM      4  O   UNL A   1      40.556  20.937  27.665  1.00  0.00    -0.252 OA
BRANCH   3   5
ATOM      5  C   UNL A   1      39.932  22.950  26.504  1.00  0.00     0.126 C 
ATOM      6  C   UNL A   1      39.925  23.736  27.815  1.00  0.00     0.025 C 
BRANCH   5   7
ATOM      7  C   UNL A   1      38.519  22.885  25.925  1.00  0.00    -0.034 A 
ATOM      8  C   UNL A   1      35.887  22.647  24.818  1.00  0.00    -0.018 A 
ATOM      9  C   UNL A   1      36.327  23.835  25.428  1.00  0.00     0.009 A 
ATOM     10  C   UNL A   1      36.795  21.583  24.755  1.00  0.00     0.009 A 
ATOM     11  C   UNL A   1      37.621  23.959  25.963  1.00  0.00     0.005 A 
ATOM     12  C   UNL A   1      38.088  21.702  25.291  1.00  0.00     0.005 A 
BRANCH   8  13
ATOM     13  C   UNL A   1      34.536  22.543  24.228  1.00  0.00    -0.015 A 
ATOM     14  C   UNL A   1      32.622  23.492  23.063  1.00  0.00     0.133 A 
ATOM     15  C   UNL A   1      31.934  22.282  23.142  1.00  0.00     0.047 A 
ATOM     16  C   UNL A   1      33.903  23.638  23.609  1.00  0.00     0.056 A 
ATOM     17  C   UNL A   1      32.545  21.192  23.756  1.00  0.00     0.004 A 
ATOM     18  C   UNL A   1      33.831  21.325  24.292  1.00  0.00     0.009 A 
BRANCH  14  19
ATOM     19  O   UNL A   1      31.913  24.583  22.528  1.00  0.00    -0.410 OA
BRANCH  19  20
ATOM     20  C   UNL A   1      32.640  25.689  22.119  1.00  0.00     0.412 C 
ATOM     21  N   UNL A   1      32.221  26.859  22.692  1.00  0.00    -0.321 N 
ATOM     22  H   UNL A   1      32.774  27.655  22.517  1.00  0.00     0.167 HD
ATOM     23  O   UNL A   1      33.549  25.685  21.288  1.00  0.00    -0.224 OA
BRANCH  21  24
ATOM     24  C   UNL A   1      31.051  27.057  23.530  1.00  0.00     0.119 C 
BRANCH  24  25
ATOM     25  C   UNL A   1      31.396  27.494  24.953  1.00  0.00     0.021 C 
BRANCH  25  26
ATOM     26  C   UNL A   1      32.294  26.529  25.737  1.00  0.00     0.002 C 
BRANCH  26  27
ATOM     27  C   UNL A   1      33.763  26.948  25.885  1.00  0.00    -0.000 C 
BRANCH  27  28
ATOM     28  C   UNL A   1      34.024  28.456  25.910  1.00  0.00    -0.003 C 
ATOM     29  C   UNL A   1      34.576  28.954  27.237  1.00  0.00     0.004 C 
ENDBRANCH  27  28
ENDBRANCH  26  27
ENDBRANCH  25  26
ENDBRANCH  24  25
ENDBRANCH  21  24
ENDBRANCH  19  20
ENDBRANCH  14  19
ENDBRANCH   8  13
ENDBRANCH   5   7
ENDBRANCH   3   5
ENDBRANCH   2   3
ENDBRANCH   1   2
BRANCH   1  30
ATOM     30  C   UNL A   1      43.493  22.792  26.987  1.00  0.00     0.202 C 
BRANCH  30  31
ATOM     31  O   UNL A   1      44.873  23.023  27.232  1.00  0.00    -0.376 OA
BRANCH  31  32
ATOM     32  C   UNL A   1      45.516  24.133  26.612  1.00  0.00     0.188 C 
BRANCH  32  33
ATOM     33  C   UNL A   1      45.173  24.500  25.161  1.00  0.00     0.188 C 
BRANCH  33  34
ATOM     34  O   UNL A   1      46.254  24.382  24.255  1.00  0.00    -0.376 OA
BRANCH  34  35
ATOM     35  C   UNL A   1      47.533  24.661  24.796  1.00  0.00     0.202 C 
BRANCH  35  36
ATOM     36  C   UNL A   1      48.199  25.852  24.097  1.00  0.00     0.261 C 
BRANCH  36  37
ATOM     37  O   UNL A   1      48.107  27.102  24.808  1.00  0.00    -0.460 OA
BRANCH  37  38
ATOM     38  C   UNL A   1      46.991  27.832  24.595  1.00  0.00     0.338 C 
ATOM     39  O   UNL A   1      46.489  28.104  23.509  1.00  0.00    -0.246 OA
BRANCH  38  40
ATOM     40  C   UNL A   1      46.326  28.073  25.891  1.00  0.00     0.060 A 
ATOM     41  C   UNL A   1      44.932  27.938  25.968  1.00  0.00     0.016 A 
ATOM     42  C   UNL A   1      47.064  28.444  27.016  1.00  0.00     0.016 A 
ATOM     43  C   UNL A   1      44.268  28.228  27.161  1.00  0.00     0.010 A 
ATOM     44  C   UNL A   1      46.395  28.746  28.207  1.00  0.00     0.010 A 
ATOM     45  C   UNL A   1      44.991  28.681  28.273  1.00  0.00    -0.014 A 
BRANCH  45  46
ATOM     46  C   UNL A   1      44.268  29.280  29.424  1.00  0.00     0.031 A 
ATOM     47  C   UNL A   1      43.882  30.733  29.348  1.00  0.00     0.074 A 
ATOM     48  C   UNL A   1      43.938  28.552  30.505  1.00  0.00     0.049 A 
ATOM     49  N   UNL A   1      43.273  31.484  30.229  1.00  0.00    -0.248 NA
ATOM     50  C   UNL A   1      44.248  31.432  28.108  1.00  0.00     0.031 C 
ATOM     51  C   UNL A   1      44.232  27.134  30.688  1.00  0.00     0.029 A 
ATOM     52  N   UNL A   1      43.290  28.916  31.660  1.00  0.00    -0.354 N 
ATOM     53  C   UNL A   1      43.183  32.747  29.650  1.00  0.00     0.074 A 
ATOM     54  C   UNL A   1      43.855  32.668  28.371  1.00  0.00     0.031 C 
ATOM     55  C   UNL A   1      43.777  26.748  31.894  1.00  0.00     0.029 A 
ATOM     56  C   UNL A   1      43.190  27.899  32.580  1.00  0.00     0.049 A 
ATOM     57  H   UNL A   1      42.929  29.819  31.815  1.00  0.00     0.167 HD
ATOM     58  C   UNL A   1      42.581  33.864  30.132  1.00  0.00     0.034 A 
ATOM     59  C   UNL A   1      42.710  27.903  33.840  1.00  0.00     0.034 A 
ATOM     60  C   UNL A   1      41.942  33.932  31.426  1.00  0.00     0.049 A 
ATOM     61  C   UNL A   1      42.121  29.175  34.401  1.00  0.00     0.074 A 
ATOM     62  C   UNL A   1      41.290  35.003  32.012  1.00  0.00     0.029 A 
ATOM     63  N   UNL A   1      41.894  32.891  32.347  1.00  0.00    -0.354 N 
ATOM     64  N   UNL A   1      42.015  30.358  33.838  1.00  0.00    -0.248 NA
ATOM     65  C   UNL A   1      41.575  29.108  35.763  1.00  0.00     0.031 C 
ATOM     66  C   UNL A   1      40.927  34.638  33.313  1.00  0.00     0.029 A 
ATOM     67  C   UNL A   1      41.262  33.308  33.510  1.00  0.00     0.049 A 
ATOM     68  H   UNL A   1      42.258  31.988  32.196  1.00  0.00     0.167 HD
ATOM     69  C   UNL A   1      41.366  31.168  34.768  1.00  0.00     0.074 A 
ATOM     70  C   UNL A   1      41.095  30.334  35.923  1.00  0.00     0.031 C 
ATOM     71  C   UNL A   1      41.014  32.477  34.670  1.00  0.00     0.034 A 
BRANCH  58  72
ATOM     72  C   UNL A   1      42.654  35.106  29.272  1.00  0.00     0.023 A 
ATOM     73  C   UNL A   1      43.823  35.889  29.197  1.00  0.00     0.031 A 
ATOM     74  C   UNL A   1      41.517  35.562  28.580  1.00  0.00     0.131 A 
ATOM     75  C   UNL A   1      43.795  37.131  28.545  1.00  0.00     0.055 A 
ATOM     76  C   UNL A   1      41.528  36.750  27.846  1.00  0.00     0.041 A 
ATOM     77  F   UNL A   1      40.365  34.876  28.630  1.00  0.00    -0.206 F 
ATOM     78  C   UNL A   1      42.664  37.554  27.845  1.00  0.00     0.022 A 
BRANCH  75  79
ATOM     79  S   UNL A   1      45.186  38.272  28.796  1.00  0.00     0.124 S 
ATOM     80  O   UNL A   1      45.834  37.698  29.973  1.00  0.00    -0.237 OA
ATOM     81  O   UNL A   1      45.921  38.156  27.542  1.00  0.00    -0.237 OA
ATOM     82  O   UNL A   1      44.537  39.561  29.022  1.00  0.00    -0.744 OA
ENDBRANCH  75  79
ENDBRANCH  58  72
BRANCH  59  83
ATOM     83  C   UNL A   1      42.803  26.668  34.672  1.00  0.00     0.023 A 
ATOM     84  C   UNL A   1      44.030  26.212  35.178  1.00  0.00     0.031 A 
ATOM     85  C   UNL A   1      41.650  25.917  34.960  1.00  0.00     0.131 A 
ATOM     86  C   UNL A   1      44.078  25.026  35.928  1.00  0.00     0.055 A 
ATOM     87  C   UNL A   1      41.695  24.766  35.747  1.00  0.00     0.041 A 
ATOM     88  F   UNL A   1      40.452  26.308  34.496  1.00  0.00    -0.206 F 
ATOM     89  C   UNL A   1      42.917  24.310  36.231  1.00  0.00     0.022 A 
BRANCH  86  90
ATOM     90  S   UNL A   1      45.693  24.399  36.468  1.00  0.00     0.124 S 
ATOM     91  O   UNL A   1      46.577  24.930  35.438  1.00  0.00    -0.237 OA
ATOM     92  O   UNL A   1      45.823  24.992  37.794  1.00  0.00    -0.237 OA
ATOM     93  O   UNL A   1      45.517  22.947  36.452  1.00  0.00    -0.744 OA
ENDBRANCH  86  90
ENDBRANCH  59  83
BRANCH  71  94
ATOM     94  C   UNL A   1      40.255  33.082  35.830  1.00  0.00     0.023 A 
ATOM     95  C   UNL A   1      40.904  33.764  36.875  1.00  0.00     0.031 A 
ATOM     96  C   UNL A   1      38.853  32.972  35.888  1.00  0.00     0.131 A 
ATOM     97  C   UNL A   1      40.159  34.261  37.957  1.00  0.00     0.055 A 
ATOM     98  C   UNL A   1      38.112  33.526  36.933  1.00  0.00     0.041 A 
ATOM     99  F   UNL A   1      38.178  32.328  34.923  1.00  0.00    -0.206 F 
ATOM    100  C   UNL A   1      38.766  34.164  37.982  1.00  0.00     0.022 A 
BRANCH  97 101
ATOM    101  S   UNL A   1      41.042  34.951  39.385  1.00  0.00     0.124 S 
ATOM    102  O   UNL A   1      41.812  36.028  38.771  1.00  0.00    -0.237 OA
ATOM    103  O   UNL A   1      39.948  35.365  40.258  1.00  0.00    -0.237 OA
ATOM    104  O   UNL A   1      41.833  33.825  39.876  1.00  0.00    -0.744 OA
ENDBRANCH  97 101
ENDBRANCH  71  94
ENDBRANCH  45  46
ENDBRANCH  38  40
ENDBRANCH  37  38
ENDBRANCH  36  37
ENDBRANCH  35  36
ENDBRANCH  34  35
ENDBRANCH  33  34
ENDBRANCH  32  33
ENDBRANCH  31  32
ENDBRANCH  30  31
ENDBRANCH   1  30
TORSDOF 29
ENDMDL
MODEL 2
REMARK VINA RESULT:      -8.6      4.994     10.643
REMARK SMILES CCCCCCNC(=O)Oc1cccc(-c2ccc([C@@H](C)C(=O)OCCOCCOCCOC(=O)c3ccc(-c4c5nc(c(-c6cc(S(=O)(=O)[O-])ccc6F)c6ccc([nH]6)c(-c6cc(S(=O)(=O)[O-])ccc6F)c6nc(c(-c7cc(S(=O)(=O)[O-])ccc7F)c7ccc4[nH]7)C=C6)C=C5)cc3)cc2)c1
REMARK SMILES IDX 25 1 24 2 22 3 23 4 20 5 21 6 19 7 16 8 17 9 100 10 18 11
REMARK SMILES IDX 99 12 15 13 11 14 12 15 101 16 13 17 14 18 10 19 8 20 7 21
REMARK SMILES IDX 9 23 6 24 5 25 4 26 3 27 2 28 1 29 26 30 27 31 28 32 29 33
REMARK SMILES IDX 30 34 31 35 32 36 33 37 34 38 35 39 36 40 37 41 98 42 38 43
REMARK SMILES IDX 97 44 39 45 40 46 41 47 91 48 42 49 96 50 90 51 92 52 43 53
REMARK SMILES IDX 95 54 89 55 88 56 44 58 76 59 56 60 75 61 57 62 60 63 74 64
REMARK SMILES IDX 93 65 58 66 59 67 73 69 94 70 61 71 45 72 46 73 54 74 47 75
REMARK SMILES IDX 53 76 55 77 52 78 48 79 49 80 50 81 51 82 77 83 78 84 86 85
REMARK SMILES IDX 79 86 85 87 87 88 84 89 80 90 81 91 82 92 83 93 62 94 63 95
REMARK SMILES IDX 71 96 64 97 70 98 72 99 69 100 65 101 66 102 67 103 68 104
REMARK H PARENT 7 22 92 57 60 68
REMARK Flexibility Score: inf
ROOT
ATOM      1  C   UNL A   1      35.390  31.734  28.728  1.00  0.00     0.261 C 
ENDROOT
BRANCH   1   2
ATOM      2  O   UNL A   1      36.089  30.968  29.733  1.00  0.00    -0.463 OA
BRANCH   2   3
ATOM      3  C   UNL A   1      37.428  30.823  29.560  1.00  0.00     0.313 C 
ATOM      4  O   UNL A   1      38.187  31.775  29.383  1.00  0.00    -0.252 OA
BRANCH   3   5
ATOM      5  C   UNL A   1      37.968  29.389  29.603  1.00  0.00     0.126 C 
ATOM      6  C   UNL A   1      37.711  28.822  30.999  1.00  0.00     0.025 C 
BRANCH   5   7
ATOM      7  C   UNL A   1      39.395  29.064  29.161  1.00  0.00    -0.034 A 
ATOM      8  C   UNL A   1      42.103  28.454  28.449  1.00  0.00    -0.018 A 
ATOM      9  C   UNL A   1      41.078  28.496  27.488  1.00  0.00     0.009 A 
ATOM     10  C   UNL A   1      41.753  28.742  29.773  1.00  0.00     0.009 A 
ATOM     11  C   UNL A   1      39.749  28.805  27.831  1.00  0.00     0.005 A 
ATOM     12  C   UNL A   1      40.427  29.048  30.122  1.00  0.00     0.005 A 
BRANCH   8  13
ATOM     13  C   UNL A   1      43.500  28.163  28.066  1.00  0.00    -0.015 A 
ATOM     14  C   UNL A   1      45.522  26.813  28.175  1.00  0.00     0.133 A 
ATOM     15  C   UNL A   1      46.186  27.681  27.311  1.00  0.00     0.047 A 
ATOM     16  C   UNL A   1      44.198  27.047  28.567  1.00  0.00     0.056 A 
ATOM     17  C   UNL A   1      45.511  28.791  26.811  1.00  0.00     0.004 A 
ATOM     18  C   UNL A   1      44.183  29.027  27.186  1.00  0.00     0.009 A 
BRANCH  14  19
ATOM     19  O   UNL A   1      46.287  25.772  28.730  1.00  0.00    -0.410 OA
BRANCH  19  20
ATOM     20  C   UNL A   1      46.389  24.590  28.014  1.00  0.00     0.412 C 
ATOM     21  N   UNL A   1      45.433  23.668  28.344  1.00  0.00    -0.321 N 
ATOM     22  H   UNL A   1      45.396  22.857  27.788  1.00  0.00     0.167 HD
ATOM     23  O   UNL A   1      47.261  24.323  27.187  1.00  0.00    -0.224 OA
BRANCH  21  24
ATOM     24  C   UNL A   1      44.465  23.755  29.424  1.00  0.00     0.119 C 
BRANCH  24  25
ATOM     25  C   UNL A   1      43.310  22.765  29.280  1.00  0.00     0.021 C 
BRANCH  25  26
ATOM     26  C   UNL A   1      42.238  23.152  28.254  1.00  0.00     0.002 C 
BRANCH  26  27
ATOM     27  C   UNL A   1      42.536  22.778  26.797  1.00  0.00    -0.000 C 
BRANCH  27  28
ATOM     28  C   UNL A   1      42.861  23.948  25.864  1.00  0.00    -0.003 C 
ATOM     29  C   UNL A   1      42.154  25.240  26.241  1.00  0.00     0.004 C 
ENDBRANCH  27  28
ENDBRANCH  26  27
ENDBRANCH  25  26
ENDBRANCH  24  25
ENDBRANCH  21  24
ENDBRANCH  19  20
ENDBRANCH  14  19
ENDBRANCH   8  13
ENDBRANCH   5   7
ENDBRANCH   3   5
ENDBRANCH   2   3
ENDBRANCH   1   2
BRANCH   1  30
ATOM     30  C   UNL A   1      34.685  32.996  29.243  1.00  0.00     0.202 C 
BRANCH  30  31
ATOM     31  O   UNL A   1      34.326  33.041  30.617  1.00  0.00    -0.376 OA
BRANCH  31  32
ATOM     32  C   UNL A   1      34.871  34.062  31.448  1.00  0.00     0.188 C 
BRANCH  32  33
ATOM     33  C   UNL A   1      36.313  33.939  31.961  1.00  0.00     0.188 C 
BRANCH  33  34
ATOM     34  O   UNL A   1      36.669  34.891  32.946  1.00  0.00    -0.376 OA
BRANCH  34  35
ATOM     35  C   UNL A   1      37.613  34.448  33.904  1.00  0.00     0.202 C 
BRANCH  35  36
ATOM     36  C   UNL A   1      36.973  33.528  34.951  1.00  0.00     0.261 C 
BRANCH  36  37
ATOM     37  O   UNL A   1      37.325  32.136  34.831  1.00  0.00    -0.460 OA
BRANCH  37  38
ATOM     38  C   UNL A   1      37.970  31.588  35.884  1.00  0.00     0.338 C 
ATOM     39  O   UNL A   1      37.557  31.510  37.036  1.00  0.00    -0.246 OA
BRANCH  38  40
ATOM     40  C   UNL A   1      39.170  30.885  35.391  1.00  0.00     0.060 A 
ATOM     41  C   UNL A   1      40.386  31.075  36.064  1.00  0.00     0.016 A 
ATOM     42  C   UNL A   1      39.107  30.061  34.267  1.00  0.00     0.016 A 
ATOM     43  C   UNL A   1      41.553  30.481  35.580  1.00  0.00     0.010 A 
ATOM     44  C   UNL A   1      40.280  29.476  33.777  1.00  0.00     0.010 A 
ATOM     45  C   UNL A   1      41.514  29.718  34.406  1.00  0.00    -0.014 A 
BRANCH  45  46
ATOM     46  C   UNL A   1      42.784  29.352  33.726  1.00  0.00     0.031 A 
ATOM     47  C   UNL A   1      43.354  30.308  32.712  1.00  0.00     0.074 A 
ATOM     48  C   UNL A   1      43.434  28.211  34.015  1.00  0.00     0.049 A 
ATOM     49  N   UNL A   1      44.428  30.202  31.974  1.00  0.00    -0.248 NA
ATOM     50  C   UNL A   1      42.594  31.548  32.499  1.00  0.00     0.031 C 
ATOM     51  C   UNL A   1      43.001  27.217  34.993  1.00  0.00     0.029 A 
ATOM     52  N   UNL A   1      44.597  27.694  33.499  1.00  0.00    -0.354 N 
ATOM     53  C   UNL A   1      44.474  31.361  31.205  1.00  0.00     0.074 A 
ATOM     54  C   UNL A   1      43.285  32.122  31.528  1.00  0.00     0.031 C 
ATOM     55  C   UNL A   1      43.879  26.200  34.998  1.00  0.00     0.029 A 
ATOM     56  C   UNL A   1      44.919  26.454  34.000  1.00  0.00     0.049 A 
ATOM     57  H   UNL A   1      45.149  28.165  32.834  1.00  0.00     0.167 HD
ATOM     58  C   UNL A   1      45.425  31.762  30.325  1.00  0.00     0.034 A 
ATOM     59  C   UNL A   1      45.918  25.610  33.671  1.00  0.00     0.034 A 
ATOM     60  C   UNL A   1      46.590  30.975  29.992  1.00  0.00     0.049 A 
ATOM     61  C   UNL A   1      46.924  26.029  32.626  1.00  0.00     0.074 A 
ATOM     62  C   UNL A   1      47.624  31.285  29.127  1.00  0.00     0.029 A 
ATOM     63  N   UNL A   1      46.863  29.706  30.493  1.00  0.00    -0.354 N 
ATOM     64  N   UNL A   1      46.976  27.138  31.923  1.00  0.00    -0.248 NA
ATOM     65  C   UNL A   1      48.013  25.086  32.340  1.00  0.00     0.031 C 
ATOM     66  C   UNL A   1      48.472  30.175  29.040  1.00  0.00     0.029 A 
ATOM     67  C   UNL A   1      48.025  29.205  29.923  1.00  0.00     0.049 A 
ATOM     68  H   UNL A   1      46.310  29.231  31.155  1.00  0.00     0.167 HD
ATOM     69  C   UNL A   1      48.118  27.037  31.132  1.00  0.00     0.074 A 
ATOM     70  C   UNL A   1      48.731  25.763  31.453  1.00  0.00     0.031 C 
ATOM     71  C   UNL A   1      48.621  27.923  30.232  1.00  0.00     0.034 A 
BRANCH  58  72
ATOM     72  C   UNL A   1      45.196  33.083  29.624  1.00  0.00     0.023 A 
ATOM     73  C   UNL A   1      44.802  33.148  28.273  1.00  0.00     0.031 A 
ATOM     74  C   UNL A   1      45.451  34.297  30.288  1.00  0.00     0.131 A 
ATOM     75  C   UNL A   1      44.785  34.382  27.606  1.00  0.00     0.055 A 
ATOM     76  C   UNL A   1      45.331  35.530  29.644  1.00  0.00     0.041 A 
ATOM     77  F   UNL A   1      45.853  34.305  31.569  1.00  0.00    -0.206 F 
ATOM     78  C   UNL A   1      45.019  35.576  28.289  1.00  0.00     0.022 A 
BRANCH  75  79
ATOM     79  S   UNL A   1      44.653  34.384  25.794  1.00  0.00     0.124 S 
ATOM     80  O   UNL A   1      45.394  35.593  25.441  1.00  0.00    -0.237 OA
ATOM     81  O   UNL A   1      45.282  33.119  25.430  1.00  0.00    -0.237 OA
ATOM     82  O   UNL A   1      43.213  34.456  25.554  1.00  0.00    -0.744 OA
ENDBRANCH  75  79
ENDBRANCH  58  72
BRANCH  59  83
ATOM     83  C   UNL A   1      45.991  24.265  34.312  1.00  0.00     0.023 A 
ATOM     84  C   UNL A   1      46.803  24.025  35.431  1.00  0.00     0.031 A 
ATOM     85  C   UNL A   1      45.247  23.189  33.793  1.00  0.00     0.131 A 
ATOM     86  C   UNL A   1      46.868  22.735  35.983  1.00  0.00     0.055 A 
ATOM     87  C   UNL A   1      45.277  21.922  34.374  1.00  0.00     0.041 A 
ATOM     88  F   UNL A   1      44.459  23.365  32.721  1.00  0.00    -0.206 F 
ATOM     89  C   UNL A   1      46.097  21.687  35.473  1.00  0.00     0.022 A 
BRANCH  86  90
ATOM     90  S   UNL A   1      48.015  22.429  37.354  1.00  0.00     0.124 S 
ATOM     91  O   UNL A   1      47.098  22.154  38.453  1.00  0.00    -0.237 OA
ATOM     92  O   UNL A   1      48.786  21.293  36.860  1.00  0.00    -0.237 OA
ATOM     93  O   UNL A   1      48.760  23.683  37.462  1.00  0.00    -0.744 OA
ENDBRANCH  86  90
ENDBRANCH  59  83
BRANCH  71  94
ATOM     94  C   UNL A   1      49.927  27.564  29.558  1.00  0.00     0.023 A 
ATOM     95  C   UNL A   1      49.981  27.083  28.237  1.00  0.00     0.031 A 
ATOM     96  C   UNL A   1      51.141  27.706  30.255  1.00  0.00     0.131 A 
ATOM     97  C   UNL A   1      51.214  26.713  27.675  1.00  0.00     0.055 A 
ATOM     98  C   UNL A   1      52.370  27.399  29.669  1.00  0.00     0.041 A 
ATOM     99  F   UNL A   1      51.154  28.154  31.520  1.00  0.00    -0.206 F 
ATOM    100  C   UNL A   1      52.410  26.887  28.376  1.00  0.00     0.022 A 
BRANCH  97 101
ATOM    101  S   UNL A   1      51.229  25.906  26.050  1.00  0.00     0.124 S 
ATOM    102  O   UNL A   1      51.997  24.696  26.321  1.00  0.00    -0.237 OA
ATOM    103  O   UNL A   1      49.807  25.715  25.783  1.00  0.00    -0.237 OA
ATOM    104  O   UNL A   1      51.894  26.883  25.189  1.00  0.00    -0.744 OA
ENDBRANCH  97 101
ENDBRANCH  71  94
ENDBRANCH  45  46
ENDBRANCH  38  40
ENDBRANCH  37  38
ENDBRANCH  36  37
ENDBRANCH  35  36
ENDBRANCH  34  35
ENDBRANCH  33  34
ENDBRANCH  32  33
ENDBRANCH  31  32
ENDBRANCH  30  31
ENDBRANCH   1  30
TORSDOF 29
ENDMDL
MODEL 3
REMARK VINA RESULT:      -8.3      5.292     10.362
REMARK SMILES CCCCCCNC(=O)Oc1cccc(-c2ccc([C@@H](C)C(=O)OCCOCCOCCOC(=O)c3ccc(-c4c5nc(c(-c6cc(S(=O)(=O)[O-])ccc6F)c6ccc([nH]6)c(-c6cc(S(=O)(=O)[O-])ccc6F)c6nc(c(-c7cc(S(=O)(=O)[O-])ccc7F)c7ccc4[nH]7)C=C6)C=C5)cc3)cc2)c1
REMARK SMILES IDX 25 1 24 2 22 3 23 4 20 5 21 6 19 7 16 8 17 9 100 10 18 11
REMARK SMILES IDX 99 12 15 13 11 14 12 15 101 16 13 17 14 18 10 19 8 20 7 21
REMARK SMILES IDX 9 23 6 24 5 25 4 26 3 27 2 28 1 29 26 30 27 31 28 32 29 33
REMARK SMILES IDX 30 34 31 35 32 36 33 37 34 38 35 39 36 40 37 41 98 42 38 43
REMARK SMILES IDX 97 44 39 45 40 46 41 47 91 48 42 49 96 50 90 51 92 52 43 53
REMARK SMILES IDX 95 54 89 55 88 56 44 58 76 59 56 60 75 61 57 62 60 63 74 64
REMARK SMILES IDX 93 65 58 66 59 67 73 69 94 70 61 71 45 72 46 73 54 74 47 75
REMARK SMILES IDX 53 76 55 77 52 78 48 79 49 80 50 81 51 82 77 83 78 84 86 85
REMARK SMILES IDX 79 86 85 87 87 88 84 89 80 90 81 91 82 92 83 93 62 94 63 95
REMARK SMILES IDX 71 96 64 97 70 98 72 99 69 100 65 101 66 102 67 103 68 104
REMARK H PARENT 7 22 92 57 60 68
REMARK Flexibility Score: inf
ROOT
ATOM      1  C   UNL A   1      36.489  29.393  28.042  1.00  0.00     0.261 C 
ENDROOT
BRANCH   1   2
ATOM      2  O   UNL A   1      35.377  30.023  28.717  1.00  0.00    -0.463 OA
BRANCH   2   3
ATOM      3  C   UNL A   1      34.941  31.198  28.195  1.00  0.00     0.313 C 
ATOM      4  O   UNL A   1      35.374  32.291  28.554  1.00  0.00    -0.252 OA
BRANCH   3   5
ATOM      5  C   UNL A   1      33.864  31.101  27.108  1.00  0.00     0.126 C 
ATOM      6  C   UNL A   1      32.707  32.021  27.496  1.00  0.00     0.025 C 
BRANCH   5   7
ATOM      7  C   UNL A   1      33.324  29.748  26.645  1.00  0.00    -0.034 A 
ATOM      8  C   UNL A   1      32.364  27.230  25.670  1.00  0.00    -0.018 A 
ATOM      9  C   UNL A   1      32.179  27.624  27.007  1.00  0.00     0.009 A 
ATOM     10  C   UNL A   1      33.022  28.128  24.822  1.00  0.00     0.009 A 
ATOM     11  C   UNL A   1      32.639  28.863  27.487  1.00  0.00     0.005 A 
ATOM     12  C   UNL A   1      33.487  29.366  25.297  1.00  0.00     0.005 A 
BRANCH   8  13
ATOM     13  C   UNL A   1      31.842  25.941  25.172  1.00  0.00    -0.015 A 
ATOM     14  C   UNL A   1      31.507  23.538  25.369  1.00  0.00     0.133 A 
ATOM     15  C   UNL A   1      30.839  23.500  24.146  1.00  0.00     0.047 A 
ATOM     16  C   UNL A   1      32.020  24.737  25.881  1.00  0.00     0.056 A 
ATOM     17  C   UNL A   1      30.661  24.681  23.432  1.00  0.00     0.004 A 
ATOM     18  C   UNL A   1      31.158  25.886  23.941  1.00  0.00     0.009 A 
BRANCH  14  19
ATOM     19  O   UNL A   1      31.750  22.300  25.991  1.00  0.00    -0.410 OA
BRANCH  19  20
ATOM     20  C   UNL A   1      32.794  22.226  26.900  1.00  0.00     0.412 C 
ATOM     21  N   UNL A   1      33.983  21.853  26.336  1.00  0.00    -0.321 N 
ATOM     22  H   UNL A   1      34.775  21.891  26.918  1.00  0.00     0.167 HD
ATOM     23  O   UNL A   1      32.705  22.419  28.113  1.00  0.00    -0.224 OA
BRANCH  21  24
ATOM     24  C   UNL A   1      34.205  21.406  24.971  1.00  0.00     0.119 C 
BRANCH  24  25
ATOM     25  C   UNL A   1      34.170  19.886  24.821  1.00  0.00     0.021 C 
BRANCH  25  26
ATOM     26  C   UNL A   1      32.770  19.259  24.814  1.00  0.00     0.002 C 
BRANCH  26  27
ATOM     27  C   UNL A   1      32.655  17.864  25.442  1.00  0.00    -0.000 C 
BRANCH  27  28
ATOM     28  C   UNL A   1      33.102  16.698  24.555  1.00  0.00    -0.003 C 
ATOM     29  C   UNL A   1      34.484  16.166  24.905  1.00  0.00     0.004 C 
ENDBRANCH  27  28
ENDBRANCH  26  27
ENDBRANCH  25  26
ENDBRANCH  24  25
ENDBRANCH  21  24
ENDBRANCH  19  20
ENDBRANCH  14  19
ENDBRANCH   8  13
ENDBRANCH   5   7
ENDBRANCH   3   5
ENDBRANCH   2   3
ENDBRANCH   1   2
BRANCH   1  30
ATOM     30  C   UNL A   1      37.878  29.844  28.513  1.00  0.00     0.202 C 
BRANCH  30  31
ATOM     31  O   UNL A   1      38.848  28.839  28.771  1.00  0.00    -0.376 OA
BRANCH  31  32
ATOM     32  C   UNL A   1      39.073  28.414  30.113  1.00  0.00     0.188 C 
BRANCH  32  33
ATOM     33  C   UNL A   1      38.066  28.786  31.210  1.00  0.00     0.188 C 
BRANCH  33  34
ATOM     34  O   UNL A   1      38.650  29.270  32.404  1.00  0.00    -0.376 OA
BRANCH  34  35
ATOM     35  C   UNL A   1      39.121  30.605  32.351  1.00  0.00     0.202 C 
BRANCH  35  36
ATOM     36  C   UNL A   1      37.974  31.607  32.178  1.00  0.00     0.261 C 
BRANCH  36  37
ATOM     37  O   UNL A   1      38.033  32.394  30.972  1.00  0.00    -0.460 OA
BRANCH  37  38
ATOM     38  C   UNL A   1      38.052  33.735  31.131  1.00  0.00     0.338 C 
ATOM     39  O   UNL A   1      37.203  34.418  31.694  1.00  0.00    -0.246 OA
BRANCH  38  40
ATOM     40  C   UNL A   1      39.374  34.244  30.716  1.00  0.00     0.060 A 
ATOM     41  C   UNL A   1      39.537  34.700  29.400  1.00  0.00     0.016 A 
ATOM     42  C   UNL A   1      40.448  34.256  31.607  1.00  0.00     0.016 A 
ATOM     43  C   UNL A   1      40.793  35.120  28.957  1.00  0.00     0.010 A 
ATOM     44  C   UNL A   1      41.708  34.667  31.157  1.00  0.00     0.010 A 
ATOM     45  C   UNL A   1      41.895  35.060  29.819  1.00  0.00    -0.014 A 
BRANCH  45  46
ATOM     46  C   UNL A   1      43.267  35.205  29.268  1.00  0.00     0.031 A 
ATOM     47  C   UNL A   1      43.799  36.593  29.030  1.00  0.00     0.074 A 
ATOM     48  C   UNL A   1      44.037  34.134  29.004  1.00  0.00     0.049 A 
ATOM     49  N   UNL A   1      44.949  36.975  28.537  1.00  0.00    -0.248 NA
ATOM     50  C   UNL A   1      42.900  37.698  29.390  1.00  0.00     0.031 C 
ATOM     51  C   UNL A   1      43.648  32.743  29.215  1.00  0.00     0.029 A 
ATOM     52  N   UNL A   1      45.308  34.057  28.490  1.00  0.00    -0.354 N 
ATOM     53  C   UNL A   1      44.911  38.366  28.525  1.00  0.00     0.074 A 
ATOM     54  C   UNL A   1      43.601  38.751  29.005  1.00  0.00     0.031 C 
ATOM     55  C   UNL A   1      44.656  31.946  28.819  1.00  0.00     0.029 A 
ATOM     56  C   UNL A   1      45.747  32.768  28.297  1.00  0.00     0.049 A 
ATOM     57  H   UNL A   1      45.855  34.849  28.281  1.00  0.00     0.167 HD
ATOM     58  C   UNL A   1      45.884  39.241  28.165  1.00  0.00     0.034 A 
ATOM     59  C   UNL A   1      46.884  32.305  27.737  1.00  0.00     0.034 A 
ATOM     60  C   UNL A   1      47.175  38.838  27.659  1.00  0.00     0.049 A 
ATOM     61  C   UNL A   1      47.924  33.289  27.259  1.00  0.00     0.074 A 
ATOM     62  C   UNL A   1      48.240  39.634  27.277  1.00  0.00     0.029 A 
ATOM     63  N   UNL A   1      47.570  37.522  27.442  1.00  0.00    -0.354 N 
ATOM     64  N   UNL A   1      47.893  34.602  27.276  1.00  0.00    -0.248 NA
ATOM     65  C   UNL A   1      49.159  32.726  26.696  1.00  0.00     0.031 C 
ATOM     66  C   UNL A   1      49.240  38.808  26.751  1.00  0.00     0.029 A 
ATOM     67  C   UNL A   1      48.844  37.488  26.892  1.00  0.00     0.049 A 
ATOM     68  H   UNL A   1      47.023  36.729  27.647  1.00  0.00     0.167 HD
ATOM     69  C   UNL A   1      49.114  35.022  26.753  1.00  0.00     0.074 A 
ATOM     70  C   UNL A   1      49.862  33.821  26.440  1.00  0.00     0.031 C 
ATOM     71  C   UNL A   1      49.579  36.285  26.561  1.00  0.00     0.034 A 
BRANCH  58  72
ATOM     72  C   UNL A   1      45.545  40.713  28.252  1.00  0.00     0.023 A 
ATOM     73  C   UNL A   1      45.459  41.383  29.488  1.00  0.00     0.031 A 
ATOM     74  C   UNL A   1      45.222  41.441  27.091  1.00  0.00     0.131 A 
ATOM     75  C   UNL A   1      44.958  42.693  29.543  1.00  0.00     0.055 A 
ATOM     76  C   UNL A   1      44.823  42.778  27.146  1.00  0.00     0.041 A 
ATOM     77  F   UNL A   1      45.259  40.855  25.884  1.00  0.00    -0.206 F 
ATOM     78  C   UNL A   1      44.666  43.405  28.378  1.00  0.00     0.022 A 
BRANCH  75  79
ATOM     79  S   UNL A   1      44.503  43.378  31.163  1.00  0.00     0.124 S 
ATOM     80  O   UNL A   1      43.822  44.614  30.784  1.00  0.00    -0.237 OA
ATOM     81  O   UNL A   1      43.658  42.329  31.723  1.00  0.00    -0.237 OA
ATOM     82  O   UNL A   1      45.789  43.566  31.830  1.00  0.00    -0.744 OA
ENDBRANCH  75  79
ENDBRANCH  58  72
BRANCH  59  83
ATOM     83  C   UNL A   1      47.078  30.837  27.563  1.00  0.00     0.023 A 
ATOM     84  C   UNL A   1      46.738  30.186  26.367  1.00  0.00     0.031 A 
ATOM     85  C   UNL A   1      47.600  30.059  28.613  1.00  0.00     0.131 A 
ATOM     86  C   UNL A   1      46.906  28.795  26.258  1.00  0.00     0.055 A 
ATOM     87  C   UNL A   1      47.811  28.687  28.482  1.00  0.00     0.041 A 
ATOM     88  F   UNL A   1      47.937  30.634  29.779  1.00  0.00    -0.206 F 
ATOM     89  C   UNL A   1      47.456  28.045  27.300  1.00  0.00     0.022 A 
BRANCH  86  90
ATOM     90  S   UNL A   1      46.348  27.965  24.744  1.00  0.00     0.124 S 
ATOM     91  O   UNL A   1      44.934  27.749  25.027  1.00  0.00    -0.237 OA
ATOM     92  O   UNL A   1      46.653  28.960  23.721  1.00  0.00    -0.237 OA
ATOM     93  O   UNL A   1      47.167  26.755  24.697  1.00  0.00    -0.744 OA
ENDBRANCH  86  90
ENDBRANCH  59  83
BRANCH  71  94
ATOM     94  C   UNL A   1      50.985  36.435  26.025  1.00  0.00     0.023 A 
ATOM     95  C   UNL A   1      52.109  36.467  26.869  1.00  0.00     0.031 A 
ATOM     96  C   UNL A   1      51.201  36.549  24.639  1.00  0.00     0.131 A 
ATOM     97  C   UNL A   1      53.390  36.661  26.326  1.00  0.00     0.055 A 
ATOM     98  C   UNL A   1      52.483  36.675  24.099  1.00  0.00     0.041 A 
ATOM     99  F   UNL A   1      50.168  36.531  23.782  1.00  0.00    -0.206 F 
ATOM    100  C   UNL A   1      53.585  36.746  24.945  1.00  0.00     0.022 A 
BRANCH  97 101
ATOM    101  S   UNL A   1      54.792  36.904  27.453  1.00  0.00     0.124 S 
ATOM    102  O   UNL A   1      54.491  38.208  28.033  1.00  0.00    -0.237 OA
ATOM    103  O   UNL A   1      54.670  35.760  28.352  1.00  0.00    -0.237 OA
ATOM    104  O   UNL A   1      55.953  36.872  26.566  1.00  0.00    -0.744 OA
ENDBRANCH  97 101
ENDBRANCH  71  94
ENDBRANCH  45  46
ENDBRANCH  38  40
ENDBRANCH  37  38
ENDBRANCH  36  37
ENDBRANCH  35  36
ENDBRANCH  34  35
ENDBRANCH  33  34
ENDBRANCH  32  33
ENDBRANCH  31  32
ENDBRANCH  30  31
ENDBRANCH   1  30
TORSDOF 29
ENDMDL
