MODEL 1
REMARK VINA RESULT:      -9.8      0.000      0.000
REMARK SMILES O=C(OCCOCCOCCOC(=O)c1ccc(-c2c3nc(c(-c4cc(S(=O)(=O)[O-])ccc4F)c4ccc([nH]4)c(-c4cc(S(=O)(=O)[O-])ccc4F)c4nc(c(-c5cc(S(=O)(=O)[O-])ccc5F)c5ccc2[nH]5)C=C4)C=C3)cc1)C1=Cc2c(ccc(Cl)c2Cl)O[C@H]1C(F)(F)F
REMARK SMILES IDX 8 1 7 2 6 3 5 4 4 5 3 6 2 7 1 8 78 9 79 10 89 11 80 12 88 13
REMARK SMILES IDX 81 14 86 15 82 16 84 17 87 18 83 19 85 20 90 21 91 22 92 23
REMARK SMILES IDX 93 24 9 25 10 26 11 27 12 28 13 29 14 30 15 31 16 32 77 33
REMARK SMILES IDX 17 34 76 35 18 36 19 37 20 38 70 39 21 40 75 41 69 42 71 43
REMARK SMILES IDX 22 44 74 45 68 46 67 47 23 49 55 50 35 51 54 52 36 53 39 54
REMARK SMILES IDX 53 55 72 56 37 57 38 58 52 60 73 61 40 62 24 63 25 64 33 65
REMARK SMILES IDX 26 66 32 67 34 68 31 69 27 70 28 71 29 72 30 73 56 74 57 75
REMARK SMILES IDX 65 76 58 77 64 78 66 79 63 80 59 81 60 82 61 83 62 84 41 85
REMARK SMILES IDX 42 86 50 87 43 88 49 89 51 90 48 91 44 92 45 93 46 94 47 95
REMARK H PARENT 71 48 39 59
REMARK Flexibility Score: inf
ROOT
ATOM      1  C   UNL A   1      35.407  32.496  29.491  1.00  0.00     0.188 C 
ENDROOT
BRANCH   1   2
ATOM      2  C   UNL A   1      36.105  31.506  28.549  1.00  0.00     0.188 C 
BRANCH   2   3
ATOM      3  O   UNL A   1      35.259  31.051  27.509  1.00  0.00    -0.376 OA
BRANCH   3   4
ATOM      4  C   UNL A   1      34.843  29.709  27.750  1.00  0.00     0.202 C 
BRANCH   4   5
ATOM      5  C   UNL A   1      33.517  29.420  27.034  1.00  0.00     0.261 C 
BRANCH   5   6
ATOM      6  O   UNL A   1      33.398  28.056  26.535  1.00  0.00    -0.460 OA
BRANCH   6   7
ATOM      7  C   UNL A   1      32.418  27.128  26.670  1.00  0.00     0.338 C 
ATOM      8  O   UNL A   1      31.546  27.309  27.515  1.00  0.00    -0.246 OA
BRANCH   7   9
ATOM      9  C   UNL A   1      32.280  25.966  25.761  1.00  0.00     0.087 C 
ATOM     10  C   UNL A   1      32.230  24.717  26.206  1.00  0.00     0.029 C 
ATOM     11  C   UNL A   1      31.948  26.204  24.296  1.00  0.00     0.316 C 
ATOM     12  C   UNL A   1      32.370  23.568  25.361  1.00  0.00     0.037 A 
ATOM     13  O   UNL A   1      31.913  24.982  23.457  1.00  0.00    -0.475 OA
ATOM     14  C   UNL A   1      32.096  23.750  24.017  1.00  0.00     0.129 A 
ATOM     15  C   UNL A   1      32.737  22.307  25.879  1.00  0.00     0.070 A 
ATOM     16  C   UNL A   1      32.025  22.624  23.201  1.00  0.00     0.049 A 
ATOM     17  C   UNL A   1      32.653  21.186  25.060  1.00  0.00     0.060 A 
ATOM     18  Cl  UNL A   1      33.387  22.163  27.488  1.00  0.00    -0.082 Cl
ATOM     19  C   UNL A   1      32.268  21.345  23.729  1.00  0.00     0.026 A 
ATOM     20  Cl  UNL A   1      32.986  19.592  25.638  1.00  0.00    -0.083 Cl
BRANCH  11  21
ATOM     21  C   UNL A   1      30.547  26.870  24.181  1.00  0.00     0.430 C 
ATOM     22  F   UNL A   1      29.973  26.596  22.982  1.00  0.00    -0.167 F 
ATOM     23  F   UNL A   1      29.686  26.483  25.141  1.00  0.00    -0.167 F 
ATOM     24  F   UNL A   1      30.640  28.221  24.269  1.00  0.00    -0.167 F 
ENDBRANCH  11  21
ENDBRANCH   7   9
ENDBRANCH   6   7
ENDBRANCH   5   6
ENDBRANCH   4   5
ENDBRANCH   3   4
ENDBRANCH   2   3
ENDBRANCH   1   2
BRANCH   1  25
ATOM     25  O   UNL A   1      34.091  32.928  29.151  1.00  0.00    -0.376 OA
BRANCH  25  26
ATOM     26  C   UNL A   1      33.918  34.211  28.536  1.00  0.00     0.202 C 
BRANCH  26  27
ATOM     27  C   UNL A   1      33.095  35.268  29.274  1.00  0.00     0.261 C 
BRANCH  27  28
ATOM     28  O   UNL A   1      33.785  35.751  30.435  1.00  0.00    -0.460 OA
BRANCH  28  29
ATOM     29  C   UNL A   1      33.262  35.366  31.616  1.00  0.00     0.338 C 
ATOM     30  O   UNL A   1      32.080  35.348  31.940  1.00  0.00    -0.246 OA
BRANCH  29  31
ATOM     31  C   UNL A   1      34.334  34.861  32.468  1.00  0.00     0.060 A 
ATOM     32  C   UNL A   1      35.653  35.266  32.229  1.00  0.00     0.016 A 
ATOM     33  C   UNL A   1      34.034  33.873  33.404  1.00  0.00     0.016 A 
ATOM     34  C   UNL A   1      36.697  34.653  32.910  1.00  0.00     0.010 A 
ATOM     35  C   UNL A   1      35.079  33.238  34.062  1.00  0.00     0.010 A 
ATOM     36  C   UNL A   1      36.410  33.597  33.781  1.00  0.00    -0.014 A 
BRANCH  36  37
ATOM     37  C   UNL A   1      37.481  32.677  34.208  1.00  0.00     0.031 A 
ATOM     38  C   UNL A   1      38.216  33.010  35.473  1.00  0.00     0.074 A 
ATOM     39  C   UNL A   1      37.829  31.633  33.443  1.00  0.00     0.049 A 
ATOM     40  N   UNL A   1      39.327  32.516  35.947  1.00  0.00    -0.248 NA
ATOM     41  C   UNL A   1      37.620  34.070  36.301  1.00  0.00     0.031 C 
ATOM     42  C   UNL A   1      37.134  31.209  32.230  1.00  0.00     0.029 A 
ATOM     43  N   UNL A   1      38.886  30.770  33.557  1.00  0.00    -0.354 N 
ATOM     44  C   UNL A   1      39.581  33.224  37.116  1.00  0.00     0.074 A 
ATOM     45  C   UNL A   1      38.520  34.197  37.262  1.00  0.00     0.031 C 
ATOM     46  C   UNL A   1      37.815  30.190  31.680  1.00  0.00     0.029 A 
ATOM     47  C   UNL A   1      39.015  29.935  32.475  1.00  0.00     0.049 A 
ATOM     48  H   UNL A   1      39.490  30.749  34.334  1.00  0.00     0.167 HD
ATOM     49  C   UNL A   1      40.616  33.075  37.978  1.00  0.00     0.034 A 
ATOM     50  C   UNL A   1      40.024  29.106  32.140  1.00  0.00     0.034 A 
ATOM     51  C   UNL A   1      41.674  32.116  37.770  1.00  0.00     0.049 A 
ATOM     52  C   UNL A   1      41.213  29.008  33.063  1.00  0.00     0.074 A 
ATOM     53  C   UNL A   1      42.771  31.851  38.567  1.00  0.00     0.029 A 
ATOM     54  N   UNL A   1      41.773  31.278  36.663  1.00  0.00    -0.354 N 
ATOM     55  N   UNL A   1      41.458  29.672  34.171  1.00  0.00    -0.248 NA
ATOM     56  C   UNL A   1      42.259  28.047  32.696  1.00  0.00     0.031 C 
ATOM     57  C   UNL A   1      43.576  30.919  37.902  1.00  0.00     0.029 A 
ATOM     58  C   UNL A   1      42.934  30.524  36.738  1.00  0.00     0.049 A 
ATOM     59  H   UNL A   1      41.115  31.227  35.933  1.00  0.00     0.167 HD
ATOM     60  C   UNL A   1      42.669  29.182  34.653  1.00  0.00     0.074 A 
ATOM     61  C   UNL A   1      43.105  28.170  33.710  1.00  0.00     0.031 C 
ATOM     62  C   UNL A   1      43.350  29.524  35.778  1.00  0.00     0.034 A 
BRANCH  49  63
ATOM     63  C   UNL A   1      40.679  34.027  39.151  1.00  0.00     0.023 A 
ATOM     64  C   UNL A   1      40.052  33.740  40.377  1.00  0.00     0.031 A 
ATOM     65  C   UNL A   1      41.299  35.281  39.013  1.00  0.00     0.131 A 
ATOM     66  C   UNL A   1      39.967  34.729  41.370  1.00  0.00     0.055 A 
ATOM     67  C   UNL A   1      41.297  36.224  40.044  1.00  0.00     0.041 A 
ATOM     68  F   UNL A   1      41.892  35.629  37.859  1.00  0.00    -0.206 F 
ATOM     69  C   UNL A   1      40.608  35.960  41.222  1.00  0.00     0.022 A 
BRANCH  66  70
ATOM     70  S   UNL A   1      38.838  34.457  42.767  1.00  0.00     0.124 S 
ATOM     71  O   UNL A   1      38.249  33.165  42.425  1.00  0.00    -0.237 OA
ATOM     72  O   UNL A   1      39.746  34.462  43.910  1.00  0.00    -0.237 OA
ATOM     73  O   UNL A   1      37.921  35.592  42.693  1.00  0.00    -0.744 OA
ENDBRANCH  66  70
ENDBRANCH  49  63
BRANCH  50  74
ATOM     74  C   UNL A   1      39.967  28.359  30.854  1.00  0.00     0.023 A 
ATOM     75  C   UNL A   1      40.753  28.738  29.756  1.00  0.00     0.031 A 
ATOM     76  C   UNL A   1      39.132  27.234  30.715  1.00  0.00     0.131 A 
ATOM     77  C   UNL A   1      40.674  28.010  28.559  1.00  0.00     0.055 A 
ATOM     78  C   UNL A   1      39.093  26.485  29.538  1.00  0.00     0.041 A 
ATOM     79  F   UNL A   1      38.362  26.829  31.737  1.00  0.00    -0.206 F 
ATOM     80  C   UNL A   1      39.864  26.877  28.448  1.00  0.00     0.022 A 
BRANCH  77  81
ATOM     81  S   UNL A   1      41.614  28.594  27.122  1.00  0.00     0.124 S 
ATOM     82  O   UNL A   1      40.551  29.095  26.256  1.00  0.00    -0.237 OA
ATOM     83  O   UNL A   1      42.485  29.602  27.715  1.00  0.00    -0.237 OA
ATOM     84  O   UNL A   1      42.292  27.391  26.645  1.00  0.00    -0.744 OA
ENDBRANCH  77  81
ENDBRANCH  50  74
BRANCH  62  85
ATOM     85  C   UNL A   1      44.608  28.748  36.087  1.00  0.00     0.023 A 
ATOM     86  C   UNL A   1      44.591  27.550  36.820  1.00  0.00     0.031 A 
ATOM     87  C   UNL A   1      45.846  29.212  35.605  1.00  0.00     0.131 A 
ATOM     88  C   UNL A   1      45.794  26.877  37.082  1.00  0.00     0.055 A 
ATOM     89  C   UNL A   1      47.030  28.507  35.815  1.00  0.00     0.041 A 
ATOM     90  F   UNL A   1      45.921  30.355  34.902  1.00  0.00    -0.206 F 
ATOM     91  C   UNL A   1      47.009  27.336  36.565  1.00  0.00     0.022 A 
BRANCH  88  92
ATOM     92  S   UNL A   1      45.767  25.428  38.173  1.00  0.00     0.124 S 
ATOM     93  O   UNL A   1      44.900  25.881  39.256  1.00  0.00    -0.237 OA
ATOM     94  O   UNL A   1      45.217  24.392  37.305  1.00  0.00    -0.237 OA
ATOM     95  O   UNL A   1      47.171  25.248  38.538  1.00  0.00    -0.744 OA
ENDBRANCH  88  92
ENDBRANCH  62  85
ENDBRANCH  36  37
ENDBRANCH  29  31
ENDBRANCH  28  29
ENDBRANCH  27  28
ENDBRANCH  26  27
ENDBRANCH  25  26
ENDBRANCH   1  25
TORSDOF 21
ENDMDL
MODEL 2
REMARK VINA RESULT:      -9.7      5.885      9.527
REMARK SMILES O=C(OCCOCCOCCOC(=O)c1ccc(-c2c3nc(c(-c4cc(S(=O)(=O)[O-])ccc4F)c4ccc([nH]4)c(-c4cc(S(=O)(=O)[O-])ccc4F)c4nc(c(-c5cc(S(=O)(=O)[O-])ccc5F)c5ccc2[nH]5)C=C4)C=C3)cc1)C1=Cc2c(ccc(Cl)c2Cl)O[C@H]1C(F)(F)F
REMARK SMILES IDX 8 1 7 2 6 3 5 4 4 5 3 6 2 7 1 8 78 9 79 10 89 11 80 12 88 13
REMARK SMILES IDX 81 14 86 15 82 16 84 17 87 18 83 19 85 20 90 21 91 22 92 23
REMARK SMILES IDX 93 24 9 25 10 26 11 27 12 28 13 29 14 30 15 31 16 32 77 33
REMARK SMILES IDX 17 34 76 35 18 36 19 37 20 38 70 39 21 40 75 41 69 42 71 43
REMARK SMILES IDX 22 44 74 45 68 46 67 47 23 49 55 50 35 51 54 52 36 53 39 54
REMARK SMILES IDX 53 55 72 56 37 57 38 58 52 60 73 61 40 62 24 63 25 64 33 65
REMARK SMILES IDX 26 66 32 67 34 68 31 69 27 70 28 71 29 72 30 73 56 74 57 75
REMARK SMILES IDX 65 76 58 77 64 78 66 79 63 80 59 81 60 82 61 83 62 84 41 85
REMARK SMILES IDX 42 86 50 87 43 88 49 89 51 90 48 91 44 92 45 93 46 94 47 95
REMARK H PARENT 71 48 39 59
REMARK Flexibility Score: inf
ROOT
ATOM      1  C   UNL A   1      33.328  35.837  29.884  1.00  0.00     0.188 C 
ENDROOT
BRANCH   1   2
ATOM      2  C   UNL A   1      32.737  36.318  31.217  1.00  0.00     0.188 C 
BRANCH   2   3
ATOM      3  O   UNL A   1      33.715  36.449  32.233  1.00  0.00    -0.376 OA
BRANCH   3   4
ATOM      4  C   UNL A   1      34.130  35.167  32.698  1.00  0.00     0.202 C 
BRANCH   4   5
ATOM      5  C   UNL A   1      35.661  35.057  32.676  1.00  0.00     0.261 C 
BRANCH   5   6
ATOM      6  O   UNL A   1      36.256  34.819  33.986  1.00  0.00    -0.460 OA
BRANCH   6   7
ATOM      7  C   UNL A   1      36.412  33.684  34.712  1.00  0.00     0.338 C 
ATOM      8  O   UNL A   1      35.909  32.644  34.298  1.00  0.00    -0.246 OA
BRANCH   7   9
ATOM      9  C   UNL A   1      37.267  33.614  35.920  1.00  0.00     0.087 C 
ATOM     10  C   UNL A   1      36.891  32.979  37.022  1.00  0.00     0.029 C 
ATOM     11  C   UNL A   1      38.714  34.074  35.834  1.00  0.00     0.316 C 
ATOM     12  C   UNL A   1      37.557  33.116  38.284  1.00  0.00     0.037 A 
ATOM     13  O   UNL A   1      39.458  34.040  37.115  1.00  0.00    -0.475 OA
ATOM     14  C   UNL A   1      38.869  33.552  38.248  1.00  0.00     0.129 A 
ATOM     15  C   UNL A   1      36.916  32.791  39.499  1.00  0.00     0.070 A 
ATOM     16  C   UNL A   1      39.611  33.508  39.425  1.00  0.00     0.049 A 
ATOM     17  C   UNL A   1      37.667  32.739  40.669  1.00  0.00     0.060 A 
ATOM     18  Cl  UNL A   1      35.191  32.561  39.560  1.00  0.00    -0.082 Cl
ATOM     19  C   UNL A   1      39.021  33.069  40.623  1.00  0.00     0.026 A 
ATOM     20  Cl  UNL A   1      36.987  32.254  42.182  1.00  0.00    -0.083 Cl
BRANCH  11  21
ATOM     21  C   UNL A   1      39.491  33.167  34.838  1.00  0.00     0.430 C 
ATOM     22  F   UNL A   1      39.249  31.853  35.084  1.00  0.00    -0.167 F 
ATOM     23  F   UNL A   1      39.188  33.401  33.547  1.00  0.00    -0.167 F 
ATOM     24  F   UNL A   1      40.831  33.345  34.957  1.00  0.00    -0.167 F 
ENDBRANCH  11  21
ENDBRANCH   7   9
ENDBRANCH   6   7
ENDBRANCH   5   6
ENDBRANCH   4   5
ENDBRANCH   3   4
ENDBRANCH   2   3
ENDBRANCH   1   2
BRANCH   1  25
ATOM     25  O   UNL A   1      32.845  34.609  29.342  1.00  0.00    -0.376 OA
BRANCH  25  26
ATOM     26  C   UNL A   1      33.695  33.852  28.471  1.00  0.00     0.202 C 
BRANCH  26  27
ATOM     27  C   UNL A   1      35.162  33.671  28.861  1.00  0.00     0.261 C 
BRANCH  27  28
ATOM     28  O   UNL A   1      35.541  32.288  28.841  1.00  0.00    -0.460 OA
BRANCH  28  29
ATOM     29  C   UNL A   1      35.782  31.741  30.049  1.00  0.00     0.338 C 
ATOM     30  O   UNL A   1      35.161  31.924  31.091  1.00  0.00    -0.246 OA
BRANCH  29  31
ATOM     31  C   UNL A   1      36.877  30.785  29.928  1.00  0.00     0.060 A 
ATOM     32  C   UNL A   1      36.907  29.662  30.766  1.00  0.00     0.016 A 
ATOM     33  C   UNL A   1      37.943  31.092  29.086  1.00  0.00     0.016 A 
ATOM     34  C   UNL A   1      38.033  28.848  30.789  1.00  0.00     0.010 A 
ATOM     35  C   UNL A   1      39.081  30.296  29.131  1.00  0.00     0.010 A 
ATOM     36  C   UNL A   1      39.141  29.204  30.015  1.00  0.00    -0.014 A 
BRANCH  36  37
ATOM     37  C   UNL A   1      40.464  28.616  30.301  1.00  0.00     0.031 A 
ATOM     38  C   UNL A   1      41.329  29.317  31.307  1.00  0.00     0.074 A 
ATOM     39  C   UNL A   1      40.896  27.546  29.622  1.00  0.00     0.049 A 
ATOM     40  N   UNL A   1      42.596  29.157  31.573  1.00  0.00    -0.248 NA
ATOM     41  C   UNL A   1      40.669  30.365  32.102  1.00  0.00     0.031 C 
ATOM     42  C   UNL A   1      40.101  26.774  28.670  1.00  0.00     0.029 A 
ATOM     43  N   UNL A   1      42.132  26.953  29.602  1.00  0.00    -0.354 N 
ATOM     44  C   UNL A   1      42.896  30.102  32.548  1.00  0.00     0.074 A 
ATOM     45  C   UNL A   1      41.681  30.846  32.803  1.00  0.00     0.031 C 
ATOM     46  C   UNL A   1      40.886  25.835  28.118  1.00  0.00     0.029 A 
ATOM     47  C   UNL A   1      42.244  25.980  28.640  1.00  0.00     0.049 A 
ATOM     48  H   UNL A   1      42.862  27.199  30.215  1.00  0.00     0.167 HD
ATOM     49  C   UNL A   1      44.084  30.328  33.160  1.00  0.00     0.034 A 
ATOM     50  C   UNL A   1      43.338  25.330  28.195  1.00  0.00     0.034 A 
ATOM     51  C   UNL A   1      45.279  29.585  32.842  1.00  0.00     0.049 A 
ATOM     52  C   UNL A   1      44.671  25.648  28.823  1.00  0.00     0.074 A 
ATOM     53  C   UNL A   1      46.541  29.700  33.392  1.00  0.00     0.029 A 
ATOM     54  N   UNL A   1      45.359  28.599  31.864  1.00  0.00    -0.354 N 
ATOM     55  N   UNL A   1      44.960  26.538  29.747  1.00  0.00    -0.248 NA
ATOM     56  C   UNL A   1      45.825  24.871  28.355  1.00  0.00     0.031 C 
ATOM     57  C   UNL A   1      47.401  28.849  32.690  1.00  0.00     0.029 A 
ATOM     58  C   UNL A   1      46.659  28.126  31.768  1.00  0.00     0.049 A 
ATOM     59  H   UNL A   1      44.604  28.282  31.318  1.00  0.00     0.167 HD
ATOM     60  C   UNL A   1      46.324  26.403  29.997  1.00  0.00     0.074 A 
ATOM     61  C   UNL A   1      46.798  25.348  29.122  1.00  0.00     0.031 C 
ATOM     62  C   UNL A   1      47.108  27.076  30.878  1.00  0.00     0.034 A 
BRANCH  49  63
ATOM     63  C   UNL A   1      44.143  31.470  34.149  1.00  0.00     0.023 A 
ATOM     64  C   UNL A   1      43.940  31.271  35.527  1.00  0.00     0.031 A 
ATOM     65  C   UNL A   1      44.317  32.790  33.698  1.00  0.00     0.131 A 
ATOM     66  C   UNL A   1      43.809  32.376  36.383  1.00  0.00     0.055 A 
ATOM     67  C   UNL A   1      44.285  33.879  34.572  1.00  0.00     0.041 A 
ATOM     68  F   UNL A   1      44.488  33.051  32.392  1.00  0.00    -0.206 F 
ATOM     69  C   UNL A   1      44.006  33.678  35.920  1.00  0.00     0.022 A 
BRANCH  66  70
ATOM     70  S   UNL A   1      43.178  32.098  38.064  1.00  0.00     0.124 S 
ATOM     71  O   UNL A   1      42.800  33.451  38.465  1.00  0.00    -0.237 OA
ATOM     72  O   UNL A   1      42.077  31.169  37.837  1.00  0.00    -0.237 OA
ATOM     73  O   UNL A   1      44.328  31.543  38.774  1.00  0.00    -0.744 OA
ENDBRANCH  66  70
ENDBRANCH  49  63
BRANCH  50  74
ATOM     74  C   UNL A   1      43.212  24.366  27.068  1.00  0.00     0.023 A 
ATOM     75  C   UNL A   1      42.602  23.116  27.245  1.00  0.00     0.031 A 
ATOM     76  C   UNL A   1      43.686  24.696  25.784  1.00  0.00     0.131 A 
ATOM     77  C   UNL A   1      42.499  22.231  26.160  1.00  0.00     0.055 A 
ATOM     78  C   UNL A   1      43.538  23.833  24.698  1.00  0.00     0.041 A 
ATOM     79  F   UNL A   1      44.276  25.881  25.562  1.00  0.00    -0.206 F 
ATOM     80  C   UNL A   1      42.946  22.588  24.885  1.00  0.00     0.022 A 
BRANCH  77  81
ATOM     81  S   UNL A   1      41.811  20.578  26.447  1.00  0.00     0.124 S 
ATOM     82  O   UNL A   1      42.424  19.809  25.368  1.00  0.00    -0.237 OA
ATOM     83  O   UNL A   1      42.283  20.280  27.795  1.00  0.00    -0.237 OA
ATOM     84  O   UNL A   1      40.370  20.781  26.326  1.00  0.00    -0.744 OA
ENDBRANCH  77  81
ENDBRANCH  50  74
BRANCH  62  85
ATOM     85  C   UNL A   1      48.551  26.645  30.990  1.00  0.00     0.023 A 
ATOM     86  C   UNL A   1      48.976  25.670  31.907  1.00  0.00     0.031 A 
ATOM     87  C   UNL A   1      49.512  27.207  30.128  1.00  0.00     0.131 A 
ATOM     88  C   UNL A   1      50.332  25.315  31.969  1.00  0.00     0.055 A 
ATOM     89  C   UNL A   1      50.846  26.806  30.152  1.00  0.00     0.041 A 
ATOM     90  F   UNL A   1      49.161  28.146  29.234  1.00  0.00    -0.206 F 
ATOM     91  C   UNL A   1      51.265  25.860  31.082  1.00  0.00     0.022 A 
BRANCH  88  92
ATOM     92  S   UNL A   1      50.883  24.183  33.275  1.00  0.00     0.124 S 
ATOM     93  O   UNL A   1      50.280  24.778  34.465  1.00  0.00    -0.237 OA
ATOM     94  O   UNL A   1      50.320  22.908  32.844  1.00  0.00    -0.237 OA
ATOM     95  O   UNL A   1      52.340  24.269  33.211  1.00  0.00    -0.744 OA
ENDBRANCH  88  92
ENDBRANCH  62  85
ENDBRANCH  36  37
ENDBRANCH  29  31
ENDBRANCH  28  29
ENDBRANCH  27  28
ENDBRANCH  26  27
ENDBRANCH  25  26
ENDBRANCH   1  25
TORSDOF 21
ENDMDL
MODEL 3
REMARK VINA RESULT:      -9.3      4.346      6.688
REMARK SMILES O=C(OCCOCCOCCOC(=O)c1ccc(-c2c3nc(c(-c4cc(S(=O)(=O)[O-])ccc4F)c4ccc([nH]4)c(-c4cc(S(=O)(=O)[O-])ccc4F)c4nc(c(-c5cc(S(=O)(=O)[O-])ccc5F)c5ccc2[nH]5)C=C4)C=C3)cc1)C1=Cc2c(ccc(Cl)c2Cl)O[C@H]1C(F)(F)F
REMARK SMILES IDX 8 1 7 2 6 3 5 4 4 5 3 6 2 7 1 8 78 9 79 10 89 11 80 12 88 13
REMARK SMILES IDX 81 14 86 15 82 16 84 17 87 18 83 19 85 20 90 21 91 22 92 23
REMARK SMILES IDX 93 24 9 25 10 26 11 27 12 28 13 29 14 30 15 31 16 32 77 33
REMARK SMILES IDX 17 34 76 35 18 36 19 37 20 38 70 39 21 40 75 41 69 42 71 43
REMARK SMILES IDX 22 44 74 45 68 46 67 47 23 49 55 50 35 51 54 52 36 53 39 54
REMARK SMILES IDX 53 55 72 56 37 57 38 58 52 60 73 61 40 62 24 63 25 64 33 65
REMARK SMILES IDX 26 66 32 67 34 68 31 69 27 70 28 71 29 72 30 73 56 74 57 75
REMARK SMILES IDX 65 76 58 77 64 78 66 79 63 80 59 81 60 82 61 83 62 84 41 85
REMARK SMILES IDX 42 86 50 87 43 88 49 89 51 90 48 91 44 92 45 93 46 94 47 95
REMARK H PARENT 71 48 39 59
REMARK Flexibility Score: inf
ROOT
ATOM      1  C   UNL A   1      35.413  33.768  29.969  1.00  0.00     0.188 C 
ENDROOT
BRANCH   1   2
ATOM      2  C   UNL A   1      34.605  33.776  28.664  1.00  0.00     0.188 C 
BRANCH   2   3
ATOM      3  O   UNL A   1      34.887  32.658  27.841  1.00  0.00    -0.376 OA
BRANCH   3   4
ATOM      4  C   UNL A   1      34.330  31.470  28.400  1.00  0.00     0.202 C 
BRANCH   4   5
ATOM      5  C   UNL A   1      34.151  30.399  27.316  1.00  0.00     0.261 C 
BRANCH   5   6
ATOM      6  O   UNL A   1      32.802  29.850  27.243  1.00  0.00    -0.460 OA
BRANCH   6   7
ATOM      7  C   UNL A   1      32.353  28.576  27.125  1.00  0.00     0.338 C 
ATOM      8  O   UNL A   1      31.625  28.123  28.002  1.00  0.00    -0.246 OA
BRANCH   7   9
ATOM      9  C   UNL A   1      32.600  27.744  25.923  1.00  0.00     0.087 C 
ATOM     10  C   UNL A   1      32.577  26.419  25.958  1.00  0.00     0.029 C 
ATOM     11  C   UNL A   1      32.651  28.410  24.557  1.00  0.00     0.316 C 
ATOM     12  C   UNL A   1      33.071  25.588  24.900  1.00  0.00     0.037 A 
ATOM     13  O   UNL A   1      32.985  27.504  23.432  1.00  0.00    -0.475 OA
ATOM     14  C   UNL A   1      33.151  26.165  23.645  1.00  0.00     0.129 A 
ATOM     15  C   UNL A   1      33.427  24.240  25.121  1.00  0.00     0.070 A 
ATOM     16  C   UNL A   1      33.434  25.342  22.559  1.00  0.00     0.049 A 
ATOM     17  C   UNL A   1      33.698  23.422  24.029  1.00  0.00     0.060 A 
ATOM     18  Cl  UNL A   1      33.631  23.628  26.738  1.00  0.00    -0.082 Cl
ATOM     19  C   UNL A   1      33.671  23.970  22.747  1.00  0.00     0.026 A 
ATOM     20  Cl  UNL A   1      34.044  21.737  24.199  1.00  0.00    -0.083 Cl
BRANCH  11  21
ATOM     21  C   UNL A   1      31.267  29.040  24.232  1.00  0.00     0.430 C 
ATOM     22  F   UNL A   1      30.258  28.186  24.542  1.00  0.00    -0.167 F 
ATOM     23  F   UNL A   1      31.034  30.196  24.883  1.00  0.00    -0.167 F 
ATOM     24  F   UNL A   1      31.153  29.314  22.908  1.00  0.00    -0.167 F 
ENDBRANCH  11  21
ENDBRANCH   7   9
ENDBRANCH   6   7
ENDBRANCH   5   6
ENDBRANCH   4   5
ENDBRANCH   3   4
ENDBRANCH   2   3
ENDBRANCH   1   2
BRANCH   1  25
ATOM     25  O   UNL A   1      34.713  33.516  31.187  1.00  0.00    -0.376 OA
BRANCH  25  26
ATOM     26  C   UNL A   1      34.897  32.257  31.846  1.00  0.00     0.202 C 
BRANCH  26  27
ATOM     27  C   UNL A   1      36.246  31.970  32.506  1.00  0.00     0.261 C 
BRANCH  27  28
ATOM     28  O   UNL A   1      36.742  30.674  32.139  1.00  0.00    -0.460 OA
BRANCH  28  29
ATOM     29  C   UNL A   1      37.774  30.678  31.273  1.00  0.00     0.338 C 
ATOM     30  O   UNL A   1      37.820  31.204  30.166  1.00  0.00    -0.246 OA
BRANCH  29  31
ATOM     31  C   UNL A   1      38.919  30.020  31.893  1.00  0.00     0.060 A 
ATOM     32  C   UNL A   1      40.118  30.727  32.047  1.00  0.00     0.016 A 
ATOM     33  C   UNL A   1      38.834  28.660  32.181  1.00  0.00     0.016 A 
ATOM     34  C   UNL A   1      41.264  30.059  32.464  1.00  0.00     0.010 A 
ATOM     35  C   UNL A   1      39.985  27.986  32.567  1.00  0.00     0.010 A 
ATOM     36  C   UNL A   1      41.206  28.676  32.664  1.00  0.00    -0.014 A 
BRANCH  36  37
ATOM     37  C   UNL A   1      42.449  27.883  32.714  1.00  0.00     0.031 A 
ATOM     38  C   UNL A   1      43.052  27.625  34.063  1.00  0.00     0.074 A 
ATOM     39  C   UNL A   1      43.050  27.485  31.585  1.00  0.00     0.049 A 
ATOM     40  N   UNL A   1      44.233  27.168  34.376  1.00  0.00    -0.248 NA
ATOM     41  C   UNL A   1      42.203  27.958  35.219  1.00  0.00     0.031 C 
ATOM     42  C   UNL A   1      42.506  27.646  30.238  1.00  0.00     0.029 A 
ATOM     43  N   UNL A   1      44.275  26.901  31.395  1.00  0.00    -0.354 N 
ATOM     44  C   UNL A   1      44.284  27.184  35.766  1.00  0.00     0.074 A 
ATOM     45  C   UNL A   1      43.023  27.720  36.229  1.00  0.00     0.031 C 
ATOM     46  C   UNL A   1      43.419  27.216  29.352  1.00  0.00     0.029 A 
ATOM     47  C   UNL A   1      44.624  26.804  30.071  1.00  0.00     0.049 A 
ATOM     48  H   UNL A   1      44.845  26.584  32.133  1.00  0.00     0.167 HD
ATOM     49  C   UNL A   1      45.301  26.794  36.571  1.00  0.00     0.034 A 
ATOM     50  C   UNL A   1      45.806  26.477  29.513  1.00  0.00     0.034 A 
ATOM     51  C   UNL A   1      46.557  26.301  36.061  1.00  0.00     0.049 A 
ATOM     52  C   UNL A   1      46.960  26.126  30.419  1.00  0.00     0.074 A 
ATOM     53  C   UNL A   1      47.663  25.861  36.762  1.00  0.00     0.029 A 
ATOM     54  N   UNL A   1      46.878  26.209  34.710  1.00  0.00    -0.354 N 
ATOM     55  N   UNL A   1      47.013  26.136  31.732  1.00  0.00    -0.248 NA
ATOM     56  C   UNL A   1      48.209  25.713  29.770  1.00  0.00     0.031 C 
ATOM     57  C   UNL A   1      48.680  25.586  35.841  1.00  0.00     0.029 A 
ATOM     58  C   UNL A   1      48.180  25.756  34.559  1.00  0.00     0.049 A 
ATOM     59  H   UNL A   1      46.271  26.432  33.969  1.00  0.00     0.167 HD
ATOM     60  C   UNL A   1      48.291  25.696  32.068  1.00  0.00     0.074 A 
ATOM     61  C   UNL A   1      48.975  25.434  30.817  1.00  0.00     0.031 C 
ATOM     62  C   UNL A   1      48.843  25.510  33.295  1.00  0.00     0.034 A 
BRANCH  49  63
ATOM     63  C   UNL A   1      45.109  26.976  38.060  1.00  0.00     0.023 A 
ATOM     64  C   UNL A   1      45.506  28.151  38.724  1.00  0.00     0.031 A 
ATOM     65  C   UNL A   1      44.604  25.923  38.844  1.00  0.00     0.131 A 
ATOM     66  C   UNL A   1      45.493  28.204  40.126  1.00  0.00     0.055 A 
ATOM     67  C   UNL A   1      44.499  26.020  40.233  1.00  0.00     0.041 A 
ATOM     68  F   UNL A   1      44.232  24.764  38.276  1.00  0.00    -0.206 F 
ATOM     69  C   UNL A   1      44.967  27.157  40.884  1.00  0.00     0.022 A 
BRANCH  66  70
ATOM     70  S   UNL A   1      46.356  29.574  40.949  1.00  0.00     0.124 S 
ATOM     71  O   UNL A   1      47.036  28.882  42.040  1.00  0.00    -0.237 OA
ATOM     72  O   UNL A   1      47.213  30.088  39.886  1.00  0.00    -0.237 OA
ATOM     73  O   UNL A   1      45.273  30.463  41.363  1.00  0.00    -0.744 OA
ENDBRANCH  66  70
ENDBRANCH  49  63
BRANCH  50  74
ATOM     74  C   UNL A   1      45.959  26.526  28.033  1.00  0.00     0.023 A 
ATOM     75  C   UNL A   1      45.876  25.362  27.254  1.00  0.00     0.031 A 
ATOM     76  C   UNL A   1      46.170  27.751  27.373  1.00  0.00     0.131 A 
ATOM     77  C   UNL A   1      46.023  25.445  25.861  1.00  0.00     0.055 A 
ATOM     78  C   UNL A   1      46.268  27.834  25.983  1.00  0.00     0.041 A 
ATOM     79  F   UNL A   1      46.256  28.894  28.072  1.00  0.00    -0.206 F 
ATOM     80  C   UNL A   1      46.201  26.673  25.219  1.00  0.00     0.022 A 
BRANCH  77  81
ATOM     81  S   UNL A   1      46.028  23.910  24.894  1.00  0.00     0.124 S 
ATOM     82  O   UNL A   1      44.646  23.849  24.427  1.00  0.00    -0.237 OA
ATOM     83  O   UNL A   1      47.036  24.192  23.877  1.00  0.00    -0.237 OA
ATOM     84  O   UNL A   1      46.402  22.891  25.872  1.00  0.00    -0.744 OA
ENDBRANCH  77  81
ENDBRANCH  50  74
BRANCH  62  85
ATOM     85  C   UNL A   1      50.237  24.932  33.347  1.00  0.00     0.023 A 
ATOM     86  C   UNL A   1      50.481  23.550  33.291  1.00  0.00     0.031 A 
ATOM     87  C   UNL A   1      51.345  25.798  33.420  1.00  0.00     0.131 A 
ATOM     88  C   UNL A   1      51.799  23.072  33.350  1.00  0.00     0.055 A 
ATOM     89  C   UNL A   1      52.654  25.320  33.415  1.00  0.00     0.041 A 
ATOM     90  F   UNL A   1      51.169  27.128  33.480  1.00  0.00    -0.206 F 
ATOM     91  C   UNL A   1      52.887  23.949  33.389  1.00  0.00     0.022 A 
BRANCH  88  92
ATOM     92  S   UNL A   1      52.078  21.283  33.450  1.00  0.00     0.124 S 
ATOM     93  O   UNL A   1      50.736  20.783  33.735  1.00  0.00    -0.237 OA
ATOM     94  O   UNL A   1      52.607  20.973  32.126  1.00  0.00    -0.237 OA
ATOM     95  O   UNL A   1      53.036  21.146  34.546  1.00  0.00    -0.744 OA
ENDBRANCH  88  92
ENDBRANCH  62  85
ENDBRANCH  36  37
ENDBRANCH  29  31
ENDBRANCH  28  29
ENDBRANCH  27  28
ENDBRANCH  26  27
ENDBRANCH  25  26
ENDBRANCH   1  25
TORSDOF 21
ENDMDL
