MODEL 1
REMARK VINA RESULT:      -9.4      0.000      0.000
REMARK SMILES C[C@@H](C(=O)OCCOCCOCCOC(=O)c1ccc(-c2c3nc(c(-c4cc(S(=O)(=O)[O-])ccc4F)c4ccc([nH]4)c(-c4cc(S(=O)(=O)[O-])ccc4F)c4nc(c(-c5cc(S(=O)(=O)[O-])ccc5F)c5ccc2[nH]5)C=C4)C=C3)cc1)c1ccc(-c2cccc(OC(=O)NC3CC3)c2)c(F)c1
REMARK SMILES IDX 9 1 8 2 7 3 6 4 5 5 3 6 4 7 2 8 1 9 80 10 81 11 99 12 82 13
REMARK SMILES IDX 97 14 83 15 98 16 84 17 85 18 96 19 86 20 88 21 87 22 89 23
REMARK SMILES IDX 90 24 91 25 92 26 93 28 94 29 95 30 10 31 11 32 12 33 13 34
REMARK SMILES IDX 14 35 15 36 16 37 17 38 18 39 79 40 19 41 78 42 20 43 21 44
REMARK SMILES IDX 22 45 72 46 23 47 77 48 71 49 73 50 24 51 76 52 70 53 69 54
REMARK SMILES IDX 25 56 57 57 37 58 56 59 38 60 41 61 55 62 74 63 39 64 40 65
REMARK SMILES IDX 54 67 75 68 42 69 26 70 27 71 35 72 28 73 34 74 36 75 33 76
REMARK SMILES IDX 29 77 30 78 31 79 32 80 58 81 59 82 67 83 60 84 66 85 68 86
REMARK SMILES IDX 65 87 61 88 62 89 63 90 64 91 43 92 44 93 52 94 45 95 51 96
REMARK SMILES IDX 53 97 50 98 46 99 47 100 48 101 49 102
REMARK H PARENT 92 27 73 55 41 66
REMARK Flexibility Score: inf
ROOT
ATOM      1  C   UNL A   1      39.152  27.523  28.732  1.00  0.00     0.188 C 
ENDROOT
BRANCH   1   2
ATOM      2  O   UNL A   1      39.648  26.671  27.708  1.00  0.00    -0.376 OA
BRANCH   2   3
ATOM      3  C   UNL A   1      39.357  25.283  27.777  1.00  0.00     0.202 C 
BRANCH   3   4
ATOM      4  C   UNL A   1      39.553  24.402  26.530  1.00  0.00     0.261 C 
BRANCH   4   5
ATOM      5  O   UNL A   1      38.454  23.536  26.175  1.00  0.00    -0.463 OA
BRANCH   5   6
ATOM      6  C   UNL A   1      38.739  22.208  26.065  1.00  0.00     0.313 C 
ATOM      7  O   UNL A   1      39.861  21.740  26.240  1.00  0.00    -0.252 OA
BRANCH   6   8
ATOM      8  C   UNL A   1      37.542  21.326  25.666  1.00  0.00     0.126 C 
ATOM      9  C   UNL A   1      37.786  20.178  24.680  1.00  0.00     0.025 C 
BRANCH   8  10
ATOM     10  C   UNL A   1      36.350  22.173  25.239  1.00  0.00    -0.031 A 
ATOM     11  C   UNL A   1      36.233  22.652  23.927  1.00  0.00     0.005 A 
ATOM     12  C   UNL A   1      35.320  22.473  26.135  1.00  0.00     0.044 A 
ATOM     13  C   UNL A   1      35.112  23.398  23.528  1.00  0.00     0.012 A 
ATOM     14  C   UNL A   1      34.204  23.192  25.723  1.00  0.00     0.131 A 
ATOM     15  C   UNL A   1      34.072  23.682  24.424  1.00  0.00     0.018 A 
ATOM     16  F   UNL A   1      33.241  23.405  26.627  1.00  0.00    -0.206 F 
BRANCH  15  17
ATOM     17  C   UNL A   1      32.913  24.499  24.041  1.00  0.00    -0.012 A 
ATOM     18  C   UNL A   1      31.713  23.916  23.604  1.00  0.00     0.009 A 
ATOM     19  C   UNL A   1      32.992  25.902  24.106  1.00  0.00     0.056 A 
ATOM     20  C   UNL A   1      30.623  24.712  23.244  1.00  0.00     0.004 A 
ATOM     21  C   UNL A   1      31.901  26.691  23.756  1.00  0.00     0.133 A 
ATOM     22  C   UNL A   1      30.713  26.101  23.327  1.00  0.00     0.047 A 
BRANCH  21  23
ATOM     23  O   UNL A   1      31.914  28.107  23.750  1.00  0.00    -0.410 OA
BRANCH  23  24
ATOM     24  C   UNL A   1      33.038  28.922  23.637  1.00  0.00     0.412 C 
ATOM     25  O   UNL A   1      33.732  29.061  22.635  1.00  0.00    -0.224 OA
ATOM     26  N   UNL A   1      33.323  29.620  24.785  1.00  0.00    -0.318 N 
ATOM     27  H   UNL A   1      34.124  30.190  24.747  1.00  0.00     0.167 HD
BRANCH  26  28
ATOM     28  C   UNL A   1      32.619  29.629  26.025  1.00  0.00     0.085 C 
ATOM     29  C   UNL A   1      32.942  30.477  27.224  1.00  0.00     0.027 C 
ATOM     30  C   UNL A   1      31.779  30.835  26.353  1.00  0.00     0.027 C 
ENDBRANCH  26  28
ENDBRANCH  23  24
ENDBRANCH  21  23
ENDBRANCH  15  17
ENDBRANCH   8  10
ENDBRANCH   6   8
ENDBRANCH   5   6
ENDBRANCH   4   5
ENDBRANCH   3   4
ENDBRANCH   2   3
ENDBRANCH   1   2
BRANCH   1  31
ATOM     31  C   UNL A   1      39.288  29.049  28.561  1.00  0.00     0.188 C 
BRANCH  31  32
ATOM     32  O   UNL A   1      38.267  29.630  27.771  1.00  0.00    -0.376 OA
BRANCH  32  33
ATOM     33  C   UNL A   1      37.535  30.686  28.368  1.00  0.00     0.202 C 
BRANCH  33  34
ATOM     34  C   UNL A   1      36.833  30.358  29.693  1.00  0.00     0.261 C 
BRANCH  34  35
ATOM     35  O   UNL A   1      37.276  31.093  30.848  1.00  0.00    -0.460 OA
BRANCH  35  36
ATOM     36  C   UNL A   1      37.252  30.461  32.046  1.00  0.00     0.338 C 
ATOM     37  O   UNL A   1      36.274  30.302  32.755  1.00  0.00    -0.246 OA
BRANCH  36  38
ATOM     38  C   UNL A   1      38.575  29.814  32.248  1.00  0.00     0.060 A 
ATOM     39  C   UNL A   1      39.709  30.617  32.414  1.00  0.00     0.016 A 
ATOM     40  C   UNL A   1      38.694  28.421  32.299  1.00  0.00     0.016 A 
ATOM     41  C   UNL A   1      40.962  30.025  32.618  1.00  0.00     0.010 A 
ATOM     42  C   UNL A   1      39.951  27.832  32.493  1.00  0.00     0.010 A 
ATOM     43  C   UNL A   1      41.098  28.628  32.647  1.00  0.00    -0.014 A 
BRANCH  43  44
ATOM     44  C   UNL A   1      42.452  28.006  32.648  1.00  0.00     0.031 A 
ATOM     45  C   UNL A   1      43.110  27.739  33.973  1.00  0.00     0.074 A 
ATOM     46  C   UNL A   1      43.101  27.692  31.509  1.00  0.00     0.049 A 
ATOM     47  N   UNL A   1      44.297  27.255  34.238  1.00  0.00    -0.248 NA
ATOM     48  C   UNL A   1      42.322  28.091  35.164  1.00  0.00     0.031 C 
ATOM     49  C   UNL A   1      42.571  27.871  30.162  1.00  0.00     0.029 A 
ATOM     50  N   UNL A   1      44.349  27.149  31.308  1.00  0.00    -0.354 N 
ATOM     51  C   UNL A   1      44.397  27.241  35.624  1.00  0.00     0.074 A 
ATOM     52  C   UNL A   1      43.162  27.793  36.141  1.00  0.00     0.031 C 
ATOM     53  C   UNL A   1      43.478  27.428  29.273  1.00  0.00     0.029 A 
ATOM     54  C   UNL A   1      44.677  26.981  29.981  1.00  0.00     0.049 A 
ATOM     55  H   UNL A   1      44.953  26.903  32.045  1.00  0.00     0.167 HD
ATOM     56  C   UNL A   1      45.425  26.814  36.398  1.00  0.00     0.034 A 
ATOM     57  C   UNL A   1      45.815  26.535  29.406  1.00  0.00     0.034 A 
ATOM     58  C   UNL A   1      46.672  26.311  35.878  1.00  0.00     0.049 A 
ATOM     59  C   UNL A   1      46.974  26.124  30.291  1.00  0.00     0.074 A 
ATOM     60  C   UNL A   1      47.778  25.862  36.577  1.00  0.00     0.029 A 
ATOM     61  N   UNL A   1      46.984  26.203  34.529  1.00  0.00    -0.354 N 
ATOM     62  N   UNL A   1      47.050  26.095  31.603  1.00  0.00    -0.248 NA
ATOM     63  C   UNL A   1      48.205  25.686  29.615  1.00  0.00     0.031 C 
ATOM     64  C   UNL A   1      48.779  25.540  35.656  1.00  0.00     0.029 A 
ATOM     65  C   UNL A   1      48.272  25.708  34.378  1.00  0.00     0.049 A 
ATOM     66  H   UNL A   1      46.382  26.442  33.788  1.00  0.00     0.167 HD
ATOM     67  C   UNL A   1      48.325  25.618  31.901  1.00  0.00     0.074 A 
ATOM     68  C   UNL A   1      48.972  25.340  30.638  1.00  0.00     0.031 C 
ATOM     69  C   UNL A   1      48.911  25.433  33.112  1.00  0.00     0.034 A 
BRANCH  56  70
ATOM     70  C   UNL A   1      45.251  26.939  37.891  1.00  0.00     0.023 A 
ATOM     71  C   UNL A   1      45.667  28.088  38.586  1.00  0.00     0.031 A 
ATOM     72  C   UNL A   1      44.713  25.876  38.636  1.00  0.00     0.131 A 
ATOM     73  C   UNL A   1      45.615  28.113  39.987  1.00  0.00     0.055 A 
ATOM     74  C   UNL A   1      44.586  25.941  40.024  1.00  0.00     0.041 A 
ATOM     75  F   UNL A   1      44.320  24.745  38.029  1.00  0.00    -0.206 F 
ATOM     76  C   UNL A   1      45.055  27.059  40.710  1.00  0.00     0.022 A 
BRANCH  73  77
ATOM     77  S   UNL A   1      46.431  29.481  40.856  1.00  0.00     0.124 S 
ATOM     78  O   UNL A   1      46.076  30.619  40.012  1.00  0.00    -0.237 OA
ATOM     79  O   UNL A   1      45.800  29.440  42.170  1.00  0.00    -0.237 OA
ATOM     80  O   UNL A   1      47.844  29.110  40.828  1.00  0.00    -0.744 OA
ENDBRANCH  73  77
ENDBRANCH  56  70
BRANCH  57  81
ATOM     81  C   UNL A   1      45.958  26.483  27.917  1.00  0.00     0.023 A 
ATOM     82  C   UNL A   1      45.753  25.287  27.208  1.00  0.00     0.031 A 
ATOM     83  C   UNL A   1      46.372  27.610  27.184  1.00  0.00     0.131 A 
ATOM     84  C   UNL A   1      45.992  25.234  25.825  1.00  0.00     0.055 A 
ATOM     85  C   UNL A   1      46.560  27.565  25.800  1.00  0.00     0.041 A 
ATOM     86  F   UNL A   1      46.607  28.776  27.805  1.00  0.00    -0.206 F 
ATOM     87  C   UNL A   1      46.380  26.369  25.114  1.00  0.00     0.022 A 
BRANCH  84  88
ATOM     88  S   UNL A   1      45.856  23.634  24.984  1.00  0.00     0.124 S 
ATOM     89  O   UNL A   1      44.440  23.598  24.638  1.00  0.00    -0.237 OA
ATOM     90  O   UNL A   1      46.783  23.803  23.869  1.00  0.00    -0.237 OA
ATOM     91  O   UNL A   1      46.276  22.674  26.002  1.00  0.00    -0.744 OA
ENDBRANCH  84  88
ENDBRANCH  57  81
BRANCH  69  92
ATOM     92  C   UNL A   1      50.309  24.858  33.129  1.00  0.00     0.023 A 
ATOM     93  C   UNL A   1      50.547  23.475  33.036  1.00  0.00     0.031 A 
ATOM     94  C   UNL A   1      51.422  25.713  33.234  1.00  0.00     0.131 A 
ATOM     95  C   UNL A   1      51.861  22.985  33.102  1.00  0.00     0.055 A 
ATOM     96  C   UNL A   1      52.730  25.224  33.236  1.00  0.00     0.041 A 
ATOM     97  F   UNL A   1      51.257  27.043  33.328  1.00  0.00    -0.206 F 
ATOM     98  C   UNL A   1      52.954  23.851  33.183  1.00  0.00     0.022 A 
BRANCH  95  99
ATOM     99  S   UNL A   1      52.124  21.190  33.170  1.00  0.00     0.124 S 
ATOM    100  O   UNL A   1      50.788  20.677  32.886  1.00  0.00    -0.237 OA
ATOM    101  O   UNL A   1      53.123  20.980  32.128  1.00  0.00    -0.237 OA
ATOM    102  O   UNL A   1      52.598  20.965  34.535  1.00  0.00    -0.744 OA
ENDBRANCH  95  99
ENDBRANCH  69  92
ENDBRANCH  43  44
ENDBRANCH  36  38
ENDBRANCH  35  36
ENDBRANCH  34  35
ENDBRANCH  33  34
ENDBRANCH  32  33
ENDBRANCH  31  32
ENDBRANCH   1  31
TORSDOF 25
ENDMDL
MODEL 2
REMARK VINA RESULT:      -9.4      4.049      9.776
REMARK SMILES C[C@@H](C(=O)OCCOCCOCCOC(=O)c1ccc(-c2c3nc(c(-c4cc(S(=O)(=O)[O-])ccc4F)c4ccc([nH]4)c(-c4cc(S(=O)(=O)[O-])ccc4F)c4nc(c(-c5cc(S(=O)(=O)[O-])ccc5F)c5ccc2[nH]5)C=C4)C=C3)cc1)c1ccc(-c2cccc(OC(=O)NC3CC3)c2)c(F)c1
REMARK SMILES IDX 9 1 8 2 7 3 6 4 5 5 3 6 4 7 2 8 1 9 80 10 81 11 99 12 82 13
REMARK SMILES IDX 97 14 83 15 98 16 84 17 85 18 96 19 86 20 88 21 87 22 89 23
REMARK SMILES IDX 90 24 91 25 92 26 93 28 94 29 95 30 10 31 11 32 12 33 13 34
REMARK SMILES IDX 14 35 15 36 16 37 17 38 18 39 79 40 19 41 78 42 20 43 21 44
REMARK SMILES IDX 22 45 72 46 23 47 77 48 71 49 73 50 24 51 76 52 70 53 69 54
REMARK SMILES IDX 25 56 57 57 37 58 56 59 38 60 41 61 55 62 74 63 39 64 40 65
REMARK SMILES IDX 54 67 75 68 42 69 26 70 27 71 35 72 28 73 34 74 36 75 33 76
REMARK SMILES IDX 29 77 30 78 31 79 32 80 58 81 59 82 67 83 60 84 66 85 68 86
REMARK SMILES IDX 65 87 61 88 62 89 63 90 64 91 43 92 44 93 52 94 45 95 51 96
REMARK SMILES IDX 53 97 50 98 46 99 47 100 48 101 49 102
REMARK H PARENT 92 27 73 55 41 66
REMARK Flexibility Score: inf
ROOT
ATOM      1  C   UNL A   1      39.347  22.193  26.295  1.00  0.00     0.188 C 
ENDROOT
BRANCH   1   2
ATOM      2  O   UNL A   1      38.628  21.330  25.424  1.00  0.00    -0.376 OA
BRANCH   2   3
ATOM      3  C   UNL A   1      37.214  21.439  25.371  1.00  0.00     0.202 C 
BRANCH   3   4
ATOM      4  C   UNL A   1      36.369  20.204  25.008  1.00  0.00     0.261 C 
BRANCH   4   5
ATOM      5  O   UNL A   1      34.935  20.364  25.076  1.00  0.00    -0.463 OA
BRANCH   5   6
ATOM      6  C   UNL A   1      34.187  19.332  24.593  1.00  0.00     0.313 C 
ATOM      7  O   UNL A   1      34.605  18.182  24.493  1.00  0.00    -0.252 OA
BRANCH   6   8
ATOM      8  C   UNL A   1      32.769  19.725  24.141  1.00  0.00     0.126 C 
ATOM      9  C   UNL A   1      32.255  19.171  22.808  1.00  0.00     0.025 C 
BRANCH   8  10
ATOM     10  C   UNL A   1      32.559  21.232  24.227  1.00  0.00    -0.031 A 
ATOM     11  C   UNL A   1      32.035  21.826  25.384  1.00  0.00     0.005 A 
ATOM     12  C   UNL A   1      32.908  22.071  23.166  1.00  0.00     0.044 A 
ATOM     13  C   UNL A   1      31.881  23.220  25.472  1.00  0.00     0.012 A 
ATOM     14  C   UNL A   1      32.774  23.450  23.273  1.00  0.00     0.131 A 
ATOM     15  C   UNL A   1      32.251  24.060  24.413  1.00  0.00     0.018 A 
ATOM     16  F   UNL A   1      33.168  24.190  22.231  1.00  0.00    -0.206 F 
BRANCH  15  17
ATOM     17  C   UNL A   1      32.055  25.515  24.466  1.00  0.00    -0.012 A 
ATOM     18  C   UNL A   1      31.018  26.144  23.759  1.00  0.00     0.009 A 
ATOM     19  C   UNL A   1      32.920  26.312  25.238  1.00  0.00     0.056 A 
ATOM     20  C   UNL A   1      30.850  27.530  23.822  1.00  0.00     0.004 A 
ATOM     21  C   UNL A   1      32.742  27.690  25.307  1.00  0.00     0.133 A 
ATOM     22  C   UNL A   1      31.708  28.304  24.603  1.00  0.00     0.047 A 
BRANCH  21  23
ATOM     23  O   UNL A   1      33.595  28.565  26.022  1.00  0.00    -0.410 OA
BRANCH  23  24
ATOM     24  C   UNL A   1      33.235  29.369  27.102  1.00  0.00     0.412 C 
ATOM     25  O   UNL A   1      32.098  29.730  27.388  1.00  0.00    -0.224 OA
ATOM     26  N   UNL A   1      34.301  29.736  27.887  1.00  0.00    -0.318 N 
ATOM     27  H   UNL A   1      34.086  30.321  28.648  1.00  0.00     0.167 HD
BRANCH  26  28
ATOM     28  C   UNL A   1      35.676  29.385  27.750  1.00  0.00     0.085 C 
ATOM     29  C   UNL A   1      36.843  30.333  27.788  1.00  0.00     0.027 C 
ATOM     30  C   UNL A   1      36.553  29.466  28.973  1.00  0.00     0.027 C 
ENDBRANCH  26  28
ENDBRANCH  23  24
ENDBRANCH  21  23
ENDBRANCH  15  17
ENDBRANCH   8  10
ENDBRANCH   6   8
ENDBRANCH   5   6
ENDBRANCH   4   5
ENDBRANCH   3   4
ENDBRANCH   2   3
ENDBRANCH   1   2
BRANCH   1  31
ATOM     31  C   UNL A   1      40.766  21.789  26.740  1.00  0.00     0.188 C 
BRANCH  31  32
ATOM     32  O   UNL A   1      41.532  21.174  25.721  1.00  0.00    -0.376 OA
BRANCH  32  33
ATOM     33  C   UNL A   1      42.927  21.421  25.749  1.00  0.00     0.202 C 
BRANCH  33  34
ATOM     34  C   UNL A   1      43.416  22.420  26.807  1.00  0.00     0.261 C 
BRANCH  34  35
ATOM     35  O   UNL A   1      43.978  23.649  26.312  1.00  0.00    -0.460 OA
BRANCH  35  36
ATOM     36  C   UNL A   1      43.120  24.631  25.945  1.00  0.00     0.338 C 
ATOM     37  O   UNL A   1      42.494  24.686  24.902  1.00  0.00    -0.246 OA
BRANCH  36  38
ATOM     38  C   UNL A   1      42.915  25.521  27.119  1.00  0.00     0.060 A 
ATOM     39  C   UNL A   1      43.814  26.569  27.347  1.00  0.00     0.016 A 
ATOM     40  C   UNL A   1      41.826  25.339  27.978  1.00  0.00     0.016 A 
ATOM     41  C   UNL A   1      43.630  27.425  28.440  1.00  0.00     0.010 A 
ATOM     42  C   UNL A   1      41.650  26.191  29.076  1.00  0.00     0.010 A 
ATOM     43  C   UNL A   1      42.554  27.238  29.323  1.00  0.00    -0.014 A 
BRANCH  43  44
ATOM     44  C   UNL A   1      42.486  28.009  30.594  1.00  0.00     0.031 A 
ATOM     45  C   UNL A   1      41.533  29.170  30.670  1.00  0.00     0.074 A 
ATOM     46  C   UNL A   1      43.252  27.709  31.662  1.00  0.00     0.049 A 
ATOM     47  N   UNL A   1      41.324  30.023  31.641  1.00  0.00    -0.248 NA
ATOM     48  C   UNL A   1      40.719  29.412  29.469  1.00  0.00     0.031 C 
ATOM     49  C   UNL A   1      44.195  26.598  31.735  1.00  0.00     0.029 A 
ATOM     50  N   UNL A   1      43.352  28.314  32.894  1.00  0.00    -0.354 N 
ATOM     51  C   UNL A   1      40.355  30.900  31.170  1.00  0.00     0.074 A 
ATOM     52  C   UNL A   1      40.040  30.493  29.817  1.00  0.00     0.031 C 
ATOM     53  C   UNL A   1      44.764  26.588  32.954  1.00  0.00     0.029 A 
ATOM     54  C   UNL A   1      44.268  27.720  33.734  1.00  0.00     0.049 A 
ATOM     55  H   UNL A   1      42.818  29.100  33.151  1.00  0.00     0.167 HD
ATOM     56  C   UNL A   1      39.782  31.953  31.803  1.00  0.00     0.034 A 
ATOM     57  C   UNL A   1      44.669  28.061  34.978  1.00  0.00     0.034 A 
ATOM     58  C   UNL A   1      40.134  32.385  33.133  1.00  0.00     0.049 A 
ATOM     59  C   UNL A   1      44.061  29.280  35.639  1.00  0.00     0.074 A 
ATOM     60  C   UNL A   1      39.619  33.444  33.860  1.00  0.00     0.029 A 
ATOM     61  N   UNL A   1      41.101  31.788  33.932  1.00  0.00    -0.354 N 
ATOM     62  N   UNL A   1      43.128  30.091  35.193  1.00  0.00    -0.248 NA
ATOM     63  C   UNL A   1      44.563  29.632  36.977  1.00  0.00     0.031 C 
ATOM     64  C   UNL A   1      40.315  33.525  35.070  1.00  0.00     0.029 A 
ATOM     65  C   UNL A   1      41.207  32.468  35.137  1.00  0.00     0.049 A 
ATOM     66  H   UNL A   1      41.634  30.999  33.681  1.00  0.00     0.167 HD
ATOM     67  C   UNL A   1      42.922  31.030  36.201  1.00  0.00     0.074 A 
ATOM     68  C   UNL A   1      43.801  30.669  37.292  1.00  0.00     0.031 C 
ATOM     69  C   UNL A   1      42.087  32.100  36.222  1.00  0.00     0.034 A 
BRANCH  56  70
ATOM     70  C   UNL A   1      38.758  32.741  31.025  1.00  0.00     0.023 A 
ATOM     71  C   UNL A   1      37.383  32.632  31.298  1.00  0.00     0.031 A 
ATOM     72  C   UNL A   1      39.156  33.569  29.961  1.00  0.00     0.131 A 
ATOM     73  C   UNL A   1      36.453  33.273  30.467  1.00  0.00     0.055 A 
ATOM     74  C   UNL A   1      38.229  34.271  29.190  1.00  0.00     0.041 A 
ATOM     75  F   UNL A   1      40.453  33.693  29.639  1.00  0.00    -0.206 F 
ATOM     76  C   UNL A   1      36.866  34.112  29.431  1.00  0.00     0.022 A 
BRANCH  73  77
ATOM     77  S   UNL A   1      34.696  32.872  30.669  1.00  0.00     0.124 S 
ATOM     78  O   UNL A   1      34.105  34.200  30.815  1.00  0.00    -0.237 OA
ATOM     79  O   UNL A   1      34.389  32.170  29.428  1.00  0.00    -0.237 OA
ATOM     80  O   UNL A   1      34.670  32.049  31.877  1.00  0.00    -0.744 OA
ENDBRANCH  73  77
ENDBRANCH  56  70
BRANCH  57  81
ATOM     81  C   UNL A   1      45.731  27.278  35.686  1.00  0.00     0.023 A 
ATOM     82  C   UNL A   1      45.398  26.240  36.574  1.00  0.00     0.031 A 
ATOM     83  C   UNL A   1      47.092  27.601  35.546  1.00  0.00     0.131 A 
ATOM     84  C   UNL A   1      46.402  25.587  37.307  1.00  0.00     0.055 A 
ATOM     85  C   UNL A   1      48.092  26.914  36.239  1.00  0.00     0.041 A 
ATOM     86  F   UNL A   1      47.474  28.596  34.731  1.00  0.00    -0.206 F 
ATOM     87  C   UNL A   1      47.749  25.907  37.134  1.00  0.00     0.022 A 
BRANCH  84  88
ATOM     88  S   UNL A   1      45.909  24.358  38.546  1.00  0.00     0.124 S 
ATOM     89  O   UNL A   1      46.876  24.603  39.609  1.00  0.00    -0.237 OA
ATOM     90  O   UNL A   1      44.533  24.756  38.829  1.00  0.00    -0.237 OA
ATOM     91  O   UNL A   1      46.057  23.085  37.845  1.00  0.00    -0.744 OA
ENDBRANCH  84  88
ENDBRANCH  57  81
BRANCH  69  92
ATOM     92  C   UNL A   1      42.048  32.930  37.485  1.00  0.00     0.023 A 
ATOM     93  C   UNL A   1      41.141  32.663  38.525  1.00  0.00     0.031 A 
ATOM     94  C   UNL A   1      42.942  34.005  37.650  1.00  0.00     0.131 A 
ATOM     95  C   UNL A   1      41.112  33.490  39.659  1.00  0.00     0.055 A 
ATOM     96  C   UNL A   1      42.950  34.785  38.808  1.00  0.00     0.041 A 
ATOM     97  F   UNL A   1      43.831  34.309  36.689  1.00  0.00    -0.206 F 
ATOM     98  C   UNL A   1      42.023  34.537  39.815  1.00  0.00     0.022 A 
BRANCH  95  99
ATOM     99  S   UNL A   1      39.807  33.236  40.895  1.00  0.00     0.124 S 
ATOM    100  O   UNL A   1      40.325  33.975  42.040  1.00  0.00    -0.237 OA
ATOM    101  O   UNL A   1      38.638  33.813  40.238  1.00  0.00    -0.237 OA
ATOM    102  O   UNL A   1      39.768  31.783  41.059  1.00  0.00    -0.744 OA
ENDBRANCH  95  99
ENDBRANCH  69  92
ENDBRANCH  43  44
ENDBRANCH  36  38
ENDBRANCH  35  36
ENDBRANCH  34  35
ENDBRANCH  33  34
ENDBRANCH  32  33
ENDBRANCH  31  32
ENDBRANCH   1  31
TORSDOF 25
ENDMDL
MODEL 3
REMARK VINA RESULT:      -9.0      6.542     11.389
REMARK SMILES C[C@@H](C(=O)OCCOCCOCCOC(=O)c1ccc(-c2c3nc(c(-c4cc(S(=O)(=O)[O-])ccc4F)c4ccc([nH]4)c(-c4cc(S(=O)(=O)[O-])ccc4F)c4nc(c(-c5cc(S(=O)(=O)[O-])ccc5F)c5ccc2[nH]5)C=C4)C=C3)cc1)c1ccc(-c2cccc(OC(=O)NC3CC3)c2)c(F)c1
REMARK SMILES IDX 9 1 8 2 7 3 6 4 5 5 3 6 4 7 2 8 1 9 80 10 81 11 99 12 82 13
REMARK SMILES IDX 97 14 83 15 98 16 84 17 85 18 96 19 86 20 88 21 87 22 89 23
REMARK SMILES IDX 90 24 91 25 92 26 93 28 94 29 95 30 10 31 11 32 12 33 13 34
REMARK SMILES IDX 14 35 15 36 16 37 17 38 18 39 79 40 19 41 78 42 20 43 21 44
REMARK SMILES IDX 22 45 72 46 23 47 77 48 71 49 73 50 24 51 76 52 70 53 69 54
REMARK SMILES IDX 25 56 57 57 37 58 56 59 38 60 41 61 55 62 74 63 39 64 40 65
REMARK SMILES IDX 54 67 75 68 42 69 26 70 27 71 35 72 28 73 34 74 36 75 33 76
REMARK SMILES IDX 29 77 30 78 31 79 32 80 58 81 59 82 67 83 60 84 66 85 68 86
REMARK SMILES IDX 65 87 61 88 62 89 63 90 64 91 43 92 44 93 52 94 45 95 51 96
REMARK SMILES IDX 53 97 50 98 46 99 47 100 48 101 49 102
REMARK H PARENT 92 27 73 55 41 66
REMARK Flexibility Score: inf
ROOT
ATOM      1  C   UNL A   1      36.858  21.415  25.487  1.00  0.00     0.188 C 
ENDROOT
BRANCH   1   2
ATOM      2  O   UNL A   1      35.481  21.563  25.808  1.00  0.00    -0.376 OA
BRANCH   2   3
ATOM      3  C   UNL A   1      34.533  20.746  25.136  1.00  0.00     0.202 C 
BRANCH   3   4
ATOM      4  C   UNL A   1      33.035  20.897  25.457  1.00  0.00     0.261 C 
BRANCH   4   5
ATOM      5  O   UNL A   1      32.596  22.208  25.871  1.00  0.00    -0.463 OA
BRANCH   5   6
ATOM      6  C   UNL A   1      31.342  22.577  25.484  1.00  0.00     0.313 C 
ATOM      7  O   UNL A   1      30.318  22.067  25.932  1.00  0.00    -0.252 OA
BRANCH   6   8
ATOM      8  C   UNL A   1      31.300  23.673  24.404  1.00  0.00     0.126 C 
ATOM      9  C   UNL A   1      32.021  23.408  23.077  1.00  0.00     0.025 C 
BRANCH   8  10
ATOM     10  C   UNL A   1      31.688  25.030  24.977  1.00  0.00    -0.031 A 
ATOM     11  C   UNL A   1      31.063  25.538  26.124  1.00  0.00     0.005 A 
ATOM     12  C   UNL A   1      32.699  25.798  24.393  1.00  0.00     0.044 A 
ATOM     13  C   UNL A   1      31.451  26.772  26.671  1.00  0.00     0.012 A 
ATOM     14  C   UNL A   1      33.093  27.006  24.956  1.00  0.00     0.131 A 
ATOM     15  C   UNL A   1      32.480  27.531  26.094  1.00  0.00     0.018 A 
ATOM     16  F   UNL A   1      34.095  27.664  24.364  1.00  0.00    -0.206 F 
BRANCH  15  17
ATOM     17  C   UNL A   1      32.871  28.844  26.622  1.00  0.00    -0.012 A 
ATOM     18  C   UNL A   1      32.129  30.002  26.340  1.00  0.00     0.009 A 
ATOM     19  C   UNL A   1      34.017  28.963  27.430  1.00  0.00     0.056 A 
ATOM     20  C   UNL A   1      32.519  31.242  26.851  1.00  0.00     0.004 A 
ATOM     21  C   UNL A   1      34.395  30.198  27.946  1.00  0.00     0.133 A 
ATOM     22  C   UNL A   1      33.649  31.341  27.662  1.00  0.00     0.047 A 
BRANCH  21  23
ATOM     23  O   UNL A   1      35.557  30.410  28.728  1.00  0.00    -0.410 OA
BRANCH  23  24
ATOM     24  C   UNL A   1      36.875  30.237  28.312  1.00  0.00     0.412 C 
ATOM     25  O   UNL A   1      37.295  29.331  27.598  1.00  0.00    -0.224 OA
ATOM     26  N   UNL A   1      37.723  31.219  28.762  1.00  0.00    -0.318 N 
ATOM     27  H   UNL A   1      38.666  31.118  28.503  1.00  0.00     0.167 HD
BRANCH  26  28
ATOM     28  C   UNL A   1      37.422  32.367  29.554  1.00  0.00     0.085 C 
ATOM     29  C   UNL A   1      38.191  33.659  29.576  1.00  0.00     0.027 C 
ATOM     30  C   UNL A   1      36.881  33.587  28.856  1.00  0.00     0.027 C 
ENDBRANCH  26  28
ENDBRANCH  23  24
ENDBRANCH  21  23
ENDBRANCH  15  17
ENDBRANCH   8  10
ENDBRANCH   6   8
ENDBRANCH   5   6
ENDBRANCH   4   5
ENDBRANCH   3   4
ENDBRANCH   2   3
ENDBRANCH   1   2
BRANCH   1  31
ATOM     31  C   UNL A   1      37.807  22.607  25.717  1.00  0.00     0.188 C 
BRANCH  31  32
ATOM     32  O   UNL A   1      39.081  22.237  26.211  1.00  0.00    -0.376 OA
BRANCH  32  33
ATOM     33  C   UNL A   1      39.739  23.191  27.028  1.00  0.00     0.202 C 
BRANCH  33  34
ATOM     34  C   UNL A   1      41.247  23.357  26.793  1.00  0.00     0.261 C 
BRANCH  34  35
ATOM     35  O   UNL A   1      41.799  24.652  27.095  1.00  0.00    -0.460 OA
BRANCH  35  36
ATOM     36  C   UNL A   1      41.740  25.603  26.132  1.00  0.00     0.338 C 
ATOM     37  O   UNL A   1      41.338  25.448  24.992  1.00  0.00    -0.246 OA
BRANCH  36  38
ATOM     38  C   UNL A   1      42.049  26.913  26.764  1.00  0.00     0.060 A 
ATOM     39  C   UNL A   1      42.912  26.952  27.866  1.00  0.00     0.016 A 
ATOM     40  C   UNL A   1      41.512  28.101  26.257  1.00  0.00     0.016 A 
ATOM     41  C   UNL A   1      43.225  28.178  28.466  1.00  0.00     0.010 A 
ATOM     42  C   UNL A   1      41.820  29.325  26.867  1.00  0.00     0.010 A 
ATOM     43  C   UNL A   1      42.673  29.375  27.982  1.00  0.00    -0.014 A 
BRANCH  43  44
ATOM     44  C   UNL A   1      42.836  30.640  28.750  1.00  0.00     0.031 A 
ATOM     45  C   UNL A   1      43.939  31.579  28.347  1.00  0.00     0.074 A 
ATOM     46  C   UNL A   1      42.042  30.958  29.791  1.00  0.00     0.049 A 
ATOM     47  N   UNL A   1      44.315  32.712  28.883  1.00  0.00    -0.248 NA
ATOM     48  C   UNL A   1      44.742  31.165  27.186  1.00  0.00     0.031 C 
ATOM     49  C   UNL A   1      40.922  30.155  30.272  1.00  0.00     0.029 A 
ATOM     50  N   UNL A   1      42.055  32.049  30.631  1.00  0.00    -0.354 N 
ATOM     51  C   UNL A   1      45.395  33.148  28.125  1.00  0.00     0.074 A 
ATOM     52  C   UNL A   1      45.631  32.142  27.111  1.00  0.00     0.031 C 
ATOM     53  C   UNL A   1      40.342  30.789  31.307  1.00  0.00     0.029 A 
ATOM     54  C   UNL A   1      41.079  32.017  31.602  1.00  0.00     0.049 A 
ATOM     55  H   UNL A   1      42.704  32.784  30.545  1.00  0.00     0.167 HD
ATOM     56  C   UNL A   1      46.130  34.279  28.263  1.00  0.00     0.034 A 
ATOM     57  C   UNL A   1      40.821  32.871  32.617  1.00  0.00     0.034 A 
ATOM     58  C   UNL A   1      45.923  35.254  29.305  1.00  0.00     0.049 A 
ATOM     59  C   UNL A   1      41.696  34.094  32.789  1.00  0.00     0.074 A 
ATOM     60  C   UNL A   1      46.617  36.428  29.537  1.00  0.00     0.029 A 
ATOM     61  N   UNL A   1      44.956  35.162  30.299  1.00  0.00    -0.354 N 
ATOM     62  N   UNL A   1      42.703  34.508  32.053  1.00  0.00    -0.248 NA
ATOM     63  C   UNL A   1      41.399  34.969  33.935  1.00  0.00     0.031 C 
ATOM     64  C   UNL A   1      46.113  37.014  30.702  1.00  0.00     0.029 A 
ATOM     65  C   UNL A   1      45.048  36.251  31.153  1.00  0.00     0.049 A 
ATOM     66  H   UNL A   1      44.302  34.431  30.385  1.00  0.00     0.167 HD
ATOM     67  C   UNL A   1      43.141  35.696  32.636  1.00  0.00     0.074 A 
ATOM     68  C   UNL A   1      42.271  35.951  33.763  1.00  0.00     0.031 C 
ATOM     69  C   UNL A   1      44.175  36.499  32.277  1.00  0.00     0.034 A 
BRANCH  56  70
ATOM     70  C   UNL A   1      47.265  34.477  27.291  1.00  0.00     0.023 A 
ATOM     71  C   UNL A   1      48.564  34.018  27.573  1.00  0.00     0.031 A 
ATOM     72  C   UNL A   1      47.060  35.180  26.091  1.00  0.00     0.131 A 
ATOM     73  C   UNL A   1      49.621  34.340  26.709  1.00  0.00     0.055 A 
ATOM     74  C   UNL A   1      48.101  35.424  25.195  1.00  0.00     0.041 A 
ATOM     75  F   UNL A   1      45.846  35.662  25.780  1.00  0.00    -0.206 F 
ATOM     76  C   UNL A   1      49.395  35.017  25.510  1.00  0.00     0.022 A 
BRANCH  73  77
ATOM     77  S   UNL A   1      51.316  33.990  27.253  1.00  0.00     0.124 S 
ATOM     78  O   UNL A   1      52.095  34.465  26.112  1.00  0.00    -0.237 OA
ATOM     79  O   UNL A   1      51.424  34.781  28.473  1.00  0.00    -0.237 OA
ATOM     80  O   UNL A   1      51.321  32.541  27.443  1.00  0.00    -0.744 OA
ENDBRANCH  73  77
ENDBRANCH  56  70
BRANCH  57  81
ATOM     81  C   UNL A   1      39.717  32.599  33.590  1.00  0.00     0.023 A 
ATOM     82  C   UNL A   1      38.433  33.140  33.403  1.00  0.00     0.031 A 
ATOM     83  C   UNL A   1      39.943  31.855  34.761  1.00  0.00     0.131 A 
ATOM     84  C   UNL A   1      37.439  32.960  34.378  1.00  0.00     0.055 A 
ATOM     85  C   UNL A   1      38.936  31.635  35.705  1.00  0.00     0.041 A 
ATOM     86  F   UNL A   1      41.152  31.330  35.011  1.00  0.00    -0.206 F 
ATOM     87  C   UNL A   1      37.678  32.198  35.522  1.00  0.00     0.022 A 
BRANCH  84  88
ATOM     88  S   UNL A   1      35.848  33.801  34.159  1.00  0.00     0.124 S 
ATOM     89  O   UNL A   1      35.047  32.762  33.523  1.00  0.00    -0.237 OA
ATOM     90  O   UNL A   1      35.493  34.130  35.536  1.00  0.00    -0.237 OA
ATOM     91  O   UNL A   1      36.179  34.945  33.312  1.00  0.00    -0.744 OA
ENDBRANCH  84  88
ENDBRANCH  57  81
BRANCH  69  92
ATOM     92  C   UNL A   1      44.391  37.759  33.084  1.00  0.00     0.023 A 
ATOM     93  C   UNL A   1      43.985  39.022  32.617  1.00  0.00     0.031 A 
ATOM     94  C   UNL A   1      45.010  37.691  34.345  1.00  0.00     0.131 A 
ATOM     95  C   UNL A   1      44.249  40.170  33.382  1.00  0.00     0.055 A 
ATOM     96  C   UNL A   1      45.213  38.828  35.130  1.00  0.00     0.041 A 
ATOM     97  F   UNL A   1      45.421  36.513  34.843  1.00  0.00    -0.206 F 
ATOM     98  C   UNL A   1      44.843  40.078  34.643  1.00  0.00     0.022 A 
BRANCH  95  99
ATOM     99  S   UNL A   1      43.885  41.799  32.671  1.00  0.00     0.124 S 
ATOM    100  O   UNL A   1      42.926  41.466  31.623  1.00  0.00    -0.237 OA
ATOM    101  O   UNL A   1      43.351  42.529  33.816  1.00  0.00    -0.237 OA
ATOM    102  O   UNL A   1      45.187  42.264  32.195  1.00  0.00    -0.744 OA
ENDBRANCH  95  99
ENDBRANCH  69  92
ENDBRANCH  43  44
ENDBRANCH  36  38
ENDBRANCH  35  36
ENDBRANCH  34  35
ENDBRANCH  33  34
ENDBRANCH  32  33
ENDBRANCH  31  32
ENDBRANCH   1  31
TORSDOF 25
ENDMDL
