MODEL 1
REMARK VINA RESULT:     -10.7      0.000      0.000
REMARK SMILES Cc1cccc(CC(=O)N2CCC3(CCC(=O)N([C@H](C)C(=O)OCCOCCOCCOC(=O)c4ccc(-c5c6nc(c(-c7cc(S(=O)(=O)[O-])ccc7F)c7ccc([nH]7)c(-c7cc(S(=O)(=O)[O-])ccc7F)c7nc(c(-c8cc(S(=O)(=O)[O-])ccc8F)c8ccc5[nH]8)C=C7)C=C6)cc4)C3)CC2)c1
REMARK SMILES IDX 27 1 26 2 25 3 24 4 23 5 21 6 22 7 19 8 20 9 18 10 8 11 9 12
REMARK SMILES IDX 10 13 11 14 100 15 12 16 99 17 13 18 14 19 98 20 15 21 16 22
REMARK SMILES IDX 17 23 7 24 6 25 1 26 2 27 3 28 101 29 4 30 5 31 28 32 29 33
REMARK SMILES IDX 30 34 31 35 32 36 33 37 34 38 35 39 36 40 97 41 37 42 96 43
REMARK SMILES IDX 38 44 39 45 40 46 90 47 41 48 95 49 89 50 91 51 42 52 94 53
REMARK SMILES IDX 88 54 87 55 43 57 75 58 55 59 74 60 56 61 59 62 73 63 92 64
REMARK SMILES IDX 57 65 58 66 72 68 93 69 60 70 44 71 45 72 53 73 46 74 52 75
REMARK SMILES IDX 54 76 51 77 47 78 48 79 49 80 50 81 76 82 77 83 85 84 78 85
REMARK SMILES IDX 84 86 86 87 83 88 79 89 80 90 81 91 82 92 61 93 62 94 70 95
REMARK SMILES IDX 63 96 69 97 71 98 68 99 64 100 65 101 66 102 67 103
REMARK H PARENT 91 56 59 67
REMARK Flexibility Score: inf
ROOT
ATOM      1  C   UNL A   1      44.024  24.087  33.707  1.00  0.00     0.188 C 
ENDROOT
BRANCH   1   2
ATOM      2  O   UNL A   1      44.592  24.919  34.690  1.00  0.00    -0.376 OA
BRANCH   2   3
ATOM      3  C   UNL A   1      43.956  25.197  35.962  1.00  0.00     0.202 C 
BRANCH   3   4
ATOM      4  C   UNL A   1      44.343  24.948  37.679  1.00  0.00     0.261 C 
BRANCH   4   5
ATOM      5  O   UNL A   1      45.945  24.981  38.580  1.00  0.00    -0.462 OA
BRANCH   5   6
ATOM      6  C   UNL A   1      47.153  24.284  39.172  1.00  0.00     0.328 C 
ATOM      7  O   UNL A   1      47.875  24.850  40.007  1.00  0.00    -0.250 OA
BRANCH   6   8
ATOM      8  C   UNL A   1      47.860  22.747  38.900  1.00  0.00     0.192 C 
ATOM      9  C   UNL A   1      48.352  21.432  39.558  1.00  0.00     0.044 C 
BRANCH   8  10
ATOM     10  N   UNL A   1      47.520  22.344  37.533  1.00  0.00    -0.329 N 
ATOM     11  C   UNL A   1      52.089  19.846  33.640  1.00  0.00     0.226 C 
ATOM     12  O   UNL A   1      52.977  19.061  33.990  1.00  0.00    -0.275 OA
ATOM     13  N   UNL A   1      50.845  19.816  34.236  1.00  0.00    -0.342 N 
ATOM     14  C   UNL A   1      50.777  19.455  35.640  1.00  0.00     0.120 C 
ATOM     15  C   UNL A   1      49.590  20.284  33.656  1.00  0.00     0.120 C 
ATOM     16  C   UNL A   1      50.218  20.639  36.433  1.00  0.00     0.030 C 
ATOM     17  C   UNL A   1      49.149  21.546  34.355  1.00  0.00     0.030 C 
ATOM     18  C   UNL A   1      48.900  21.205  35.822  1.00  0.00    -0.008 C 
ATOM     19  C   UNL A   1      47.802  20.083  35.862  1.00  0.00     0.019 C 
ATOM     20  C   UNL A   1      48.451  22.554  36.467  1.00  0.00     0.127 C 
ATOM     21  C   UNL A   1      47.130  20.009  37.200  1.00  0.00     0.101 C 
ATOM     22  C   UNL A   1      46.569  21.394  37.255  1.00  0.00     0.223 C 
ATOM     23  O   UNL A   1      45.563  21.671  36.603  1.00  0.00    -0.275 OA
BRANCH  11  24
ATOM     24  C   UNL A   1      52.443  21.022  32.736  1.00  0.00     0.135 C 
BRANCH  24  25
ATOM     25  C   UNL A   1      53.143  22.195  33.370  1.00  0.00    -0.038 A 
ATOM     26  C   UNL A   1      56.585  23.828  33.143  1.00  0.00     0.044 C 
ATOM     27  C   UNL A   1      55.197  23.487  33.608  1.00  0.00    -0.051 A 
ATOM     28  C   UNL A   1      54.711  24.003  34.815  1.00  0.00     0.003 A 
ATOM     29  C   UNL A   1      54.396  22.603  32.877  1.00  0.00     0.007 A 
ATOM     30  C   UNL A   1      53.443  23.649  35.283  1.00  0.00     0.001 A 
ATOM     31  C   UNL A   1      52.648  22.761  34.556  1.00  0.00     0.004 A 
ENDBRANCH  24  25
ENDBRANCH  11  24
ENDBRANCH   8  10
ENDBRANCH   6   8
ENDBRANCH   5   6
ENDBRANCH   4   5
ENDBRANCH   3   4
ENDBRANCH   2   3
ENDBRANCH   1   2
BRANCH   1  32
ATOM     32  C   UNL A   1      44.492  23.714  32.277  1.00  0.00     0.188 C 
BRANCH  32  33
ATOM     33  O   UNL A   1      43.518  23.251  31.414  1.00  0.00    -0.376 OA
BRANCH  33  34
ATOM     34  C   UNL A   1      44.057  23.422  30.123  1.00  0.00     0.202 C 
BRANCH  34  35
ATOM     35  C   UNL A   1      43.090  23.291  28.865  1.00  0.00     0.261 C 
BRANCH  35  36
ATOM     36  O   UNL A   1      42.821  24.264  27.596  1.00  0.00    -0.460 OA
BRANCH  36  37
ATOM     37  C   UNL A   1      42.575  24.970  26.457  1.00  0.00     0.338 C 
ATOM     38  O   UNL A   1      43.411  25.018  25.551  1.00  0.00    -0.246 OA
BRANCH  37  39
ATOM     39  C   UNL A   1      41.382  25.847  26.208  1.00  0.00     0.060 A 
ATOM     40  C   UNL A   1      41.501  27.158  25.761  1.00  0.00     0.016 A 
ATOM     41  C   UNL A   1      40.137  25.531  26.649  1.00  0.00     0.016 A 
ATOM     42  C   UNL A   1      40.961  28.165  26.557  1.00  0.00     0.010 A 
ATOM     43  C   UNL A   1      39.569  26.515  27.426  1.00  0.00     0.010 A 
ATOM     44  C   UNL A   1      40.222  27.742  27.640  1.00  0.00    -0.014 A 
BRANCH  44  45
ATOM     45  C   UNL A   1      40.044  28.439  28.971  1.00  0.00     0.031 A 
ATOM     46  C   UNL A   1      38.465  29.422  29.006  1.00  0.00     0.074 A 
ATOM     47  C   UNL A   1      41.087  28.162  30.019  1.00  0.00     0.049 A 
ATOM     48  N   UNL A   1      38.434  30.648  29.494  1.00  0.00    -0.248 NA
ATOM     49  C   UNL A   1      37.058  29.253  28.549  1.00  0.00     0.031 C 
ATOM     50  C   UNL A   1      41.338  28.589  31.577  1.00  0.00     0.029 A 
ATOM     51  N   UNL A   1      42.218  27.340  29.982  1.00  0.00    -0.354 N 
ATOM     52  C   UNL A   1      37.252  31.191  29.837  1.00  0.00     0.074 A 
ATOM     53  C   UNL A   1      36.394  30.345  29.041  1.00  0.00     0.031 C 
ATOM     54  C   UNL A   1      42.463  28.173  32.136  1.00  0.00     0.029 A 
ATOM     55  C   UNL A   1      43.162  27.742  31.006  1.00  0.00     0.049 A 
ATOM     56  H   UNL A   1      42.354  26.595  29.352  1.00  0.00     0.167 HD
ATOM     57  C   UNL A   1      37.256  32.256  30.723  1.00  0.00     0.034 A 
ATOM     58  C   UNL A   1      44.360  28.292  30.713  1.00  0.00     0.034 A 
ATOM     59  C   UNL A   1      38.567  32.444  31.504  1.00  0.00     0.049 A 
ATOM     60  C   UNL A   1      44.248  29.888  30.870  1.00  0.00     0.074 A 
ATOM     61  C   UNL A   1      38.949  32.061  32.786  1.00  0.00     0.029 A 
ATOM     62  N   UNL A   1      39.772  32.961  30.958  1.00  0.00    -0.354 N 
ATOM     63  N   UNL A   1      43.190  30.554  31.346  1.00  0.00    -0.248 NA
ATOM     64  C   UNL A   1      45.357  30.823  30.676  1.00  0.00     0.031 C 
ATOM     65  C   UNL A   1      40.385  32.120  32.898  1.00  0.00     0.029 A 
ATOM     66  C   UNL A   1      40.927  32.638  31.730  1.00  0.00     0.049 A 
ATOM     67  H   UNL A   1      39.807  33.491  30.128  1.00  0.00     0.167 HD
ATOM     68  C   UNL A   1      43.355  31.937  31.271  1.00  0.00     0.074 A 
ATOM     69  C   UNL A   1      44.797  32.009  31.003  1.00  0.00     0.031 C 
ATOM     70  C   UNL A   1      42.350  32.932  31.285  1.00  0.00     0.034 A 
BRANCH  57  71
ATOM     71  C   UNL A   1      35.998  33.053  31.080  1.00  0.00     0.023 A 
ATOM     72  C   UNL A   1      35.265  33.733  30.080  1.00  0.00     0.031 A 
ATOM     73  C   UNL A   1      35.444  33.135  32.378  1.00  0.00     0.131 A 
ATOM     74  C   UNL A   1      34.131  34.521  30.391  1.00  0.00     0.055 A 
ATOM     75  C   UNL A   1      34.312  33.914  32.688  1.00  0.00     0.041 A 
ATOM     76  F   UNL A   1      35.970  32.455  33.406  1.00  0.00    -0.206 F 
ATOM     77  C   UNL A   1      33.664  34.634  31.696  1.00  0.00     0.022 A 
BRANCH  74  78
ATOM     78  S   UNL A   1      33.306  35.456  29.065  1.00  0.00     0.124 S 
ATOM     79  O   UNL A   1      32.559  34.409  28.374  1.00  0.00    -0.237 OA
ATOM     80  O   UNL A   1      32.519  36.430  29.811  1.00  0.00    -0.237 OA
ATOM     81  O   UNL A   1      34.418  36.019  28.299  1.00  0.00    -0.744 OA
ENDBRANCH  74  78
ENDBRANCH  57  71
BRANCH  58  82
ATOM     82  C   UNL A   1      44.893  27.200  29.792  1.00  0.00     0.023 A 
ATOM     83  C   UNL A   1      44.767  27.517  28.364  1.00  0.00     0.031 A 
ATOM     84  C   UNL A   1      46.034  26.481  30.149  1.00  0.00     0.131 A 
ATOM     85  C   UNL A   1      45.877  27.416  27.485  1.00  0.00     0.055 A 
ATOM     86  C   UNL A   1      47.060  26.251  29.208  1.00  0.00     0.041 A 
ATOM     87  F   UNL A   1      46.309  26.241  31.440  1.00  0.00    -0.206 F 
ATOM     88  C   UNL A   1      47.038  26.796  27.918  1.00  0.00     0.022 A 
BRANCH  85  89
ATOM     89  S   UNL A   1      45.918  28.375  25.914  1.00  0.00     0.124 S 
ATOM     90  O   UNL A   1      45.651  27.351  24.911  1.00  0.00    -0.237 OA
ATOM     91  O   UNL A   1      44.865  29.367  26.116  1.00  0.00    -0.237 OA
ATOM     92  O   UNL A   1      47.266  28.936  25.870  1.00  0.00    -0.744 OA
ENDBRANCH  85  89
ENDBRANCH  58  82
BRANCH  70  93
ATOM     93  C   UNL A   1      42.676  34.363  30.812  1.00  0.00     0.023 A 
ATOM     94  C   UNL A   1      42.390  34.805  29.509  1.00  0.00     0.031 A 
ATOM     95  C   UNL A   1      43.281  35.334  31.639  1.00  0.00     0.131 A 
ATOM     96  C   UNL A   1      42.950  35.980  28.986  1.00  0.00     0.055 A 
ATOM     97  C   UNL A   1      43.702  36.588  31.160  1.00  0.00     0.041 A 
ATOM     98  F   UNL A   1      43.505  35.115  32.943  1.00  0.00    -0.206 F 
ATOM     99  C   UNL A   1      43.603  36.888  29.807  1.00  0.00     0.022 A 
BRANCH  96 100
ATOM    100  S   UNL A   1      42.961  36.173  27.183  1.00  0.00     0.124 S 
ATOM    101  O   UNL A   1      43.590  34.926  26.751  1.00  0.00    -0.237 OA
ATOM    102  O   UNL A   1      41.543  36.308  26.865  1.00  0.00    -0.237 OA
ATOM    103  O   UNL A   1      43.762  37.375  26.968  1.00  0.00    -0.744 OA
ENDBRANCH  96 100
ENDBRANCH  70  93
ENDBRANCH  44  45
ENDBRANCH  37  39
ENDBRANCH  36  37
ENDBRANCH  35  36
ENDBRANCH  34  35
ENDBRANCH  33  34
ENDBRANCH  32  33
ENDBRANCH   1  32
TORSDOF 23
ENDMDL
MODEL 2
REMARK VINA RESULT:     -10.3      7.855     17.601
REMARK SMILES Cc1cccc(CC(=O)N2CCC3(CCC(=O)N([C@H](C)C(=O)OCCOCCOCCOC(=O)c4ccc(-c5c6nc(c(-c7cc(S(=O)(=O)[O-])ccc7F)c7ccc([nH]7)c(-c7cc(S(=O)(=O)[O-])ccc7F)c7nc(c(-c8cc(S(=O)(=O)[O-])ccc8F)c8ccc5[nH]8)C=C7)C=C6)cc4)C3)CC2)c1
REMARK SMILES IDX 27 1 26 2 25 3 24 4 23 5 21 6 22 7 19 8 20 9 18 10 8 11 9 12
REMARK SMILES IDX 10 13 11 14 100 15 12 16 99 17 13 18 14 19 98 20 15 21 16 22
REMARK SMILES IDX 17 23 7 24 6 25 1 26 2 27 3 28 101 29 4 30 5 31 28 32 29 33
REMARK SMILES IDX 30 34 31 35 32 36 33 37 34 38 35 39 36 40 97 41 37 42 96 43
REMARK SMILES IDX 38 44 39 45 40 46 90 47 41 48 95 49 89 50 91 51 42 52 94 53
REMARK SMILES IDX 88 54 87 55 43 57 75 58 55 59 74 60 56 61 59 62 73 63 92 64
REMARK SMILES IDX 57 65 58 66 72 68 93 69 60 70 44 71 45 72 53 73 46 74 52 75
REMARK SMILES IDX 54 76 51 77 47 78 48 79 49 80 50 81 76 82 77 83 85 84 78 85
REMARK SMILES IDX 84 86 86 87 83 88 79 89 80 90 81 91 82 92 61 93 62 94 70 95
REMARK SMILES IDX 63 96 69 97 71 98 68 99 64 100 65 101 66 102 67 103
REMARK H PARENT 91 56 59 67
REMARK Flexibility Score: inf
ROOT
ATOM      1  C   UNL A   1      48.204  36.416  27.172  1.00  0.00     0.188 C 
ENDROOT
BRANCH   1   2
ATOM      2  O   UNL A   1      48.090  37.808  27.000  1.00  0.00    -0.376 OA
BRANCH   2   3
ATOM      3  C   UNL A   1      48.141  38.457  25.705  1.00  0.00     0.202 C 
BRANCH   3   4
ATOM      4  C   UNL A   1      46.994  39.297  24.638  1.00  0.00     0.261 C 
BRANCH   4   5
ATOM      5  O   UNL A   1      45.924  40.765  24.920  1.00  0.00    -0.462 OA
BRANCH   5   6
ATOM      6  C   UNL A   1      44.999  41.854  24.415  1.00  0.00     0.328 C 
ATOM      7  O   UNL A   1      43.774  41.788  24.594  1.00  0.00    -0.250 OA
BRANCH   6   8
ATOM      8  C   UNL A   1      45.270  43.288  23.519  1.00  0.00     0.192 C 
ATOM      9  C   UNL A   1      45.368  44.835  23.581  1.00  0.00     0.044 C 
BRANCH   8  10
ATOM     10  N   UNL A   1      46.105  42.936  22.368  1.00  0.00    -0.329 N 
ATOM     11  C   UNL A   1      47.645  47.453  17.952  1.00  0.00     0.226 C 
ATOM     12  O   UNL A   1      47.929  48.630  18.201  1.00  0.00    -0.275 OA
ATOM     13  N   UNL A   1      47.979  46.445  18.833  1.00  0.00    -0.342 N 
ATOM     14  C   UNL A   1      47.968  46.755  20.251  1.00  0.00     0.120 C 
ATOM     15  C   UNL A   1      48.171  45.035  18.510  1.00  0.00     0.120 C 
ATOM     16  C   UNL A   1      46.914  45.887  20.943  1.00  0.00     0.030 C 
ATOM     17  C   UNL A   1      47.028  44.226  19.070  1.00  0.00     0.030 C 
ATOM     18  C   UNL A   1      47.051  44.375  20.589  1.00  0.00    -0.008 C 
ATOM     19  C   UNL A   1      48.448  43.863  21.089  1.00  0.00     0.019 C 
ATOM     20  C   UNL A   1      45.845  43.515  21.085  1.00  0.00     0.127 C 
ATOM     21  C   UNL A   1      48.421  43.503  22.544  1.00  0.00     0.101 C 
ATOM     22  C   UNL A   1      47.376  42.433  22.498  1.00  0.00     0.223 C 
ATOM     23  O   UNL A   1      47.667  41.315  22.077  1.00  0.00    -0.275 OA
BRANCH  11  24
ATOM     24  C   UNL A   1      46.694  47.140  16.803  1.00  0.00     0.135 C 
BRANCH  24  25
ATOM     25  C   UNL A   1      45.237  47.466  17.002  1.00  0.00    -0.038 A 
ATOM     26  C   UNL A   1      43.214  50.243  18.664  1.00  0.00     0.044 C 
ATOM     27  C   UNL A   1      43.573  48.947  17.991  1.00  0.00    -0.051 A 
ATOM     28  C   UNL A   1      42.622  47.927  17.876  1.00  0.00     0.003 A 
ATOM     29  C   UNL A   1      44.873  48.719  17.528  1.00  0.00     0.007 A 
ATOM     30  C   UNL A   1      42.960  46.700  17.300  1.00  0.00     0.001 A 
ATOM     31  C   UNL A   1      44.259  46.471  16.846  1.00  0.00     0.004 A 
ENDBRANCH  24  25
ENDBRANCH  11  24
ENDBRANCH   8  10
ENDBRANCH   6   8
ENDBRANCH   5   6
ENDBRANCH   4   5
ENDBRANCH   3   4
ENDBRANCH   2   3
ENDBRANCH   1   2
BRANCH   1  32
ATOM     32  C   UNL A   1      47.900  35.231  26.219  1.00  0.00     0.188 C 
BRANCH  32  33
ATOM     33  O   UNL A   1      46.737  34.528  26.466  1.00  0.00    -0.376 OA
BRANCH  33  34
ATOM     34  C   UNL A   1      45.892  35.437  27.135  1.00  0.00     0.202 C 
BRANCH  34  35
ATOM     35  C   UNL A   1      44.975  34.899  28.320  1.00  0.00     0.261 C 
BRANCH  35  36
ATOM     36  O   UNL A   1      45.108  35.012  29.933  1.00  0.00    -0.460 OA
BRANCH  36  37
ATOM     37  C   UNL A   1      45.332  35.037  31.276  1.00  0.00     0.338 C 
ATOM     38  O   UNL A   1      46.470  34.892  31.730  1.00  0.00    -0.246 OA
BRANCH  37  39
ATOM     39  C   UNL A   1      44.276  35.107  32.342  1.00  0.00     0.060 A 
ATOM     40  C   UNL A   1      44.460  34.565  33.609  1.00  0.00     0.016 A 
ATOM     41  C   UNL A   1      42.990  35.451  32.076  1.00  0.00     0.016 A 
ATOM     42  C   UNL A   1      43.563  33.587  34.031  1.00  0.00     0.010 A 
ATOM     43  C   UNL A   1      42.077  34.511  32.497  1.00  0.00     0.010 A 
ATOM     44  C   UNL A   1      42.484  33.365  33.203  1.00  0.00    -0.014 A 
BRANCH  44  45
ATOM     45  C   UNL A   1      41.723  32.074  32.996  1.00  0.00     0.031 A 
ATOM     46  C   UNL A   1      42.367  31.147  31.518  1.00  0.00     0.074 A 
ATOM     47  C   UNL A   1      40.678  31.737  34.025  1.00  0.00     0.049 A 
ATOM     48  N   UNL A   1      41.545  30.603  30.640  1.00  0.00    -0.248 NA
ATOM     49  C   UNL A   1      43.691  30.833  30.912  1.00  0.00     0.031 C 
ATOM     50  C   UNL A   1      39.651  30.496  34.302  1.00  0.00     0.029 A 
ATOM     51  N   UNL A   1      40.285  32.423  35.179  1.00  0.00    -0.354 N 
ATOM     52  C   UNL A   1      42.006  29.656  29.804  1.00  0.00     0.074 A 
ATOM     53  C   UNL A   1      43.412  29.974  29.882  1.00  0.00     0.031 C 
ATOM     54  C   UNL A   1      38.812  30.632  35.316  1.00  0.00     0.029 A 
ATOM     55  C   UNL A   1      38.961  31.994  35.588  1.00  0.00     0.049 A 
ATOM     56  H   UNL A   1      40.827  33.098  35.647  1.00  0.00     0.167 HD
ATOM     57  C   UNL A   1      41.087  28.804  29.212  1.00  0.00     0.034 A 
ATOM     58  C   UNL A   1      37.885  32.807  35.529  1.00  0.00     0.034 A 
ATOM     59  C   UNL A   1      39.698  28.792  29.872  1.00  0.00     0.049 A 
ATOM     60  C   UNL A   1      37.056  32.472  34.193  1.00  0.00     0.074 A 
ATOM     61  C   UNL A   1      39.113  27.926  30.792  1.00  0.00     0.029 A 
ATOM     62  N   UNL A   1      38.733  29.828  29.757  1.00  0.00    -0.354 N 
ATOM     63  N   UNL A   1      37.306  31.464  33.351  1.00  0.00    -0.248 NA
ATOM     64  C   UNL A   1      35.801  33.120  33.808  1.00  0.00     0.031 C 
ATOM     65  C   UNL A   1      37.963  28.560  31.384  1.00  0.00     0.029 A 
ATOM     66  C   UNL A   1      37.738  29.788  30.779  1.00  0.00     0.049 A 
ATOM     67  H   UNL A   1      38.750  30.506  29.043  1.00  0.00     0.167 HD
ATOM     68  C   UNL A   1      36.473  31.486  32.232  1.00  0.00     0.074 A 
ATOM     69  C   UNL A   1      35.459  32.447  32.686  1.00  0.00     0.031 C 
ATOM     70  C   UNL A   1      36.689  30.870  30.978  1.00  0.00     0.034 A 
BRANCH  57  71
ATOM     71  C   UNL A   1      41.464  27.784  28.134  1.00  0.00     0.023 A 
ATOM     72  C   UNL A   1      42.297  26.684  28.440  1.00  0.00     0.031 A 
ATOM     73  C   UNL A   1      40.990  27.815  26.803  1.00  0.00     0.131 A 
ATOM     74  C   UNL A   1      42.705  25.757  27.450  1.00  0.00     0.055 A 
ATOM     75  C   UNL A   1      41.389  26.890  25.818  1.00  0.00     0.041 A 
ATOM     76  F   UNL A   1      40.108  28.739  26.396  1.00  0.00    -0.206 F 
ATOM     77  C   UNL A   1      42.272  25.869  26.132  1.00  0.00     0.022 A 
BRANCH  74  78
ATOM     78  S   UNL A   1      43.867  24.430  27.897  1.00  0.00     0.124 S 
ATOM     79  O   UNL A   1      44.523  24.983  29.078  1.00  0.00    -0.237 OA
ATOM     80  O   UNL A   1      42.979  23.296  28.119  1.00  0.00    -0.237 OA
ATOM     81  O   UNL A   1      44.727  24.317  26.718  1.00  0.00    -0.744 OA
ENDBRANCH  74  78
ENDBRANCH  57  71
BRANCH  58  82
ATOM     82  C   UNL A   1      38.429  33.967  36.357  1.00  0.00     0.023 A 
ATOM     83  C   UNL A   1      38.816  33.588  37.722  1.00  0.00     0.031 A 
ATOM     84  C   UNL A   1      39.226  34.940  35.755  1.00  0.00     0.131 A 
ATOM     85  C   UNL A   1      40.093  33.919  38.246  1.00  0.00     0.055 A 
ATOM     86  C   UNL A   1      40.417  35.376  36.375  1.00  0.00     0.041 A 
ATOM     87  F   UNL A   1      39.036  35.275  34.470  1.00  0.00    -0.206 F 
ATOM     88  C   UNL A   1      40.907  34.804  37.556  1.00  0.00     0.022 A 
BRANCH  85  89
ATOM     89  S   UNL A   1      40.814  32.951  39.636  1.00  0.00     0.124 S 
ATOM     90  O   UNL A   1      39.630  32.434  40.309  1.00  0.00    -0.237 OA
ATOM     91  O   UNL A   1      41.644  31.968  38.946  1.00  0.00    -0.237 OA
ATOM     92  O   UNL A   1      41.571  33.938  40.405  1.00  0.00    -0.744 OA
ENDBRANCH  85  89
ENDBRANCH  58  82
BRANCH  70  93
ATOM     93  C   UNL A   1      35.867  31.311  29.750  1.00  0.00     0.023 A 
ATOM     94  C   UNL A   1      35.409  32.630  29.590  1.00  0.00     0.031 A 
ATOM     95  C   UNL A   1      35.510  30.437  28.700  1.00  0.00     0.131 A 
ATOM     96  C   UNL A   1      34.419  32.962  28.652  1.00  0.00     0.055 A 
ATOM     97  C   UNL A   1      34.643  30.812  27.658  1.00  0.00     0.041 A 
ATOM     98  F   UNL A   1      35.972  29.180  28.638  1.00  0.00    -0.206 F 
ATOM     99  C   UNL A   1      34.034  32.060  27.670  1.00  0.00     0.022 A 
BRANCH  96 100
ATOM    100  S   UNL A   1      33.532  34.525  28.887  1.00  0.00     0.124 S 
ATOM    101  O   UNL A   1      34.480  35.494  28.340  1.00  0.00    -0.237 OA
ATOM    102  O   UNL A   1      32.314  34.324  28.108  1.00  0.00    -0.237 OA
ATOM    103  O   UNL A   1      33.338  34.600  30.333  1.00  0.00    -0.744 OA
ENDBRANCH  96 100
ENDBRANCH  70  93
ENDBRANCH  44  45
ENDBRANCH  37  39
ENDBRANCH  36  37
ENDBRANCH  35  36
ENDBRANCH  34  35
ENDBRANCH  33  34
ENDBRANCH  32  33
ENDBRANCH   1  32
TORSDOF 23
ENDMDL
MODEL 3
REMARK VINA RESULT:     -10.2      5.591     15.530
REMARK SMILES Cc1cccc(CC(=O)N2CCC3(CCC(=O)N([C@H](C)C(=O)OCCOCCOCCOC(=O)c4ccc(-c5c6nc(c(-c7cc(S(=O)(=O)[O-])ccc7F)c7ccc([nH]7)c(-c7cc(S(=O)(=O)[O-])ccc7F)c7nc(c(-c8cc(S(=O)(=O)[O-])ccc8F)c8ccc5[nH]8)C=C7)C=C6)cc4)C3)CC2)c1
REMARK SMILES IDX 27 1 26 2 25 3 24 4 23 5 21 6 22 7 19 8 20 9 18 10 8 11 9 12
REMARK SMILES IDX 10 13 11 14 100 15 12 16 99 17 13 18 14 19 98 20 15 21 16 22
REMARK SMILES IDX 17 23 7 24 6 25 1 26 2 27 3 28 101 29 4 30 5 31 28 32 29 33
REMARK SMILES IDX 30 34 31 35 32 36 33 37 34 38 35 39 36 40 97 41 37 42 96 43
REMARK SMILES IDX 38 44 39 45 40 46 90 47 41 48 95 49 89 50 91 51 42 52 94 53
REMARK SMILES IDX 88 54 87 55 43 57 75 58 55 59 74 60 56 61 59 62 73 63 92 64
REMARK SMILES IDX 57 65 58 66 72 68 93 69 60 70 44 71 45 72 53 73 46 74 52 75
REMARK SMILES IDX 54 76 51 77 47 78 48 79 49 80 50 81 76 82 77 83 85 84 78 85
REMARK SMILES IDX 84 86 86 87 83 88 79 89 80 90 81 91 82 92 61 93 62 94 70 95
REMARK SMILES IDX 63 96 69 97 71 98 68 99 64 100 65 101 66 102 67 103
REMARK H PARENT 91 56 59 67
REMARK Flexibility Score: inf
ROOT
ATOM      1  C   UNL A   1      40.311  22.435  27.494  1.00  0.00     0.188 C 
ENDROOT
BRANCH   1   2
ATOM      2  O   UNL A   1      39.414  22.699  26.443  1.00  0.00    -0.376 OA
BRANCH   2   3
ATOM      3  C   UNL A   1      38.637  21.670  25.781  1.00  0.00     0.202 C 
BRANCH   3   4
ATOM      4  C   UNL A   1      37.281  21.616  24.633  1.00  0.00     0.261 C 
BRANCH   4   5
ATOM      5  O   UNL A   1      35.681  20.712  24.686  1.00  0.00    -0.462 OA
BRANCH   5   6
ATOM      6  C   UNL A   1      34.264  20.545  25.197  1.00  0.00     0.328 C 
ATOM      7  O   UNL A   1      33.718  19.431  25.218  1.00  0.00    -0.250 OA
BRANCH   6   8
ATOM      8  C   UNL A   1      33.095  21.656  25.773  1.00  0.00     0.192 C 
ATOM      9  C   UNL A   1      32.695  22.605  26.932  1.00  0.00     0.044 C 
BRANCH   8  10
ATOM     10  N   UNL A   1      32.433  22.242  24.604  1.00  0.00    -0.329 N 
ATOM     11  C   UNL A   1      32.135  28.701  23.923  1.00  0.00     0.226 C 
ATOM     12  O   UNL A   1      33.041  29.493  24.204  1.00  0.00    -0.275 OA
ATOM     13  N   UNL A   1      32.423  27.437  23.451  1.00  0.00    -0.342 N 
ATOM     14  C   UNL A   1      33.625  26.789  23.945  1.00  0.00     0.120 C 
ATOM     15  C   UNL A   1      31.554  26.592  22.639  1.00  0.00     0.120 C 
ATOM     16  C   UNL A   1      33.232  25.520  24.704  1.00  0.00     0.030 C 
ATOM     17  C   UNL A   1      31.054  25.435  23.466  1.00  0.00     0.030 C 
ATOM     18  C   UNL A   1      32.263  24.607  23.891  1.00  0.00    -0.008 C 
ATOM     19  C   UNL A   1      32.992  24.136  22.583  1.00  0.00     0.019 C 
ATOM     20  C   UNL A   1      31.662  23.440  24.738  1.00  0.00     0.127 C 
ATOM     21  C   UNL A   1      33.874  22.950  22.833  1.00  0.00     0.101 C 
ATOM     22  C   UNL A   1      32.837  21.987  23.317  1.00  0.00     0.223 C 
ATOM     23  O   UNL A   1      32.086  21.442  22.508  1.00  0.00    -0.275 OA
BRANCH  11  24
ATOM     24  C   UNL A   1      30.705  29.020  24.346  1.00  0.00     0.135 C 
BRANCH  24  25
ATOM     25  C   UNL A   1      29.859  29.811  23.383  1.00  0.00    -0.038 A 
ATOM     26  C   UNL A   1      28.553  33.388  23.127  1.00  0.00     0.044 C 
ATOM     27  C   UNL A   1      28.756  31.922  22.863  1.00  0.00    -0.051 A 
ATOM     28  C   UNL A   1      27.915  31.244  21.974  1.00  0.00     0.003 A 
ATOM     29  C   UNL A   1      29.743  31.204  23.546  1.00  0.00     0.007 A 
ATOM     30  C   UNL A   1      28.062  29.870  21.762  1.00  0.00     0.001 A 
ATOM     31  C   UNL A   1      29.043  29.154  22.449  1.00  0.00     0.004 A 
ENDBRANCH  24  25
ENDBRANCH  11  24
ENDBRANCH   8  10
ENDBRANCH   6   8
ENDBRANCH   5   6
ENDBRANCH   4   5
ENDBRANCH   3   4
ENDBRANCH   2   3
ENDBRANCH   1   2
BRANCH   1  32
ATOM     32  C   UNL A   1      41.707  21.759  27.514  1.00  0.00     0.188 C 
BRANCH  32  33
ATOM     33  O   UNL A   1      42.362  21.669  26.301  1.00  0.00    -0.376 OA
BRANCH  33  34
ATOM     34  C   UNL A   1      43.646  22.201  26.535  1.00  0.00     0.202 C 
BRANCH  34  35
ATOM     35  C   UNL A   1      43.781  23.747  26.889  1.00  0.00     0.261 C 
BRANCH  35  36
ATOM     36  O   UNL A   1      43.061  25.067  26.282  1.00  0.00    -0.460 OA
BRANCH  36  37
ATOM     37  C   UNL A   1      42.357  26.155  25.861  1.00  0.00     0.338 C 
ATOM     38  O   UNL A   1      42.317  26.458  24.666  1.00  0.00    -0.246 OA
BRANCH  37  39
ATOM     39  C   UNL A   1      41.677  27.158  26.748  1.00  0.00     0.060 A 
ATOM     40  C   UNL A   1      41.895  28.526  26.629  1.00  0.00     0.016 A 
ATOM     41  C   UNL A   1      41.024  26.805  27.886  1.00  0.00     0.016 A 
ATOM     42  C   UNL A   1      42.389  29.201  27.742  1.00  0.00     0.010 A 
ATOM     43  C   UNL A   1      41.480  27.469  29.002  1.00  0.00     0.010 A 
ATOM     44  C   UNL A   1      42.466  28.466  28.905  1.00  0.00    -0.014 A 
BRANCH  44  45
ATOM     45  C   UNL A   1      43.455  28.624  30.039  1.00  0.00     0.031 A 
ATOM     46  C   UNL A   1      45.163  28.102  29.517  1.00  0.00     0.074 A 
ATOM     47  C   UNL A   1      42.927  29.227  31.312  1.00  0.00     0.049 A 
ATOM     48  N   UNL A   1      45.916  27.347  30.296  1.00  0.00    -0.248 NA
ATOM     49  C   UNL A   1      46.033  28.244  28.317  1.00  0.00     0.031 C 
ATOM     50  C   UNL A   1      43.548  29.654  32.763  1.00  0.00     0.029 A 
ATOM     51  N   UNL A   1      41.648  29.692  31.635  1.00  0.00    -0.354 N 
ATOM     52  C   UNL A   1      47.240  27.285  30.071  1.00  0.00     0.074 A 
ATOM     53  C   UNL A   1      47.240  27.715  28.693  1.00  0.00     0.031 C 
ATOM     54  C   UNL A   1      42.693  30.100  33.669  1.00  0.00     0.029 A 
ATOM     55  C   UNL A   1      41.482  29.737  33.075  1.00  0.00     0.049 A 
ATOM     56  H   UNL A   1      40.960  29.952  30.981  1.00  0.00     0.167 HD
ATOM     57  C   UNL A   1      48.059  26.870  31.109  1.00  0.00     0.034 A 
ATOM     58  C   UNL A   1      40.636  28.917  33.734  1.00  0.00     0.034 A 
ATOM     59  C   UNL A   1      47.405  26.899  32.500  1.00  0.00     0.049 A 
ATOM     60  C   UNL A   1      41.477  27.695  34.352  1.00  0.00     0.074 A 
ATOM     61  C   UNL A   1      47.459  27.830  33.534  1.00  0.00     0.029 A 
ATOM     62  N   UNL A   1      46.436  25.971  32.964  1.00  0.00    -0.354 N 
ATOM     63  N   UNL A   1      42.810  27.578  34.340  1.00  0.00    -0.248 NA
ATOM     64  C   UNL A   1      40.909  26.623  35.171  1.00  0.00     0.031 C 
ATOM     65  C   UNL A   1      46.376  27.590  34.454  1.00  0.00     0.029 A 
ATOM     66  C   UNL A   1      45.684  26.447  34.079  1.00  0.00     0.049 A 
ATOM     67  H   UNL A   1      46.296  25.085  32.555  1.00  0.00     0.167 HD
ATOM     68  C   UNL A   1      43.242  26.363  34.869  1.00  0.00     0.074 A 
ATOM     69  C   UNL A   1      42.004  25.909  35.516  1.00  0.00     0.031 C 
ATOM     70  C   UNL A   1      44.484  25.719  34.662  1.00  0.00     0.034 A 
BRANCH  57  71
ATOM     71  C   UNL A   1      49.560  26.617  30.942  1.00  0.00     0.023 A 
ATOM     72  C   UNL A   1      50.388  27.571  30.307  1.00  0.00     0.031 A 
ATOM     73  C   UNL A   1      50.239  25.478  31.433  1.00  0.00     0.131 A 
ATOM     74  C   UNL A   1      51.767  27.337  30.091  1.00  0.00     0.055 A 
ATOM     75  C   UNL A   1      51.612  25.247  31.225  1.00  0.00     0.041 A 
ATOM     76  F   UNL A   1      49.602  24.540  32.148  1.00  0.00    -0.206 F 
ATOM     77  C   UNL A   1      52.380  26.166  30.527  1.00  0.00     0.022 A 
BRANCH  74  78
ATOM     78  S   UNL A   1      52.745  28.564  29.169  1.00  0.00     0.124 S 
ATOM     79  O   UNL A   1      54.003  28.572  29.911  1.00  0.00    -0.237 OA
ATOM     80  O   UNL A   1      52.785  27.991  27.829  1.00  0.00    -0.237 OA
ATOM     81  O   UNL A   1      51.958  29.792  29.291  1.00  0.00    -0.744 OA
ENDBRANCH  74  78
ENDBRANCH  57  71
BRANCH  58  82
ATOM     82  C   UNL A   1      39.359  29.241  32.966  1.00  0.00     0.023 A 
ATOM     83  C   UNL A   1      39.017  30.670  32.963  1.00  0.00     0.031 A 
ATOM     84  C   UNL A   1      39.053  28.549  31.795  1.00  0.00     0.131 A 
ATOM     85  C   UNL A   1      38.735  31.358  31.754  1.00  0.00     0.055 A 
ATOM     86  C   UNL A   1      38.616  29.241  30.645  1.00  0.00     0.041 A 
ATOM     87  F   UNL A   1      39.430  27.270  31.644  1.00  0.00    -0.206 F 
ATOM     88  C   UNL A   1      38.552  30.639  30.584  1.00  0.00     0.022 A 
BRANCH  85  89
ATOM     89  S   UNL A   1      38.931  33.186  31.650  1.00  0.00     0.124 S 
ATOM     90  O   UNL A   1      40.310  33.331  31.199  1.00  0.00    -0.237 OA
ATOM     91  O   UNL A   1      37.897  33.565  30.692  1.00  0.00    -0.237 OA
ATOM     92  O   UNL A   1      38.683  33.651  33.013  1.00  0.00    -0.744 OA
ENDBRANCH  85  89
ENDBRANCH  58  82
BRANCH  70  93
ATOM     93  C   UNL A   1      44.645  24.224  35.004  1.00  0.00     0.023 A 
ATOM     94  C   UNL A   1      45.181  23.789  36.228  1.00  0.00     0.031 A 
ATOM     95  C   UNL A   1      44.271  23.183  34.126  1.00  0.00     0.131 A 
ATOM     96  C   UNL A   1      45.608  22.467  36.421  1.00  0.00     0.055 A 
ATOM     97  C   UNL A   1      44.551  21.830  34.387  1.00  0.00     0.041 A 
ATOM     98  F   UNL A   1      43.632  23.424  32.973  1.00  0.00    -0.206 F 
ATOM     99  C   UNL A   1      45.289  21.472  35.508  1.00  0.00     0.022 A 
BRANCH  96 100
ATOM    100  S   UNL A   1      46.748  22.147  37.794  1.00  0.00     0.124 S 
ATOM    101  O   UNL A   1      47.355  23.461  37.994  1.00  0.00    -0.237 OA
ATOM    102  O   UNL A   1      45.854  21.695  38.856  1.00  0.00    -0.237 OA
ATOM    103  O   UNL A   1      47.649  21.124  37.265  1.00  0.00    -0.744 OA
ENDBRANCH  96 100
ENDBRANCH  70  93
ENDBRANCH  44  45
ENDBRANCH  37  39
ENDBRANCH  36  37
ENDBRANCH  35  36
ENDBRANCH  34  35
ENDBRANCH  33  34
ENDBRANCH  32  33
ENDBRANCH   1  32
TORSDOF 23
ENDMDL
