MODEL 1
REMARK VINA RESULT:     -12.8      0.000      0.000
REMARK SMILES Cc1ccccc1[C@@H]1[NH2+][C@@H](C(=O)OCCOCCOCCOC(=O)c2ccc(-c3c4nc(c(-c5cc(S(=O)(=O)[O-])ccc5F)c5ccc([nH]5)c(-c5cc(S(=O)(=O)[O-])ccc5F)c5nc(c(-c6cc(S(=O)(=O)[O-])ccc6F)c6ccc3[nH]6)C=C5)C=C4)cc2)CC2=c3ccccc3=N[C@H]21
REMARK SMILES IDX 18 1 17 2 16 3 15 4 14 5 13 6 11 7 12 8 10 9 8 10 9 11 97 12
REMARK SMILES IDX 89 15 96 16 88 17 90 18 95 19 91 20 94 21 92 22 93 23 7 24
REMARK SMILES IDX 1 25 2 26 3 27 4 28 6 29 5 30 19 31 20 32 21 33 22 34 23 35
REMARK SMILES IDX 24 36 25 37 26 38 87 39 27 40 86 41 28 42 29 43 30 44 80 45
REMARK SMILES IDX 31 46 85 47 79 48 81 49 32 50 84 51 78 52 77 53 33 55 65 56
REMARK SMILES IDX 45 57 64 58 46 59 49 60 63 61 82 62 47 63 48 64 62 66 83 67
REMARK SMILES IDX 50 68 34 69 35 70 43 71 36 72 42 73 44 74 41 75 37 76 38 77
REMARK SMILES IDX 39 78 40 79 66 80 67 81 75 82 68 83 74 84 76 85 73 86 69 87
REMARK SMILES IDX 70 88 71 89 72 90 51 91 52 92 60 93 53 94 59 95 61 96 58 97
REMARK SMILES IDX 54 98 55 99 56 100 57 101
REMARK H PARENT 9 13 9 14 81 54 49 65
REMARK Flexibility Score: inf
ROOT
ATOM      1  C   UNL A   1      41.552  20.294  27.616  1.00  0.00     0.188 C 
ENDROOT
BRANCH   1   2
ATOM      2  C   UNL A   1      40.536  20.586  26.496  1.00  0.00     0.188 C 
BRANCH   2   3
ATOM      3  O   UNL A   1      40.230  21.911  25.992  1.00  0.00    -0.376 OA
BRANCH   3   4
ATOM      4  C   UNL A   1      40.330  23.152  26.728  1.00  0.00     0.202 C 
BRANCH   4   5
ATOM      5  C   UNL A   1      38.983  24.088  27.141  1.00  0.00     0.261 C 
BRANCH   5   6
ATOM      6  O   UNL A   1      37.548  24.156  26.369  1.00  0.00    -0.459 OA
BRANCH   6   7
ATOM      7  C   UNL A   1      36.896  23.365  25.389  1.00  0.00     0.365 C 
ATOM      8  O   UNL A   1      37.017  23.365  24.161  1.00  0.00    -0.245 OA
BRANCH   7   9
ATOM      9  C   UNL A   1      35.903  22.299  25.817  1.00  0.00     0.298 C 
ATOM     10  C   UNL A   1      33.733  21.564  24.519  1.00  0.00     0.243 C 
ATOM     11  N   UNL A   1      35.212  21.767  24.555  1.00  0.00    -0.326 N 
ATOM     12  C   UNL A   1      32.937  22.006  25.786  1.00  0.00     0.196 C 
ATOM     13  H   UNL A   1      35.433  22.422  23.805  1.00  0.00     0.347 HD
ATOM     14  H   UNL A   1      35.571  20.816  24.486  1.00  0.00     0.347 HD
ATOM     15  C   UNL A   1      33.631  23.218  26.327  1.00  0.00    -0.024 C 
ATOM     16  N   UNL A   1      31.555  22.483  25.456  1.00  0.00    -0.270 NA
ATOM     17  C   UNL A   1      35.008  22.998  26.839  1.00  0.00     0.111 C 
ATOM     18  C   UNL A   1      32.926  24.318  26.090  1.00  0.00     0.002 A 
ATOM     19  C   UNL A   1      31.637  23.768  25.638  1.00  0.00     0.066 A 
ATOM     20  C   UNL A   1      33.172  25.720  26.127  1.00  0.00     0.010 A 
ATOM     21  C   UNL A   1      30.537  24.746  25.477  1.00  0.00     0.028 A 
ATOM     22  C   UNL A   1      32.157  26.556  25.851  1.00  0.00     0.001 A 
ATOM     23  C   UNL A   1      30.813  26.055  25.597  1.00  0.00     0.002 A 
BRANCH  10  24
ATOM     24  C   UNL A   1      33.359  20.140  24.066  1.00  0.00     0.015 A 
ATOM     25  C   UNL A   1      31.803  20.918  22.173  1.00  0.00     0.045 C 
ATOM     26  C   UNL A   1      32.507  19.865  22.974  1.00  0.00    -0.042 A 
ATOM     27  C   UNL A   1      32.313  18.535  22.558  1.00  0.00     0.004 A 
ATOM     28  C   UNL A   1      32.905  17.469  23.227  1.00  0.00     0.000 A 
ATOM     29  C   UNL A   1      33.926  19.038  24.751  1.00  0.00     0.010 A 
ATOM     30  C   UNL A   1      33.698  17.718  24.338  1.00  0.00     0.001 A 
ENDBRANCH  10  24
ENDBRANCH   7   9
ENDBRANCH   6   7
ENDBRANCH   5   6
ENDBRANCH   4   5
ENDBRANCH   3   4
ENDBRANCH   2   3
ENDBRANCH   1   2
BRANCH   1  31
ATOM     31  O   UNL A   1      42.308  19.126  27.345  1.00  0.00    -0.376 OA
BRANCH  31  32
ATOM     32  C   UNL A   1      42.436  18.754  25.981  1.00  0.00     0.202 C 
BRANCH  32  33
ATOM     33  C   UNL A   1      43.890  18.643  25.456  1.00  0.00     0.261 C 
BRANCH  33  34
ATOM     34  O   UNL A   1      44.214  19.637  24.444  1.00  0.00    -0.460 OA
BRANCH  34  35
ATOM     35  C   UNL A   1      45.453  20.272  24.510  1.00  0.00     0.338 C 
ATOM     36  O   UNL A   1      46.482  19.702  24.281  1.00  0.00    -0.246 OA
BRANCH  35  37
ATOM     37  C   UNL A   1      45.284  21.766  24.723  1.00  0.00     0.060 A 
ATOM     38  C   UNL A   1      46.142  22.846  24.450  1.00  0.00     0.016 A 
ATOM     39  C   UNL A   1      44.160  22.120  25.376  1.00  0.00     0.016 A 
ATOM     40  C   UNL A   1      45.841  24.234  24.892  1.00  0.00     0.010 A 
ATOM     41  C   UNL A   1      44.077  23.387  25.942  1.00  0.00     0.010 A 
ATOM     42  C   UNL A   1      44.744  24.563  25.693  1.00  0.00    -0.014 A 
BRANCH  42  43
ATOM     43  C   UNL A   1      44.279  25.838  26.527  1.00  0.00     0.031 A 
ATOM     44  C   UNL A   1      42.895  26.750  26.663  1.00  0.00     0.074 A 
ATOM     45  C   UNL A   1      45.168  26.118  27.508  1.00  0.00     0.049 A 
ATOM     46  N   UNL A   1      42.876  27.923  27.276  1.00  0.00    -0.248 NA
ATOM     47  C   UNL A   1      41.484  26.559  26.185  1.00  0.00     0.031 C 
ATOM     48  C   UNL A   1      44.987  26.908  28.721  1.00  0.00     0.029 A 
ATOM     49  N   UNL A   1      46.532  25.851  27.483  1.00  0.00    -0.354 N 
ATOM     50  C   UNL A   1      41.555  28.367  27.442  1.00  0.00     0.074 A 
ATOM     51  C   UNL A   1      40.792  27.629  26.531  1.00  0.00     0.031 C 
ATOM     52  C   UNL A   1      46.188  27.305  29.160  1.00  0.00     0.029 A 
ATOM     53  C   UNL A   1      47.163  26.891  28.173  1.00  0.00     0.049 A 
ATOM     54  H   UNL A   1      46.971  25.076  27.061  1.00  0.00     0.167 HD
ATOM     55  C   UNL A   1      41.147  29.208  28.435  1.00  0.00     0.034 A 
ATOM     56  C   UNL A   1      48.056  27.684  27.520  1.00  0.00     0.034 A 
ATOM     57  C   UNL A   1      42.306  29.836  29.023  1.00  0.00     0.049 A 
ATOM     58  C   UNL A   1      47.663  29.145  27.520  1.00  0.00     0.074 A 
ATOM     59  C   UNL A   1      42.944  29.779  30.244  1.00  0.00     0.029 A 
ATOM     60  N   UNL A   1      43.143  30.525  28.165  1.00  0.00    -0.354 N 
ATOM     61  N   UNL A   1      46.545  29.613  28.003  1.00  0.00    -0.248 NA
ATOM     62  C   UNL A   1      48.496  30.200  26.961  1.00  0.00     0.031 C 
ATOM     63  C   UNL A   1      44.212  30.413  30.088  1.00  0.00     0.029 A 
ATOM     64  C   UNL A   1      44.304  30.896  28.794  1.00  0.00     0.049 A 
ATOM     65  H   UNL A   1      42.932  30.725  27.225  1.00  0.00     0.167 HD
ATOM     66  C   UNL A   1      46.441  30.959  27.749  1.00  0.00     0.074 A 
ATOM     67  C   UNL A   1      47.720  31.282  27.141  1.00  0.00     0.031 C 
ATOM     68  C   UNL A   1      45.287  31.648  28.026  1.00  0.00     0.034 A 
BRANCH  55  69
ATOM     69  C   UNL A   1      39.711  29.407  28.974  1.00  0.00     0.023 A 
ATOM     70  C   UNL A   1      39.487  29.236  30.363  1.00  0.00     0.031 A 
ATOM     71  C   UNL A   1      38.521  29.644  28.235  1.00  0.00     0.131 A 
ATOM     72  C   UNL A   1      38.188  29.268  30.931  1.00  0.00     0.055 A 
ATOM     73  C   UNL A   1      37.239  29.734  28.809  1.00  0.00     0.041 A 
ATOM     74  F   UNL A   1      38.484  29.749  26.905  1.00  0.00    -0.206 F 
ATOM     75  C   UNL A   1      37.062  29.531  30.161  1.00  0.00     0.022 A 
BRANCH  72  76
ATOM     76  S   UNL A   1      37.967  28.880  32.690  1.00  0.00     0.124 S 
ATOM     77  O   UNL A   1      39.066  29.616  33.305  1.00  0.00    -0.237 OA
ATOM     78  O   UNL A   1      36.621  29.374  32.952  1.00  0.00    -0.237 OA
ATOM     79  O   UNL A   1      38.105  27.422  32.737  1.00  0.00    -0.744 OA
ENDBRANCH  72  76
ENDBRANCH  55  69
BRANCH  56  80
ATOM     80  C   UNL A   1      48.813  26.929  26.468  1.00  0.00     0.023 A 
ATOM     81  C   UNL A   1      48.321  27.039  25.143  1.00  0.00     0.031 A 
ATOM     82  C   UNL A   1      50.147  26.527  26.630  1.00  0.00     0.131 A 
ATOM     83  C   UNL A   1      49.186  26.922  24.045  1.00  0.00     0.055 A 
ATOM     84  C   UNL A   1      50.985  26.315  25.521  1.00  0.00     0.041 A 
ATOM     85  F   UNL A   1      50.701  26.470  27.850  1.00  0.00    -0.206 F 
ATOM     86  C   UNL A   1      50.521  26.561  24.227  1.00  0.00     0.022 A 
BRANCH  83  87
ATOM     87  S   UNL A   1      48.640  27.545  22.422  1.00  0.00     0.124 S 
ATOM     88  O   UNL A   1      47.334  28.113  22.740  1.00  0.00    -0.237 OA
ATOM     89  O   UNL A   1      49.682  28.505  22.062  1.00  0.00    -0.237 OA
ATOM     90  O   UNL A   1      48.623  26.345  21.591  1.00  0.00    -0.744 OA
ENDBRANCH  83  87
ENDBRANCH  56  80
BRANCH  68  91
ATOM     91  C   UNL A   1      44.915  33.063  27.580  1.00  0.00     0.023 A 
ATOM     92  C   UNL A   1      45.233  34.213  28.307  1.00  0.00     0.031 A 
ATOM     93  C   UNL A   1      44.239  33.312  26.351  1.00  0.00     0.131 A 
ATOM     94  C   UNL A   1      44.876  35.499  27.858  1.00  0.00     0.055 A 
ATOM     95  C   UNL A   1      43.942  34.594  25.871  1.00  0.00     0.041 A 
ATOM     96  F   UNL A   1      43.832  32.326  25.540  1.00  0.00    -0.206 F 
ATOM     97  C   UNL A   1      44.252  35.703  26.634  1.00  0.00     0.022 A 
BRANCH  94  98
ATOM     98  S   UNL A   1      45.184  36.894  28.971  1.00  0.00     0.124 S 
ATOM     99  O   UNL A   1      43.988  36.881  29.809  1.00  0.00    -0.237 OA
ATOM    100  O   UNL A   1      46.422  36.495  29.631  1.00  0.00    -0.237 OA
ATOM    101  O   UNL A   1      45.297  38.038  28.069  1.00  0.00    -0.744 OA
ENDBRANCH  94  98
ENDBRANCH  68  91
ENDBRANCH  42  43
ENDBRANCH  35  37
ENDBRANCH  34  35
ENDBRANCH  33  34
ENDBRANCH  32  33
ENDBRANCH  31  32
ENDBRANCH   1  31
TORSDOF 21
ENDMDL
MODEL 2
REMARK VINA RESULT:     -11.9      1.464      3.092
REMARK SMILES Cc1ccccc1[C@@H]1[NH2+][C@@H](C(=O)OCCOCCOCCOC(=O)c2ccc(-c3c4nc(c(-c5cc(S(=O)(=O)[O-])ccc5F)c5ccc([nH]5)c(-c5cc(S(=O)(=O)[O-])ccc5F)c5nc(c(-c6cc(S(=O)(=O)[O-])ccc6F)c6ccc3[nH]6)C=C5)C=C4)cc2)CC2=c3ccccc3=N[C@H]21
REMARK SMILES IDX 18 1 17 2 16 3 15 4 14 5 13 6 11 7 12 8 10 9 8 10 9 11 97 12
REMARK SMILES IDX 89 15 96 16 88 17 90 18 95 19 91 20 94 21 92 22 93 23 7 24
REMARK SMILES IDX 1 25 2 26 3 27 4 28 6 29 5 30 19 31 20 32 21 33 22 34 23 35
REMARK SMILES IDX 24 36 25 37 26 38 87 39 27 40 86 41 28 42 29 43 30 44 80 45
REMARK SMILES IDX 31 46 85 47 79 48 81 49 32 50 84 51 78 52 77 53 33 55 65 56
REMARK SMILES IDX 45 57 64 58 46 59 49 60 63 61 82 62 47 63 48 64 62 66 83 67
REMARK SMILES IDX 50 68 34 69 35 70 43 71 36 72 42 73 44 74 41 75 37 76 38 77
REMARK SMILES IDX 39 78 40 79 66 80 67 81 75 82 68 83 74 84 76 85 73 86 69 87
REMARK SMILES IDX 70 88 71 89 72 90 51 91 52 92 60 93 53 94 59 95 61 96 58 97
REMARK SMILES IDX 54 98 55 99 56 100 57 101
REMARK H PARENT 9 13 9 14 81 54 49 65
REMARK Flexibility Score: inf
ROOT
ATOM      1  C   UNL A   1      42.205  19.745  27.580  1.00  0.00     0.188 C 
ENDROOT
BRANCH   1   2
ATOM      2  C   UNL A   1      40.934  20.140  26.807  1.00  0.00     0.188 C 
BRANCH   2   3
ATOM      3  O   UNL A   1      40.535  21.508  26.531  1.00  0.00    -0.376 OA
BRANCH   3   4
ATOM      4  C   UNL A   1      40.675  22.637  27.423  1.00  0.00     0.202 C 
BRANCH   4   5
ATOM      5  C   UNL A   1      39.667  23.994  27.357  1.00  0.00     0.261 C 
BRANCH   5   6
ATOM      6  O   UNL A   1      38.130  24.061  26.815  1.00  0.00    -0.459 OA
BRANCH   6   7
ATOM      7  C   UNL A   1      37.322  23.249  25.979  1.00  0.00     0.365 C 
ATOM      8  O   UNL A   1      37.235  22.020  25.912  1.00  0.00    -0.245 OA
BRANCH   7   9
ATOM      9  C   UNL A   1      36.352  23.896  25.006  1.00  0.00     0.298 C 
ATOM     10  C   UNL A   1      33.743  24.106  25.299  1.00  0.00     0.243 C 
ATOM     11  N   UNL A   1      35.126  24.359  25.803  1.00  0.00    -0.326 N 
ATOM     12  C   UNL A   1      33.621  23.276  23.983  1.00  0.00     0.196 C 
ATOM     13  H   UNL A   1      35.187  23.909  26.717  1.00  0.00     0.347 HD
ATOM     14  H   UNL A   1      35.199  25.374  25.759  1.00  0.00     0.347 HD
ATOM     15  C   UNL A   1      34.731  22.270  24.006  1.00  0.00    -0.024 C 
ATOM     16  N   UNL A   1      32.371  22.451  23.940  1.00  0.00    -0.270 NA
ATOM     17  C   UNL A   1      36.107  22.826  23.942  1.00  0.00     0.111 C 
ATOM     18  C   UNL A   1      34.266  21.051  24.251  1.00  0.00     0.002 A 
ATOM     19  C   UNL A   1      32.812  21.240  24.106  1.00  0.00     0.066 A 
ATOM     20  C   UNL A   1      34.826  19.798  24.631  1.00  0.00     0.010 A 
ATOM     21  C   UNL A   1      31.995  20.005  24.122  1.00  0.00     0.028 A 
ATOM     22  C   UNL A   1      34.006  18.739  24.747  1.00  0.00     0.001 A 
ATOM     23  C   UNL A   1      32.592  18.838  24.415  1.00  0.00     0.002 A 
BRANCH  10  24
ATOM     24  C   UNL A   1      32.904  25.397  25.249  1.00  0.00     0.015 A 
ATOM     25  C   UNL A   1      33.834  26.172  22.982  1.00  0.00     0.045 C 
ATOM     26  C   UNL A   1      32.931  26.307  24.171  1.00  0.00    -0.042 A 
ATOM     27  C   UNL A   1      32.044  27.400  24.156  1.00  0.00     0.004 A 
ATOM     28  C   UNL A   1      31.166  27.637  25.207  1.00  0.00     0.000 A 
ATOM     29  C   UNL A   1      32.022  25.676  26.322  1.00  0.00     0.010 A 
ATOM     30  C   UNL A   1      31.167  26.785  26.302  1.00  0.00     0.001 A 
ENDBRANCH  10  24
ENDBRANCH   7   9
ENDBRANCH   6   7
ENDBRANCH   5   6
ENDBRANCH   4   5
ENDBRANCH   3   4
ENDBRANCH   2   3
ENDBRANCH   1   2
BRANCH   1  31
ATOM     31  O   UNL A   1      42.645  18.442  27.231  1.00  0.00    -0.376 OA
BRANCH  31  32
ATOM     32  C   UNL A   1      42.971  18.226  25.866  1.00  0.00     0.202 C 
BRANCH  32  33
ATOM     33  C   UNL A   1      44.441  18.526  25.479  1.00  0.00     0.261 C 
BRANCH  33  34
ATOM     34  O   UNL A   1      44.581  19.675  24.596  1.00  0.00    -0.460 OA
BRANCH  34  35
ATOM     35  C   UNL A   1      45.769  20.403  24.637  1.00  0.00     0.338 C 
ATOM     36  O   UNL A   1      46.836  19.908  24.408  1.00  0.00    -0.246 OA
BRANCH  35  37
ATOM     37  C   UNL A   1      45.489  21.883  24.824  1.00  0.00     0.060 A 
ATOM     38  C   UNL A   1      46.234  23.021  24.466  1.00  0.00     0.016 A 
ATOM     39  C   UNL A   1      44.384  22.164  25.543  1.00  0.00     0.016 A 
ATOM     40  C   UNL A   1      45.847  24.393  24.893  1.00  0.00     0.010 A 
ATOM     41  C   UNL A   1      44.233  23.437  26.081  1.00  0.00     0.010 A 
ATOM     42  C   UNL A   1      44.781  24.655  25.758  1.00  0.00    -0.014 A 
BRANCH  42  43
ATOM     43  C   UNL A   1      44.267  25.912  26.589  1.00  0.00     0.031 A 
ATOM     44  C   UNL A   1      42.846  26.768  26.726  1.00  0.00     0.074 A 
ATOM     45  C   UNL A   1      45.145  26.231  27.568  1.00  0.00     0.049 A 
ATOM     46  N   UNL A   1      42.781  27.941  27.336  1.00  0.00    -0.248 NA
ATOM     47  C   UNL A   1      41.443  26.518  26.251  1.00  0.00     0.031 C 
ATOM     48  C   UNL A   1      44.934  27.016  28.779  1.00  0.00     0.029 A 
ATOM     49  N   UNL A   1      46.519  26.019  27.541  1.00  0.00    -0.354 N 
ATOM     50  C   UNL A   1      41.443  28.332  27.503  1.00  0.00     0.074 A 
ATOM     51  C   UNL A   1      40.709  27.561  26.596  1.00  0.00     0.031 C 
ATOM     52  C   UNL A   1      46.120  27.463  29.215  1.00  0.00     0.029 A 
ATOM     53  C   UNL A   1      47.109  27.086  28.226  1.00  0.00     0.049 A 
ATOM     54  H   UNL A   1      46.988  25.262  27.120  1.00  0.00     0.167 HD
ATOM     55  C   UNL A   1      41.004  29.158  28.495  1.00  0.00     0.034 A 
ATOM     56  C   UNL A   1      47.967  27.913  27.570  1.00  0.00     0.034 A 
ATOM     57  C   UNL A   1      42.138  29.834  29.079  1.00  0.00     0.049 A 
ATOM     58  C   UNL A   1      47.515  29.356  27.566  1.00  0.00     0.074 A 
ATOM     59  C   UNL A   1      42.780  29.806  30.299  1.00  0.00     0.029 A 
ATOM     60  N   UNL A   1      42.944  30.554  28.218  1.00  0.00    -0.354 N 
ATOM     61  N   UNL A   1      46.381  29.781  28.051  1.00  0.00    -0.248 NA
ATOM     62  C   UNL A   1      48.303  30.443  27.003  1.00  0.00     0.031 C 
ATOM     63  C   UNL A   1      44.020  30.491  30.138  1.00  0.00     0.029 A 
ATOM     64  C   UNL A   1      44.091  30.973  28.843  1.00  0.00     0.049 A 
ATOM     65  H   UNL A   1      42.724  30.743  27.277  1.00  0.00     0.167 HD
ATOM     66  C   UNL A   1      46.221  31.121  27.794  1.00  0.00     0.074 A 
ATOM     67  C   UNL A   1      47.484  31.494  27.182  1.00  0.00     0.031 C 
ATOM     68  C   UNL A   1      45.040  31.763  28.071  1.00  0.00     0.034 A 
BRANCH  55  69
ATOM     69  C   UNL A   1      39.562  29.300  29.037  1.00  0.00     0.023 A 
ATOM     70  C   UNL A   1      38.849  30.489  28.740  1.00  0.00     0.031 A 
ATOM     71  C   UNL A   1      38.861  28.424  29.908  1.00  0.00     0.131 A 
ATOM     72  C   UNL A   1      37.576  30.768  29.298  1.00  0.00     0.055 A 
ATOM     73  C   UNL A   1      37.573  28.676  30.414  1.00  0.00     0.041 A 
ATOM     74  F   UNL A   1      39.376  27.289  30.388  1.00  0.00    -0.206 F 
ATOM     75  C   UNL A   1      36.926  29.859  30.124  1.00  0.00     0.022 A 
BRANCH  72  76
ATOM     76  S   UNL A   1      36.798  32.380  29.000  1.00  0.00     0.124 S 
ATOM     77  O   UNL A   1      37.956  33.256  28.860  1.00  0.00    -0.237 OA
ATOM     78  O   UNL A   1      36.016  32.133  27.795  1.00  0.00    -0.237 OA
ATOM     79  O   UNL A   1      36.004  32.604  30.211  1.00  0.00    -0.744 OA
ENDBRANCH  72  76
ENDBRANCH  55  69
BRANCH  56  80
ATOM     80  C   UNL A   1      48.752  27.186  26.518  1.00  0.00     0.023 A 
ATOM     81  C   UNL A   1      48.226  27.230  25.203  1.00  0.00     0.031 A 
ATOM     82  C   UNL A   1      50.114  26.881  26.659  1.00  0.00     0.131 A 
ATOM     83  C   UNL A   1      49.074  27.146  24.088  1.00  0.00     0.055 A 
ATOM     84  C   UNL A   1      50.941  26.701  25.536  1.00  0.00     0.041 A 
ATOM     85  F   UNL A   1      50.696  26.892  27.866  1.00  0.00    -0.206 F 
ATOM     86  C   UNL A   1      50.433  26.882  24.248  1.00  0.00     0.022 A 
BRANCH  83  87
ATOM     87  S   UNL A   1      48.451  27.690  22.464  1.00  0.00     0.124 S 
ATOM     88  O   UNL A   1      49.468  28.654  22.056  1.00  0.00    -0.237 OA
ATOM     89  O   UNL A   1      48.402  26.451  21.691  1.00  0.00    -0.237 OA
ATOM     90  O   UNL A   1      47.139  28.249  22.779  1.00  0.00    -0.744 OA
ENDBRANCH  83  87
ENDBRANCH  56  80
BRANCH  68  91
ATOM     91  C   UNL A   1      44.611  33.160  27.622  1.00  0.00     0.023 A 
ATOM     92  C   UNL A   1      44.720  34.299  28.424  1.00  0.00     0.031 A 
ATOM     93  C   UNL A   1      44.096  33.407  26.317  1.00  0.00     0.131 A 
ATOM     94  C   UNL A   1      44.316  35.570  27.970  1.00  0.00     0.055 A 
ATOM     95  C   UNL A   1      43.756  34.680  25.841  1.00  0.00     0.041 A 
ATOM     96  F   UNL A   1      43.896  32.427  25.424  1.00  0.00    -0.206 F 
ATOM     97  C   UNL A   1      43.855  35.776  26.676  1.00  0.00     0.022 A 
BRANCH  94  98
ATOM     98  S   UNL A   1      44.338  36.934  29.160  1.00  0.00     0.124 S 
ATOM     99  O   UNL A   1      45.766  37.070  29.438  1.00  0.00    -0.237 OA
ATOM    100  O   UNL A   1      43.738  38.021  28.394  1.00  0.00    -0.237 OA
ATOM    101  O   UNL A   1      43.534  36.436  30.273  1.00  0.00    -0.744 OA
ENDBRANCH  94  98
ENDBRANCH  68  91
ENDBRANCH  42  43
ENDBRANCH  35  37
ENDBRANCH  34  35
ENDBRANCH  33  34
ENDBRANCH  32  33
ENDBRANCH  31  32
ENDBRANCH   1  31
TORSDOF 21
ENDMDL
MODEL 3
REMARK VINA RESULT:     -11.9      4.681     10.822
REMARK SMILES Cc1ccccc1[C@@H]1[NH2+][C@@H](C(=O)OCCOCCOCCOC(=O)c2ccc(-c3c4nc(c(-c5cc(S(=O)(=O)[O-])ccc5F)c5ccc([nH]5)c(-c5cc(S(=O)(=O)[O-])ccc5F)c5nc(c(-c6cc(S(=O)(=O)[O-])ccc6F)c6ccc3[nH]6)C=C5)C=C4)cc2)CC2=c3ccccc3=N[C@H]21
REMARK SMILES IDX 18 1 17 2 16 3 15 4 14 5 13 6 11 7 12 8 10 9 8 10 9 11 97 12
REMARK SMILES IDX 89 15 96 16 88 17 90 18 95 19 91 20 94 21 92 22 93 23 7 24
REMARK SMILES IDX 1 25 2 26 3 27 4 28 6 29 5 30 19 31 20 32 21 33 22 34 23 35
REMARK SMILES IDX 24 36 25 37 26 38 87 39 27 40 86 41 28 42 29 43 30 44 80 45
REMARK SMILES IDX 31 46 85 47 79 48 81 49 32 50 84 51 78 52 77 53 33 55 65 56
REMARK SMILES IDX 45 57 64 58 46 59 49 60 63 61 82 62 47 63 48 64 62 66 83 67
REMARK SMILES IDX 50 68 34 69 35 70 43 71 36 72 42 73 44 74 41 75 37 76 38 77
REMARK SMILES IDX 39 78 40 79 66 80 67 81 75 82 68 83 74 84 76 85 73 86 69 87
REMARK SMILES IDX 70 88 71 89 72 90 51 91 52 92 60 93 53 94 59 95 61 96 58 97
REMARK SMILES IDX 54 98 55 99 56 100 57 101
REMARK H PARENT 9 13 9 14 81 54 49 65
REMARK Flexibility Score: inf
ROOT
ATOM      1  C   UNL A   1      31.799  30.190  25.696  1.00  0.00     0.188 C 
ENDROOT
BRANCH   1   2
ATOM      2  C   UNL A   1      32.634  28.928  25.411  1.00  0.00     0.188 C 
BRANCH   2   3
ATOM      3  O   UNL A   1      33.656  28.837  24.384  1.00  0.00    -0.376 OA
BRANCH   3   4
ATOM      4  C   UNL A   1      33.621  27.988  23.215  1.00  0.00     0.202 C 
BRANCH   4   5
ATOM      5  C   UNL A   1      32.425  26.820  22.960  1.00  0.00     0.261 C 
BRANCH   5   6
ATOM      6  O   UNL A   1      32.584  25.387  22.198  1.00  0.00    -0.459 OA
BRANCH   6   7
ATOM      7  C   UNL A   1      33.313  24.195  22.440  1.00  0.00     0.365 C 
ATOM      8  O   UNL A   1      33.659  23.305  21.659  1.00  0.00    -0.245 OA
BRANCH   7   9
ATOM      9  C   UNL A   1      33.827  23.894  23.837  1.00  0.00     0.298 C 
ATOM     10  C   UNL A   1      35.776  22.240  24.469  1.00  0.00     0.243 C 
ATOM     11  N   UNL A   1      35.283  23.429  23.712  1.00  0.00    -0.326 N 
ATOM     12  C   UNL A   1      34.717  21.458  25.306  1.00  0.00     0.196 C 
ATOM     13  H   UNL A   1      35.440  23.229  22.724  1.00  0.00     0.347 HD
ATOM     14  H   UNL A   1      35.801  24.197  24.137  1.00  0.00     0.347 HD
ATOM     15  C   UNL A   1      33.431  21.524  24.540  1.00  0.00    -0.024 C 
ATOM     16  N   UNL A   1      35.024  19.993  25.394  1.00  0.00    -0.270 NA
ATOM     17  C   UNL A   1      32.834  22.877  24.398  1.00  0.00     0.111 C 
ATOM     18  C   UNL A   1      33.148  20.354  23.980  1.00  0.00     0.002 A 
ATOM     19  C   UNL A   1      34.121  19.458  24.627  1.00  0.00     0.066 A 
ATOM     20  C   UNL A   1      32.252  19.889  22.975  1.00  0.00     0.010 A 
ATOM     21  C   UNL A   1      33.942  18.011  24.366  1.00  0.00     0.028 A 
ATOM     22  C   UNL A   1      32.225  18.574  22.700  1.00  0.00     0.001 A 
ATOM     23  C   UNL A   1      33.027  17.626  23.460  1.00  0.00     0.002 A 
BRANCH  10  24
ATOM     24  C   UNL A   1      37.039  22.563  25.289  1.00  0.00     0.015 A 
ATOM     25  C   UNL A   1      38.121  20.259  24.934  1.00  0.00     0.045 C 
ATOM     26  C   UNL A   1      38.112  21.662  25.460  1.00  0.00    -0.042 A 
ATOM     27  C   UNL A   1      39.278  22.083  26.127  1.00  0.00     0.004 A 
ATOM     28  C   UNL A   1      39.386  23.358  26.668  1.00  0.00     0.000 A 
ATOM     29  C   UNL A   1      37.160  23.847  25.875  1.00  0.00     0.010 A 
ATOM     30  C   UNL A   1      38.318  24.237  26.560  1.00  0.00     0.001 A 
ENDBRANCH  10  24
ENDBRANCH   7   9
ENDBRANCH   6   7
ENDBRANCH   5   6
ENDBRANCH   4   5
ENDBRANCH   3   4
ENDBRANCH   2   3
ENDBRANCH   1   2
BRANCH   1  31
ATOM     31  O   UNL A   1      31.985  30.651  27.024  1.00  0.00    -0.376 OA
BRANCH  31  32
ATOM     32  C   UNL A   1      33.020  31.601  27.228  1.00  0.00     0.202 C 
BRANCH  32  33
ATOM     33  C   UNL A   1      32.549  33.019  27.640  1.00  0.00     0.261 C 
BRANCH  33  34
ATOM     34  O   UNL A   1      33.647  33.923  27.949  1.00  0.00    -0.460 OA
BRANCH  34  35
ATOM     35  C   UNL A   1      33.962  34.153  29.287  1.00  0.00     0.338 C 
ATOM     36  O   UNL A   1      33.148  34.520  30.086  1.00  0.00    -0.246 OA
BRANCH  35  37
ATOM     37  C   UNL A   1      35.380  33.706  29.593  1.00  0.00     0.060 A 
ATOM     38  C   UNL A   1      36.614  34.360  29.430  1.00  0.00     0.016 A 
ATOM     39  C   UNL A   1      35.495  32.427  30.000  1.00  0.00     0.016 A 
ATOM     40  C   UNL A   1      37.915  33.670  29.645  1.00  0.00     0.010 A 
ATOM     41  C   UNL A   1      36.741  31.811  29.953  1.00  0.00     0.010 A 
ATOM     42  C   UNL A   1      38.023  32.306  29.927  1.00  0.00    -0.014 A 
BRANCH  42  43
ATOM     43  C   UNL A   1      39.202  31.236  29.960  1.00  0.00     0.031 A 
ATOM     44  C   UNL A   1      39.449  29.696  29.380  1.00  0.00     0.074 A 
ATOM     45  C   UNL A   1      40.350  31.803  30.396  1.00  0.00     0.049 A 
ATOM     46  N   UNL A   1      40.465  28.945  29.774  1.00  0.00    -0.248 NA
ATOM     47  C   UNL A   1      38.698  28.827  28.412  1.00  0.00     0.031 C 
ATOM     48  C   UNL A   1      41.726  31.348  30.228  1.00  0.00     0.029 A 
ATOM     49  N   UNL A   1      40.457  32.877  31.272  1.00  0.00    -0.354 N 
ATOM     50  C   UNL A   1      40.563  27.796  28.973  1.00  0.00     0.074 A 
ATOM     51  C   UNL A   1      39.317  27.662  28.352  1.00  0.00     0.031 C 
ATOM     52  C   UNL A   1      42.488  31.922  31.169  1.00  0.00     0.029 A 
ATOM     53  C   UNL A   1      41.601  32.660  32.046  1.00  0.00     0.049 A 
ATOM     54  H   UNL A   1      39.844  33.645  31.335  1.00  0.00     0.167 HD
ATOM     55  C   UNL A   1      41.723  27.114  28.749  1.00  0.00     0.034 A 
ATOM     56  C   UNL A   1      41.484  32.523  33.395  1.00  0.00     0.034 A 
ATOM     57  C   UNL A   1      42.702  27.521  29.728  1.00  0.00     0.049 A 
ATOM     58  C   UNL A   1      41.998  31.194  33.904  1.00  0.00     0.074 A 
ATOM     59  C   UNL A   1      43.890  28.222  29.700  1.00  0.00     0.029 A 
ATOM     60  N   UNL A   1      42.349  27.383  31.057  1.00  0.00    -0.354 N 
ATOM     61  N   UNL A   1      42.427  30.224  33.145  1.00  0.00    -0.248 NA
ATOM     62  C   UNL A   1      42.058  30.845  35.316  1.00  0.00     0.031 C 
ATOM     63  C   UNL A   1      44.221  28.545  31.049  1.00  0.00     0.029 A 
ATOM     64  C   UNL A   1      43.263  27.989  31.881  1.00  0.00     0.049 A 
ATOM     65  H   UNL A   1      41.545  26.911  31.372  1.00  0.00     0.167 HD
ATOM     66  C   UNL A   1      42.716  29.115  33.903  1.00  0.00     0.074 A 
ATOM     67  C   UNL A   1      42.518  29.583  35.264  1.00  0.00     0.031 C 
ATOM     68  C   UNL A   1      43.041  27.917  33.318  1.00  0.00     0.034 A 
BRANCH  55  69
ATOM     69  C   UNL A   1      42.040  26.146  27.585  1.00  0.00     0.023 A 
ATOM     70  C   UNL A   1      42.724  24.941  27.882  1.00  0.00     0.031 A 
ATOM     71  C   UNL A   1      41.828  26.347  26.194  1.00  0.00     0.131 A 
ATOM     72  C   UNL A   1      43.174  24.056  26.870  1.00  0.00     0.055 A 
ATOM     73  C   UNL A   1      42.223  25.438  25.195  1.00  0.00     0.041 A 
ATOM     74  F   UNL A   1      41.281  27.451  25.681  1.00  0.00    -0.206 F 
ATOM     75  C   UNL A   1      42.913  24.292  25.526  1.00  0.00     0.022 A 
BRANCH  72  76
ATOM     76  S   UNL A   1      44.184  22.616  27.320  1.00  0.00     0.124 S 
ATOM     77  O   UNL A   1      44.674  22.989  28.643  1.00  0.00    -0.237 OA
ATOM     78  O   UNL A   1      43.218  21.527  27.263  1.00  0.00    -0.237 OA
ATOM     79  O   UNL A   1      45.211  22.582  26.275  1.00  0.00    -0.744 OA
ENDBRANCH  72  76
ENDBRANCH  55  69
BRANCH  56  80
ATOM     80  C   UNL A   1      40.366  33.356  33.947  1.00  0.00     0.023 A 
ATOM     81  C   UNL A   1      39.413  32.675  34.745  1.00  0.00     0.031 A 
ATOM     82  C   UNL A   1      40.455  34.748  34.095  1.00  0.00     0.131 A 
ATOM     83  C   UNL A   1      38.718  33.347  35.763  1.00  0.00     0.055 A 
ATOM     84  C   UNL A   1      39.683  35.431  35.051  1.00  0.00     0.041 A 
ATOM     85  F   UNL A   1      41.381  35.449  33.426  1.00  0.00    -0.206 F 
ATOM     86  C   UNL A   1      38.849  34.725  35.922  1.00  0.00     0.022 A 
BRANCH  83  87
ATOM     87  S   UNL A   1      37.894  32.369  37.061  1.00  0.00     0.124 S 
ATOM     88  O   UNL A   1      38.827  32.498  38.176  1.00  0.00    -0.237 OA
ATOM     89  O   UNL A   1      36.608  33.044  37.224  1.00  0.00    -0.237 OA
ATOM     90  O   UNL A   1      37.797  31.038  36.467  1.00  0.00    -0.744 OA
ENDBRANCH  83  87
ENDBRANCH  56  80
BRANCH  68  91
ATOM     91  C   UNL A   1      43.139  26.547  33.990  1.00  0.00     0.023 A 
ATOM     92  C   UNL A   1      44.304  25.776  34.011  1.00  0.00     0.031 A 
ATOM     93  C   UNL A   1      42.038  25.969  34.685  1.00  0.00     0.131 A 
ATOM     94  C   UNL A   1      44.353  24.520  34.645  1.00  0.00     0.055 A 
ATOM     95  C   UNL A   1      42.104  24.750  35.372  1.00  0.00     0.041 A 
ATOM     96  F   UNL A   1      40.834  26.555  34.743  1.00  0.00    -0.206 F 
ATOM     97  C   UNL A   1      43.269  24.008  35.347  1.00  0.00     0.022 A 
BRANCH  94  98
ATOM     98  S   UNL A   1      45.862  23.538  34.452  1.00  0.00     0.124 S 
ATOM     99  O   UNL A   1      46.740  24.470  33.750  1.00  0.00    -0.237 OA
ATOM    100  O   UNL A   1      46.223  23.251  35.836  1.00  0.00    -0.237 OA
ATOM    101  O   UNL A   1      45.426  22.385  33.668  1.00  0.00    -0.744 OA
ENDBRANCH  94  98
ENDBRANCH  68  91
ENDBRANCH  42  43
ENDBRANCH  35  37
ENDBRANCH  34  35
ENDBRANCH  33  34
ENDBRANCH  32  33
ENDBRANCH  31  32
ENDBRANCH   1  31
TORSDOF 21
ENDMDL
