MODEL 1
REMARK VINA RESULT:      -9.7      0.000      0.000
REMARK SMILES CC[C@@](C)(C(=O)OCCOCCOCCOC(=O)c1ccc(-c2c3nc(c(-c4cc(S(=O)(=O)[O-])ccc4F)c4ccc([nH]4)c(-c4cc(S(=O)(=O)[O-])ccc4F)c4nc(c(-c5cc(S(=O)(=O)[O-])ccc5F)c5ccc2[nH]5)C=C4)C=C3)cc1)n1nnnc1Cc1cccs1
REMARK SMILES IDX 11 1 10 2 9 3 8 4 7 5 5 6 6 7 3 8 4 9 2 10 1 11 82 12 83 13
REMARK SMILES IDX 86 14 84 15 85 16 87 17 88 18 89 19 92 20 90 21 91 22 12 23
REMARK SMILES IDX 13 24 14 25 15 26 16 27 17 28 18 29 19 30 20 31 81 32 21 33
REMARK SMILES IDX 80 34 22 35 23 36 24 37 74 38 25 39 79 40 73 41 75 42 26 43
REMARK SMILES IDX 78 44 72 45 71 46 27 48 59 49 39 50 58 51 40 52 43 53 57 54
REMARK SMILES IDX 76 55 41 56 42 57 56 59 77 60 44 61 28 62 29 63 37 64 30 65
REMARK SMILES IDX 36 66 38 67 35 68 31 69 32 70 33 71 34 72 60 73 61 74 69 75
REMARK SMILES IDX 62 76 68 77 70 78 67 79 63 80 64 81 65 82 66 83 45 84 46 85
REMARK SMILES IDX 54 86 47 87 53 88 55 89 52 90 48 91 49 92 50 93 51 94
REMARK H PARENT 75 47 43 58
REMARK Flexibility Score: inf
ROOT
ATOM      1  C   UNL A   1      35.247  21.140  24.715  1.00  0.00     0.188 C 
ENDROOT
BRANCH   1   2
ATOM      2  O   UNL A   1      34.002  21.711  25.095  1.00  0.00    -0.376 OA
BRANCH   2   3
ATOM      3  C   UNL A   1      33.555  22.879  24.418  1.00  0.00     0.202 C 
BRANCH   3   4
ATOM      4  C   UNL A   1      33.964  24.205  25.053  1.00  0.00     0.261 C 
BRANCH   4   5
ATOM      5  O   UNL A   1      32.900  25.186  25.029  1.00  0.00    -0.461 OA
BRANCH   5   6
ATOM      6  C   UNL A   1      32.996  26.148  24.065  1.00  0.00     0.334 C 
ATOM      7  O   UNL A   1      34.028  26.781  23.872  1.00  0.00    -0.249 OA
BRANCH   6   8
ATOM      8  C   UNL A   1      31.664  26.410  23.311  1.00  0.00     0.160 C 
ATOM      9  C   UNL A   1      30.654  25.437  23.986  1.00  0.00     0.050 C 
BRANCH   8  10
ATOM     10  C   UNL A   1      31.718  26.000  21.813  1.00  0.00     0.039 C 
ATOM     11  C   UNL A   1      32.868  25.067  21.435  1.00  0.00     0.007 C 
ENDBRANCH   8  10
BRANCH   8  12
ATOM     12  N   UNL A   1      31.279  27.806  23.577  1.00  0.00    -0.212 N 
ATOM     13  N   UNL A   1      30.889  28.545  22.511  1.00  0.00    -0.044 NA
ATOM     14  C   UNL A   1      31.121  28.587  24.713  1.00  0.00     0.157 A 
ATOM     15  N   UNL A   1      30.401  29.670  22.990  1.00  0.00    -0.024 NA
ATOM     16  N   UNL A   1      30.519  29.703  24.341  1.00  0.00    -0.113 NA
BRANCH  14  17
ATOM     17  C   UNL A   1      31.453  28.287  26.136  1.00  0.00     0.125 C 
BRANCH  17  18
ATOM     18  C   UNL A   1      32.674  28.992  26.674  1.00  0.00     0.012 A 
ATOM     19  C   UNL A   1      33.945  28.498  26.909  1.00  0.00     0.016 A 
ATOM     20  S   UNL A   1      32.607  30.684  26.977  1.00  0.00    -0.148 S 
ATOM     21  C   UNL A   1      34.862  29.511  27.313  1.00  0.00     0.012 A 
ATOM     22  C   UNL A   1      34.267  30.749  27.380  1.00  0.00     0.065 A 
ENDBRANCH  17  18
ENDBRANCH  14  17
ENDBRANCH   8  12
ENDBRANCH   6   8
ENDBRANCH   5   6
ENDBRANCH   4   5
ENDBRANCH   3   4
ENDBRANCH   2   3
ENDBRANCH   1   2
BRANCH   1  23
ATOM     23  C   UNL A   1      35.457  19.637  24.974  1.00  0.00     0.188 C 
BRANCH  23  24
ATOM     24  O   UNL A   1      36.783  19.125  24.968  1.00  0.00    -0.376 OA
BRANCH  24  25
ATOM     25  C   UNL A   1      37.833  20.089  24.953  1.00  0.00     0.202 C 
BRANCH  25  26
ATOM     26  C   UNL A   1      39.187  19.530  25.378  1.00  0.00     0.261 C 
BRANCH  26  27
ATOM     27  O   UNL A   1      39.505  19.982  26.705  1.00  0.00    -0.460 OA
BRANCH  27  28
ATOM     28  C   UNL A   1      40.796  20.356  26.862  1.00  0.00     0.338 C 
ATOM     29  O   UNL A   1      41.775  19.650  26.702  1.00  0.00    -0.246 OA
BRANCH  28  30
ATOM     30  C   UNL A   1      40.865  21.781  27.249  1.00  0.00     0.060 A 
ATOM     31  C   UNL A   1      40.040  22.728  26.640  1.00  0.00     0.016 A 
ATOM     32  C   UNL A   1      41.862  22.197  28.126  1.00  0.00     0.016 A 
ATOM     33  C   UNL A   1      40.263  24.093  26.822  1.00  0.00     0.010 A 
ATOM     34  C   UNL A   1      42.044  23.562  28.364  1.00  0.00     0.010 A 
ATOM     35  C   UNL A   1      41.282  24.526  27.674  1.00  0.00    -0.014 A 
BRANCH  35  36
ATOM     36  C   UNL A   1      41.673  25.963  27.745  1.00  0.00     0.031 A 
ATOM     37  C   UNL A   1      42.953  26.392  27.077  1.00  0.00     0.074 A 
ATOM     38  C   UNL A   1      40.908  26.884  28.363  1.00  0.00     0.049 A 
ATOM     39  N   UNL A   1      43.662  27.476  27.246  1.00  0.00    -0.248 NA
ATOM     40  C   UNL A   1      43.518  25.449  26.098  1.00  0.00     0.031 C 
ATOM     41  C   UNL A   1      39.585  26.646  28.937  1.00  0.00     0.029 A 
ATOM     42  N   UNL A   1      41.145  28.215  28.611  1.00  0.00    -0.354 N 
ATOM     43  C   UNL A   1      44.791  27.318  26.448  1.00  0.00     0.074 A 
ATOM     44  C   UNL A   1      44.670  26.030  25.799  1.00  0.00     0.031 C 
ATOM     45  C   UNL A   1      39.122  27.793  29.461  1.00  0.00     0.029 A 
ATOM     46  C   UNL A   1      40.154  28.819  29.352  1.00  0.00     0.049 A 
ATOM     47  H   UNL A   1      41.944  28.690  28.290  1.00  0.00     0.167 HD
ATOM     48  C   UNL A   1      45.837  28.167  26.288  1.00  0.00     0.034 A 
ATOM     49  C   UNL A   1      40.112  30.035  29.935  1.00  0.00     0.034 A 
ATOM     50  C   UNL A   1      45.908  29.465  26.915  1.00  0.00     0.049 A 
ATOM     51  C   UNL A   1      41.314  30.940  29.810  1.00  0.00     0.074 A 
ATOM     52  C   UNL A   1      46.928  30.400  26.861  1.00  0.00     0.029 A 
ATOM     53  N   UNL A   1      44.904  30.022  27.698  1.00  0.00    -0.354 N 
ATOM     54  N   UNL A   1      42.445  30.730  29.174  1.00  0.00    -0.248 NA
ATOM     55  C   UNL A   1      41.242  32.235  30.500  1.00  0.00     0.031 C 
ATOM     56  C   UNL A   1      46.562  31.497  27.651  1.00  0.00     0.029 A 
ATOM     57  C   UNL A   1      45.285  31.278  28.143  1.00  0.00     0.049 A 
ATOM     58  H   UNL A   1      44.046  29.586  27.907  1.00  0.00     0.167 HD
ATOM     59  C   UNL A   1      43.213  31.874  29.379  1.00  0.00     0.074 A 
ATOM     60  C   UNL A   1      42.409  32.776  30.178  1.00  0.00     0.031 C 
ATOM     61  C   UNL A   1      44.471  32.154  28.952  1.00  0.00     0.034 A 
BRANCH  48  62
ATOM     62  C   UNL A   1      47.009  27.674  25.476  1.00  0.00     0.023 A 
ATOM     63  C   UNL A   1      47.212  28.059  24.139  1.00  0.00     0.031 A 
ATOM     64  C   UNL A   1      47.909  26.748  26.036  1.00  0.00     0.131 A 
ATOM     65  C   UNL A   1      48.238  27.463  23.388  1.00  0.00     0.055 A 
ATOM     66  C   UNL A   1      48.976  26.221  25.308  1.00  0.00     0.041 A 
ATOM     67  F   UNL A   1      47.752  26.324  27.300  1.00  0.00    -0.206 F 
ATOM     68  C   UNL A   1      49.136  26.564  23.969  1.00  0.00     0.022 A 
BRANCH  65  69
ATOM     69  S   UNL A   1      48.289  27.760  21.599  1.00  0.00     0.124 S 
ATOM     70  O   UNL A   1      46.934  28.243  21.340  1.00  0.00    -0.237 OA
ATOM     71  O   UNL A   1      49.353  28.748  21.472  1.00  0.00    -0.237 OA
ATOM     72  O   UNL A   1      48.589  26.444  21.039  1.00  0.00    -0.744 OA
ENDBRANCH  65  69
ENDBRANCH  48  62
BRANCH  49  73
ATOM     73  C   UNL A   1      38.944  30.431  30.778  1.00  0.00     0.023 A 
ATOM     74  C   UNL A   1      37.951  31.296  30.294  1.00  0.00     0.031 A 
ATOM     75  C   UNL A   1      38.834  29.982  32.108  1.00  0.00     0.131 A 
ATOM     76  C   UNL A   1      36.911  31.714  31.141  1.00  0.00     0.055 A 
ATOM     77  C   UNL A   1      37.765  30.352  32.928  1.00  0.00     0.041 A 
ATOM     78  F   UNL A   1      39.762  29.166  32.632  1.00  0.00    -0.206 F 
ATOM     79  C   UNL A   1      36.802  31.232  32.449  1.00  0.00     0.022 A 
BRANCH  76  80
ATOM     80  S   UNL A   1      35.749  32.972  30.544  1.00  0.00     0.124 S 
ATOM     81  O   UNL A   1      35.930  34.035  31.528  1.00  0.00    -0.237 OA
ATOM     82  O   UNL A   1      36.254  33.246  29.204  1.00  0.00    -0.237 OA
ATOM     83  O   UNL A   1      34.455  32.293  30.593  1.00  0.00    -0.744 OA
ENDBRANCH  76  80
ENDBRANCH  49  73
BRANCH  61  84
ATOM     84  C   UNL A   1      45.024  33.510  29.311  1.00  0.00     0.023 A 
ATOM     85  C   UNL A   1      44.846  34.626  28.475  1.00  0.00     0.031 A 
ATOM     86  C   UNL A   1      45.751  33.681  30.503  1.00  0.00     0.131 A 
ATOM     87  C   UNL A   1      45.434  35.853  28.815  1.00  0.00     0.055 A 
ATOM     88  C   UNL A   1      46.289  34.917  30.861  1.00  0.00     0.041 A 
ATOM     89  F   UNL A   1      45.949  32.648  31.336  1.00  0.00    -0.206 F 
ATOM     90  C   UNL A   1      46.142  36.009  30.010  1.00  0.00     0.022 A 
BRANCH  87  91
ATOM     91  S   UNL A   1      45.329  37.228  27.637  1.00  0.00     0.124 S 
ATOM     92  O   UNL A   1      43.927  37.178  27.234  1.00  0.00    -0.237 OA
ATOM     93  O   UNL A   1      45.716  38.373  28.456  1.00  0.00    -0.237 OA
ATOM     94  O   UNL A   1      46.287  36.862  26.596  1.00  0.00    -0.744 OA
ENDBRANCH  87  91
ENDBRANCH  61  84
ENDBRANCH  35  36
ENDBRANCH  28  30
ENDBRANCH  27  28
ENDBRANCH  26  27
ENDBRANCH  25  26
ENDBRANCH  24  25
ENDBRANCH  23  24
ENDBRANCH   1  23
TORSDOF 24
ENDMDL
MODEL 2
REMARK VINA RESULT:      -9.4      2.056      2.950
REMARK SMILES CC[C@@](C)(C(=O)OCCOCCOCCOC(=O)c1ccc(-c2c3nc(c(-c4cc(S(=O)(=O)[O-])ccc4F)c4ccc([nH]4)c(-c4cc(S(=O)(=O)[O-])ccc4F)c4nc(c(-c5cc(S(=O)(=O)[O-])ccc5F)c5ccc2[nH]5)C=C4)C=C3)cc1)n1nnnc1Cc1cccs1
REMARK SMILES IDX 11 1 10 2 9 3 8 4 7 5 5 6 6 7 3 8 4 9 2 10 1 11 82 12 83 13
REMARK SMILES IDX 86 14 84 15 85 16 87 17 88 18 89 19 92 20 90 21 91 22 12 23
REMARK SMILES IDX 13 24 14 25 15 26 16 27 17 28 18 29 19 30 20 31 81 32 21 33
REMARK SMILES IDX 80 34 22 35 23 36 24 37 74 38 25 39 79 40 73 41 75 42 26 43
REMARK SMILES IDX 78 44 72 45 71 46 27 48 59 49 39 50 58 51 40 52 43 53 57 54
REMARK SMILES IDX 76 55 41 56 42 57 56 59 77 60 44 61 28 62 29 63 37 64 30 65
REMARK SMILES IDX 36 66 38 67 35 68 31 69 32 70 33 71 34 72 60 73 61 74 69 75
REMARK SMILES IDX 62 76 68 77 70 78 67 79 63 80 64 81 65 82 66 83 45 84 46 85
REMARK SMILES IDX 54 86 47 87 53 88 55 89 52 90 48 91 49 92 50 93 51 94
REMARK H PARENT 75 47 43 58
REMARK Flexibility Score: inf
ROOT
ATOM      1  C   UNL A   1      35.564  22.178  25.881  1.00  0.00     0.188 C 
ENDROOT
BRANCH   1   2
ATOM      2  O   UNL A   1      34.173  21.920  26.026  1.00  0.00    -0.376 OA
BRANCH   2   3
ATOM      3  C   UNL A   1      33.412  22.758  26.886  1.00  0.00     0.202 C 
BRANCH   3   4
ATOM      4  C   UNL A   1      32.451  23.717  26.190  1.00  0.00     0.261 C 
BRANCH   4   5
ATOM      5  O   UNL A   1      32.853  25.102  26.320  1.00  0.00    -0.461 OA
BRANCH   5   6
ATOM      6  C   UNL A   1      31.857  26.027  26.194  1.00  0.00     0.334 C 
ATOM      7  O   UNL A   1      30.705  25.801  26.546  1.00  0.00    -0.249 OA
BRANCH   6   8
ATOM      8  C   UNL A   1      32.309  27.336  25.493  1.00  0.00     0.160 C 
ATOM      9  C   UNL A   1      33.782  27.522  25.959  1.00  0.00     0.050 C 
BRANCH   8  10
ATOM     10  C   UNL A   1      31.540  28.592  25.990  1.00  0.00     0.039 C 
ATOM     11  C   UNL A   1      32.389  29.620  26.738  1.00  0.00     0.007 C 
ENDBRANCH   8  10
BRANCH   8  12
ATOM     12  N   UNL A   1      32.262  27.093  24.042  1.00  0.00    -0.212 N 
ATOM     13  N   UNL A   1      33.443  26.845  23.426  1.00  0.00    -0.044 NA
ATOM     14  C   UNL A   1      31.257  26.960  23.095  1.00  0.00     0.157 A 
ATOM     15  N   UNL A   1      33.156  26.459  22.201  1.00  0.00    -0.024 NA
ATOM     16  N   UNL A   1      31.817  26.506  21.988  1.00  0.00    -0.113 NA
BRANCH  14  17
ATOM     17  C   UNL A   1      29.787  27.180  23.221  1.00  0.00     0.125 C 
BRANCH  17  18
ATOM     18  C   UNL A   1      29.311  28.570  22.874  1.00  0.00     0.012 A 
ATOM     19  C   UNL A   1      30.032  29.663  22.428  1.00  0.00     0.016 A 
ATOM     20  S   UNL A   1      27.627  28.918  22.908  1.00  0.00    -0.148 S 
ATOM     21  C   UNL A   1      29.201  30.772  22.096  1.00  0.00     0.012 A 
ATOM     22  C   UNL A   1      27.869  30.497  22.300  1.00  0.00     0.065 A 
ENDBRANCH  17  18
ENDBRANCH  14  17
ENDBRANCH   8  12
ENDBRANCH   6   8
ENDBRANCH   5   6
ENDBRANCH   4   5
ENDBRANCH   3   4
ENDBRANCH   2   3
ENDBRANCH   1   2
BRANCH   1  23
ATOM     23  C   UNL A   1      36.362  21.288  24.911  1.00  0.00     0.188 C 
BRANCH  23  24
ATOM     24  O   UNL A   1      37.695  20.932  25.255  1.00  0.00    -0.376 OA
BRANCH  24  25
ATOM     25  C   UNL A   1      38.112  19.618  24.892  1.00  0.00     0.202 C 
BRANCH  25  26
ATOM     26  C   UNL A   1      39.427  19.190  25.536  1.00  0.00     0.261 C 
BRANCH  26  27
ATOM     27  O   UNL A   1      39.953  20.266  26.331  1.00  0.00    -0.460 OA
BRANCH  27  28
ATOM     28  C   UNL A   1      41.231  20.077  26.731  1.00  0.00     0.338 C 
ATOM     29  O   UNL A   1      41.756  19.009  26.988  1.00  0.00    -0.246 OA
BRANCH  28  30
ATOM     30  C   UNL A   1      41.935  21.376  26.802  1.00  0.00     0.060 A 
ATOM     31  C   UNL A   1      42.418  21.862  28.018  1.00  0.00     0.016 A 
ATOM     32  C   UNL A   1      41.985  22.181  25.668  1.00  0.00     0.016 A 
ATOM     33  C   UNL A   1      42.863  23.179  28.135  1.00  0.00     0.010 A 
ATOM     34  C   UNL A   1      42.495  23.479  25.767  1.00  0.00     0.010 A 
ATOM     35  C   UNL A   1      42.889  24.010  27.012  1.00  0.00    -0.014 A 
BRANCH  35  36
ATOM     36  C   UNL A   1      43.173  25.468  27.135  1.00  0.00     0.031 A 
ATOM     37  C   UNL A   1      44.521  25.975  26.694  1.00  0.00     0.074 A 
ATOM     38  C   UNL A   1      42.258  26.339  27.602  1.00  0.00     0.049 A 
ATOM     39  N   UNL A   1      45.122  27.101  26.973  1.00  0.00    -0.248 NA
ATOM     40  C   UNL A   1      45.303  25.071  25.837  1.00  0.00     0.031 C 
ATOM     41  C   UNL A   1      40.873  26.019  27.942  1.00  0.00     0.029 A 
ATOM     42  N   UNL A   1      42.367  27.682  27.875  1.00  0.00    -0.354 N 
ATOM     43  C   UNL A   1      46.381  27.014  26.384  1.00  0.00     0.074 A 
ATOM     44  C   UNL A   1      46.452  25.721  25.736  1.00  0.00     0.031 C 
ATOM     45  C   UNL A   1      40.257  27.135  28.366  1.00  0.00     0.029 A 
ATOM     46  C   UNL A   1      41.228  28.223  28.428  1.00  0.00     0.049 A 
ATOM     47  H   UNL A   1      43.179  28.206  27.692  1.00  0.00     0.167 HD
ATOM     48  C   UNL A   1      47.384  27.926  26.399  1.00  0.00     0.034 A 
ATOM     49  C   UNL A   1      41.011  29.433  28.983  1.00  0.00     0.034 A 
ATOM     50  C   UNL A   1      47.267  29.226  27.016  1.00  0.00     0.049 A 
ATOM     51  C   UNL A   1      42.159  30.411  29.059  1.00  0.00     0.074 A 
ATOM     52  C   UNL A   1      48.222  30.222  27.130  1.00  0.00     0.029 A 
ATOM     53  N   UNL A   1      46.110  29.718  27.609  1.00  0.00    -0.354 N 
ATOM     54  N   UNL A   1      43.394  30.272  28.630  1.00  0.00    -0.248 NA
ATOM     55  C   UNL A   1      41.890  31.698  29.713  1.00  0.00     0.031 C 
ATOM     56  C   UNL A   1      47.658  31.293  27.834  1.00  0.00     0.029 A 
ATOM     57  C   UNL A   1      46.331  30.995  28.101  1.00  0.00     0.049 A 
ATOM     58  H   UNL A   1      45.257  29.230  27.670  1.00  0.00     0.167 HD
ATOM     59  C   UNL A   1      44.043  31.461  28.953  1.00  0.00     0.074 A 
ATOM     60  C   UNL A   1      43.059  32.311  29.592  1.00  0.00     0.031 C 
ATOM     61  C   UNL A   1      45.337  31.818  28.747  1.00  0.00     0.034 A 
BRANCH  48  62
ATOM     62  C   UNL A   1      48.708  27.507  25.806  1.00  0.00     0.023 A 
ATOM     63  C   UNL A   1      49.035  27.740  24.459  1.00  0.00     0.031 A 
ATOM     64  C   UNL A   1      49.636  26.803  26.596  1.00  0.00     0.131 A 
ATOM     65  C   UNL A   1      50.219  27.206  23.925  1.00  0.00     0.055 A 
ATOM     66  C   UNL A   1      50.849  26.347  26.079  1.00  0.00     0.041 A 
ATOM     67  F   UNL A   1      49.369  26.529  27.883  1.00  0.00    -0.206 F 
ATOM     68  C   UNL A   1      51.140  26.532  24.731  1.00  0.00     0.022 A 
BRANCH  65  69
ATOM     69  S   UNL A   1      50.468  27.272  22.129  1.00  0.00     0.124 S 
ATOM     70  O   UNL A   1      49.270  26.595  21.639  1.00  0.00    -0.237 OA
ATOM     71  O   UNL A   1      50.543  28.705  21.872  1.00  0.00    -0.237 OA
ATOM     72  O   UNL A   1      51.716  26.537  21.928  1.00  0.00    -0.744 OA
ENDBRANCH  65  69
ENDBRANCH  48  62
BRANCH  49  73
ATOM     73  C   UNL A   1      39.693  29.755  29.607  1.00  0.00     0.023 A 
ATOM     74  C   UNL A   1      39.511  29.711  30.998  1.00  0.00     0.031 A 
ATOM     75  C   UNL A   1      38.577  30.067  28.808  1.00  0.00     0.131 A 
ATOM     76  C   UNL A   1      38.238  29.939  31.545  1.00  0.00     0.055 A 
ATOM     77  C   UNL A   1      37.327  30.353  29.360  1.00  0.00     0.041 A 
ATOM     78  F   UNL A   1      38.687  30.109  27.470  1.00  0.00    -0.206 F 
ATOM     79  C   UNL A   1      37.149  30.278  30.737  1.00  0.00     0.022 A 
BRANCH  76  80
ATOM     80  S   UNL A   1      37.995  29.695  33.327  1.00  0.00     0.124 S 
ATOM     81  O   UNL A   1      37.396  30.966  33.722  1.00  0.00    -0.237 OA
ATOM     82  O   UNL A   1      37.115  28.533  33.361  1.00  0.00    -0.237 OA
ATOM     83  O   UNL A   1      39.349  29.463  33.827  1.00  0.00    -0.744 OA
ENDBRANCH  76  80
ENDBRANCH  49  73
BRANCH  61  84
ATOM     84  C   UNL A   1      45.735  33.206  29.184  1.00  0.00     0.023 A 
ATOM     85  C   UNL A   1      45.599  34.316  28.332  1.00  0.00     0.031 A 
ATOM     86  C   UNL A   1      46.273  33.414  30.467  1.00  0.00     0.131 A 
ATOM     87  C   UNL A   1      46.044  35.577  28.755  1.00  0.00     0.055 A 
ATOM     88  C   UNL A   1      46.666  34.680  30.900  1.00  0.00     0.041 A 
ATOM     89  F   UNL A   1      46.424  32.387  31.318  1.00  0.00    -0.206 F 
ATOM     90  C   UNL A   1      46.563  35.768  30.038  1.00  0.00     0.022 A 
BRANCH  87  91
ATOM     91  S   UNL A   1      46.009  36.955  27.576  1.00  0.00     0.124 S 
ATOM     92  O   UNL A   1      47.057  36.576  26.633  1.00  0.00    -0.237 OA
ATOM     93  O   UNL A   1      44.642  36.897  27.067  1.00  0.00    -0.237 OA
ATOM     94  O   UNL A   1      46.310  38.123  28.403  1.00  0.00    -0.744 OA
ENDBRANCH  87  91
ENDBRANCH  61  84
ENDBRANCH  35  36
ENDBRANCH  28  30
ENDBRANCH  27  28
ENDBRANCH  26  27
ENDBRANCH  25  26
ENDBRANCH  24  25
ENDBRANCH  23  24
ENDBRANCH   1  23
TORSDOF 24
ENDMDL
MODEL 3
REMARK VINA RESULT:      -9.2      4.056      5.169
REMARK SMILES CC[C@@](C)(C(=O)OCCOCCOCCOC(=O)c1ccc(-c2c3nc(c(-c4cc(S(=O)(=O)[O-])ccc4F)c4ccc([nH]4)c(-c4cc(S(=O)(=O)[O-])ccc4F)c4nc(c(-c5cc(S(=O)(=O)[O-])ccc5F)c5ccc2[nH]5)C=C4)C=C3)cc1)n1nnnc1Cc1cccs1
REMARK SMILES IDX 11 1 10 2 9 3 8 4 7 5 5 6 6 7 3 8 4 9 2 10 1 11 82 12 83 13
REMARK SMILES IDX 86 14 84 15 85 16 87 17 88 18 89 19 92 20 90 21 91 22 12 23
REMARK SMILES IDX 13 24 14 25 15 26 16 27 17 28 18 29 19 30 20 31 81 32 21 33
REMARK SMILES IDX 80 34 22 35 23 36 24 37 74 38 25 39 79 40 73 41 75 42 26 43
REMARK SMILES IDX 78 44 72 45 71 46 27 48 59 49 39 50 58 51 40 52 43 53 57 54
REMARK SMILES IDX 76 55 41 56 42 57 56 59 77 60 44 61 28 62 29 63 37 64 30 65
REMARK SMILES IDX 36 66 38 67 35 68 31 69 32 70 33 71 34 72 60 73 61 74 69 75
REMARK SMILES IDX 62 76 68 77 70 78 67 79 63 80 64 81 65 82 66 83 45 84 46 85
REMARK SMILES IDX 54 86 47 87 53 88 55 89 52 90 48 91 49 92 50 93 51 94
REMARK H PARENT 75 47 43 58
REMARK Flexibility Score: inf
ROOT
ATOM      1  C   UNL A   1      35.216  21.710  26.367  1.00  0.00     0.188 C 
ENDROOT
BRANCH   1   2
ATOM      2  O   UNL A   1      33.872  22.131  26.564  1.00  0.00    -0.376 OA
BRANCH   2   3
ATOM      3  C   UNL A   1      32.905  21.803  25.575  1.00  0.00     0.202 C 
BRANCH   3   4
ATOM      4  C   UNL A   1      32.090  22.975  25.035  1.00  0.00     0.261 C 
BRANCH   4   5
ATOM      5  O   UNL A   1      32.922  24.058  24.555  1.00  0.00    -0.461 OA
BRANCH   5   6
ATOM      6  C   UNL A   1      32.260  25.167  24.111  1.00  0.00     0.334 C 
ATOM      7  O   UNL A   1      31.618  25.171  23.068  1.00  0.00    -0.249 OA
BRANCH   6   8
ATOM      8  C   UNL A   1      32.474  26.419  25.004  1.00  0.00     0.160 C 
ATOM      9  C   UNL A   1      33.853  26.167  25.679  1.00  0.00     0.050 C 
BRANCH   8  10
ATOM     10  C   UNL A   1      31.443  26.529  26.161  1.00  0.00     0.039 C 
ATOM     11  C   UNL A   1      31.539  27.804  26.998  1.00  0.00     0.007 C 
ENDBRANCH   8  10
BRANCH   8  12
ATOM     12  N   UNL A   1      32.554  27.585  24.108  1.00  0.00    -0.212 N 
ATOM     13  N   UNL A   1      33.791  28.075  23.852  1.00  0.00    -0.044 NA
ATOM     14  C   UNL A   1      31.647  28.307  23.345  1.00  0.00     0.157 A 
ATOM     15  N   UNL A   1      33.653  28.962  22.889  1.00  0.00    -0.024 NA
ATOM     16  N   UNL A   1      32.346  29.102  22.554  1.00  0.00    -0.113 NA
BRANCH  14  17
ATOM     17  C   UNL A   1      30.160  28.221  23.289  1.00  0.00     0.125 C 
BRANCH  17  18
ATOM     18  C   UNL A   1      29.439  29.546  23.239  1.00  0.00     0.012 A 
ATOM     19  C   UNL A   1      29.630  30.683  24.005  1.00  0.00     0.016 A 
ATOM     20  S   UNL A   1      28.259  29.820  22.018  1.00  0.00    -0.148 S 
ATOM     21  C   UNL A   1      28.825  31.777  23.574  1.00  0.00     0.012 A 
ATOM     22  C   UNL A   1      28.040  31.447  22.494  1.00  0.00     0.065 A 
ENDBRANCH  17  18
ENDBRANCH  14  17
ENDBRANCH   8  12
ENDBRANCH   6   8
ENDBRANCH   5   6
ENDBRANCH   4   5
ENDBRANCH   3   4
ENDBRANCH   2   3
ENDBRANCH   1   2
BRANCH   1  23
ATOM     23  C   UNL A   1      35.506  20.768  25.184  1.00  0.00     0.188 C 
BRANCH  23  24
ATOM     24  O   UNL A   1      36.820  20.745  24.640  1.00  0.00    -0.376 OA
BRANCH  24  25
ATOM     25  C   UNL A   1      37.658  21.851  24.966  1.00  0.00     0.202 C 
BRANCH  25  26
ATOM     26  C   UNL A   1      38.898  21.468  25.767  1.00  0.00     0.261 C 
BRANCH  26  27
ATOM     27  O   UNL A   1      39.195  22.496  26.726  1.00  0.00    -0.460 OA
BRANCH  27  28
ATOM     28  C   UNL A   1      40.358  23.147  26.490  1.00  0.00     0.338 C 
ATOM     29  O   UNL A   1      41.354  22.678  25.972  1.00  0.00    -0.246 OA
BRANCH  28  30
ATOM     30  C   UNL A   1      40.250  24.551  26.942  1.00  0.00     0.060 A 
ATOM     31  C   UNL A   1      40.708  25.598  26.139  1.00  0.00     0.016 A 
ATOM     32  C   UNL A   1      39.821  24.814  28.239  1.00  0.00     0.016 A 
ATOM     33  C   UNL A   1      40.831  26.890  26.650  1.00  0.00     0.010 A 
ATOM     34  C   UNL A   1      39.879  26.121  28.732  1.00  0.00     0.010 A 
ATOM     35  C   UNL A   1      40.434  27.162  27.962  1.00  0.00    -0.014 A 
BRANCH  35  36
ATOM     36  C   UNL A   1      40.728  28.476  28.602  1.00  0.00     0.031 A 
ATOM     37  C   UNL A   1      42.162  28.823  28.902  1.00  0.00     0.074 A 
ATOM     38  C   UNL A   1      39.757  29.363  28.895  1.00  0.00     0.049 A 
ATOM     39  N   UNL A   1      42.653  29.727  29.708  1.00  0.00    -0.248 NA
ATOM     40  C   UNL A   1      43.180  28.019  28.206  1.00  0.00     0.031 C 
ATOM     41  C   UNL A   1      38.344  29.226  28.546  1.00  0.00     0.029 A 
ATOM     42  N   UNL A   1      39.821  30.563  29.562  1.00  0.00    -0.354 N 
ATOM     43  C   UNL A   1      44.034  29.556  29.672  1.00  0.00     0.074 A 
ATOM     44  C   UNL A   1      44.298  28.460  28.764  1.00  0.00     0.031 C 
ATOM     45  C   UNL A   1      37.676  30.303  28.992  1.00  0.00     0.029 A 
ATOM     46  C   UNL A   1      38.591  31.155  29.745  1.00  0.00     0.049 A 
ATOM     47  H   UNL A   1      40.663  30.961  29.877  1.00  0.00     0.167 HD
ATOM     48  C   UNL A   1      44.987  30.245  30.347  1.00  0.00     0.034 A 
ATOM     49  C   UNL A   1      38.231  32.220  30.490  1.00  0.00     0.034 A 
ATOM     50  C   UNL A   1      44.696  31.364  31.211  1.00  0.00     0.049 A 
ATOM     51  C   UNL A   1      39.292  32.931  31.295  1.00  0.00     0.074 A 
ATOM     52  C   UNL A   1      45.568  32.118  31.977  1.00  0.00     0.029 A 
ATOM     53  N   UNL A   1      43.430  31.903  31.408  1.00  0.00    -0.354 N 
ATOM     54  N   UNL A   1      40.579  32.678  31.374  1.00  0.00    -0.248 NA
ATOM     55  C   UNL A   1      38.848  34.057  32.127  1.00  0.00     0.031 C 
ATOM     56  C   UNL A   1      44.823  33.078  32.674  1.00  0.00     0.029 A 
ATOM     57  C   UNL A   1      43.496  32.968  32.291  1.00  0.00     0.049 A 
ATOM     58  H   UNL A   1      42.606  31.574  30.981  1.00  0.00     0.167 HD
ATOM     59  C   UNL A   1      41.099  33.623  32.256  1.00  0.00     0.074 A 
ATOM     60  C   UNL A   1      39.990  34.461  32.665  1.00  0.00     0.031 C 
ATOM     61  C   UNL A   1      42.373  33.781  32.695  1.00  0.00     0.034 A 
BRANCH  48  62
ATOM     62  C   UNL A   1      46.408  29.747  30.238  1.00  0.00     0.023 A 
ATOM     63  C   UNL A   1      46.916  28.734  31.070  1.00  0.00     0.031 A 
ATOM     64  C   UNL A   1      47.290  30.346  29.319  1.00  0.00     0.131 A 
ATOM     65  C   UNL A   1      48.281  28.408  31.021  1.00  0.00     0.055 A 
ATOM     66  C   UNL A   1      48.627  29.959  29.218  1.00  0.00     0.041 A 
ATOM     67  F   UNL A   1      46.869  31.335  28.514  1.00  0.00    -0.206 F 
ATOM     68  C   UNL A   1      49.134  28.996  30.084  1.00  0.00     0.022 A 
BRANCH  65  69
ATOM     69  S   UNL A   1      48.959  27.315  32.300  1.00  0.00     0.124 S 
ATOM     70  O   UNL A   1      48.295  26.051  31.992  1.00  0.00    -0.237 OA
ATOM     71  O   UNL A   1      50.391  27.366  32.034  1.00  0.00    -0.237 OA
ATOM     72  O   UNL A   1      48.534  27.943  33.550  1.00  0.00    -0.744 OA
ENDBRANCH  65  69
ENDBRANCH  48  62
BRANCH  49  73
ATOM     73  C   UNL A   1      36.796  32.618  30.601  1.00  0.00     0.023 A 
ATOM     74  C   UNL A   1      36.140  33.291  29.559  1.00  0.00     0.031 A 
ATOM     75  C   UNL A   1      36.071  32.369  31.782  1.00  0.00     0.131 A 
ATOM     76  C   UNL A   1      34.814  33.724  29.730  1.00  0.00     0.055 A 
ATOM     77  C   UNL A   1      34.735  32.747  31.925  1.00  0.00     0.041 A 
ATOM     78  F   UNL A   1      36.651  31.743  32.818  1.00  0.00    -0.206 F 
ATOM     79  C   UNL A   1      34.102  33.439  30.898  1.00  0.00     0.022 A 
BRANCH  76  80
ATOM     80  S   UNL A   1      34.056  34.749  28.439  1.00  0.00     0.124 S 
ATOM     81  O   UNL A   1      34.951  34.517  27.311  1.00  0.00    -0.237 OA
ATOM     82  O   UNL A   1      32.722  34.167  28.329  1.00  0.00    -0.237 OA
ATOM     83  O   UNL A   1      34.100  36.097  29.003  1.00  0.00    -0.744 OA
ENDBRANCH  76  80
ENDBRANCH  49  73
BRANCH  61  84
ATOM     84  C   UNL A   1      42.630  34.934  33.633  1.00  0.00     0.023 A 
ATOM     85  C   UNL A   1      42.500  34.796  35.026  1.00  0.00     0.031 A 
ATOM     86  C   UNL A   1      42.995  36.192  33.121  1.00  0.00     0.131 A 
ATOM     87  C   UNL A   1      42.682  35.911  35.857  1.00  0.00     0.055 A 
ATOM     88  C   UNL A   1      43.226  37.285  33.957  1.00  0.00     0.041 A 
ATOM     89  F   UNL A   1      43.132  36.377  31.798  1.00  0.00    -0.206 F 
ATOM     90  C   UNL A   1      43.059  37.150  35.332  1.00  0.00     0.022 A 
BRANCH  87  91
ATOM     91  S   UNL A   1      42.346  35.742  37.632  1.00  0.00     0.124 S 
ATOM     92  O   UNL A   1      43.640  35.308  38.147  1.00  0.00    -0.237 OA
ATOM     93  O   UNL A   1      41.932  37.092  38.002  1.00  0.00    -0.237 OA
ATOM     94  O   UNL A   1      41.286  34.736  37.685  1.00  0.00    -0.744 OA
ENDBRANCH  87  91
ENDBRANCH  61  84
ENDBRANCH  35  36
ENDBRANCH  28  30
ENDBRANCH  27  28
ENDBRANCH  26  27
ENDBRANCH  25  26
ENDBRANCH  24  25
ENDBRANCH  23  24
ENDBRANCH   1  23
TORSDOF 24
ENDMDL
