MODEL 1
REMARK VINA RESULT:     -11.1      0.000      0.000
REMARK SMILES CC(=O)Nc1cccc(NS(=O)(=O)c2cccc(C(=O)OCCOCCOCCOC(=O)c3ccc(-c4c5nc(c(-c6cc(S(=O)(=O)[O-])ccc6F)c6ccc([nH]6)c(-c6cc(S(=O)(=O)[O-])ccc6F)c6nc(c(-c7cc(S(=O)(=O)[O-])ccc7F)c7ccc4[nH]7)C=C6)C=C5)cc3)c2)c1
REMARK SMILES IDX 25 1 24 2 23 3 22 4 21 5 19 6 20 7 18 8 14 9 15 10 96 11
REMARK SMILES IDX 16 12 17 13 11 14 12 15 13 16 10 17 9 19 5 20 6 21 97 22
REMARK SMILES IDX 7 23 8 24 4 25 1 26 2 27 3 28 26 30 27 31 28 32 29 33 30 34
REMARK SMILES IDX 31 35 32 36 33 37 34 38 95 39 35 40 94 41 36 42 37 43 38 44
REMARK SMILES IDX 88 45 39 46 93 47 87 48 89 49 40 50 92 51 86 52 85 53 41 55
REMARK SMILES IDX 73 56 53 57 72 58 54 59 57 60 71 61 90 62 55 63 56 64 70 66
REMARK SMILES IDX 91 67 58 68 42 69 43 70 51 71 44 72 50 73 52 74 49 75 45 76
REMARK SMILES IDX 46 77 47 78 48 79 74 80 75 81 83 82 76 83 82 84 84 85 81 86
REMARK SMILES IDX 77 87 78 88 79 89 80 90 59 91 60 92 68 93 61 94 67 95 69 96
REMARK SMILES IDX 66 97 62 98 63 99 64 100 65 101
REMARK H PARENT 10 18 4 29 89 54 57 65
REMARK Flexibility Score: inf
ROOT
ATOM      1  C   UNL A   1      35.266  21.762  26.352  1.00  0.00     0.188 C 
ENDROOT
BRANCH   1   2
ATOM      2  O   UNL A   1      34.276  22.747  26.090  1.00  0.00    -0.376 OA
BRANCH   2   3
ATOM      3  C   UNL A   1      32.967  22.586  26.618  1.00  0.00     0.202 C 
BRANCH   3   4
ATOM      4  C   UNL A   1      31.843  22.110  25.685  1.00  0.00     0.261 C 
BRANCH   4   5
ATOM      5  O   UNL A   1      30.930  23.139  25.261  1.00  0.00    -0.460 OA
BRANCH   5   6
ATOM      6  C   UNL A   1      30.537  24.007  26.228  1.00  0.00     0.338 C 
ATOM      7  O   UNL A   1      29.943  23.732  27.256  1.00  0.00    -0.246 OA
BRANCH   6   8
ATOM      8  C   UNL A   1      31.086  25.360  25.965  1.00  0.00     0.061 A 
ATOM      9  C   UNL A   1      32.217  26.996  24.595  1.00  0.00     0.088 A 
ATOM     10  C   UNL A   1      31.989  27.978  25.571  1.00  0.00     0.022 A 
ATOM     11  C   UNL A   1      31.751  25.686  24.777  1.00  0.00     0.038 A 
ATOM     12  C   UNL A   1      31.374  27.633  26.774  1.00  0.00     0.002 A 
ATOM     13  C   UNL A   1      30.919  26.329  26.968  1.00  0.00     0.016 A 
BRANCH   9  14
ATOM     14  S   UNL A   1      32.941  27.478  23.052  1.00  0.00     0.261 S 
ATOM     15  O   UNL A   1      33.452  26.282  22.414  1.00  0.00    -0.201 OA
ATOM     16  O   UNL A   1      33.843  28.579  23.326  1.00  0.00    -0.201 OA
BRANCH  14  17
ATOM     17  N   UNL A   1      31.778  28.118  21.999  1.00  0.00    -0.280 N 
ATOM     18  H   UNL A   1      32.014  28.171  21.044  1.00  0.00     0.180 HD
BRANCH  17  19
ATOM     19  C   UNL A   1      30.476  28.591  22.381  1.00  0.00     0.051 A 
ATOM     20  C   UNL A   1      28.685  30.194  21.951  1.00  0.00     0.043 A 
ATOM     21  C   UNL A   1      27.822  29.467  22.754  1.00  0.00     0.026 A 
ATOM     22  C   UNL A   1      30.014  29.775  21.788  1.00  0.00     0.052 A 
ATOM     23  C   UNL A   1      28.240  28.239  23.240  1.00  0.00     0.004 A 
ATOM     24  C   UNL A   1      29.543  27.788  23.026  1.00  0.00     0.027 A 
BRANCH  20  25
ATOM     25  N   UNL A   1      28.148  31.286  21.261  1.00  0.00    -0.326 N 
ATOM     26  C   UNL A   1      28.855  32.945  22.965  1.00  0.00     0.114 C 
ATOM     27  C   UNL A   1      28.148  32.592  21.679  1.00  0.00     0.221 C 
ATOM     28  O   UNL A   1      27.638  33.460  20.969  1.00  0.00    -0.275 OA
ATOM     29  H   UNL A   1      27.730  31.098  20.390  1.00  0.00     0.169 HD
ENDBRANCH  20  25
ENDBRANCH  17  19
ENDBRANCH  14  17
ENDBRANCH   9  14
ENDBRANCH   6   8
ENDBRANCH   5   6
ENDBRANCH   4   5
ENDBRANCH   3   4
ENDBRANCH   2   3
ENDBRANCH   1   2
BRANCH   1  30
ATOM     30  C   UNL A   1      36.530  21.699  25.470  1.00  0.00     0.188 C 
BRANCH  30  31
ATOM     31  O   UNL A   1      37.080  20.404  25.333  1.00  0.00    -0.376 OA
BRANCH  31  32
ATOM     32  C   UNL A   1      38.458  20.330  25.005  1.00  0.00     0.202 C 
BRANCH  32  33
ATOM     33  C   UNL A   1      39.324  19.302  25.752  1.00  0.00     0.261 C 
BRANCH  33  34
ATOM     34  O   UNL A   1      40.749  19.469  25.641  1.00  0.00    -0.460 OA
BRANCH  34  35
ATOM     35  C   UNL A   1      41.459  19.654  26.774  1.00  0.00     0.338 C 
ATOM     36  O   UNL A   1      41.877  18.786  27.528  1.00  0.00    -0.246 OA
BRANCH  35  37
ATOM     37  C   UNL A   1      41.771  21.095  26.881  1.00  0.00     0.060 A 
ATOM     38  C   UNL A   1      42.203  21.633  28.101  1.00  0.00     0.016 A 
ATOM     39  C   UNL A   1      41.660  21.913  25.757  1.00  0.00     0.016 A 
ATOM     40  C   UNL A   1      42.523  22.987  28.205  1.00  0.00     0.010 A 
ATOM     41  C   UNL A   1      41.977  23.270  25.863  1.00  0.00     0.010 A 
ATOM     42  C   UNL A   1      42.404  23.817  27.087  1.00  0.00    -0.014 A 
BRANCH  42  43
ATOM     43  C   UNL A   1      42.653  25.275  27.193  1.00  0.00     0.031 A 
ATOM     44  C   UNL A   1      43.994  25.815  26.790  1.00  0.00     0.074 A 
ATOM     45  C   UNL A   1      41.705  26.098  27.675  1.00  0.00     0.049 A 
ATOM     46  N   UNL A   1      44.497  27.006  26.970  1.00  0.00    -0.248 NA
ATOM     47  C   UNL A   1      44.887  24.876  26.096  1.00  0.00     0.031 C 
ATOM     48  C   UNL A   1      40.342  25.702  28.028  1.00  0.00     0.029 A 
ATOM     49  N   UNL A   1      41.755  27.437  27.978  1.00  0.00    -0.354 N 
ATOM     50  C   UNL A   1      45.777  26.960  26.428  1.00  0.00     0.074 A 
ATOM     51  C   UNL A   1      45.976  25.613  25.935  1.00  0.00     0.031 C 
ATOM     52  C   UNL A   1      39.693  26.768  28.525  1.00  0.00     0.029 A 
ATOM     53  C   UNL A   1      40.611  27.904  28.586  1.00  0.00     0.049 A 
ATOM     54  H   UNL A   1      42.532  28.007  27.778  1.00  0.00     0.167 HD
ATOM     55  C   UNL A   1      46.697  27.953  26.356  1.00  0.00     0.034 A 
ATOM     56  C   UNL A   1      40.358  29.090  29.175  1.00  0.00     0.034 A 
ATOM     57  C   UNL A   1      46.481  29.283  26.873  1.00  0.00     0.049 A 
ATOM     58  C   UNL A   1      41.447  30.137  29.207  1.00  0.00     0.074 A 
ATOM     59  C   UNL A   1      47.338  30.369  26.842  1.00  0.00     0.029 A 
ATOM     60  N   UNL A   1      45.336  29.701  27.538  1.00  0.00    -0.354 N 
ATOM     61  N   UNL A   1      42.657  30.086  28.699  1.00  0.00    -0.248 NA
ATOM     62  C   UNL A   1      41.139  31.395  29.900  1.00  0.00     0.031 C 
ATOM     63  C   UNL A   1      46.747  31.413  27.560  1.00  0.00     0.029 A 
ATOM     64  C   UNL A   1      45.484  31.012  27.963  1.00  0.00     0.049 A 
ATOM     65  H   UNL A   1      44.534  29.148  27.683  1.00  0.00     0.167 HD
ATOM     66  C   UNL A   1      43.243  31.317  28.989  1.00  0.00     0.074 A 
ATOM     67  C   UNL A   1      42.251  32.092  29.704  1.00  0.00     0.031 C 
ATOM     68  C   UNL A   1      44.488  31.768  28.689  1.00  0.00     0.034 A 
BRANCH  55  69
ATOM     69  C   UNL A   1      48.039  27.614  25.753  1.00  0.00     0.023 A 
ATOM     70  C   UNL A   1      48.285  27.741  24.375  1.00  0.00     0.031 A 
ATOM     71  C   UNL A   1      49.078  27.126  26.564  1.00  0.00     0.131 A 
ATOM     72  C   UNL A   1      49.509  27.311  23.841  1.00  0.00     0.055 A 
ATOM     73  C   UNL A   1      50.324  26.782  26.039  1.00  0.00     0.041 A 
ATOM     74  F   UNL A   1      48.894  26.958  27.884  1.00  0.00    -0.206 F 
ATOM     75  C   UNL A   1      50.541  26.858  24.667  1.00  0.00     0.022 A 
BRANCH  72  76
ATOM     76  S   UNL A   1      49.674  27.205  22.038  1.00  0.00     0.124 S 
ATOM     77  O   UNL A   1      51.060  26.769  21.894  1.00  0.00    -0.237 OA
ATOM     78  O   UNL A   1      48.656  26.223  21.686  1.00  0.00    -0.237 OA
ATOM     79  O   UNL A   1      49.409  28.570  21.589  1.00  0.00    -0.744 OA
ENDBRANCH  72  76
ENDBRANCH  55  69
BRANCH  56  80
ATOM     80  C   UNL A   1      39.049  29.337  29.847  1.00  0.00     0.023 A 
ATOM     81  C   UNL A   1      38.054  30.109  29.226  1.00  0.00     0.031 A 
ATOM     82  C   UNL A   1      38.792  28.850  31.141  1.00  0.00     0.131 A 
ATOM     83  C   UNL A   1      36.868  30.407  29.916  1.00  0.00     0.055 A 
ATOM     84  C   UNL A   1      37.586  29.099  31.799  1.00  0.00     0.041 A 
ATOM     85  F   UNL A   1      39.712  28.116  31.787  1.00  0.00    -0.206 F 
ATOM     86  C   UNL A   1      36.620  29.893  31.190  1.00  0.00     0.022 A 
BRANCH  83  87
ATOM     87  S   UNL A   1      35.692  31.559  29.155  1.00  0.00     0.124 S 
ATOM     88  O   UNL A   1      35.104  32.198  30.328  1.00  0.00    -0.237 OA
ATOM     89  O   UNL A   1      36.568  32.394  28.341  1.00  0.00    -0.237 OA
ATOM     90  O   UNL A   1      34.794  30.682  28.407  1.00  0.00    -0.744 OA
ENDBRANCH  83  87
ENDBRANCH  56  80
BRANCH  68  91
ATOM     91  C   UNL A   1      44.834  33.179  29.101  1.00  0.00     0.023 A 
ATOM     92  C   UNL A   1      44.487  34.287  28.308  1.00  0.00     0.031 A 
ATOM     93  C   UNL A   1      45.499  33.418  30.317  1.00  0.00     0.131 A 
ATOM     94  C   UNL A   1      44.841  35.580  28.723  1.00  0.00     0.055 A 
ATOM     95  C   UNL A   1      45.794  34.711  30.753  1.00  0.00     0.041 A 
ATOM     96  F   UNL A   1      45.857  32.397  31.112  1.00  0.00    -0.206 F 
ATOM     97  C   UNL A   1      45.472  35.801  29.949  1.00  0.00     0.022 A 
BRANCH  94  98
ATOM     98  S   UNL A   1      44.525  36.973  27.604  1.00  0.00     0.124 S 
ATOM     99  O   UNL A   1      45.818  37.133  26.948  1.00  0.00    -0.237 OA
ATOM    100  O   UNL A   1      43.444  36.464  26.766  1.00  0.00    -0.237 OA
ATOM    101  O   UNL A   1      44.149  38.059  28.506  1.00  0.00    -0.744 OA
ENDBRANCH  94  98
ENDBRANCH  68  91
ENDBRANCH  42  43
ENDBRANCH  35  37
ENDBRANCH  34  35
ENDBRANCH  33  34
ENDBRANCH  32  33
ENDBRANCH  31  32
ENDBRANCH  30  31
ENDBRANCH   1  30
TORSDOF 24
ENDMDL
MODEL 2
REMARK VINA RESULT:     -10.2      1.933      2.237
REMARK SMILES CC(=O)Nc1cccc(NS(=O)(=O)c2cccc(C(=O)OCCOCCOCCOC(=O)c3ccc(-c4c5nc(c(-c6cc(S(=O)(=O)[O-])ccc6F)c6ccc([nH]6)c(-c6cc(S(=O)(=O)[O-])ccc6F)c6nc(c(-c7cc(S(=O)(=O)[O-])ccc7F)c7ccc4[nH]7)C=C6)C=C5)cc3)c2)c1
REMARK SMILES IDX 25 1 24 2 23 3 22 4 21 5 19 6 20 7 18 8 14 9 15 10 96 11
REMARK SMILES IDX 16 12 17 13 11 14 12 15 13 16 10 17 9 19 5 20 6 21 97 22
REMARK SMILES IDX 7 23 8 24 4 25 1 26 2 27 3 28 26 30 27 31 28 32 29 33 30 34
REMARK SMILES IDX 31 35 32 36 33 37 34 38 95 39 35 40 94 41 36 42 37 43 38 44
REMARK SMILES IDX 88 45 39 46 93 47 87 48 89 49 40 50 92 51 86 52 85 53 41 55
REMARK SMILES IDX 73 56 53 57 72 58 54 59 57 60 71 61 90 62 55 63 56 64 70 66
REMARK SMILES IDX 91 67 58 68 42 69 43 70 51 71 44 72 50 73 52 74 49 75 45 76
REMARK SMILES IDX 46 77 47 78 48 79 74 80 75 81 83 82 76 83 82 84 84 85 81 86
REMARK SMILES IDX 77 87 78 88 79 89 80 90 59 91 60 92 68 93 61 94 67 95 69 96
REMARK SMILES IDX 66 97 62 98 63 99 64 100 65 101
REMARK H PARENT 10 18 4 29 89 54 57 65
REMARK Flexibility Score: inf
ROOT
ATOM      1  C   UNL A   1      35.564  21.796  25.565  1.00  0.00     0.188 C 
ENDROOT
BRANCH   1   2
ATOM      2  O   UNL A   1      34.862  22.931  25.076  1.00  0.00    -0.376 OA
BRANCH   2   3
ATOM      3  C   UNL A   1      33.546  23.197  25.540  1.00  0.00     0.202 C 
BRANCH   3   4
ATOM      4  C   UNL A   1      32.372  23.073  24.556  1.00  0.00     0.261 C 
BRANCH   4   5
ATOM      5  O   UNL A   1      31.114  23.573  25.046  1.00  0.00    -0.460 OA
BRANCH   5   6
ATOM      6  C   UNL A   1      31.175  24.270  26.210  1.00  0.00     0.338 C 
ATOM      7  O   UNL A   1      31.090  23.814  27.336  1.00  0.00    -0.246 OA
BRANCH   6   8
ATOM      8  C   UNL A   1      31.543  25.683  25.951  1.00  0.00     0.061 A 
ATOM      9  C   UNL A   1      32.346  27.476  24.546  1.00  0.00     0.088 A 
ATOM     10  C   UNL A   1      32.111  28.397  25.579  1.00  0.00     0.022 A 
ATOM     11  C   UNL A   1      32.047  26.117  24.718  1.00  0.00     0.038 A 
ATOM     12  C   UNL A   1      31.661  27.950  26.820  1.00  0.00     0.002 A 
ATOM     13  C   UNL A   1      31.373  26.597  27.003  1.00  0.00     0.016 A 
BRANCH   9  14
ATOM     14  S   UNL A   1      32.856  28.083  22.962  1.00  0.00     0.261 S 
ATOM     15  O   UNL A   1      33.684  27.066  22.348  1.00  0.00    -0.201 OA
ATOM     16  O   UNL A   1      33.395  29.413  23.164  1.00  0.00    -0.201 OA
BRANCH  14  17
ATOM     17  N   UNL A   1      31.529  28.302  21.930  1.00  0.00    -0.280 N 
ATOM     18  H   UNL A   1      31.655  28.078  20.979  1.00  0.00     0.180 HD
BRANCH  17  19
ATOM     19  C   UNL A   1      30.236  28.785  22.326  1.00  0.00     0.051 A 
ATOM     20  C   UNL A   1      28.454  30.404  21.913  1.00  0.00     0.043 A 
ATOM     21  C   UNL A   1      27.593  29.684  22.725  1.00  0.00     0.026 A 
ATOM     22  C   UNL A   1      29.777  29.973  21.736  1.00  0.00     0.052 A 
ATOM     23  C   UNL A   1      28.005  28.453  23.208  1.00  0.00     0.004 A 
ATOM     24  C   UNL A   1      29.302  27.992  22.981  1.00  0.00     0.027 A 
BRANCH  20  25
ATOM     25  N   UNL A   1      27.919  31.500  21.228  1.00  0.00    -0.326 N 
ATOM     26  C   UNL A   1      28.817  33.171  22.826  1.00  0.00     0.114 C 
ATOM     27  C   UNL A   1      28.007  32.816  21.603  1.00  0.00     0.221 C 
ATOM     28  O   UNL A   1      27.487  33.686  20.903  1.00  0.00    -0.275 OA
ATOM     29  H   UNL A   1      27.432  31.307  20.394  1.00  0.00     0.169 HD
ENDBRANCH  20  25
ENDBRANCH  17  19
ENDBRANCH  14  17
ENDBRANCH   9  14
ENDBRANCH   6   8
ENDBRANCH   5   6
ENDBRANCH   4   5
ENDBRANCH   3   4
ENDBRANCH   2   3
ENDBRANCH   1   2
BRANCH   1  30
ATOM     30  C   UNL A   1      36.846  21.327  24.849  1.00  0.00     0.188 C 
BRANCH  30  31
ATOM     31  O   UNL A   1      37.287  20.039  25.228  1.00  0.00    -0.376 OA
BRANCH  31  32
ATOM     32  C   UNL A   1      38.616  19.691  24.875  1.00  0.00     0.202 C 
BRANCH  32  33
ATOM     33  C   UNL A   1      39.672  19.648  25.991  1.00  0.00     0.261 C 
BRANCH  33  34
ATOM     34  O   UNL A   1      40.941  19.064  25.646  1.00  0.00    -0.460 OA
BRANCH  34  35
ATOM     35  C   UNL A   1      41.980  19.254  26.487  1.00  0.00     0.338 C 
ATOM     36  O   UNL A   1      42.698  18.392  26.972  1.00  0.00    -0.246 OA
BRANCH  35  37
ATOM     37  C   UNL A   1      42.196  20.711  26.615  1.00  0.00     0.060 A 
ATOM     38  C   UNL A   1      42.462  21.485  25.477  1.00  0.00     0.016 A 
ATOM     39  C   UNL A   1      42.108  21.318  27.867  1.00  0.00     0.016 A 
ATOM     40  C   UNL A   1      42.644  22.864  25.584  1.00  0.00     0.010 A 
ATOM     41  C   UNL A   1      42.295  22.699  27.975  1.00  0.00     0.010 A 
ATOM     42  C   UNL A   1      42.569  23.479  26.837  1.00  0.00    -0.014 A 
BRANCH  42  43
ATOM     43  C   UNL A   1      42.845  24.928  26.989  1.00  0.00     0.031 A 
ATOM     44  C   UNL A   1      44.208  25.450  26.639  1.00  0.00     0.074 A 
ATOM     45  C   UNL A   1      41.901  25.759  27.466  1.00  0.00     0.049 A 
ATOM     46  N   UNL A   1      44.730  26.625  26.865  1.00  0.00    -0.248 NA
ATOM     47  C   UNL A   1      45.101  24.511  25.945  1.00  0.00     0.031 C 
ATOM     48  C   UNL A   1      40.520  25.383  27.770  1.00  0.00     0.029 A 
ATOM     49  N   UNL A   1      41.970  27.088  27.806  1.00  0.00    -0.354 N 
ATOM     50  C   UNL A   1      46.024  26.566  26.359  1.00  0.00     0.074 A 
ATOM     51  C   UNL A   1      46.209  25.228  25.835  1.00  0.00     0.031 C 
ATOM     52  C   UNL A   1      39.880  26.449  28.277  1.00  0.00     0.029 A 
ATOM     53  C   UNL A   1      40.819  27.563  28.394  1.00  0.00     0.049 A 
ATOM     54  H   UNL A   1      42.764  27.646  27.644  1.00  0.00     0.167 HD
ATOM     55  C   UNL A   1      46.967  27.541  26.339  1.00  0.00     0.034 A 
ATOM     56  C   UNL A   1      40.574  28.738  29.008  1.00  0.00     0.034 A 
ATOM     57  C   UNL A   1      46.763  28.860  26.886  1.00  0.00     0.049 A 
ATOM     58  C   UNL A   1      41.682  29.761  29.099  1.00  0.00     0.074 A 
ATOM     59  C   UNL A   1      47.643  29.928  26.908  1.00  0.00     0.029 A 
ATOM     60  N   UNL A   1      45.608  29.286  27.529  1.00  0.00    -0.354 N 
ATOM     61  N   UNL A   1      42.906  29.697  28.624  1.00  0.00    -0.248 NA
ATOM     62  C   UNL A   1      41.381  31.006  29.817  1.00  0.00     0.031 C 
ATOM     63  C   UNL A   1      47.053  30.966  27.637  1.00  0.00     0.029 A 
ATOM     64  C   UNL A   1      45.771  30.581  27.994  1.00  0.00     0.049 A 
ATOM     65  H   UNL A   1      44.791  28.746  27.637  1.00  0.00     0.167 HD
ATOM     66  C   UNL A   1      43.509  30.907  28.964  1.00  0.00     0.074 A 
ATOM     67  C   UNL A   1      42.512  31.684  29.671  1.00  0.00     0.031 C 
ATOM     68  C   UNL A   1      44.771  31.338  28.711  1.00  0.00     0.034 A 
BRANCH  55  69
ATOM     69  C   UNL A   1      48.317  27.188  25.765  1.00  0.00     0.023 A 
ATOM     70  C   UNL A   1      49.337  26.634  26.557  1.00  0.00     0.031 A 
ATOM     71  C   UNL A   1      48.600  27.440  24.411  1.00  0.00     0.131 A 
ATOM     72  C   UNL A   1      50.612  26.423  26.010  1.00  0.00     0.055 A 
ATOM     73  C   UNL A   1      49.844  27.146  23.850  1.00  0.00     0.041 A 
ATOM     74  F   UNL A   1      47.674  27.993  23.610  1.00  0.00    -0.206 F 
ATOM     75  C   UNL A   1      50.865  26.649  24.655  1.00  0.00     0.022 A 
BRANCH  72  76
ATOM     76  S   UNL A   1      51.972  25.999  27.131  1.00  0.00     0.124 S 
ATOM     77  O   UNL A   1      52.744  27.239  27.140  1.00  0.00    -0.237 OA
ATOM     78  O   UNL A   1      51.273  25.673  28.367  1.00  0.00    -0.237 OA
ATOM     79  O   UNL A   1      52.626  24.874  26.466  1.00  0.00    -0.744 OA
ENDBRANCH  72  76
ENDBRANCH  55  69
BRANCH  56  80
ATOM     80  C   UNL A   1      39.251  28.996  29.649  1.00  0.00     0.023 A 
ATOM     81  C   UNL A   1      38.291  29.806  29.022  1.00  0.00     0.031 A 
ATOM     82  C   UNL A   1      38.946  28.480  30.922  1.00  0.00     0.131 A 
ATOM     83  C   UNL A   1      37.092  30.111  29.686  1.00  0.00     0.055 A 
ATOM     84  C   UNL A   1      37.727  28.737  31.551  1.00  0.00     0.041 A 
ATOM     85  F   UNL A   1      39.832  27.708  31.572  1.00  0.00    -0.206 F 
ATOM     86  C   UNL A   1      36.796  29.568  30.938  1.00  0.00     0.022 A 
BRANCH  83  87
ATOM     87  S   UNL A   1      35.962  31.307  28.924  1.00  0.00     0.124 S 
ATOM     88  O   UNL A   1      34.709  30.560  28.907  1.00  0.00    -0.237 OA
ATOM     89  O   UNL A   1      36.030  32.426  29.858  1.00  0.00    -0.237 OA
ATOM     90  O   UNL A   1      36.560  31.553  27.613  1.00  0.00    -0.744 OA
ENDBRANCH  83  87
ENDBRANCH  56  80
BRANCH  68  91
ATOM     91  C   UNL A   1      45.133  32.731  29.170  1.00  0.00     0.023 A 
ATOM     92  C   UNL A   1      45.748  32.963  30.413  1.00  0.00     0.031 A 
ATOM     93  C   UNL A   1      44.881  33.838  28.340  1.00  0.00     0.131 A 
ATOM     94  C   UNL A   1      46.055  34.275  30.806  1.00  0.00     0.055 A 
ATOM     95  C   UNL A   1      45.244  35.133  28.711  1.00  0.00     0.041 A 
ATOM     96  F   UNL A   1      44.293  33.675  27.145  1.00  0.00    -0.206 F 
ATOM     97  C   UNL A   1      45.827  35.358  29.954  1.00  0.00     0.022 A 
BRANCH  94  98
ATOM     98  S   UNL A   1      46.698  34.558  32.478  1.00  0.00     0.124 S 
ATOM     99  O   UNL A   1      45.472  34.625  33.266  1.00  0.00    -0.237 OA
ATOM    100  O   UNL A   1      47.532  33.381  32.698  1.00  0.00    -0.237 OA
ATOM    101  O   UNL A   1      47.426  35.819  32.357  1.00  0.00    -0.744 OA
ENDBRANCH  94  98
ENDBRANCH  68  91
ENDBRANCH  42  43
ENDBRANCH  35  37
ENDBRANCH  34  35
ENDBRANCH  33  34
ENDBRANCH  32  33
ENDBRANCH  31  32
ENDBRANCH  30  31
ENDBRANCH   1  30
TORSDOF 24
ENDMDL
MODEL 3
REMARK VINA RESULT:     -10.2      5.524     11.946
REMARK SMILES CC(=O)Nc1cccc(NS(=O)(=O)c2cccc(C(=O)OCCOCCOCCOC(=O)c3ccc(-c4c5nc(c(-c6cc(S(=O)(=O)[O-])ccc6F)c6ccc([nH]6)c(-c6cc(S(=O)(=O)[O-])ccc6F)c6nc(c(-c7cc(S(=O)(=O)[O-])ccc7F)c7ccc4[nH]7)C=C6)C=C5)cc3)c2)c1
REMARK SMILES IDX 25 1 24 2 23 3 22 4 21 5 19 6 20 7 18 8 14 9 15 10 96 11
REMARK SMILES IDX 16 12 17 13 11 14 12 15 13 16 10 17 9 19 5 20 6 21 97 22
REMARK SMILES IDX 7 23 8 24 4 25 1 26 2 27 3 28 26 30 27 31 28 32 29 33 30 34
REMARK SMILES IDX 31 35 32 36 33 37 34 38 95 39 35 40 94 41 36 42 37 43 38 44
REMARK SMILES IDX 88 45 39 46 93 47 87 48 89 49 40 50 92 51 86 52 85 53 41 55
REMARK SMILES IDX 73 56 53 57 72 58 54 59 57 60 71 61 90 62 55 63 56 64 70 66
REMARK SMILES IDX 91 67 58 68 42 69 43 70 51 71 44 72 50 73 52 74 49 75 45 76
REMARK SMILES IDX 46 77 47 78 48 79 74 80 75 81 83 82 76 83 82 84 84 85 81 86
REMARK SMILES IDX 77 87 78 88 79 89 80 90 59 91 60 92 68 93 61 94 67 95 69 96
REMARK SMILES IDX 66 97 62 98 63 99 64 100 65 101
REMARK H PARENT 10 18 4 29 89 54 57 65
REMARK Flexibility Score: inf
ROOT
ATOM      1  C   UNL A   1      32.921  36.019  30.123  1.00  0.00     0.188 C 
ENDROOT
BRANCH   1   2
ATOM      2  O   UNL A   1      32.571  35.401  31.353  1.00  0.00    -0.376 OA
BRANCH   2   3
ATOM      3  C   UNL A   1      32.966  36.002  32.579  1.00  0.00     0.202 C 
BRANCH   3   4
ATOM      4  C   UNL A   1      34.447  36.349  32.793  1.00  0.00     0.261 C 
BRANCH   4   5
ATOM      5  O   UNL A   1      35.066  35.699  33.918  1.00  0.00    -0.460 OA
BRANCH   5   6
ATOM      6  C   UNL A   1      35.461  34.417  33.708  1.00  0.00     0.338 C 
ATOM      7  O   UNL A   1      34.746  33.430  33.681  1.00  0.00    -0.246 OA
BRANCH   6   8
ATOM      8  C   UNL A   1      36.894  34.369  33.331  1.00  0.00     0.061 A 
ATOM      9  C   UNL A   1      38.695  34.258  31.726  1.00  0.00     0.088 A 
ATOM     10  C   UNL A   1      39.634  34.379  32.763  1.00  0.00     0.022 A 
ATOM     11  C   UNL A   1      37.321  34.271  32.000  1.00  0.00     0.038 A 
ATOM     12  C   UNL A   1      39.203  34.421  34.087  1.00  0.00     0.002 A 
ATOM     13  C   UNL A   1      37.837  34.422  34.370  1.00  0.00     0.016 A 
BRANCH   9  14
ATOM     14  S   UNL A   1      39.269  34.271  30.050  1.00  0.00     0.261 S 
ATOM     15  O   UNL A   1      39.189  35.635  29.569  1.00  0.00    -0.201 OA
ATOM     16  O   UNL A   1      38.557  33.225  29.343  1.00  0.00    -0.201 OA
BRANCH  14  17
ATOM     17  N   UNL A   1      40.903  33.829  29.954  1.00  0.00    -0.280 N 
ATOM     18  H   UNL A   1      41.128  32.891  30.154  1.00  0.00     0.180 HD
BRANCH  17  19
ATOM     19  C   UNL A   1      41.985  34.706  29.605  1.00  0.00     0.051 A 
ATOM     20  C   UNL A   1      42.749  36.523  28.164  1.00  0.00     0.043 A 
ATOM     21  C   UNL A   1      43.854  36.722  28.976  1.00  0.00     0.026 A 
ATOM     22  C   UNL A   1      41.834  35.502  28.460  1.00  0.00     0.052 A 
ATOM     23  C   UNL A   1      43.940  36.020  30.167  1.00  0.00     0.004 A 
ATOM     24  C   UNL A   1      42.996  35.047  30.496  1.00  0.00     0.027 A 
BRANCH  20  25
ATOM     25  N   UNL A   1      42.555  37.430  27.117  1.00  0.00    -0.326 N 
ATOM     26  C   UNL A   1      41.643  39.211  28.583  1.00  0.00     0.114 C 
ATOM     27  C   UNL A   1      42.010  38.685  27.217  1.00  0.00     0.221 C 
ATOM     28  O   UNL A   1      41.897  39.383  26.209  1.00  0.00    -0.275 OA
ATOM     29  H   UNL A   1      42.838  37.138  26.220  1.00  0.00     0.169 HD
ENDBRANCH  20  25
ENDBRANCH  17  19
ENDBRANCH  14  17
ENDBRANCH   9  14
ENDBRANCH   6   8
ENDBRANCH   5   6
ENDBRANCH   4   5
ENDBRANCH   3   4
ENDBRANCH   2   3
ENDBRANCH   1   2
BRANCH   1  30
ATOM     30  C   UNL A   1      34.012  35.386  29.235  1.00  0.00     0.188 C 
BRANCH  30  31
ATOM     31  O   UNL A   1      34.770  34.379  29.875  1.00  0.00    -0.376 OA
BRANCH  31  32
ATOM     32  C   UNL A   1      34.439  33.036  29.561  1.00  0.00     0.202 C 
BRANCH  32  33
ATOM     33  C   UNL A   1      33.988  32.720  28.125  1.00  0.00     0.261 C 
BRANCH  33  34
ATOM     34  O   UNL A   1      34.830  31.826  27.375  1.00  0.00    -0.460 OA
BRANCH  34  35
ATOM     35  C   UNL A   1      34.716  30.501  27.606  1.00  0.00     0.338 C 
ATOM     36  O   UNL A   1      33.747  29.795  27.367  1.00  0.00    -0.246 OA
BRANCH  35  37
ATOM     37  C   UNL A   1      36.031  30.010  28.072  1.00  0.00     0.060 A 
ATOM     38  C   UNL A   1      37.161  30.140  27.254  1.00  0.00     0.016 A 
ATOM     39  C   UNL A   1      36.148  29.440  29.340  1.00  0.00     0.016 A 
ATOM     40  C   UNL A   1      38.410  29.702  27.694  1.00  0.00     0.010 A 
ATOM     41  C   UNL A   1      37.399  28.997  29.779  1.00  0.00     0.010 A 
ATOM     42  C   UNL A   1      38.535  29.119  28.959  1.00  0.00    -0.014 A 
BRANCH  42  43
ATOM     43  C   UNL A   1      39.833  28.566  29.416  1.00  0.00     0.031 A 
ATOM     44  C   UNL A   1      40.587  29.279  30.499  1.00  0.00     0.074 A 
ATOM     45  C   UNL A   1      40.344  27.461  28.845  1.00  0.00     0.049 A 
ATOM     46  N   UNL A   1      41.808  29.092  30.922  1.00  0.00    -0.248 NA
ATOM     47  C   UNL A   1      39.862  30.354  31.192  1.00  0.00     0.031 C 
ATOM     48  C   UNL A   1      39.671  26.641  27.837  1.00  0.00     0.029 A 
ATOM     49  N   UNL A   1      41.565  26.852  29.012  1.00  0.00    -0.354 N 
ATOM     50  C   UNL A   1      42.010  30.038  31.921  1.00  0.00     0.074 A 
ATOM     51  C   UNL A   1      40.789  30.811  32.020  1.00  0.00     0.031 C 
ATOM     52  C   UNL A   1      40.498  25.653  27.456  1.00  0.00     0.029 A 
ATOM     53  C   UNL A   1      41.779  25.807  28.142  1.00  0.00     0.049 A 
ATOM     54  H   UNL A   1      42.220  27.136  29.689  1.00  0.00     0.167 HD
ATOM     55  C   UNL A   1      43.116  30.240  32.678  1.00  0.00     0.034 A 
ATOM     56  C   UNL A   1      42.897  25.098  27.890  1.00  0.00     0.034 A 
ATOM     57  C   UNL A   1      44.328  29.468  32.546  1.00  0.00     0.049 A 
ATOM     58  C   UNL A   1      44.162  25.431  28.648  1.00  0.00     0.074 A 
ATOM     59  C   UNL A   1      45.503  29.578  33.269  1.00  0.00     0.029 A 
ATOM     60  N   UNL A   1      44.531  28.459  31.613  1.00  0.00    -0.354 N 
ATOM     61  N   UNL A   1      44.349  26.331  29.586  1.00  0.00    -0.248 NA
ATOM     62  C   UNL A   1      45.365  24.662  28.304  1.00  0.00     0.031 C 
ATOM     63  C   UNL A   1      46.440  28.697  32.718  1.00  0.00     0.029 A 
ATOM     64  C   UNL A   1      45.825  27.973  31.710  1.00  0.00     0.049 A 
ATOM     65  H   UNL A   1      43.852  28.135  30.977  1.00  0.00     0.167 HD
ATOM     66  C   UNL A   1      45.686  26.214  29.963  1.00  0.00     0.074 A 
ATOM     67  C   UNL A   1      46.253  25.151  29.160  1.00  0.00     0.031 C 
ATOM     68  C   UNL A   1      46.381  26.920  30.891  1.00  0.00     0.034 A 
BRANCH  55  69
ATOM     69  C   UNL A   1      43.081  31.379  33.667  1.00  0.00     0.023 A 
ATOM     70  C   UNL A   1      42.548  31.224  34.958  1.00  0.00     0.031 A 
ATOM     71  C   UNL A   1      43.561  32.650  33.303  1.00  0.00     0.131 A 
ATOM     72  C   UNL A   1      42.435  32.336  35.807  1.00  0.00     0.055 A 
ATOM     73  C   UNL A   1      43.526  33.732  34.183  1.00  0.00     0.041 A 
ATOM     74  F   UNL A   1      44.059  32.867  32.074  1.00  0.00    -0.206 F 
ATOM     75  C   UNL A   1      42.945  33.583  35.439  1.00  0.00     0.022 A 
BRANCH  72  76
ATOM     76  S   UNL A   1      41.469  32.162  37.332  1.00  0.00     0.124 S 
ATOM     77  O   UNL A   1      41.381  33.548  37.784  1.00  0.00    -0.237 OA
ATOM     78  O   UNL A   1      40.228  31.566  36.854  1.00  0.00    -0.237 OA
ATOM     79  O   UNL A   1      42.300  31.295  38.166  1.00  0.00    -0.744 OA
ENDBRANCH  72  76
ENDBRANCH  55  69
BRANCH  56  80
ATOM     80  C   UNL A   1      42.905  24.048  26.828  1.00  0.00     0.023 A 
ATOM     81  C   UNL A   1      42.301  22.800  27.044  1.00  0.00     0.031 A 
ATOM     82  C   UNL A   1      43.562  24.258  25.602  1.00  0.00     0.131 A 
ATOM     83  C   UNL A   1      42.402  21.796  26.067  1.00  0.00     0.055 A 
ATOM     84  C   UNL A   1      43.608  23.277  24.611  1.00  0.00     0.041 A 
ATOM     85  F   UNL A   1      44.167  25.429  25.347  1.00  0.00    -0.206 F 
ATOM     86  C   UNL A   1      43.036  22.032  24.846  1.00  0.00     0.022 A 
BRANCH  83  87
ATOM     87  S   UNL A   1      41.771  20.142  26.460  1.00  0.00     0.124 S 
ATOM     88  O   UNL A   1      40.329  20.346  26.363  1.00  0.00    -0.237 OA
ATOM     89  O   UNL A   1      42.376  19.329  25.410  1.00  0.00    -0.237 OA
ATOM     90  O   UNL A   1      42.277  19.896  27.808  1.00  0.00    -0.744 OA
ENDBRANCH  83  87
ENDBRANCH  56  80
BRANCH  68  91
ATOM     91  C   UNL A   1      47.825  26.539  31.115  1.00  0.00     0.023 A 
ATOM     92  C   UNL A   1      48.194  25.553  32.047  1.00  0.00     0.031 A 
ATOM     93  C   UNL A   1      48.844  27.155  30.366  1.00  0.00     0.131 A 
ATOM     94  C   UNL A   1      49.549  25.240  32.233  1.00  0.00     0.055 A 
ATOM     95  C   UNL A   1      50.184  26.796  30.512  1.00  0.00     0.041 A 
ATOM     96  F   UNL A   1      48.549  28.105  29.465  1.00  0.00    -0.206 F 
ATOM     97  C   UNL A   1      50.544  25.839  31.457  1.00  0.00     0.022 A 
BRANCH  94  98
ATOM     98  S   UNL A   1      50.004  24.083  33.554  1.00  0.00     0.124 S 
ATOM     99  O   UNL A   1      50.663  24.964  34.513  1.00  0.00    -0.237 OA
ATOM    100  O   UNL A   1      48.710  23.549  33.964  1.00  0.00    -0.237 OA
ATOM    101  O   UNL A   1      50.884  23.127  32.885  1.00  0.00    -0.744 OA
ENDBRANCH  94  98
ENDBRANCH  68  91
ENDBRANCH  42  43
ENDBRANCH  35  37
ENDBRANCH  34  35
ENDBRANCH  33  34
ENDBRANCH  32  33
ENDBRANCH  31  32
ENDBRANCH  30  31
ENDBRANCH   1  30
TORSDOF 24
ENDMDL
