MODEL 1
REMARK VINA RESULT:     -12.0      0.000      0.000
REMARK SMILES COc1ccc(NC(=O)N[C@@H]2C=C[C@H](C(=O)OCCOCCOCCOC(=O)c3ccc(-c4c5nc(c(-c6cc(S(=O)(=O)[O-])ccc6F)c6ccc([nH]6)c(-c6cc(S(=O)(=O)[O-])ccc6F)c6nc(c(-c7cc(S(=O)(=O)[O-])ccc7F)c7ccc4[nH]7)C=C6)C=C5)cc3)C2)c(C)c1
REMARK SMILES IDX 21 1 20 2 19 3 18 4 17 5 15 6 16 7 14 8 11 9 12 10 92 11
REMARK SMILES IDX 13 12 10 13 7 14 8 15 9 17 6 19 3 20 4 21 95 22 5 23 93 24
REMARK SMILES IDX 94 25 2 26 1 27 22 28 23 29 24 30 25 31 26 32 27 33 28 34
REMARK SMILES IDX 29 35 30 36 91 37 31 38 90 39 32 40 33 41 34 42 84 43 35 44
REMARK SMILES IDX 89 45 83 46 85 47 36 48 88 49 82 50 81 51 37 53 69 54 49 55
REMARK SMILES IDX 68 56 50 57 53 58 67 59 86 60 51 61 52 62 66 64 87 65 54 66
REMARK SMILES IDX 38 67 39 68 47 69 40 70 46 71 48 72 45 73 41 74 42 75 43 76
REMARK SMILES IDX 44 77 70 78 71 79 79 80 72 81 78 82 80 83 77 84 73 85 74 86
REMARK SMILES IDX 75 87 76 88 55 89 56 90 64 91 57 92 63 93 65 94 62 95 58 96
REMARK SMILES IDX 59 97 60 98 61 99
REMARK H PARENT 7 16 10 18 85 52 53 63
REMARK Flexibility Score: inf
ROOT
ATOM      1  C   UNL A   1      40.602  20.770  26.422  1.00  0.00     0.188 C 
ENDROOT
BRANCH   1   2
ATOM      2  O   UNL A   1      39.957  21.687  27.265  1.00  0.00    -0.376 OA
BRANCH   2   3
ATOM      3  C   UNL A   1      39.028  22.420  26.509  1.00  0.00     0.202 C 
BRANCH   3   4
ATOM      4  C   UNL A   1      38.214  21.724  25.389  1.00  0.00     0.261 C 
BRANCH   4   5
ATOM      5  O   UNL A   1      36.643  21.024  25.294  1.00  0.00    -0.463 OA
BRANCH   5   6
ATOM      6  C   UNL A   1      35.266  21.282  25.004  1.00  0.00     0.312 C 
ATOM      7  O   UNL A   1      34.468  20.587  25.629  1.00  0.00    -0.252 OA
BRANCH   6   8
ATOM      8  C   UNL A   1      34.803  22.473  23.636  1.00  0.00     0.124 C 
ATOM      9  C   UNL A   1      33.681  25.199  24.815  1.00  0.00     0.107 C 
ATOM     10  C   UNL A   1      32.598  24.805  23.185  1.00  0.00    -0.006 C 
ATOM     11  C   UNL A   1      35.121  23.922  24.977  1.00  0.00     0.048 C 
ATOM     12  C   UNL A   1      33.013  23.294  22.566  1.00  0.00    -0.014 C 
BRANCH   9  13
ATOM     13  N   UNL A   1      32.937  24.611  26.240  1.00  0.00    -0.332 N 
ATOM     14  N   UNL A   1      30.553  25.750  26.287  1.00  0.00    -0.308 N 
ATOM     15  C   UNL A   1      31.512  24.667  26.697  1.00  0.00     0.319 C 
ATOM     16  H   UNL A   1      29.678  25.751  26.740  1.00  0.00     0.171 HD
ATOM     17  O   UNL A   1      31.115  23.706  27.362  1.00  0.00    -0.248 OA
ATOM     18  H   UNL A   1      33.549  24.160  26.866  1.00  0.00     0.165 HD
BRANCH  14  19
ATOM     19  C   UNL A   1      30.767  26.802  25.292  1.00  0.00     0.046 A 
ATOM     20  C   UNL A   1      29.183  29.110  22.851  1.00  0.00     0.119 A 
ATOM     21  C   UNL A   1      28.491  27.537  23.217  1.00  0.00     0.048 A 
ATOM     22  C   UNL A   1      30.533  29.500  23.740  1.00  0.00     0.052 A 
ATOM     23  C   UNL A   1      29.605  26.423  24.512  1.00  0.00     0.030 A 
ATOM     24  C   UNL A   1      31.255  28.414  24.925  1.00  0.00    -0.024 A 
ATOM     25  C   UNL A   1      32.100  29.292  25.714  1.00  0.00     0.047 C 
BRANCH  20  26
ATOM     26  O   UNL A   1      29.124  29.756  21.649  1.00  0.00    -0.497 OA
ATOM     27  C   UNL A   1      28.446  30.985  21.688  1.00  0.00     0.278 C 
ENDBRANCH  20  26
ENDBRANCH  14  19
ENDBRANCH   9  13
ENDBRANCH   6   8
ENDBRANCH   5   6
ENDBRANCH   4   5
ENDBRANCH   3   4
ENDBRANCH   2   3
ENDBRANCH   1   2
BRANCH   1  28
ATOM     28  C   UNL A   1      41.492  19.813  27.191  1.00  0.00     0.188 C 
BRANCH  28  29
ATOM     29  O   UNL A   1      42.846  19.838  26.737  1.00  0.00    -0.376 OA
BRANCH  29  30
ATOM     30  C   UNL A   1      43.154  19.189  25.525  1.00  0.00     0.202 C 
BRANCH  30  31
ATOM     31  C   UNL A   1      44.240  20.001  24.915  1.00  0.00     0.261 C 
BRANCH  31  32
ATOM     32  O   UNL A   1      43.817  21.400  24.632  1.00  0.00    -0.460 OA
BRANCH  32  33
ATOM     33  C   UNL A   1      44.273  22.637  25.036  1.00  0.00     0.338 C 
ATOM     34  O   UNL A   1      45.498  22.799  25.092  1.00  0.00    -0.246 OA
BRANCH  33  35
ATOM     35  C   UNL A   1      43.404  23.910  25.286  1.00  0.00     0.060 A 
ATOM     36  C   UNL A   1      43.865  25.174  24.931  1.00  0.00     0.016 A 
ATOM     37  C   UNL A   1      42.247  24.026  26.013  1.00  0.00     0.016 A 
ATOM     38  C   UNL A   1      43.755  26.249  25.887  1.00  0.00     0.010 A 
ATOM     39  C   UNL A   1      42.081  25.125  26.912  1.00  0.00     0.010 A 
ATOM     40  C   UNL A   1      43.094  26.064  27.118  1.00  0.00    -0.014 A 
BRANCH  40  41
ATOM     41  C   UNL A   1      43.124  26.992  28.534  1.00  0.00     0.031 A 
ATOM     42  C   UNL A   1      44.039  26.154  29.375  1.00  0.00     0.074 A 
ATOM     43  C   UNL A   1      42.383  28.136  29.159  1.00  0.00     0.049 A 
ATOM     44  N   UNL A   1      43.945  25.880  30.638  1.00  0.00    -0.248 NA
ATOM     45  C   UNL A   1      45.050  25.235  28.716  1.00  0.00     0.031 C 
ATOM     46  C   UNL A   1      43.027  29.432  29.613  1.00  0.00     0.029 A 
ATOM     47  N   UNL A   1      41.056  28.784  29.037  1.00  0.00    -0.354 N 
ATOM     48  C   UNL A   1      45.230  25.426  30.880  1.00  0.00     0.074 A 
ATOM     49  C   UNL A   1      45.518  24.584  29.774  1.00  0.00     0.031 C 
ATOM     50  C   UNL A   1      42.138  30.439  29.884  1.00  0.00     0.029 A 
ATOM     51  C   UNL A   1      40.764  30.022  29.646  1.00  0.00     0.049 A 
ATOM     52  H   UNL A   1      40.354  28.334  28.514  1.00  0.00     0.167 HD
ATOM     53  C   UNL A   1      46.124  26.341  31.370  1.00  0.00     0.034 A 
ATOM     54  C   UNL A   1      39.589  30.433  30.307  1.00  0.00     0.034 A 
ATOM     55  C   UNL A   1      45.427  27.565  31.826  1.00  0.00     0.049 A 
ATOM     56  C   UNL A   1      39.971  30.189  31.822  1.00  0.00     0.074 A 
ATOM     57  C   UNL A   1      45.505  28.911  31.513  1.00  0.00     0.029 A 
ATOM     58  N   UNL A   1      44.242  27.439  32.550  1.00  0.00    -0.354 N 
ATOM     59  N   UNL A   1      41.214  29.878  32.118  1.00  0.00    -0.248 NA
ATOM     60  C   UNL A   1      39.148  30.118  33.041  1.00  0.00     0.031 C 
ATOM     61  C   UNL A   1      44.426  29.588  32.174  1.00  0.00     0.029 A 
ATOM     62  C   UNL A   1      43.630  28.650  32.807  1.00  0.00     0.049 A 
ATOM     63  H   UNL A   1      43.878  26.573  32.848  1.00  0.00     0.167 HD
ATOM     64  C   UNL A   1      41.342  29.354  33.359  1.00  0.00     0.074 A 
ATOM     65  C   UNL A   1      40.038  29.645  33.950  1.00  0.00     0.031 C 
ATOM     66  C   UNL A   1      42.483  28.678  33.722  1.00  0.00     0.034 A 
BRANCH  53  67
ATOM     67  C   UNL A   1      47.641  26.252  31.159  1.00  0.00     0.023 A 
ATOM     68  C   UNL A   1      48.130  26.919  30.031  1.00  0.00     0.031 A 
ATOM     69  C   UNL A   1      48.648  25.623  31.946  1.00  0.00     0.131 A 
ATOM     70  C   UNL A   1      49.503  27.008  29.753  1.00  0.00     0.055 A 
ATOM     71  C   UNL A   1      50.022  25.710  31.669  1.00  0.00     0.041 A 
ATOM     72  F   UNL A   1      48.403  24.882  33.030  1.00  0.00    -0.206 F 
ATOM     73  C   UNL A   1      50.461  26.425  30.574  1.00  0.00     0.022 A 
BRANCH  70  74
ATOM     74  S   UNL A   1      49.997  27.975  28.315  1.00  0.00     0.124 S 
ATOM     75  O   UNL A   1      48.708  28.256  27.692  1.00  0.00    -0.237 OA
ATOM     76  O   UNL A   1      50.680  29.104  28.935  1.00  0.00    -0.237 OA
ATOM     77  O   UNL A   1      50.861  27.058  27.575  1.00  0.00    -0.744 OA
ENDBRANCH  70  74
ENDBRANCH  53  67
BRANCH  54  78
ATOM     78  C   UNL A   1      38.119  30.260  29.626  1.00  0.00     0.023 A 
ATOM     79  C   UNL A   1      37.136  31.265  29.860  1.00  0.00     0.031 A 
ATOM     80  C   UNL A   1      37.720  29.350  28.600  1.00  0.00     0.131 A 
ATOM     81  C   UNL A   1      36.046  31.504  28.955  1.00  0.00     0.055 A 
ATOM     82  C   UNL A   1      36.723  29.659  27.635  1.00  0.00     0.041 A 
ATOM     83  F   UNL A   1      38.376  28.201  28.384  1.00  0.00    -0.206 F 
ATOM     84  C   UNL A   1      35.921  30.783  27.777  1.00  0.00     0.022 A 
BRANCH  81  85
ATOM     85  S   UNL A   1      34.809  32.841  29.213  1.00  0.00     0.124 S 
ATOM     86  O   UNL A   1      33.827  32.574  28.167  1.00  0.00    -0.237 OA
ATOM     87  O   UNL A   1      34.353  32.597  30.577  1.00  0.00    -0.237 OA
ATOM     88  O   UNL A   1      35.581  34.067  29.010  1.00  0.00    -0.744 OA
ENDBRANCH  81  85
ENDBRANCH  54  78
BRANCH  66  89
ATOM     89  C   UNL A   1      42.685  27.996  35.049  1.00  0.00     0.023 A 
ATOM     90  C   UNL A   1      43.579  28.475  35.995  1.00  0.00     0.031 A 
ATOM     91  C   UNL A   1      41.988  26.805  35.392  1.00  0.00     0.131 A 
ATOM     92  C   UNL A   1      43.945  27.669  37.076  1.00  0.00     0.055 A 
ATOM     93  C   UNL A   1      42.230  26.095  36.561  1.00  0.00     0.041 A 
ATOM     94  F   UNL A   1      41.064  26.250  34.595  1.00  0.00    -0.206 F 
ATOM     95  C   UNL A   1      43.267  26.490  37.382  1.00  0.00     0.022 A 
BRANCH  92  96
ATOM     96  S   UNL A   1      45.471  28.112  37.928  1.00  0.00     0.124 S 
ATOM     97  O   UNL A   1      45.872  29.316  37.205  1.00  0.00    -0.237 OA
ATOM     98  O   UNL A   1      45.012  28.323  39.298  1.00  0.00    -0.237 OA
ATOM     99  O   UNL A   1      46.326  26.946  37.724  1.00  0.00    -0.744 OA
ENDBRANCH  92  96
ENDBRANCH  66  89
ENDBRANCH  40  41
ENDBRANCH  33  35
ENDBRANCH  32  33
ENDBRANCH  31  32
ENDBRANCH  30  31
ENDBRANCH  29  30
ENDBRANCH  28  29
ENDBRANCH   1  28
TORSDOF 23
ENDMDL
MODEL 2
REMARK VINA RESULT:     -12.0      4.008      8.927
REMARK SMILES COc1ccc(NC(=O)N[C@@H]2C=C[C@H](C(=O)OCCOCCOCCOC(=O)c3ccc(-c4c5nc(c(-c6cc(S(=O)(=O)[O-])ccc6F)c6ccc([nH]6)c(-c6cc(S(=O)(=O)[O-])ccc6F)c6nc(c(-c7cc(S(=O)(=O)[O-])ccc7F)c7ccc4[nH]7)C=C6)C=C5)cc3)C2)c(C)c1
REMARK SMILES IDX 21 1 20 2 19 3 18 4 17 5 15 6 16 7 14 8 11 9 12 10 92 11
REMARK SMILES IDX 13 12 10 13 7 14 8 15 9 17 6 19 3 20 4 21 95 22 5 23 93 24
REMARK SMILES IDX 94 25 2 26 1 27 22 28 23 29 24 30 25 31 26 32 27 33 28 34
REMARK SMILES IDX 29 35 30 36 91 37 31 38 90 39 32 40 33 41 34 42 84 43 35 44
REMARK SMILES IDX 89 45 83 46 85 47 36 48 88 49 82 50 81 51 37 53 69 54 49 55
REMARK SMILES IDX 68 56 50 57 53 58 67 59 86 60 51 61 52 62 66 64 87 65 54 66
REMARK SMILES IDX 38 67 39 68 47 69 40 70 46 71 48 72 45 73 41 74 42 75 43 76
REMARK SMILES IDX 44 77 70 78 71 79 79 80 72 81 78 82 80 83 77 84 73 85 74 86
REMARK SMILES IDX 75 87 76 88 55 89 56 90 64 91 57 92 63 93 65 94 62 95 58 96
REMARK SMILES IDX 59 97 60 98 61 99
REMARK H PARENT 7 16 10 18 85 52 53 63
REMARK Flexibility Score: inf
ROOT
ATOM      1  C   UNL A   1      42.131  19.585  26.604  1.00  0.00     0.188 C 
ENDROOT
BRANCH   1   2
ATOM      2  O   UNL A   1      41.210  20.274  25.801  1.00  0.00    -0.376 OA
BRANCH   2   3
ATOM      3  C   UNL A   1      40.464  21.144  26.614  1.00  0.00     0.202 C 
BRANCH   3   4
ATOM      4  C   UNL A   1      39.214  21.861  26.045  1.00  0.00     0.261 C 
BRANCH   4   5
ATOM      5  O   UNL A   1      37.629  21.356  25.597  1.00  0.00    -0.463 OA
BRANCH   5   6
ATOM      6  C   UNL A   1      36.260  21.759  25.498  1.00  0.00     0.312 C 
ATOM      7  O   UNL A   1      35.523  21.303  26.369  1.00  0.00    -0.252 OA
BRANCH   6   8
ATOM      8  C   UNL A   1      35.682  22.757  24.024  1.00  0.00     0.124 C 
ATOM      9  C   UNL A   1      33.881  25.209  24.930  1.00  0.00     0.107 C 
ATOM     10  C   UNL A   1      33.073  24.514  23.243  1.00  0.00    -0.006 C 
ATOM     11  C   UNL A   1      35.544  24.296  25.293  1.00  0.00     0.048 C 
ATOM     12  C   UNL A   1      33.866  23.109  22.757  1.00  0.00    -0.014 C 
BRANCH   9  13
ATOM     13  N   UNL A   1      33.150  24.531  26.322  1.00  0.00    -0.332 N 
ATOM     14  N   UNL A   1      30.715  25.556  26.384  1.00  0.00    -0.308 N 
ATOM     15  C   UNL A   1      31.719  24.503  26.763  1.00  0.00     0.319 C 
ATOM     16  H   UNL A   1      29.837  25.498  26.827  1.00  0.00     0.171 HD
ATOM     17  O   UNL A   1      31.361  23.498  27.384  1.00  0.00    -0.248 OA
ATOM     18  H   UNL A   1      33.776  24.083  26.936  1.00  0.00     0.165 HD
BRANCH  14  19
ATOM     19  C   UNL A   1      30.891  26.655  25.436  1.00  0.00     0.046 A 
ATOM     20  C   UNL A   1      29.241  28.922  22.999  1.00  0.00     0.119 A 
ATOM     21  C   UNL A   1      28.658  27.289  23.280  1.00  0.00     0.048 A 
ATOM     22  C   UNL A   1      30.516  29.382  23.962  1.00  0.00     0.052 A 
ATOM     23  C   UNL A   1      29.797  26.218  24.590  1.00  0.00     0.030 A 
ATOM     24  C   UNL A   1      31.268  28.312  25.144  1.00  0.00    -0.024 A 
ATOM     25  C   UNL A   1      32.006  29.224  25.999  1.00  0.00     0.047 C 
BRANCH  20  26
ATOM     26  O   UNL A   1      29.186  29.605  21.816  1.00  0.00    -0.497 OA
ATOM     27  C   UNL A   1      28.600  30.877  21.913  1.00  0.00     0.278 C 
ENDBRANCH  20  26
ENDBRANCH  14  19
ENDBRANCH   9  13
ENDBRANCH   6   8
ENDBRANCH   5   6
ENDBRANCH   4   5
ENDBRANCH   3   4
ENDBRANCH   2   3
ENDBRANCH   1   2
BRANCH   1  28
ATOM     28  C   UNL A   1      43.095  18.751  25.783  1.00  0.00     0.188 C 
BRANCH  28  29
ATOM     29  O   UNL A   1      43.679  19.488  24.708  1.00  0.00    -0.376 OA
BRANCH  29  30
ATOM     30  C   UNL A   1      44.803  18.940  24.058  1.00  0.00     0.202 C 
BRANCH  30  31
ATOM     31  C   UNL A   1      45.925  19.097  25.021  1.00  0.00     0.261 C 
BRANCH  31  32
ATOM     32  O   UNL A   1      45.978  20.460  25.619  1.00  0.00    -0.460 OA
BRANCH  32  33
ATOM     33  C   UNL A   1      45.765  21.729  25.126  1.00  0.00     0.338 C 
ATOM     34  O   UNL A   1      46.423  22.070  24.135  1.00  0.00    -0.246 OA
BRANCH  33  35
ATOM     35  C   UNL A   1      44.667  22.735  25.594  1.00  0.00     0.060 A 
ATOM     36  C   UNL A   1      44.122  23.664  24.713  1.00  0.00     0.016 A 
ATOM     37  C   UNL A   1      44.236  22.998  26.870  1.00  0.00     0.016 A 
ATOM     38  C   UNL A   1      44.010  25.040  25.135  1.00  0.00     0.010 A 
ATOM     39  C   UNL A   1      44.045  24.351  27.289  1.00  0.00     0.010 A 
ATOM     40  C   UNL A   1      44.338  25.428  26.449  1.00  0.00    -0.014 A 
BRANCH  40  41
ATOM     41  C   UNL A   1      44.644  26.960  27.101  1.00  0.00     0.031 A 
ATOM     42  C   UNL A   1      43.318  27.615  26.859  1.00  0.00     0.074 A 
ATOM     43  C   UNL A   1      45.806  27.788  27.563  1.00  0.00     0.049 A 
ATOM     44  N   UNL A   1      43.078  28.828  26.469  1.00  0.00    -0.248 NA
ATOM     45  C   UNL A   1      42.063  26.771  26.738  1.00  0.00     0.031 C 
ATOM     46  C   UNL A   1      45.937  28.390  28.949  1.00  0.00     0.029 A 
ATOM     47  N   UNL A   1      47.272  27.839  27.352  1.00  0.00    -0.354 N 
ATOM     48  C   UNL A   1      41.739  28.927  26.804  1.00  0.00     0.074 A 
ATOM     49  C   UNL A   1      41.179  27.694  26.376  1.00  0.00     0.031 C 
ATOM     50  C   UNL A   1      47.190  28.857  29.246  1.00  0.00     0.029 A 
ATOM     51  C   UNL A   1      48.119  28.639  28.147  1.00  0.00     0.049 A 
ATOM     52  H   UNL A   1      47.667  27.297  26.632  1.00  0.00     0.167 HD
ATOM     53  C   UNL A   1      41.448  29.493  28.017  1.00  0.00     0.034 A 
ATOM     54  C   UNL A   1      49.227  29.420  27.759  1.00  0.00     0.034 A 
ATOM     55  C   UNL A   1      42.641  30.163  28.584  1.00  0.00     0.049 A 
ATOM     56  C   UNL A   1      48.580  30.858  27.641  1.00  0.00     0.074 A 
ATOM     57  C   UNL A   1      43.363  30.047  29.758  1.00  0.00     0.029 A 
ATOM     58  N   UNL A   1      43.450  30.927  27.744  1.00  0.00    -0.354 N 
ATOM     59  N   UNL A   1      47.348  31.033  28.065  1.00  0.00    -0.248 NA
ATOM     60  C   UNL A   1      49.058  32.098  27.008  1.00  0.00     0.031 C 
ATOM     61  C   UNL A   1      44.540  30.861  29.642  1.00  0.00     0.029 A 
ATOM     62  C   UNL A   1      44.591  31.394  28.367  1.00  0.00     0.049 A 
ATOM     63  H   UNL A   1      43.230  31.116  26.803  1.00  0.00     0.167 HD
ATOM     64  C   UNL A   1      46.790  32.174  27.598  1.00  0.00     0.074 A 
ATOM     65  C   UNL A   1      47.946  32.875  27.044  1.00  0.00     0.031 C 
ATOM     66  C   UNL A   1      45.430  32.368  27.658  1.00  0.00     0.034 A 
BRANCH  53  67
ATOM     67  C   UNL A   1      40.180  29.184  28.822  1.00  0.00     0.023 A 
ATOM     68  C   UNL A   1      39.180  30.161  28.766  1.00  0.00     0.031 A 
ATOM     69  C   UNL A   1      39.834  28.042  29.602  1.00  0.00     0.131 A 
ATOM     70  C   UNL A   1      37.927  29.984  29.374  1.00  0.00     0.055 A 
ATOM     71  C   UNL A   1      38.582  27.864  30.212  1.00  0.00     0.041 A 
ATOM     72  F   UNL A   1      40.658  27.018  29.842  1.00  0.00    -0.206 F 
ATOM     73  C   UNL A   1      37.608  28.832  30.083  1.00  0.00     0.022 A 
BRANCH  70  74
ATOM     74  S   UNL A   1      36.703  31.286  29.145  1.00  0.00     0.124 S 
ATOM     75  O   UNL A   1      36.132  30.930  27.850  1.00  0.00    -0.237 OA
ATOM     76  O   UNL A   1      35.845  31.097  30.309  1.00  0.00    -0.237 OA
ATOM     77  O   UNL A   1      37.505  32.507  29.158  1.00  0.00    -0.744 OA
ENDBRANCH  70  74
ENDBRANCH  53  67
BRANCH  54  78
ATOM     78  C   UNL A   1      50.428  28.806  26.845  1.00  0.00     0.023 A 
ATOM     79  C   UNL A   1      50.971  29.611  25.801  1.00  0.00     0.031 A 
ATOM     80  C   UNL A   1      51.215  27.638  27.084  1.00  0.00     0.131 A 
ATOM     81  C   UNL A   1      52.301  29.423  25.294  1.00  0.00     0.055 A 
ATOM     82  C   UNL A   1      52.573  27.524  26.682  1.00  0.00     0.041 A 
ATOM     83  F   UNL A   1      50.766  26.631  27.847  1.00  0.00    -0.206 F 
ATOM     84  C   UNL A   1      53.143  28.460  25.832  1.00  0.00     0.022 A 
BRANCH  81  85
ATOM     85  S   UNL A   1      53.037  30.497  23.994  1.00  0.00     0.124 S 
ATOM     86  O   UNL A   1      53.751  31.501  24.774  1.00  0.00    -0.237 OA
ATOM     87  O   UNL A   1      53.878  29.567  23.249  1.00  0.00    -0.237 OA
ATOM     88  O   UNL A   1      51.871  31.015  23.277  1.00  0.00    -0.744 OA
ENDBRANCH  81  85
ENDBRANCH  54  78
BRANCH  66  89
ATOM     89  C   UNL A   1      44.713  33.567  27.097  1.00  0.00     0.023 A 
ATOM     90  C   UNL A   1      44.598  34.754  27.804  1.00  0.00     0.031 A 
ATOM     91  C   UNL A   1      44.089  33.535  25.820  1.00  0.00     0.131 A 
ATOM     92  C   UNL A   1      43.694  35.731  27.379  1.00  0.00     0.055 A 
ATOM     93  C   UNL A   1      43.332  34.586  25.320  1.00  0.00     0.041 A 
ATOM     94  F   UNL A   1      44.153  32.471  25.007  1.00  0.00    -0.206 F 
ATOM     95  C   UNL A   1      43.071  35.670  26.134  1.00  0.00     0.022 A 
BRANCH  92  96
ATOM     96  S   UNL A   1      43.205  36.961  28.604  1.00  0.00     0.124 S 
ATOM     97  O   UNL A   1      43.693  36.354  29.840  1.00  0.00    -0.237 OA
ATOM     98  O   UNL A   1      43.926  38.148  28.157  1.00  0.00    -0.237 OA
ATOM     99  O   UNL A   1      41.752  37.019  28.468  1.00  0.00    -0.744 OA
ENDBRANCH  92  96
ENDBRANCH  66  89
ENDBRANCH  40  41
ENDBRANCH  33  35
ENDBRANCH  32  33
ENDBRANCH  31  32
ENDBRANCH  30  31
ENDBRANCH  29  30
ENDBRANCH  28  29
ENDBRANCH   1  28
TORSDOF 23
ENDMDL
MODEL 3
REMARK VINA RESULT:     -10.7      3.948      8.112
REMARK SMILES COc1ccc(NC(=O)N[C@@H]2C=C[C@H](C(=O)OCCOCCOCCOC(=O)c3ccc(-c4c5nc(c(-c6cc(S(=O)(=O)[O-])ccc6F)c6ccc([nH]6)c(-c6cc(S(=O)(=O)[O-])ccc6F)c6nc(c(-c7cc(S(=O)(=O)[O-])ccc7F)c7ccc4[nH]7)C=C6)C=C5)cc3)C2)c(C)c1
REMARK SMILES IDX 21 1 20 2 19 3 18 4 17 5 15 6 16 7 14 8 11 9 12 10 92 11
REMARK SMILES IDX 13 12 10 13 7 14 8 15 9 17 6 19 3 20 4 21 95 22 5 23 93 24
REMARK SMILES IDX 94 25 2 26 1 27 22 28 23 29 24 30 25 31 26 32 27 33 28 34
REMARK SMILES IDX 29 35 30 36 91 37 31 38 90 39 32 40 33 41 34 42 84 43 35 44
REMARK SMILES IDX 89 45 83 46 85 47 36 48 88 49 82 50 81 51 37 53 69 54 49 55
REMARK SMILES IDX 68 56 50 57 53 58 67 59 86 60 51 61 52 62 66 64 87 65 54 66
REMARK SMILES IDX 38 67 39 68 47 69 40 70 46 71 48 72 45 73 41 74 42 75 43 76
REMARK SMILES IDX 44 77 70 78 71 79 79 80 72 81 78 82 80 83 77 84 73 85 74 86
REMARK SMILES IDX 75 87 76 88 55 89 56 90 64 91 57 92 63 93 65 94 62 95 58 96
REMARK SMILES IDX 59 97 60 98 61 99
REMARK H PARENT 7 16 10 18 85 52 53 63
REMARK Flexibility Score: inf
ROOT
ATOM      1  C   UNL A   1      37.323  22.999  24.862  1.00  0.00     0.188 C 
ENDROOT
BRANCH   1   2
ATOM      2  O   UNL A   1      38.225  21.942  25.056  1.00  0.00    -0.376 OA
BRANCH   2   3
ATOM      3  C   UNL A   1      37.551  20.883  25.685  1.00  0.00     0.202 C 
BRANCH   3   4
ATOM      4  C   UNL A   1      36.648  19.934  24.857  1.00  0.00     0.261 C 
BRANCH   4   5
ATOM      5  O   UNL A   1      35.003  19.435  24.962  1.00  0.00    -0.463 OA
BRANCH   5   6
ATOM      6  C   UNL A   1      33.644  19.849  24.788  1.00  0.00     0.312 C 
ATOM      7  O   UNL A   1      32.834  19.280  25.516  1.00  0.00    -0.252 OA
BRANCH   6   8
ATOM      8  C   UNL A   1      33.195  21.035  23.413  1.00  0.00     0.124 C 
ATOM      9  C   UNL A   1      32.565  23.931  24.553  1.00  0.00     0.107 C 
ATOM     10  C   UNL A   1      31.273  23.622  23.064  1.00  0.00    -0.006 C 
ATOM     11  C   UNL A   1      33.838  22.481  24.636  1.00  0.00     0.048 C 
ATOM     12  C   UNL A   1      31.420  22.046  22.487  1.00  0.00    -0.014 C 
BRANCH   9  13
ATOM     13  N   UNL A   1      31.908  23.504  26.075  1.00  0.00    -0.332 N 
ATOM     14  N   UNL A   1      30.151  25.401  26.618  1.00  0.00    -0.308 N 
ATOM     15  C   UNL A   1      30.701  24.014  26.800  1.00  0.00     0.319 C 
ATOM     16  H   UNL A   1      29.427  25.666  27.232  1.00  0.00     0.171 HD
ATOM     17  O   UNL A   1      30.098  23.193  27.497  1.00  0.00    -0.248 OA
ATOM     18  H   UNL A   1      32.409  22.806  26.556  1.00  0.00     0.165 HD
BRANCH  14  19
ATOM     19  C   UNL A   1      30.565  26.404  25.636  1.00  0.00     0.046 A 
ATOM     20  C   UNL A   1      29.464  28.806  23.026  1.00  0.00     0.119 A 
ATOM     21  C   UNL A   1      28.582  27.320  23.343  1.00  0.00     0.048 A 
ATOM     22  C   UNL A   1      30.757  29.077  24.036  1.00  0.00     0.052 A 
ATOM     23  C   UNL A   1      29.448  26.128  24.753  1.00  0.00     0.030 A 
ATOM     24  C   UNL A   1      31.249  27.949  25.297  1.00  0.00    -0.024 A 
ATOM     25  C   UNL A   1      32.103  28.755  26.153  1.00  0.00     0.047 C 
BRANCH  20  26
ATOM     26  O   UNL A   1      29.585  29.429  21.816  1.00  0.00    -0.497 OA
ATOM     27  C   UNL A   1      28.641  30.444  21.593  1.00  0.00     0.278 C 
ENDBRANCH  20  26
ENDBRANCH  14  19
ENDBRANCH   9  13
ENDBRANCH   6   8
ENDBRANCH   5   6
ENDBRANCH   4   5
ENDBRANCH   3   4
ENDBRANCH   2   3
ENDBRANCH   1   2
BRANCH   1  28
ATOM     28  C   UNL A   1      37.316  23.965  26.031  1.00  0.00     0.188 C 
BRANCH  28  29
ATOM     29  O   UNL A   1      38.424  23.771  26.911  1.00  0.00    -0.376 OA
BRANCH  29  30
ATOM     30  C   UNL A   1      39.594  24.522  26.684  1.00  0.00     0.202 C 
BRANCH  30  31
ATOM     31  C   UNL A   1      40.640  23.874  27.518  1.00  0.00     0.261 C 
BRANCH  31  32
ATOM     32  O   UNL A   1      40.908  22.468  27.107  1.00  0.00    -0.460 OA
BRANCH  32  33
ATOM     33  C   UNL A   1      41.706  21.888  26.144  1.00  0.00     0.338 C 
ATOM     34  O   UNL A   1      41.243  20.917  25.534  1.00  0.00    -0.246 OA
BRANCH  33  35
ATOM     35  C   UNL A   1      43.081  22.422  25.633  1.00  0.00     0.060 A 
ATOM     36  C   UNL A   1      44.244  21.674  25.789  1.00  0.00     0.016 A 
ATOM     37  C   UNL A   1      43.395  23.677  25.177  1.00  0.00     0.016 A 
ATOM     38  C   UNL A   1      45.424  22.322  26.307  1.00  0.00     0.010 A 
ATOM     39  C   UNL A   1      44.598  24.312  25.618  1.00  0.00     0.010 A 
ATOM     40  C   UNL A   1      45.445  23.711  26.551  1.00  0.00    -0.014 A 
BRANCH  40  41
ATOM     41  C   UNL A   1      46.516  24.652  27.463  1.00  0.00     0.031 A 
ATOM     42  C   UNL A   1      45.555  25.280  28.427  1.00  0.00     0.074 A 
ATOM     43  C   UNL A   1      47.933  25.140  27.406  1.00  0.00     0.049 A 
ATOM     44  N   UNL A   1      45.538  26.498  28.868  1.00  0.00    -0.248 NA
ATOM     45  C   UNL A   1      44.245  24.589  28.754  1.00  0.00     0.031 C 
ATOM     46  C   UNL A   1      48.972  24.895  28.483  1.00  0.00     0.029 A 
ATOM     47  N   UNL A   1      48.980  25.356  26.380  1.00  0.00    -0.354 N 
ATOM     48  C   UNL A   1      44.704  26.346  29.961  1.00  0.00     0.074 A 
ATOM     49  C   UNL A   1      43.649  25.523  29.485  1.00  0.00     0.031 C 
ATOM     50  C   UNL A   1      50.258  25.174  28.101  1.00  0.00     0.029 A 
ATOM     51  C   UNL A   1      50.322  25.627  26.720  1.00  0.00     0.049 A 
ATOM     52  H   UNL A   1      48.731  25.309  25.429  1.00  0.00     0.167 HD
ATOM     53  C   UNL A   1      45.309  26.148  31.174  1.00  0.00     0.034 A 
ATOM     54  C   UNL A   1      51.223  26.536  26.129  1.00  0.00     0.034 A 
ATOM     55  C   UNL A   1      46.757  26.448  31.094  1.00  0.00     0.049 A 
ATOM     56  C   UNL A   1      51.106  27.780  27.098  1.00  0.00     0.074 A 
ATOM     57  C   UNL A   1      47.919  25.740  31.346  1.00  0.00     0.029 A 
ATOM     58  N   UNL A   1      47.176  27.578  30.393  1.00  0.00    -0.354 N 
ATOM     59  N   UNL A   1      50.426  27.647  28.217  1.00  0.00    -0.248 NA
ATOM     60  C   UNL A   1      51.526  29.183  26.949  1.00  0.00     0.031 C 
ATOM     61  C   UNL A   1      49.031  26.532  30.902  1.00  0.00     0.029 A 
ATOM     62  C   UNL A   1      48.550  27.675  30.290  1.00  0.00     0.049 A 
ATOM     63  H   UNL A   1      46.555  28.240  30.009  1.00  0.00     0.167 HD
ATOM     64  C   UNL A   1      50.097  28.835  28.774  1.00  0.00     0.074 A 
ATOM     65  C   UNL A   1      50.921  29.770  28.012  1.00  0.00     0.031 C 
ATOM     66  C   UNL A   1      49.128  28.910  29.747  1.00  0.00     0.034 A 
BRANCH  53  67
ATOM     67  C   UNL A   1      44.656  25.401  32.344  1.00  0.00     0.023 A 
ATOM     68  C   UNL A   1      44.210  26.206  33.397  1.00  0.00     0.031 A 
ATOM     69  C   UNL A   1      44.399  24.011  32.524  1.00  0.00     0.131 A 
ATOM     70  C   UNL A   1      43.510  25.680  34.495  1.00  0.00     0.055 A 
ATOM     71  C   UNL A   1      43.701  23.483  33.623  1.00  0.00     0.041 A 
ATOM     72  F   UNL A   1      44.791  23.057  31.676  1.00  0.00    -0.206 F 
ATOM     73  C   UNL A   1      43.232  24.323  34.610  1.00  0.00     0.022 A 
BRANCH  70  74
ATOM     74  S   UNL A   1      42.916  26.845  35.734  1.00  0.00     0.124 S 
ATOM     75  O   UNL A   1      41.801  27.476  35.035  1.00  0.00    -0.237 OA
ATOM     76  O   UNL A   1      42.574  25.957  36.839  1.00  0.00    -0.237 OA
ATOM     77  O   UNL A   1      44.073  27.707  35.967  1.00  0.00    -0.744 OA
ENDBRANCH  70  74
ENDBRANCH  53  67
BRANCH  54  78
ATOM     78  C   UNL A   1      51.475  26.568  24.520  1.00  0.00     0.023 A 
ATOM     79  C   UNL A   1      50.458  27.108  23.680  1.00  0.00     0.031 A 
ATOM     80  C   UNL A   1      52.696  26.351  23.810  1.00  0.00     0.131 A 
ATOM     81  C   UNL A   1      50.739  27.655  22.381  1.00  0.00     0.055 A 
ATOM     82  C   UNL A   1      53.006  27.003  22.586  1.00  0.00     0.041 A 
ATOM     83  F   UNL A   1      53.699  25.635  24.338  1.00  0.00    -0.206 F 
ATOM     84  C   UNL A   1      52.037  27.717  21.896  1.00  0.00     0.022 A 
BRANCH  81  85
ATOM     85  S   UNL A   1      49.446  28.414  21.316  1.00  0.00     0.124 S 
ATOM     86  O   UNL A   1      48.277  28.424  22.188  1.00  0.00    -0.237 OA
ATOM     87  O   UNL A   1      50.012  29.724  21.011  1.00  0.00    -0.237 OA
ATOM     88  O   UNL A   1      49.343  27.487  20.188  1.00  0.00    -0.744 OA
ENDBRANCH  81  85
ENDBRANCH  54  78
BRANCH  66  89
ATOM     89  C   UNL A   1      48.641  30.192  30.369  1.00  0.00     0.023 A 
ATOM     90  C   UNL A   1      48.821  30.473  31.715  1.00  0.00     0.031 A 
ATOM     91  C   UNL A   1      47.942  31.172  29.612  1.00  0.00     0.131 A 
ATOM     92  C   UNL A   1      48.114  31.524  32.307  1.00  0.00     0.055 A 
ATOM     93  C   UNL A   1      47.389  32.314  30.177  1.00  0.00     0.041 A 
ATOM     94  F   UNL A   1      47.731  31.056  28.294  1.00  0.00    -0.206 F 
ATOM     95  C   UNL A   1      47.413  32.460  31.550  1.00  0.00     0.022 A 
BRANCH  92  96
ATOM     96  S   UNL A   1      47.973  31.485  34.103  1.00  0.00     0.124 S 
ATOM     97  O   UNL A   1      49.093  30.621  34.468  1.00  0.00    -0.237 OA
ATOM     98  O   UNL A   1      48.122  32.893  34.457  1.00  0.00    -0.237 OA
ATOM     99  O   UNL A   1      46.647  30.917  34.329  1.00  0.00    -0.744 OA
ENDBRANCH  92  96
ENDBRANCH  66  89
ENDBRANCH  40  41
ENDBRANCH  33  35
ENDBRANCH  32  33
ENDBRANCH  31  32
ENDBRANCH  30  31
ENDBRANCH  29  30
ENDBRANCH  28  29
ENDBRANCH   1  28
TORSDOF 23
ENDMDL
