MODEL 1
REMARK VINA RESULT:      -7.0      0.000      0.000
REMARK SMILES O=C(CCCCCC(F)(F)c1ccccc1)OCCOCCOCCOC(=O)c1ccc(-c2c3nc(c(-c4cc(S(=O)(=O)[O-])ccc4F)c4ccc([nH]4)c(-c4cc(S(=O)(=O)[O-])ccc4F)c4nc(c(-c5cc(S(=O)(=O)[O-])ccc5F)c5ccc2[nH]5)C=C4)C=C3)cc1
REMARK SMILES IDX 20 1 19 2 18 3 17 4 2 5 1 6 3 7 4 8 5 9 6 10 7 11 8 12 9 13
REMARK SMILES IDX 10 14 11 15 12 16 16 17 13 18 15 19 14 20 21 21 22 22 23 23
REMARK SMILES IDX 24 24 25 25 26 26 27 27 28 28 29 29 30 30 91 31 31 32 90 33
REMARK SMILES IDX 32 34 33 35 34 36 84 37 35 38 89 39 83 40 85 41 36 42 88 43
REMARK SMILES IDX 82 44 81 45 37 47 69 48 49 49 68 50 50 51 53 52 67 53 86 54
REMARK SMILES IDX 51 55 52 56 66 58 87 59 54 60 38 61 39 62 47 63 40 64 46 65
REMARK SMILES IDX 48 66 45 67 41 68 42 69 43 70 44 71 70 72 71 73 79 74 72 75
REMARK SMILES IDX 78 76 80 77 77 78 73 79 74 80 75 81 76 82 55 83 56 84 64 85
REMARK SMILES IDX 57 86 63 87 65 88 62 89 58 90 59 91 60 92 61 93
REMARK H PARENT 85 46 53 57
REMARK Flexibility Score: inf
ROOT
ATOM      1  O   UNL A   1      34.720  34.416  31.197  1.00  0.00    -0.376 OA
ENDROOT
BRANCH   1   2
ATOM      2  C   UNL A   1      35.374  33.426  30.415  1.00  0.00     0.202 C 
BRANCH   2   3
ATOM      3  C   UNL A   1      35.253  33.640  28.906  1.00  0.00     0.261 C 
BRANCH   3   4
ATOM      4  O   UNL A   1      35.794  32.545  28.161  1.00  0.00    -0.463 OA
BRANCH   4   5
ATOM      5  C   UNL A   1      34.894  31.559  27.909  1.00  0.00     0.305 C 
ATOM      6  O   UNL A   1      33.745  31.801  27.563  1.00  0.00    -0.252 OA
BRANCH   5   7
ATOM      7  C   UNL A   1      35.429  30.164  28.175  1.00  0.00     0.123 C 
BRANCH   7   8
ATOM      8  C   UNL A   1      36.593  30.159  29.164  1.00  0.00     0.012 C 
BRANCH   8   9
ATOM      9  C   UNL A   1      36.176  29.864  30.608  1.00  0.00     0.001 C 
BRANCH   9  10
ATOM     10  C   UNL A   1      37.297  29.810  31.652  1.00  0.00     0.007 C 
BRANCH  10  11
ATOM     11  C   UNL A   1      38.746  29.785  31.139  1.00  0.00     0.082 C 
BRANCH  11  12
ATOM     12  C   UNL A   1      39.366  28.394  30.902  1.00  0.00     0.273 C 
ATOM     13  F   UNL A   1      40.458  28.283  31.719  1.00  0.00    -0.201 F 
ATOM     14  F   UNL A   1      38.478  27.470  31.381  1.00  0.00    -0.201 F 
BRANCH  12  15
ATOM     15  C   UNL A   1      39.694  28.125  29.448  1.00  0.00     0.021 A 
ATOM     16  C   UNL A   1      40.047  29.185  28.596  1.00  0.00     0.010 A 
ATOM     17  C   UNL A   1      39.782  26.807  28.967  1.00  0.00     0.010 A 
ATOM     18  C   UNL A   1      40.585  28.927  27.336  1.00  0.00     0.001 A 
ATOM     19  C   UNL A   1      40.318  26.554  27.704  1.00  0.00     0.001 A 
ATOM     20  C   UNL A   1      40.740  27.612  26.900  1.00  0.00     0.000 A 
ENDBRANCH  12  15
ENDBRANCH  11  12
ENDBRANCH  10  11
ENDBRANCH   9  10
ENDBRANCH   8   9
ENDBRANCH   7   8
ENDBRANCH   5   7
ENDBRANCH   4   5
ENDBRANCH   3   4
ENDBRANCH   2   3
ENDBRANCH   1   2
BRANCH   1  21
ATOM     21  C   UNL A   1      34.374  34.037  32.536  1.00  0.00     0.188 C 
BRANCH  21  22
ATOM     22  C   UNL A   1      35.172  34.707  33.658  1.00  0.00     0.188 C 
BRANCH  22  23
ATOM     23  O   UNL A   1      36.435  35.269  33.314  1.00  0.00    -0.376 OA
BRANCH  23  24
ATOM     24  C   UNL A   1      37.602  34.465  33.465  1.00  0.00     0.202 C 
BRANCH  24  25
ATOM     25  C   UNL A   1      38.293  34.035  32.170  1.00  0.00     0.261 C 
BRANCH  25  26
ATOM     26  O   UNL A   1      39.715  34.267  32.205  1.00  0.00    -0.460 OA
BRANCH  26  27
ATOM     27  C   UNL A   1      40.416  33.428  33.005  1.00  0.00     0.338 C 
ATOM     28  O   UNL A   1      40.346  33.349  34.218  1.00  0.00    -0.246 OA
BRANCH  27  29
ATOM     29  C   UNL A   1      41.232  32.504  32.195  1.00  0.00     0.060 A 
ATOM     30  C   UNL A   1      42.144  31.681  32.867  1.00  0.00     0.016 A 
ATOM     31  C   UNL A   1      41.209  32.544  30.798  1.00  0.00     0.016 A 
ATOM     32  C   UNL A   1      43.090  30.957  32.144  1.00  0.00     0.010 A 
ATOM     33  C   UNL A   1      42.162  31.818  30.074  1.00  0.00     0.010 A 
ATOM     34  C   UNL A   1      43.139  31.062  30.747  1.00  0.00    -0.014 A 
BRANCH  34  35
ATOM     35  C   UNL A   1      44.321  30.528  30.026  1.00  0.00     0.031 A 
ATOM     36  C   UNL A   1      44.344  29.069  29.647  1.00  0.00     0.074 A 
ATOM     37  C   UNL A   1      45.328  31.341  29.660  1.00  0.00     0.049 A 
ATOM     38  N   UNL A   1      45.254  28.394  28.994  1.00  0.00    -0.248 NA
ATOM     39  C   UNL A   1      43.182  28.268  30.062  1.00  0.00     0.031 C 
ATOM     40  C   UNL A   1      45.400  32.773  29.947  1.00  0.00     0.029 A 
ATOM     41  N   UNL A   1      46.480  31.079  28.965  1.00  0.00    -0.354 N 
ATOM     42  C   UNL A   1      44.770  27.092  28.905  1.00  0.00     0.074 A 
ATOM     43  C   UNL A   1      43.510  27.063  29.617  1.00  0.00     0.031 C 
ATOM     44  C   UNL A   1      46.545  33.262  29.438  1.00  0.00     0.029 A 
ATOM     45  C   UNL A   1      47.296  32.175  28.812  1.00  0.00     0.049 A 
ATOM     46  H   UNL A   1      46.704  30.188  28.609  1.00  0.00     0.167 HD
ATOM     47  C   UNL A   1      45.317  26.022  28.274  1.00  0.00     0.034 A 
ATOM     48  C   UNL A   1      48.514  32.285  28.246  1.00  0.00     0.034 A 
ATOM     49  C   UNL A   1      46.585  26.058  27.588  1.00  0.00     0.049 A 
ATOM     50  C   UNL A   1      49.132  31.065  27.604  1.00  0.00     0.074 A 
ATOM     51  C   UNL A   1      47.241  25.032  26.927  1.00  0.00     0.029 A 
ATOM     52  N   UNL A   1      47.399  27.180  27.479  1.00  0.00    -0.354 N 
ATOM     53  N   UNL A   1      48.658  29.843  27.522  1.00  0.00    -0.248 NA
ATOM     54  C   UNL A   1      50.440  31.248  26.963  1.00  0.00     0.031 C 
ATOM     55  C   UNL A   1      48.473  25.518  26.473  1.00  0.00     0.029 A 
ATOM     56  C   UNL A   1      48.557  26.866  26.785  1.00  0.00     0.049 A 
ATOM     57  H   UNL A   1      47.182  28.069  27.842  1.00  0.00     0.167 HD
ATOM     58  C   UNL A   1      49.604  29.117  26.801  1.00  0.00     0.074 A 
ATOM     59  C   UNL A   1      50.656  30.048  26.447  1.00  0.00     0.031 C 
ATOM     60  C   UNL A   1      49.608  27.802  26.461  1.00  0.00     0.034 A 
BRANCH  47  61
ATOM     61  C   UNL A   1      44.557  24.719  28.338  1.00  0.00     0.023 A 
ATOM     62  C   UNL A   1      43.800  24.252  27.249  1.00  0.00     0.031 A 
ATOM     63  C   UNL A   1      44.570  23.943  29.511  1.00  0.00     0.131 A 
ATOM     64  C   UNL A   1      43.042  23.078  27.373  1.00  0.00     0.055 A 
ATOM     65  C   UNL A   1      43.869  22.739  29.605  1.00  0.00     0.041 A 
ATOM     66  F   UNL A   1      45.255  24.350  30.591  1.00  0.00    -0.206 F 
ATOM     67  C   UNL A   1      43.090  22.306  28.536  1.00  0.00     0.022 A 
BRANCH  64  68
ATOM     68  S   UNL A   1      41.895  22.637  26.039  1.00  0.00     0.124 S 
ATOM     69  O   UNL A   1      41.076  23.842  25.944  1.00  0.00    -0.237 OA
ATOM     70  O   UNL A   1      42.795  22.385  24.919  1.00  0.00    -0.237 OA
ATOM     71  O   UNL A   1      41.201  21.460  26.558  1.00  0.00    -0.744 OA
ENDBRANCH  64  68
ENDBRANCH  47  61
BRANCH  48  72
ATOM     72  C   UNL A   1      49.255  33.578  28.288  1.00  0.00     0.023 A 
ATOM     73  C   UNL A   1      49.153  34.515  27.249  1.00  0.00     0.031 A 
ATOM     74  C   UNL A   1      50.132  33.864  29.351  1.00  0.00     0.131 A 
ATOM     75  C   UNL A   1      49.955  35.668  27.267  1.00  0.00     0.055 A 
ATOM     76  C   UNL A   1      50.887  35.037  29.390  1.00  0.00     0.041 A 
ATOM     77  F   UNL A   1      50.265  33.002  30.371  1.00  0.00    -0.206 F 
ATOM     78  C   UNL A   1      50.811  35.941  28.336  1.00  0.00     0.022 A 
BRANCH  75  79
ATOM     79  S   UNL A   1      49.933  36.765  25.822  1.00  0.00     0.124 S 
ATOM     80  O   UNL A   1      48.510  37.057  25.691  1.00  0.00    -0.237 OA
ATOM     81  O   UNL A   1      50.776  37.868  26.268  1.00  0.00    -0.237 OA
ATOM     82  O   UNL A   1      50.502  35.938  24.759  1.00  0.00    -0.744 OA
ENDBRANCH  75  79
ENDBRANCH  48  72
BRANCH  60  83
ATOM     83  C   UNL A   1      50.783  27.315  25.648  1.00  0.00     0.023 A 
ATOM     84  C   UNL A   1      50.890  27.587  24.272  1.00  0.00     0.031 A 
ATOM     85  C   UNL A   1      51.786  26.531  26.245  1.00  0.00     0.131 A 
ATOM     86  C   UNL A   1      51.931  27.017  23.525  1.00  0.00     0.055 A 
ATOM     87  C   UNL A   1      52.857  26.021  25.509  1.00  0.00     0.041 A 
ATOM     88  F   UNL A   1      51.737  26.239  27.555  1.00  0.00    -0.206 F 
ATOM     89  C   UNL A   1      52.924  26.248  24.137  1.00  0.00     0.022 A 
BRANCH  86  90
ATOM     90  S   UNL A   1      51.902  27.195  21.720  1.00  0.00     0.124 S 
ATOM     91  O   UNL A   1      52.555  25.966  21.283  1.00  0.00    -0.237 OA
ATOM     92  O   UNL A   1      50.473  27.291  21.439  1.00  0.00    -0.237 OA
ATOM     93  O   UNL A   1      52.663  28.420  21.484  1.00  0.00    -0.744 OA
ENDBRANCH  86  90
ENDBRANCH  60  83
ENDBRANCH  34  35
ENDBRANCH  27  29
ENDBRANCH  26  27
ENDBRANCH  25  26
ENDBRANCH  24  25
ENDBRANCH  23  24
ENDBRANCH  22  23
ENDBRANCH  21  22
ENDBRANCH   1  21
TORSDOF 26
ENDMDL
MODEL 2
REMARK VINA RESULT:      -6.8      4.112     10.714
REMARK SMILES O=C(CCCCCC(F)(F)c1ccccc1)OCCOCCOCCOC(=O)c1ccc(-c2c3nc(c(-c4cc(S(=O)(=O)[O-])ccc4F)c4ccc([nH]4)c(-c4cc(S(=O)(=O)[O-])ccc4F)c4nc(c(-c5cc(S(=O)(=O)[O-])ccc5F)c5ccc2[nH]5)C=C4)C=C3)cc1
REMARK SMILES IDX 20 1 19 2 18 3 17 4 2 5 1 6 3 7 4 8 5 9 6 10 7 11 8 12 9 13
REMARK SMILES IDX 10 14 11 15 12 16 16 17 13 18 15 19 14 20 21 21 22 22 23 23
REMARK SMILES IDX 24 24 25 25 26 26 27 27 28 28 29 29 30 30 91 31 31 32 90 33
REMARK SMILES IDX 32 34 33 35 34 36 84 37 35 38 89 39 83 40 85 41 36 42 88 43
REMARK SMILES IDX 82 44 81 45 37 47 69 48 49 49 68 50 50 51 53 52 67 53 86 54
REMARK SMILES IDX 51 55 52 56 66 58 87 59 54 60 38 61 39 62 47 63 40 64 46 65
REMARK SMILES IDX 48 66 45 67 41 68 42 69 43 70 44 71 70 72 71 73 79 74 72 75
REMARK SMILES IDX 78 76 80 77 77 78 73 79 74 80 75 81 76 82 55 83 56 84 64 85
REMARK SMILES IDX 57 86 63 87 65 88 62 89 58 90 59 91 60 92 61 93
REMARK H PARENT 85 46 53 57
REMARK Flexibility Score: inf
ROOT
ATOM      1  O   UNL A   1      49.719  27.357  28.140  1.00  0.00    -0.376 OA
ENDROOT
BRANCH   1   2
ATOM      2  C   UNL A   1      49.076  27.548  26.889  1.00  0.00     0.202 C 
BRANCH   2   3
ATOM      3  C   UNL A   1      47.598  27.156  26.878  1.00  0.00     0.261 C 
BRANCH   3   4
ATOM      4  O   UNL A   1      47.377  25.895  26.240  1.00  0.00    -0.463 OA
BRANCH   4   5
ATOM      5  C   UNL A   1      46.863  24.948  27.067  1.00  0.00     0.305 C 
ATOM      6  O   UNL A   1      47.253  24.810  28.219  1.00  0.00    -0.252 OA
BRANCH   5   7
ATOM      7  C   UNL A   1      45.838  24.049  26.399  1.00  0.00     0.123 C 
BRANCH   7   8
ATOM      8  C   UNL A   1      44.927  23.347  27.404  1.00  0.00     0.012 C 
BRANCH   8   9
ATOM      9  C   UNL A   1      43.651  22.770  26.784  1.00  0.00     0.001 C 
BRANCH   9  10
ATOM     10  C   UNL A   1      42.844  23.703  25.874  1.00  0.00     0.007 C 
BRANCH  10  11
ATOM     11  C   UNL A   1      42.428  25.069  26.446  1.00  0.00     0.082 C 
BRANCH  11  12
ATOM     12  C   UNL A   1      41.079  25.118  27.192  1.00  0.00     0.273 C 
ATOM     13  F   UNL A   1      40.180  24.383  26.469  1.00  0.00    -0.201 F 
ATOM     14  F   UNL A   1      41.239  24.422  28.359  1.00  0.00    -0.201 F 
BRANCH  12  15
ATOM     15  C   UNL A   1      40.598  26.528  27.464  1.00  0.00     0.021 A 
ATOM     16  C   UNL A   1      41.080  27.599  26.695  1.00  0.00     0.010 A 
ATOM     17  C   UNL A   1      39.569  26.764  28.392  1.00  0.00     0.010 A 
ATOM     18  C   UNL A   1      40.469  28.850  26.768  1.00  0.00     0.001 A 
ATOM     19  C   UNL A   1      38.963  28.019  28.464  1.00  0.00     0.001 A 
ATOM     20  C   UNL A   1      39.398  29.054  27.636  1.00  0.00     0.000 A 
ENDBRANCH  12  15
ENDBRANCH  11  12
ENDBRANCH  10  11
ENDBRANCH   9  10
ENDBRANCH   8   9
ENDBRANCH   7   8
ENDBRANCH   5   7
ENDBRANCH   4   5
ENDBRANCH   3   4
ENDBRANCH   2   3
ENDBRANCH   1   2
BRANCH   1  21
ATOM     21  C   UNL A   1      51.134  27.588  28.165  1.00  0.00     0.188 C 
BRANCH  21  22
ATOM     22  C   UNL A   1      51.851  27.542  26.813  1.00  0.00     0.188 C 
BRANCH  22  23
ATOM     23  O   UNL A   1      52.931  28.451  26.616  1.00  0.00    -0.376 OA
BRANCH  23  24
ATOM     24  C   UNL A   1      53.351  29.258  27.713  1.00  0.00     0.202 C 
BRANCH  24  25
ATOM     25  C   UNL A   1      53.790  30.682  27.370  1.00  0.00     0.261 C 
BRANCH  25  26
ATOM     26  O   UNL A   1      53.270  31.654  28.297  1.00  0.00    -0.460 OA
BRANCH  26  27
ATOM     27  C   UNL A   1      52.300  32.461  27.804  1.00  0.00     0.338 C 
ATOM     28  O   UNL A   1      52.444  33.369  27.007  1.00  0.00    -0.246 OA
BRANCH  27  29
ATOM     29  C   UNL A   1      50.973  32.025  28.281  1.00  0.00     0.060 A 
ATOM     30  C   UNL A   1      50.092  31.475  27.343  1.00  0.00     0.016 A 
ATOM     31  C   UNL A   1      50.549  32.281  29.588  1.00  0.00     0.016 A 
ATOM     32  C   UNL A   1      48.760  31.255  27.687  1.00  0.00     0.010 A 
ATOM     33  C   UNL A   1      49.209  32.062  29.930  1.00  0.00     0.010 A 
ATOM     34  C   UNL A   1      48.298  31.597  28.965  1.00  0.00    -0.014 A 
BRANCH  34  35
ATOM     35  C   UNL A   1      46.836  31.634  29.217  1.00  0.00     0.031 A 
ATOM     36  C   UNL A   1      46.151  30.388  29.717  1.00  0.00     0.074 A 
ATOM     37  C   UNL A   1      46.141  32.775  29.061  1.00  0.00     0.049 A 
ATOM     38  N   UNL A   1      44.896  30.197  30.029  1.00  0.00    -0.248 NA
ATOM     39  C   UNL A   1      47.001  29.199  29.888  1.00  0.00     0.031 C 
ATOM     40  C   UNL A   1      46.702  34.048  28.610  1.00  0.00     0.029 A 
ATOM     41  N   UNL A   1      44.813  33.048  29.270  1.00  0.00    -0.354 N 
ATOM     42  C   UNL A   1      44.805  28.873  30.448  1.00  0.00     0.074 A 
ATOM     43  C   UNL A   1      46.124  28.295  30.299  1.00  0.00     0.031 C 
ATOM     44  C   UNL A   1      45.721  34.966  28.567  1.00  0.00     0.029 A 
ATOM     45  C   UNL A   1      44.460  34.341  28.964  1.00  0.00     0.049 A 
ATOM     46  H   UNL A   1      44.173  32.380  29.606  1.00  0.00     0.167 HD
ATOM     47  C   UNL A   1      43.727  28.203  30.927  1.00  0.00     0.034 A 
ATOM     48  C   UNL A   1      43.255  34.945  28.987  1.00  0.00     0.034 A 
ATOM     49  C   UNL A   1      42.412  28.784  31.048  1.00  0.00     0.049 A 
ATOM     50  C   UNL A   1      42.056  34.162  29.465  1.00  0.00     0.074 A 
ATOM     51  C   UNL A   1      41.245  28.195  31.507  1.00  0.00     0.029 A 
ATOM     52  N   UNL A   1      42.084  30.089  30.700  1.00  0.00    -0.354 N 
ATOM     53  N   UNL A   1      41.989  32.912  29.865  1.00  0.00    -0.248 NA
ATOM     54  C   UNL A   1      40.776  34.878  29.513  1.00  0.00     0.031 C 
ATOM     55  C   UNL A   1      40.204  29.123  31.381  1.00  0.00     0.029 A 
ATOM     56  C   UNL A   1      40.733  30.315  30.911  1.00  0.00     0.049 A 
ATOM     57  H   UNL A   1      42.720  30.756  30.354  1.00  0.00     0.167 HD
ATOM     58  C   UNL A   1      40.661  32.702  30.230  1.00  0.00     0.074 A 
ATOM     59  C   UNL A   1      39.975  33.962  30.033  1.00  0.00     0.031 C 
ATOM     60  C   UNL A   1      40.059  31.573  30.686  1.00  0.00     0.034 A 
BRANCH  47  61
ATOM     61  C   UNL A   1      43.926  26.758  31.315  1.00  0.00     0.023 A 
ATOM     62  C   UNL A   1      44.151  26.376  32.650  1.00  0.00     0.031 A 
ATOM     63  C   UNL A   1      43.914  25.749  30.337  1.00  0.00     0.131 A 
ATOM     64  C   UNL A   1      44.414  25.034  32.962  1.00  0.00     0.055 A 
ATOM     65  C   UNL A   1      44.105  24.404  30.662  1.00  0.00     0.041 A 
ATOM     66  F   UNL A   1      43.727  26.054  29.043  1.00  0.00    -0.206 F 
ATOM     67  C   UNL A   1      44.368  24.041  31.980  1.00  0.00     0.022 A 
BRANCH  64  68
ATOM     68  S   UNL A   1      44.936  24.617  34.647  1.00  0.00     0.124 S 
ATOM     69  O   UNL A   1      45.140  25.941  35.229  1.00  0.00    -0.237 OA
ATOM     70  O   UNL A   1      43.794  23.866  35.156  1.00  0.00    -0.237 OA
ATOM     71  O   UNL A   1      46.155  23.837  34.447  1.00  0.00    -0.744 OA
ENDBRANCH  64  68
ENDBRANCH  47  61
BRANCH  48  72
ATOM     72  C   UNL A   1      43.104  36.350  28.511  1.00  0.00     0.023 A 
ATOM     73  C   UNL A   1      43.416  37.441  29.335  1.00  0.00     0.031 A 
ATOM     74  C   UNL A   1      42.579  36.618  27.233  1.00  0.00     0.131 A 
ATOM     75  C   UNL A   1      43.151  38.748  28.895  1.00  0.00     0.055 A 
ATOM     76  C   UNL A   1      42.366  37.920  26.780  1.00  0.00     0.041 A 
ATOM     77  F   UNL A   1      42.265  35.610  26.403  1.00  0.00    -0.206 F 
ATOM     78  C   UNL A   1      42.639  38.995  27.619  1.00  0.00     0.022 A 
BRANCH  75  79
ATOM     79  S   UNL A   1      43.395  40.122  30.054  1.00  0.00     0.124 S 
ATOM     80  O   UNL A   1      44.330  40.968  29.321  1.00  0.00    -0.237 OA
ATOM     81  O   UNL A   1      42.038  40.639  30.198  1.00  0.00    -0.237 OA
ATOM     82  O   UNL A   1      43.941  39.471  31.244  1.00  0.00    -0.744 OA
ENDBRANCH  75  79
ENDBRANCH  48  72
BRANCH  60  83
ATOM     83  C   UNL A   1      38.589  31.674  31.019  1.00  0.00     0.023 A 
ATOM     84  C   UNL A   1      37.611  31.761  30.013  1.00  0.00     0.031 A 
ATOM     85  C   UNL A   1      38.165  31.730  32.359  1.00  0.00     0.131 A 
ATOM     86  C   UNL A   1      36.269  31.976  30.359  1.00  0.00     0.055 A 
ATOM     87  C   UNL A   1      36.820  31.878  32.698  1.00  0.00     0.041 A 
ATOM     88  F   UNL A   1      39.055  31.652  33.361  1.00  0.00    -0.206 F 
ATOM     89  C   UNL A   1      35.864  32.020  31.695  1.00  0.00     0.022 A 
BRANCH  86  90
ATOM     90  S   UNL A   1      35.075  32.319  29.036  1.00  0.00     0.124 S 
ATOM     91  O   UNL A   1      34.706  30.975  28.604  1.00  0.00    -0.237 OA
ATOM     92  O   UNL A   1      34.039  33.069  29.739  1.00  0.00    -0.237 OA
ATOM     93  O   UNL A   1      35.849  33.092  28.068  1.00  0.00    -0.744 OA
ENDBRANCH  86  90
ENDBRANCH  60  83
ENDBRANCH  34  35
ENDBRANCH  27  29
ENDBRANCH  26  27
ENDBRANCH  25  26
ENDBRANCH  24  25
ENDBRANCH  23  24
ENDBRANCH  22  23
ENDBRANCH  21  22
ENDBRANCH   1  21
TORSDOF 26
ENDMDL
MODEL 3
REMARK VINA RESULT:      -6.8      4.786     10.362
REMARK SMILES O=C(CCCCCC(F)(F)c1ccccc1)OCCOCCOCCOC(=O)c1ccc(-c2c3nc(c(-c4cc(S(=O)(=O)[O-])ccc4F)c4ccc([nH]4)c(-c4cc(S(=O)(=O)[O-])ccc4F)c4nc(c(-c5cc(S(=O)(=O)[O-])ccc5F)c5ccc2[nH]5)C=C4)C=C3)cc1
REMARK SMILES IDX 20 1 19 2 18 3 17 4 2 5 1 6 3 7 4 8 5 9 6 10 7 11 8 12 9 13
REMARK SMILES IDX 10 14 11 15 12 16 16 17 13 18 15 19 14 20 21 21 22 22 23 23
REMARK SMILES IDX 24 24 25 25 26 26 27 27 28 28 29 29 30 30 91 31 31 32 90 33
REMARK SMILES IDX 32 34 33 35 34 36 84 37 35 38 89 39 83 40 85 41 36 42 88 43
REMARK SMILES IDX 82 44 81 45 37 47 69 48 49 49 68 50 50 51 53 52 67 53 86 54
REMARK SMILES IDX 51 55 52 56 66 58 87 59 54 60 38 61 39 62 47 63 40 64 46 65
REMARK SMILES IDX 48 66 45 67 41 68 42 69 43 70 44 71 70 72 71 73 79 74 72 75
REMARK SMILES IDX 78 76 80 77 77 78 73 79 74 80 75 81 76 82 55 83 56 84 64 85
REMARK SMILES IDX 57 86 63 87 65 88 62 89 58 90 59 91 60 92 61 93
REMARK H PARENT 85 46 53 57
REMARK Flexibility Score: inf
ROOT
ATOM      1  O   UNL A   1      38.266  21.009  25.031  1.00  0.00    -0.376 OA
ENDROOT
BRANCH   1   2
ATOM      2  C   UNL A   1      37.075  21.766  24.872  1.00  0.00     0.202 C 
BRANCH   2   3
ATOM      3  C   UNL A   1      37.215  23.241  25.249  1.00  0.00     0.261 C 
BRANCH   3   4
ATOM      4  O   UNL A   1      36.196  23.665  26.160  1.00  0.00    -0.463 OA
BRANCH   4   5
ATOM      5  C   UNL A   1      34.934  23.433  25.713  1.00  0.00     0.305 C 
ATOM      6  O   UNL A   1      34.254  22.509  26.140  1.00  0.00    -0.252 OA
BRANCH   5   7
ATOM      7  C   UNL A   1      34.501  24.368  24.599  1.00  0.00     0.123 C 
BRANCH   7   8
ATOM      8  C   UNL A   1      34.101  23.623  23.327  1.00  0.00     0.012 C 
BRANCH   8   9
ATOM      9  C   UNL A   1      32.621  23.774  22.962  1.00  0.00     0.001 C 
BRANCH   9  10
ATOM     10  C   UNL A   1      31.658  24.103  24.109  1.00  0.00     0.007 C 
BRANCH  10  11
ATOM     11  C   UNL A   1      30.458  25.011  23.791  1.00  0.00     0.082 C 
BRANCH  11  12
ATOM     12  C   UNL A   1      30.346  26.311  24.612  1.00  0.00     0.273 C 
ATOM     13  F   UNL A   1      29.586  27.191  23.891  1.00  0.00    -0.201 F 
ATOM     14  F   UNL A   1      29.591  26.025  25.717  1.00  0.00    -0.201 F 
BRANCH  12  15
ATOM     15  C   UNL A   1      31.689  26.886  25.008  1.00  0.00     0.021 A 
ATOM     16  C   UNL A   1      32.496  27.522  24.050  1.00  0.00     0.010 A 
ATOM     17  C   UNL A   1      32.085  26.913  26.357  1.00  0.00     0.010 A 
ATOM     18  C   UNL A   1      33.608  28.264  24.445  1.00  0.00     0.001 A 
ATOM     19  C   UNL A   1      33.201  27.655  26.747  1.00  0.00     0.001 A 
ATOM     20  C   UNL A   1      33.947  28.348  25.794  1.00  0.00     0.000 A 
ENDBRANCH  12  15
ENDBRANCH  11  12
ENDBRANCH  10  11
ENDBRANCH   9  10
ENDBRANCH   8   9
ENDBRANCH   7   8
ENDBRANCH   5   7
ENDBRANCH   4   5
ENDBRANCH   3   4
ENDBRANCH   2   3
ENDBRANCH   1   2
BRANCH   1  21
ATOM     21  C   UNL A   1      39.223  21.526  25.964  1.00  0.00     0.188 C 
BRANCH  21  22
ATOM     22  C   UNL A   1      40.431  20.633  26.261  1.00  0.00     0.188 C 
BRANCH  22  23
ATOM     23  O   UNL A   1      41.362  21.097  27.234  1.00  0.00    -0.376 OA
BRANCH  23  24
ATOM     24  C   UNL A   1      40.993  22.199  28.059  1.00  0.00     0.202 C 
BRANCH  24  25
ATOM     25  C   UNL A   1      41.806  23.481  27.872  1.00  0.00     0.261 C 
BRANCH  25  26
ATOM     26  O   UNL A   1      41.443  24.189  26.671  1.00  0.00    -0.460 OA
BRANCH  26  27
ATOM     27  C   UNL A   1      42.475  24.498  25.850  1.00  0.00     0.338 C 
ATOM     28  O   UNL A   1      42.931  23.805  24.960  1.00  0.00    -0.246 OA
BRANCH  27  29
ATOM     29  C   UNL A   1      42.936  25.878  26.098  1.00  0.00     0.060 A 
ATOM     30  C   UNL A   1      43.942  26.067  27.053  1.00  0.00     0.016 A 
ATOM     31  C   UNL A   1      42.299  26.976  25.513  1.00  0.00     0.016 A 
ATOM     32  C   UNL A   1      44.257  27.353  27.485  1.00  0.00     0.010 A 
ATOM     33  C   UNL A   1      42.615  28.267  25.951  1.00  0.00     0.010 A 
ATOM     34  C   UNL A   1      43.558  28.457  26.977  1.00  0.00    -0.014 A 
BRANCH  34  35
ATOM     35  C   UNL A   1      43.696  29.771  27.653  1.00  0.00     0.031 A 
ATOM     36  C   UNL A   1      42.632  30.201  28.631  1.00  0.00     0.074 A 
ATOM     37  C   UNL A   1      44.780  30.539  27.447  1.00  0.00     0.049 A 
ATOM     38  N   UNL A   1      42.559  31.287  29.355  1.00  0.00    -0.248 NA
ATOM     39  C   UNL A   1      41.502  29.277  28.815  1.00  0.00     0.031 C 
ATOM     40  C   UNL A   1      45.885  30.212  26.546  1.00  0.00     0.029 A 
ATOM     41  N   UNL A   1      45.131  31.751  27.984  1.00  0.00    -0.354 N 
ATOM     42  C   UNL A   1      41.384  31.174  30.092  1.00  0.00     0.074 A 
ATOM     43  C   UNL A   1      40.752  29.936  29.687  1.00  0.00     0.031 C 
ATOM     44  C   UNL A   1      46.789  31.207  26.587  1.00  0.00     0.029 A 
ATOM     45  C   UNL A   1      46.316  32.249  27.497  1.00  0.00     0.049 A 
ATOM     46  H   UNL A   1      44.585  32.220  28.656  1.00  0.00     0.167 HD
ATOM     47  C   UNL A   1      40.884  32.016  31.032  1.00  0.00     0.034 A 
ATOM     48  C   UNL A   1      46.939  33.419  27.744  1.00  0.00     0.034 A 
ATOM     49  C   UNL A   1      41.511  33.259  31.410  1.00  0.00     0.049 A 
ATOM     50  C   UNL A   1      46.332  34.369  28.748  1.00  0.00     0.074 A 
ATOM     51  C   UNL A   1      41.087  34.195  32.338  1.00  0.00     0.029 A 
ATOM     52  N   UNL A   1      42.696  33.746  30.872  1.00  0.00    -0.354 N 
ATOM     53  N   UNL A   1      45.224  34.244  29.443  1.00  0.00    -0.248 NA
ATOM     54  C   UNL A   1      47.072  35.609  29.014  1.00  0.00     0.031 C 
ATOM     55  C   UNL A   1      41.981  35.272  32.318  1.00  0.00     0.029 A 
ATOM     56  C   UNL A   1      43.004  34.977  31.430  1.00  0.00     0.049 A 
ATOM     57  H   UNL A   1      43.239  33.284  30.193  1.00  0.00     0.167 HD
ATOM     58  C   UNL A   1      45.147  35.382  30.243  1.00  0.00     0.074 A 
ATOM     59  C   UNL A   1      46.336  36.161  29.966  1.00  0.00     0.031 C 
ATOM     60  C   UNL A   1      44.183  35.753  31.125  1.00  0.00     0.034 A 
BRANCH  47  61
ATOM     61  C   UNL A   1      39.576  31.630  31.680  1.00  0.00     0.023 A 
ATOM     62  C   UNL A   1      38.339  32.015  31.133  1.00  0.00     0.031 A 
ATOM     63  C   UNL A   1      39.564  30.886  32.873  1.00  0.00     0.131 A 
ATOM     64  C   UNL A   1      37.147  31.709  31.808  1.00  0.00     0.055 A 
ATOM     65  C   UNL A   1      38.371  30.522  33.503  1.00  0.00     0.041 A 
ATOM     66  F   UNL A   1      40.714  30.510  33.455  1.00  0.00    -0.206 F 
ATOM     67  C   UNL A   1      37.154  30.944  32.976  1.00  0.00     0.022 A 
BRANCH  64  68
ATOM     68  S   UNL A   1      35.595  32.426  31.203  1.00  0.00     0.124 S 
ATOM     69  O   UNL A   1      35.419  31.720  29.936  1.00  0.00    -0.237 OA
ATOM     70  O   UNL A   1      34.654  32.082  32.262  1.00  0.00    -0.237 OA
ATOM     71  O   UNL A   1      35.900  33.849  31.078  1.00  0.00    -0.744 OA
ENDBRANCH  64  68
ENDBRANCH  47  61
BRANCH  48  72
ATOM     72  C   UNL A   1      48.184  33.783  27.009  1.00  0.00     0.023 A 
ATOM     73  C   UNL A   1      49.453  33.445  27.503  1.00  0.00     0.031 A 
ATOM     74  C   UNL A   1      48.118  34.539  25.824  1.00  0.00     0.131 A 
ATOM     75  C   UNL A   1      50.605  33.906  26.846  1.00  0.00     0.055 A 
ATOM     76  C   UNL A   1      49.266  34.951  25.146  1.00  0.00     0.041 A 
ATOM     77  F   UNL A   1      46.929  34.889  25.307  1.00  0.00    -0.206 F 
ATOM     78  C   UNL A   1      50.520  34.646  25.665  1.00  0.00     0.022 A 
BRANCH  75  79
ATOM     79  S   UNL A   1      52.222  33.606  27.612  1.00  0.00     0.124 S 
ATOM     80  O   UNL A   1      52.291  32.148  27.600  1.00  0.00    -0.237 OA
ATOM     81  O   UNL A   1      53.122  34.298  26.697  1.00  0.00    -0.237 OA
ATOM     82  O   UNL A   1      52.091  34.215  28.934  1.00  0.00    -0.744 OA
ENDBRANCH  75  79
ENDBRANCH  48  72
BRANCH  60  83
ATOM     83  C   UNL A   1      44.404  37.053  31.863  1.00  0.00     0.023 A 
ATOM     84  C   UNL A   1      43.782  38.246  31.455  1.00  0.00     0.031 A 
ATOM     85  C   UNL A   1      45.281  37.108  32.960  1.00  0.00     0.131 A 
ATOM     86  C   UNL A   1      44.104  39.455  32.088  1.00  0.00     0.055 A 
ATOM     87  C   UNL A   1      45.547  38.303  33.629  1.00  0.00     0.041 A 
ATOM     88  F   UNL A   1      45.904  36.000  33.395  1.00  0.00    -0.206 F 
ATOM     89  C   UNL A   1      44.971  39.490  33.183  1.00  0.00     0.022 A 
BRANCH  86  90
ATOM     90  S   UNL A   1      43.466  41.001  31.384  1.00  0.00     0.124 S 
ATOM     91  O   UNL A   1      44.472  41.967  31.812  1.00  0.00    -0.237 OA
ATOM     92  O   UNL A   1      43.437  40.703  29.956  1.00  0.00    -0.237 OA
ATOM     93  O   UNL A   1      42.156  41.149  32.013  1.00  0.00    -0.744 OA
ENDBRANCH  86  90
ENDBRANCH  60  83
ENDBRANCH  34  35
ENDBRANCH  27  29
ENDBRANCH  26  27
ENDBRANCH  25  26
ENDBRANCH  24  25
ENDBRANCH  23  24
ENDBRANCH  22  23
ENDBRANCH  21  22
ENDBRANCH   1  21
TORSDOF 26
ENDMDL
