MODEL 1
REMARK VINA RESULT:      -9.3      0.000      0.000
REMARK SMILES O=C(CSc1ccc2ccccc2n1)NCc1ccc(C(=O)OCCOCCOCCOC(=O)c2ccc(-c3c4nc(c(-c5cc(S(=O)(=O)[O-])ccc5F)c5ccc([nH]5)c(-c5cc(S(=O)(=O)[O-])ccc5F)c5nc(c(-c6cc(S(=O)(=O)[O-])ccc6F)c6ccc3[nH]6)C=C5)C=C4)cc2)cc1
REMARK SMILES IDX 27 1 26 2 25 3 24 4 23 5 21 6 22 7 20 8 17 9 18 10 99 11
REMARK SMILES IDX 19 12 98 13 16 14 15 15 1 16 2 17 3 19 4 20 5 21 6 22 14 23
REMARK SMILES IDX 7 24 13 25 8 26 12 27 9 28 11 29 10 30 28 31 29 32 30 33
REMARK SMILES IDX 31 34 32 35 33 36 34 37 35 38 36 39 97 40 37 41 96 42 38 43
REMARK SMILES IDX 39 44 40 45 90 46 41 47 95 48 89 49 91 50 42 51 94 52 88 53
REMARK SMILES IDX 87 54 43 56 75 57 55 58 74 59 56 60 59 61 73 62 92 63 57 64
REMARK SMILES IDX 58 65 72 67 93 68 60 69 44 70 45 71 53 72 46 73 52 74 54 75
REMARK SMILES IDX 51 76 47 77 48 78 49 79 50 80 76 81 77 82 85 83 78 84 84 85
REMARK SMILES IDX 86 86 83 87 79 88 80 89 81 90 82 91 61 92 62 93 70 94 63 95
REMARK SMILES IDX 69 96 71 97 68 98 64 99 65 100 66 101 67 102
REMARK H PARENT 15 18 91 55 59 66
REMARK Flexibility Score: inf
ROOT
ATOM      1  C   UNL A   1      38.278  30.078  28.472  1.00  0.00     0.188 C 
ENDROOT
BRANCH   1   2
ATOM      2  O   UNL A   1      37.851  31.038  29.428  1.00  0.00    -0.376 OA
BRANCH   2   3
ATOM      3  C   UNL A   1      38.003  32.424  29.168  1.00  0.00     0.202 C 
BRANCH   3   4
ATOM      4  C   UNL A   1      36.833  33.281  28.658  1.00  0.00     0.261 C 
BRANCH   4   5
ATOM      5  O   UNL A   1      35.909  32.609  27.793  1.00  0.00    -0.460 OA
BRANCH   5   6
ATOM      6  C   UNL A   1      34.656  32.463  28.301  1.00  0.00     0.338 C 
ATOM      7  O   UNL A   1      34.064  33.236  29.020  1.00  0.00    -0.246 OA
BRANCH   6   8
ATOM      8  C   UNL A   1      34.012  31.268  27.709  1.00  0.00     0.060 A 
ATOM      9  C   UNL A   1      32.942  28.962  26.523  1.00  0.00    -0.029 A 
ATOM     10  C   UNL A   1      34.239  28.951  27.059  1.00  0.00     0.006 A 
ATOM     11  C   UNL A   1      32.164  30.125  26.655  1.00  0.00     0.006 A 
ATOM     12  C   UNL A   1      34.780  30.103  27.626  1.00  0.00     0.016 A 
ATOM     13  C   UNL A   1      32.694  31.276  27.250  1.00  0.00     0.016 A 
BRANCH   9  14
ATOM     14  C   UNL A   1      32.372  27.729  25.864  1.00  0.00     0.151 C 
BRANCH  14  15
ATOM     15  N   UNL A   1      33.037  27.421  24.616  1.00  0.00    -0.351 N 
ATOM     16  O   UNL A   1      31.161  26.647  23.563  1.00  0.00    -0.274 OA
ATOM     17  C   UNL A   1      32.362  26.899  23.534  1.00  0.00     0.230 C 
ATOM     18  H   UNL A   1      34.004  27.589  24.538  1.00  0.00     0.163 HD
BRANCH  17  19
ATOM     19  C   UNL A   1      33.213  26.679  22.294  1.00  0.00     0.176 C 
BRANCH  19  20
ATOM     20  S   UNL A   1      32.688  25.178  21.397  1.00  0.00    -0.096 SA
BRANCH  20  21
ATOM     21  C   UNL A   1      33.281  23.924  22.516  1.00  0.00     0.097 A 
ATOM     22  C   UNL A   1      32.406  22.998  23.064  1.00  0.00     0.036 A 
ATOM     23  N   UNL A   1      34.615  23.882  22.722  1.00  0.00    -0.241 NA
ATOM     24  C   UNL A   1      32.914  22.002  23.886  1.00  0.00     0.013 A 
ATOM     25  C   UNL A   1      35.111  22.904  23.503  1.00  0.00     0.072 A 
ATOM     26  C   UNL A   1      34.289  21.931  24.112  1.00  0.00     0.000 A 
ATOM     27  C   UNL A   1      36.481  22.820  23.719  1.00  0.00     0.029 A 
ATOM     28  C   UNL A   1      34.848  20.918  24.909  1.00  0.00     0.010 A 
ATOM     29  C   UNL A   1      37.044  21.808  24.503  1.00  0.00     0.002 A 
ATOM     30  C   UNL A   1      36.226  20.855  25.100  1.00  0.00     0.001 A 
ENDBRANCH  20  21
ENDBRANCH  19  20
ENDBRANCH  17  19
ENDBRANCH  14  15
ENDBRANCH   9  14
ENDBRANCH   6   8
ENDBRANCH   5   6
ENDBRANCH   4   5
ENDBRANCH   3   4
ENDBRANCH   2   3
ENDBRANCH   1   2
BRANCH   1  31
ATOM     31  C   UNL A   1      38.289  28.578  28.832  1.00  0.00     0.188 C 
BRANCH  31  32
ATOM     32  O   UNL A   1      39.245  27.797  28.157  1.00  0.00    -0.376 OA
BRANCH  32  33
ATOM     33  C   UNL A   1      39.349  26.408  28.413  1.00  0.00     0.202 C 
BRANCH  33  34
ATOM     34  C   UNL A   1      39.906  25.337  27.453  1.00  0.00     0.261 C 
BRANCH  34  35
ATOM     35  O   UNL A   1      41.314  25.278  27.226  1.00  0.00    -0.460 OA
BRANCH  35  36
ATOM     36  C   UNL A   1      41.778  26.014  26.187  1.00  0.00     0.338 C 
ATOM     37  O   UNL A   1      41.681  25.751  25.000  1.00  0.00    -0.246 OA
BRANCH  36  38
ATOM     38  C   UNL A   1      42.281  27.295  26.718  1.00  0.00     0.060 A 
ATOM     39  C   UNL A   1      43.134  27.277  27.828  1.00  0.00     0.016 A 
ATOM     40  C   UNL A   1      41.900  28.505  26.134  1.00  0.00     0.016 A 
ATOM     41  C   UNL A   1      43.593  28.476  28.372  1.00  0.00     0.010 A 
ATOM     42  C   UNL A   1      42.348  29.707  26.693  1.00  0.00     0.010 A 
ATOM     43  C   UNL A   1      43.177  29.699  27.829  1.00  0.00    -0.014 A 
BRANCH  43  44
ATOM     44  C   UNL A   1      43.470  30.964  28.549  1.00  0.00     0.031 A 
ATOM     45  C   UNL A   1      42.582  31.359  29.699  1.00  0.00     0.074 A 
ATOM     46  C   UNL A   1      44.515  31.738  28.205  1.00  0.00     0.049 A 
ATOM     47  N   UNL A   1      42.610  32.435  30.441  1.00  0.00    -0.248 NA
ATOM     48  C   UNL A   1      41.514  30.410  30.049  1.00  0.00     0.031 C 
ATOM     49  C   UNL A   1      45.471  31.439  27.140  1.00  0.00     0.029 A 
ATOM     50  N   UNL A   1      44.941  32.941  28.712  1.00  0.00    -0.354 N 
ATOM     51  C   UNL A   1      41.565  32.294  31.349  1.00  0.00     0.074 A 
ATOM     52  C   UNL A   1      40.900  31.048  31.033  1.00  0.00     0.031 C 
ATOM     53  C   UNL A   1      46.367  32.439  27.067  1.00  0.00     0.029 A 
ATOM     54  C   UNL A   1      46.026  33.467  28.050  1.00  0.00     0.049 A 
ATOM     55  H   UNL A   1      44.510  33.385  29.478  1.00  0.00     0.167 HD
ATOM     56  C   UNL A   1      41.201  33.125  32.358  1.00  0.00     0.034 A 
ATOM     57  C   UNL A   1      46.652  34.653  28.203  1.00  0.00     0.034 A 
ATOM     58  C   UNL A   1      41.863  34.373  32.649  1.00  0.00     0.049 A 
ATOM     59  C   UNL A   1      46.165  35.608  29.270  1.00  0.00     0.074 A 
ATOM     60  C   UNL A   1      41.583  35.284  33.652  1.00  0.00     0.029 A 
ATOM     61  N   UNL A   1      42.926  34.898  31.926  1.00  0.00    -0.354 N 
ATOM     62  N   UNL A   1      45.184  35.460  30.130  1.00  0.00    -0.248 NA
ATOM     63  C   UNL A   1      46.877  36.888  29.387  1.00  0.00     0.031 C 
ATOM     64  C   UNL A   1      42.421  36.390  33.488  1.00  0.00     0.029 A 
ATOM     65  C   UNL A   1      43.287  36.136  32.437  1.00  0.00     0.049 A 
ATOM     66  H   UNL A   1      43.361  34.455  31.160  1.00  0.00     0.167 HD
ATOM     67  C   UNL A   1      45.185  36.614  30.912  1.00  0.00     0.074 A 
ATOM     68  C   UNL A   1      46.273  37.439  30.430  1.00  0.00     0.031 C 
ATOM     69  C   UNL A   1      44.367  36.957  31.940  1.00  0.00     0.034 A 
BRANCH  56  70
ATOM     70  C   UNL A   1      39.997  32.728  33.178  1.00  0.00     0.023 A 
ATOM     71  C   UNL A   1      38.695  33.131  32.830  1.00  0.00     0.031 A 
ATOM     72  C   UNL A   1      40.156  31.960  34.345  1.00  0.00     0.131 A 
ATOM     73  C   UNL A   1      37.618  32.828  33.676  1.00  0.00     0.055 A 
ATOM     74  C   UNL A   1      39.068  31.590  35.139  1.00  0.00     0.041 A 
ATOM     75  F   UNL A   1      41.376  31.566  34.742  1.00  0.00    -0.206 F 
ATOM     76  C   UNL A   1      37.792  32.037  34.814  1.00  0.00     0.022 A 
BRANCH  73  77
ATOM     77  S   UNL A   1      36.011  33.603  33.348  1.00  0.00     0.124 S 
ATOM     78  O   UNL A   1      36.337  35.023  33.471  1.00  0.00    -0.237 OA
ATOM     79  O   UNL A   1      35.701  33.132  32.004  1.00  0.00    -0.237 OA
ATOM     80  O   UNL A   1      35.153  33.076  34.407  1.00  0.00    -0.744 OA
ENDBRANCH  73  77
ENDBRANCH  56  70
BRANCH  57  81
ATOM     81  C   UNL A   1      47.778  35.037  27.303  1.00  0.00     0.023 A 
ATOM     82  C   UNL A   1      49.110  34.741  27.636  1.00  0.00     0.031 A 
ATOM     83  C   UNL A   1      47.542  35.770  26.126  1.00  0.00     0.131 A 
ATOM     84  C   UNL A   1      50.156  35.217  26.828  1.00  0.00     0.055 A 
ATOM     85  C   UNL A   1      48.582  36.192  25.296  1.00  0.00     0.041 A 
ATOM     86  F   UNL A   1      46.289  36.087  25.763  1.00  0.00    -0.206 F 
ATOM     87  C   UNL A   1      49.900  35.927  25.653  1.00  0.00     0.022 A 
BRANCH  84  88
ATOM     88  S   UNL A   1      51.864  34.972  27.386  1.00  0.00     0.124 S 
ATOM     89  O   UNL A   1      51.835  35.587  28.708  1.00  0.00    -0.237 OA
ATOM     90  O   UNL A   1      51.986  33.518  27.356  1.00  0.00    -0.237 OA
ATOM     91  O   UNL A   1      52.655  35.682  26.383  1.00  0.00    -0.744 OA
ENDBRANCH  84  88
ENDBRANCH  57  81
BRANCH  69  92
ATOM     92  C   UNL A   1      44.651  38.265  32.645  1.00  0.00     0.023 A 
ATOM     93  C   UNL A   1      43.842  39.401  32.462  1.00  0.00     0.031 A 
ATOM     94  C   UNL A   1      45.756  38.375  33.508  1.00  0.00     0.131 A 
ATOM     95  C   UNL A   1      44.182  40.610  33.089  1.00  0.00     0.055 A 
ATOM     96  C   UNL A   1      46.052  39.562  34.179  1.00  0.00     0.041 A 
ATOM     97  F   UNL A   1      46.566  37.324  33.719  1.00  0.00    -0.206 F 
ATOM     98  C   UNL A   1      45.271  40.692  33.960  1.00  0.00     0.022 A 
BRANCH  95  99
ATOM     99  S   UNL A   1      43.239  42.103  32.674  1.00  0.00     0.124 S 
ATOM    100  O   UNL A   1      43.937  42.584  31.488  1.00  0.00    -0.237 OA
ATOM    101  O   UNL A   1      41.897  41.574  32.454  1.00  0.00    -0.237 OA
ATOM    102  O   UNL A   1      43.385  42.943  33.863  1.00  0.00    -0.744 OA
ENDBRANCH  95  99
ENDBRANCH  69  92
ENDBRANCH  43  44
ENDBRANCH  36  38
ENDBRANCH  35  36
ENDBRANCH  34  35
ENDBRANCH  33  34
ENDBRANCH  32  33
ENDBRANCH  31  32
ENDBRANCH   1  31
TORSDOF 25
ENDMDL
MODEL 2
REMARK VINA RESULT:      -8.9      5.388      9.615
REMARK SMILES O=C(CSc1ccc2ccccc2n1)NCc1ccc(C(=O)OCCOCCOCCOC(=O)c2ccc(-c3c4nc(c(-c5cc(S(=O)(=O)[O-])ccc5F)c5ccc([nH]5)c(-c5cc(S(=O)(=O)[O-])ccc5F)c5nc(c(-c6cc(S(=O)(=O)[O-])ccc6F)c6ccc3[nH]6)C=C5)C=C4)cc2)cc1
REMARK SMILES IDX 27 1 26 2 25 3 24 4 23 5 21 6 22 7 20 8 17 9 18 10 99 11
REMARK SMILES IDX 19 12 98 13 16 14 15 15 1 16 2 17 3 19 4 20 5 21 6 22 14 23
REMARK SMILES IDX 7 24 13 25 8 26 12 27 9 28 11 29 10 30 28 31 29 32 30 33
REMARK SMILES IDX 31 34 32 35 33 36 34 37 35 38 36 39 97 40 37 41 96 42 38 43
REMARK SMILES IDX 39 44 40 45 90 46 41 47 95 48 89 49 91 50 42 51 94 52 88 53
REMARK SMILES IDX 87 54 43 56 75 57 55 58 74 59 56 60 59 61 73 62 92 63 57 64
REMARK SMILES IDX 58 65 72 67 93 68 60 69 44 70 45 71 53 72 46 73 52 74 54 75
REMARK SMILES IDX 51 76 47 77 48 78 49 79 50 80 76 81 77 82 85 83 78 84 84 85
REMARK SMILES IDX 86 86 83 87 79 88 80 89 81 90 82 91 61 92 62 93 70 94 63 95
REMARK SMILES IDX 69 96 71 97 68 98 64 99 65 100 66 101 67 102
REMARK H PARENT 15 18 91 55 59 66
REMARK Flexibility Score: inf
ROOT
ATOM      1  C   UNL A   1      37.307  33.700  30.183  1.00  0.00     0.188 C 
ENDROOT
BRANCH   1   2
ATOM      2  O   UNL A   1      37.479  33.188  28.869  1.00  0.00    -0.376 OA
BRANCH   2   3
ATOM      3  C   UNL A   1      36.611  32.182  28.373  1.00  0.00     0.202 C 
BRANCH   3   4
ATOM      4  C   UNL A   1      37.025  30.701  28.350  1.00  0.00     0.261 C 
BRANCH   4   5
ATOM      5  O   UNL A   1      38.426  30.451  28.516  1.00  0.00    -0.460 OA
BRANCH   5   6
ATOM      6  C   UNL A   1      38.776  29.136  28.510  1.00  0.00     0.338 C 
ATOM      7  O   UNL A   1      38.064  28.191  28.760  1.00  0.00    -0.246 OA
BRANCH   6   8
ATOM      8  C   UNL A   1      40.150  28.986  27.979  1.00  0.00     0.060 A 
ATOM      9  C   UNL A   1      42.800  28.827  27.074  1.00  0.00    -0.029 A 
ATOM     10  C   UNL A   1      42.523  29.113  28.419  1.00  0.00     0.006 A 
ATOM     11  C   UNL A   1      41.730  28.551  26.206  1.00  0.00     0.006 A 
ATOM     12  C   UNL A   1      41.207  29.216  28.864  1.00  0.00     0.016 A 
ATOM     13  C   UNL A   1      40.407  28.625  26.655  1.00  0.00     0.016 A 
BRANCH   9  14
ATOM     14  C   UNL A   1      44.225  28.761  26.579  1.00  0.00     0.151 C 
BRANCH  14  15
ATOM     15  N   UNL A   1      44.434  27.659  25.665  1.00  0.00    -0.351 N 
ATOM     16  O   UNL A   1      44.940  26.131  27.290  1.00  0.00    -0.274 OA
ATOM     17  C   UNL A   1      44.776  26.397  26.103  1.00  0.00     0.230 C 
ATOM     18  H   UNL A   1      44.330  27.815  24.698  1.00  0.00     0.163 HD
BRANCH  17  19
ATOM     19  C   UNL A   1      44.912  25.355  25.005  1.00  0.00     0.176 C 
BRANCH  19  20
ATOM     20  S   UNL A   1      46.141  24.083  25.459  1.00  0.00    -0.096 SA
BRANCH  20  21
ATOM     21  C   UNL A   1      45.104  22.634  25.460  1.00  0.00     0.097 A 
ATOM     22  C   UNL A   1      45.610  21.405  25.062  1.00  0.00     0.036 A 
ATOM     23  N   UNL A   1      43.853  22.788  25.943  1.00  0.00    -0.241 NA
ATOM     24  C   UNL A   1      44.788  20.289  25.130  1.00  0.00     0.013 A 
ATOM     25  C   UNL A   1      43.061  21.703  26.029  1.00  0.00     0.072 A 
ATOM     26  C   UNL A   1      43.492  20.419  25.630  1.00  0.00     0.000 A 
ATOM     27  C   UNL A   1      41.775  21.824  26.540  1.00  0.00     0.029 A 
ATOM     28  C   UNL A   1      42.640  19.308  25.749  1.00  0.00     0.010 A 
ATOM     29  C   UNL A   1      40.926  20.720  26.670  1.00  0.00     0.002 A 
ATOM     30  C   UNL A   1      41.359  19.460  26.274  1.00  0.00     0.001 A 
ENDBRANCH  20  21
ENDBRANCH  19  20
ENDBRANCH  17  19
ENDBRANCH  14  15
ENDBRANCH   9  14
ENDBRANCH   6   8
ENDBRANCH   5   6
ENDBRANCH   4   5
ENDBRANCH   3   4
ENDBRANCH   2   3
ENDBRANCH   1   2
BRANCH   1  31
ATOM     31  C   UNL A   1      35.898  34.064  30.693  1.00  0.00     0.188 C 
BRANCH  31  32
ATOM     32  O   UNL A   1      35.282  33.103  31.516  1.00  0.00    -0.376 OA
BRANCH  32  33
ATOM     33  C   UNL A   1      34.506  33.504  32.632  1.00  0.00     0.202 C 
BRANCH  33  34
ATOM     34  C   UNL A   1      34.914  34.525  33.714  1.00  0.00     0.261 C 
BRANCH  34  35
ATOM     35  O   UNL A   1      36.283  34.599  34.113  1.00  0.00    -0.460 OA
BRANCH  35  36
ATOM     36  C   UNL A   1      36.669  33.721  35.070  1.00  0.00     0.338 C 
ATOM     37  O   UNL A   1      36.077  33.452  36.101  1.00  0.00    -0.246 OA
BRANCH  36  38
ATOM     38  C   UNL A   1      37.859  32.998  34.580  1.00  0.00     0.060 A 
ATOM     39  C   UNL A   1      39.117  33.353  35.082  1.00  0.00     0.016 A 
ATOM     40  C   UNL A   1      37.734  31.992  33.620  1.00  0.00     0.016 A 
ATOM     41  C   UNL A   1      40.260  32.712  34.608  1.00  0.00     0.010 A 
ATOM     42  C   UNL A   1      38.885  31.362  33.134  1.00  0.00     0.010 A 
ATOM     43  C   UNL A   1      40.155  31.736  33.607  1.00  0.00    -0.014 A 
BRANCH  43  44
ATOM     44  C   UNL A   1      41.381  31.230  32.938  1.00  0.00     0.031 A 
ATOM     45  C   UNL A   1      42.088  30.042  33.533  1.00  0.00     0.074 A 
ATOM     46  C   UNL A   1      41.847  31.801  31.812  1.00  0.00     0.049 A 
ATOM     47  N   UNL A   1      43.195  29.458  33.157  1.00  0.00    -0.248 NA
ATOM     48  C   UNL A   1      41.458  29.441  34.719  1.00  0.00     0.031 C 
ATOM     49  C   UNL A   1      41.225  32.927  31.117  1.00  0.00     0.029 A 
ATOM     50  N   UNL A   1      42.959  31.513  31.060  1.00  0.00    -0.354 N 
ATOM     51  C   UNL A   1      43.397  28.417  34.058  1.00  0.00     0.074 A 
ATOM     52  C   UNL A   1      42.318  28.481  35.022  1.00  0.00     0.031 C 
ATOM     53  C   UNL A   1      41.972  33.241  30.044  1.00  0.00     0.029 A 
ATOM     54  C   UNL A   1      43.144  32.368  29.998  1.00  0.00     0.049 A 
ATOM     55  H   UNL A   1      43.566  30.765  31.261  1.00  0.00     0.167 HD
ATOM     56  C   UNL A   1      44.387  27.490  34.074  1.00  0.00     0.034 A 
ATOM     57  C   UNL A   1      44.157  32.451  29.110  1.00  0.00     0.034 A 
ATOM     58  C   UNL A   1      45.466  27.450  33.117  1.00  0.00     0.049 A 
ATOM     59  C   UNL A   1      45.303  31.468  29.208  1.00  0.00     0.074 A 
ATOM     60  C   UNL A   1      46.513  26.549  33.036  1.00  0.00     0.029 A 
ATOM     61  N   UNL A   1      45.649  28.362  32.086  1.00  0.00    -0.354 N 
ATOM     62  N   UNL A   1      45.478  30.481  30.057  1.00  0.00    -0.248 NA
ATOM     63  C   UNL A   1      46.383  31.610  28.222  1.00  0.00     0.031 C 
ATOM     64  C   UNL A   1      47.367  26.960  32.008  1.00  0.00     0.029 A 
ATOM     65  C   UNL A   1      46.811  28.067  31.388  1.00  0.00     0.049 A 
ATOM     66  H   UNL A   1      45.042  29.110  31.879  1.00  0.00     0.167 HD
ATOM     67  C   UNL A   1      46.671  29.865  29.683  1.00  0.00     0.074 A 
ATOM     68  C   UNL A   1      47.163  30.582  28.526  1.00  0.00     0.031 C 
ATOM     69  C   UNL A   1      47.299  28.798  30.242  1.00  0.00     0.034 A 
BRANCH  56  70
ATOM     70  C   UNL A   1      44.371  26.482  35.199  1.00  0.00     0.023 A 
ATOM     71  C   UNL A   1      44.863  26.790  36.480  1.00  0.00     0.031 A 
ATOM     72  C   UNL A   1      43.884  25.182  34.978  1.00  0.00     0.131 A 
ATOM     73  C   UNL A   1      44.924  25.793  37.465  1.00  0.00     0.055 A 
ATOM     74  C   UNL A   1      43.871  24.218  35.988  1.00  0.00     0.041 A 
ATOM     75  F   UNL A   1      43.424  24.820  33.770  1.00  0.00    -0.206 F 
ATOM     76  C   UNL A   1      44.407  24.517  37.236  1.00  0.00     0.022 A 
BRANCH  73  77
ATOM     77  S   UNL A   1      45.823  26.145  39.002  1.00  0.00     0.124 S 
ATOM     78  O   UNL A   1      47.213  26.016  38.567  1.00  0.00    -0.237 OA
ATOM     79  O   UNL A   1      45.377  27.494  39.326  1.00  0.00    -0.237 OA
ATOM     80  O   UNL A   1      45.365  25.099  39.914  1.00  0.00    -0.744 OA
ENDBRANCH  73  77
ENDBRANCH  56  70
BRANCH  57  81
ATOM     81  C   UNL A   1      44.173  33.526  28.076  1.00  0.00     0.023 A 
ATOM     82  C   UNL A   1      44.453  34.860  28.415  1.00  0.00     0.031 A 
ATOM     83  C   UNL A   1      43.837  33.245  26.739  1.00  0.00     0.131 A 
ATOM     84  C   UNL A   1      44.346  35.867  27.443  1.00  0.00     0.055 A 
ATOM     85  C   UNL A   1      43.789  34.242  25.763  1.00  0.00     0.041 A 
ATOM     86  F   UNL A   1      43.553  31.988  26.360  1.00  0.00    -0.206 F 
ATOM     87  C   UNL A   1      44.031  35.565  26.116  1.00  0.00     0.022 A 
BRANCH  84  88
ATOM     88  S   UNL A   1      44.537  37.596  27.958  1.00  0.00     0.124 S 
ATOM     89  O   UNL A   1      43.853  38.302  26.881  1.00  0.00    -0.237 OA
ATOM     90  O   UNL A   1      43.870  37.600  29.255  1.00  0.00    -0.237 OA
ATOM     91  O   UNL A   1      45.986  37.780  28.005  1.00  0.00    -0.744 OA
ENDBRANCH  84  88
ENDBRANCH  57  81
BRANCH  69  92
ATOM     92  C   UNL A   1      48.566  28.313  29.573  1.00  0.00     0.023 A 
ATOM     93  C   UNL A   1      48.552  27.308  28.589  1.00  0.00     0.031 A 
ATOM     94  C   UNL A   1      49.809  28.863  29.934  1.00  0.00     0.131 A 
ATOM     95  C   UNL A   1      49.759  26.847  28.042  1.00  0.00     0.055 A 
ATOM     96  C   UNL A   1      51.001  28.446  29.340  1.00  0.00     0.041 A 
ATOM     97  F   UNL A   1      49.886  29.824  30.869  1.00  0.00    -0.206 F 
ATOM     98  C   UNL A   1      50.982  27.422  28.398  1.00  0.00     0.022 A 
BRANCH  95  99
ATOM     99  S   UNL A   1      49.722  25.415  26.928  1.00  0.00     0.124 S 
ATOM    100  O   UNL A   1      49.200  26.000  25.699  1.00  0.00    -0.237 OA
ATOM    101  O   UNL A   1      51.123  25.008  26.895  1.00  0.00    -0.237 OA
ATOM    102  O   UNL A   1      48.822  24.479  27.602  1.00  0.00    -0.744 OA
ENDBRANCH  95  99
ENDBRANCH  69  92
ENDBRANCH  43  44
ENDBRANCH  36  38
ENDBRANCH  35  36
ENDBRANCH  34  35
ENDBRANCH  33  34
ENDBRANCH  32  33
ENDBRANCH  31  32
ENDBRANCH   1  31
TORSDOF 25
ENDMDL
MODEL 3
REMARK VINA RESULT:      -8.8     11.157     15.725
REMARK SMILES O=C(CSc1ccc2ccccc2n1)NCc1ccc(C(=O)OCCOCCOCCOC(=O)c2ccc(-c3c4nc(c(-c5cc(S(=O)(=O)[O-])ccc5F)c5ccc([nH]5)c(-c5cc(S(=O)(=O)[O-])ccc5F)c5nc(c(-c6cc(S(=O)(=O)[O-])ccc6F)c6ccc3[nH]6)C=C5)C=C4)cc2)cc1
REMARK SMILES IDX 27 1 26 2 25 3 24 4 23 5 21 6 22 7 20 8 17 9 18 10 99 11
REMARK SMILES IDX 19 12 98 13 16 14 15 15 1 16 2 17 3 19 4 20 5 21 6 22 14 23
REMARK SMILES IDX 7 24 13 25 8 26 12 27 9 28 11 29 10 30 28 31 29 32 30 33
REMARK SMILES IDX 31 34 32 35 33 36 34 37 35 38 36 39 97 40 37 41 96 42 38 43
REMARK SMILES IDX 39 44 40 45 90 46 41 47 95 48 89 49 91 50 42 51 94 52 88 53
REMARK SMILES IDX 87 54 43 56 75 57 55 58 74 59 56 60 59 61 73 62 92 63 57 64
REMARK SMILES IDX 58 65 72 67 93 68 60 69 44 70 45 71 53 72 46 73 52 74 54 75
REMARK SMILES IDX 51 76 47 77 48 78 49 79 50 80 76 81 77 82 85 83 78 84 84 85
REMARK SMILES IDX 86 86 83 87 79 88 80 89 81 90 82 91 61 92 62 93 70 94 63 95
REMARK SMILES IDX 69 96 71 97 68 98 64 99 65 100 66 101 67 102
REMARK H PARENT 15 18 91 55 59 66
REMARK Flexibility Score: inf
ROOT
ATOM      1  C   UNL A   1      50.532  19.488  36.523  1.00  0.00     0.188 C 
ENDROOT
BRANCH   1   2
ATOM      2  O   UNL A   1      49.983  20.257  35.462  1.00  0.00    -0.376 OA
BRANCH   2   3
ATOM      3  C   UNL A   1      49.626  19.635  34.238  1.00  0.00     0.202 C 
BRANCH   3   4
ATOM      4  C   UNL A   1      48.280  19.919  33.552  1.00  0.00     0.261 C 
BRANCH   4   5
ATOM      5  O   UNL A   1      47.117  19.663  34.350  1.00  0.00    -0.460 OA
BRANCH   5   6
ATOM      6  C   UNL A   1      46.447  20.776  34.755  1.00  0.00     0.338 C 
ATOM      7  O   UNL A   1      45.838  21.555  34.058  1.00  0.00    -0.246 OA
BRANCH   6   8
ATOM      8  C   UNL A   1      46.415  20.831  36.234  1.00  0.00     0.060 A 
ATOM      9  C   UNL A   1      46.273  20.786  39.035  1.00  0.00    -0.029 A 
ATOM     10  C   UNL A   1      46.475  19.600  38.314  1.00  0.00     0.006 A 
ATOM     11  C   UNL A   1      46.215  22.004  38.335  1.00  0.00     0.006 A 
ATOM     12  C   UNL A   1      46.521  19.618  36.922  1.00  0.00     0.016 A 
ATOM     13  C   UNL A   1      46.291  22.029  36.938  1.00  0.00     0.016 A 
BRANCH   9  14
ATOM     14  C   UNL A   1      46.174  20.763  40.542  1.00  0.00     0.151 C 
BRANCH  14  15
ATOM     15  N   UNL A   1      46.212  19.415  41.069  1.00  0.00    -0.351 N 
ATOM     16  O   UNL A   1      44.052  19.423  41.820  1.00  0.00    -0.274 OA
ATOM     17  C   UNL A   1      45.119  18.833  41.675  1.00  0.00     0.230 C 
ATOM     18  H   UNL A   1      47.046  18.897  40.993  1.00  0.00     0.163 HD
BRANCH  17  19
ATOM     19  C   UNL A   1      45.328  17.398  42.129  1.00  0.00     0.176 C 
BRANCH  19  20
ATOM     20  S   UNL A   1      44.870  17.193  43.884  1.00  0.00    -0.096 SA
BRANCH  20  21
ATOM     21  C   UNL A   1      43.876  15.719  43.777  1.00  0.00     0.097 A 
ATOM     22  C   UNL A   1      43.547  15.005  44.920  1.00  0.00     0.036 A 
ATOM     23  N   UNL A   1      43.403  15.398  42.553  1.00  0.00    -0.241 NA
ATOM     24  C   UNL A   1      42.723  13.894  44.802  1.00  0.00     0.013 A 
ATOM     25  C   UNL A   1      42.589  14.332  42.440  1.00  0.00     0.072 A 
ATOM     26  C   UNL A   1      42.217  13.543  43.550  1.00  0.00     0.000 A 
ATOM     27  C   UNL A   1      42.070  13.987  41.199  1.00  0.00     0.029 A 
ATOM     28  C   UNL A   1      41.352  12.446  43.393  1.00  0.00     0.010 A 
ATOM     29  C   UNL A   1      41.200  12.903  41.037  1.00  0.00     0.002 A 
ATOM     30  C   UNL A   1      40.841  12.131  42.137  1.00  0.00     0.001 A 
ENDBRANCH  20  21
ENDBRANCH  19  20
ENDBRANCH  17  19
ENDBRANCH  14  15
ENDBRANCH   9  14
ENDBRANCH   6   8
ENDBRANCH   5   6
ENDBRANCH   4   5
ENDBRANCH   3   4
ENDBRANCH   2   3
ENDBRANCH   1   2
BRANCH   1  31
ATOM     31  C   UNL A   1      52.060  19.308  36.637  1.00  0.00     0.188 C 
BRANCH  31  32
ATOM     32  O   UNL A   1      52.733  19.044  35.430  1.00  0.00    -0.376 OA
BRANCH  32  33
ATOM     33  C   UNL A   1      53.728  19.934  34.953  1.00  0.00     0.202 C 
BRANCH  33  34
ATOM     34  C   UNL A   1      53.924  21.404  35.377  1.00  0.00     0.261 C 
BRANCH  34  35
ATOM     35  O   UNL A   1      54.683  22.271  34.535  1.00  0.00    -0.460 OA
BRANCH  35  36
ATOM     36  C   UNL A   1      54.157  22.518  33.311  1.00  0.00     0.338 C 
ATOM     37  O   UNL A   1      54.588  22.135  32.236  1.00  0.00    -0.246 OA
BRANCH  36  38
ATOM     38  C   UNL A   1      52.858  23.193  33.495  1.00  0.00     0.060 A 
ATOM     39  C   UNL A   1      51.683  22.461  33.288  1.00  0.00     0.016 A 
ATOM     40  C   UNL A   1      52.803  24.543  33.850  1.00  0.00     0.016 A 
ATOM     41  C   UNL A   1      50.443  23.085  33.419  1.00  0.00     0.010 A 
ATOM     42  C   UNL A   1      51.558  25.171  33.963  1.00  0.00     0.010 A 
ATOM     43  C   UNL A   1      50.373  24.452  33.724  1.00  0.00    -0.014 A 
BRANCH  43  44
ATOM     44  C   UNL A   1      49.073  25.164  33.627  1.00  0.00     0.031 A 
ATOM     45  C   UNL A   1      48.587  25.591  32.267  1.00  0.00     0.074 A 
ATOM     46  C   UNL A   1      48.328  25.410  34.719  1.00  0.00     0.049 A 
ATOM     47  N   UNL A   1      47.516  26.264  31.940  1.00  0.00    -0.248 NA
ATOM     48  C   UNL A   1      49.434  25.208  31.127  1.00  0.00     0.031 C 
ATOM     49  C   UNL A   1      48.671  25.007  36.082  1.00  0.00     0.029 A 
ATOM     50  N   UNL A   1      47.130  26.067  34.854  1.00  0.00    -0.354 N 
ATOM     51  C   UNL A   1      47.556  26.387  30.554  1.00  0.00     0.074 A 
ATOM     52  C   UNL A   1      48.781  25.753  30.113  1.00  0.00     0.031 C 
ATOM     53  C   UNL A   1      47.708  25.436  36.917  1.00  0.00     0.029 A 
ATOM     54  C   UNL A   1      46.703  26.177  36.157  1.00  0.00     0.049 A 
ATOM     55  H   UNL A   1      46.624  26.425  34.089  1.00  0.00     0.167 HD
ATOM     56  C   UNL A   1      46.651  26.968  29.728  1.00  0.00     0.034 A 
ATOM     57  C   UNL A   1      45.639  26.825  36.675  1.00  0.00     0.034 A 
ATOM     58  C   UNL A   1      45.444  27.612  30.185  1.00  0.00     0.049 A 
ATOM     59  C   UNL A   1      44.694  27.551  35.743  1.00  0.00     0.074 A 
ATOM     60  C   UNL A   1      44.454  28.221  29.434  1.00  0.00     0.029 A 
ATOM     61  N   UNL A   1      45.069  27.748  31.516  1.00  0.00    -0.354 N 
ATOM     62  N   UNL A   1      44.736  27.651  34.434  1.00  0.00    -0.248 NA
ATOM     63  C   UNL A   1      43.558  28.247  36.362  1.00  0.00     0.031 C 
ATOM     64  C   UNL A   1      43.525  28.791  30.310  1.00  0.00     0.029 A 
ATOM     65  C   UNL A   1      43.884  28.464  31.608  1.00  0.00     0.049 A 
ATOM     66  H   UNL A   1      45.571  27.389  32.284  1.00  0.00     0.167 HD
ATOM     67  C   UNL A   1      43.612  28.392  34.073  1.00  0.00     0.074 A 
ATOM     68  C   UNL A   1      42.907  28.699  35.300  1.00  0.00     0.031 C 
ATOM     69  C   UNL A   1      43.196  28.776  32.838  1.00  0.00     0.034 A 
BRANCH  56  70
ATOM     70  C   UNL A   1      46.970  26.978  28.252  1.00  0.00     0.023 A 
ATOM     71  C   UNL A   1      46.496  25.979  27.382  1.00  0.00     0.031 A 
ATOM     72  C   UNL A   1      47.786  27.986  27.711  1.00  0.00     0.131 A 
ATOM     73  C   UNL A   1      46.901  25.970  26.040  1.00  0.00     0.055 A 
ATOM     74  C   UNL A   1      48.119  28.018  26.355  1.00  0.00     0.041 A 
ATOM     75  F   UNL A   1      48.289  28.953  28.495  1.00  0.00    -0.206 F 
ATOM     76  C   UNL A   1      47.688  26.998  25.514  1.00  0.00     0.022 A 
BRANCH  73  77
ATOM     77  S   UNL A   1      46.509  24.519  25.023  1.00  0.00     0.124 S 
ATOM     78  O   UNL A   1      47.449  24.671  23.915  1.00  0.00    -0.237 OA
ATOM     79  O   UNL A   1      46.771  23.414  25.937  1.00  0.00    -0.237 OA
ATOM     80  O   UNL A   1      45.105  24.718  24.670  1.00  0.00    -0.744 OA
ENDBRANCH  73  77
ENDBRANCH  56  70
BRANCH  57  81
ATOM     81  C   UNL A   1      45.420  26.864  38.151  1.00  0.00     0.023 A 
ATOM     82  C   UNL A   1      45.898  27.931  38.929  1.00  0.00     0.031 A 
ATOM     83  C   UNL A   1      44.788  25.797  38.815  1.00  0.00     0.131 A 
ATOM     84  C   UNL A   1      45.779  27.885  40.328  1.00  0.00     0.055 A 
ATOM     85  C   UNL A   1      44.622  25.783  40.201  1.00  0.00     0.041 A 
ATOM     86  F   UNL A   1      44.319  24.748  38.121  1.00  0.00    -0.206 F 
ATOM     87  C   UNL A   1      45.132  26.826  40.967  1.00  0.00     0.022 A 
BRANCH  84  88
ATOM     88  S   UNL A   1      46.568  29.191  41.310  1.00  0.00     0.124 S 
ATOM     89  O   UNL A   1      47.682  28.472  41.916  1.00  0.00    -0.237 OA
ATOM     90  O   UNL A   1      46.917  30.170  40.286  1.00  0.00    -0.237 OA
ATOM     91  O   UNL A   1      45.514  29.606  42.233  1.00  0.00    -0.744 OA
ENDBRANCH  84  88
ENDBRANCH  57  81
BRANCH  69  92
ATOM     92  C   UNL A   1      41.889  29.532  32.753  1.00  0.00     0.023 A 
ATOM     93  C   UNL A   1      40.663  28.879  32.533  1.00  0.00     0.031 A 
ATOM     94  C   UNL A   1      41.874  30.932  32.888  1.00  0.00     0.131 A 
ATOM     95  C   UNL A   1      39.484  29.629  32.399  1.00  0.00     0.055 A 
ATOM     96  C   UNL A   1      40.689  31.667  32.819  1.00  0.00     0.041 A 
ATOM     97  F   UNL A   1      43.013  31.612  33.098  1.00  0.00    -0.206 F 
ATOM     98  C   UNL A   1      39.487  31.017  32.559  1.00  0.00     0.022 A 
BRANCH  95  99
ATOM     99  S   UNL A   1      37.958  28.776  31.915  1.00  0.00     0.124 S 
ATOM    100  O   UNL A   1      38.446  27.809  30.938  1.00  0.00    -0.237 OA
ATOM    101  O   UNL A   1      37.493  28.223  33.182  1.00  0.00    -0.237 OA
ATOM    102  O   UNL A   1      37.126  29.847  31.365  1.00  0.00    -0.744 OA
ENDBRANCH  95  99
ENDBRANCH  69  92
ENDBRANCH  43  44
ENDBRANCH  36  38
ENDBRANCH  35  36
ENDBRANCH  34  35
ENDBRANCH  33  34
ENDBRANCH  32  33
ENDBRANCH  31  32
ENDBRANCH   1  31
TORSDOF 25
ENDMDL
