MODEL 1
REMARK VINA RESULT:     -11.4      0.000      0.000
REMARK SMILES O=C(OCCOCCOCCOC(=O)c1ccc(-c2c3nc(c(-c4cc(S(=O)(=O)[O-])ccc4F)c4ccc([nH]4)c(-c4cc(S(=O)(=O)[O-])ccc4F)c4nc(c(-c5cc(S(=O)(=O)[O-])ccc5F)c5ccc2[nH]5)C=C4)C=C3)cc1)C1=Cc2c(ccc(Cl)c2Oc2ccccc2)O[C@H]1C(F)(F)F
REMARK SMILES IDX 8 1 7 2 6 3 5 4 4 5 3 6 2 7 1 8 78 9 79 10 95 11 80 12 94 13
REMARK SMILES IDX 81 14 86 15 82 16 84 17 83 18 85 19 96 20 97 21 98 22 99 23
REMARK SMILES IDX 87 24 88 25 89 26 93 27 90 28 92 29 91 30 9 31 10 32 11 33
REMARK SMILES IDX 12 34 13 35 14 36 15 37 16 38 77 39 17 40 76 41 18 42 19 43
REMARK SMILES IDX 20 44 70 45 21 46 75 47 69 48 71 49 22 50 74 51 68 52 67 53
REMARK SMILES IDX 23 55 55 56 35 57 54 58 36 59 39 60 53 61 72 62 37 63 38 64
REMARK SMILES IDX 52 66 73 67 40 68 24 69 25 70 33 71 26 72 32 73 34 74 31 75
REMARK SMILES IDX 27 76 28 77 29 78 30 79 56 80 57 81 65 82 58 83 64 84 66 85
REMARK SMILES IDX 63 86 59 87 60 88 61 89 62 90 41 91 42 92 50 93 43 94 49 95
REMARK SMILES IDX 51 96 48 97 44 98 45 99 46 100 47 101
REMARK H PARENT 71 54 39 65
REMARK Flexibility Score: inf
ROOT
ATOM      1  C   UNL A   1      37.133  23.021  24.948  1.00  0.00     0.188 C 
ENDROOT
BRANCH   1   2
ATOM      2  C   UNL A   1      35.722  24.055  26.219  1.00  0.00     0.188 C 
BRANCH   2   3
ATOM      3  O   UNL A   1      34.279  23.846  26.487  1.00  0.00    -0.376 OA
BRANCH   3   4
ATOM      4  C   UNL A   1      34.116  22.846  27.433  1.00  0.00     0.202 C 
BRANCH   4   5
ATOM      5  C   UNL A   1      32.725  22.191  27.662  1.00  0.00     0.261 C 
BRANCH   5   6
ATOM      6  O   UNL A   1      31.614  23.082  27.394  1.00  0.00    -0.460 OA
BRANCH   6   7
ATOM      7  C   UNL A   1      30.722  22.862  26.393  1.00  0.00     0.338 C 
ATOM      8  O   UNL A   1      29.707  22.205  26.564  1.00  0.00    -0.246 OA
BRANCH   7   9
ATOM      9  C   UNL A   1      31.088  23.401  25.058  1.00  0.00     0.088 C 
ATOM     10  C   UNL A   1      31.379  24.706  24.959  1.00  0.00     0.031 C 
ATOM     11  C   UNL A   1      31.365  22.438  23.929  1.00  0.00     0.316 C 
ATOM     12  C   UNL A   1      32.390  25.113  23.991  1.00  0.00     0.062 A 
ATOM     13  O   UNL A   1      31.610  23.200  22.666  1.00  0.00    -0.475 OA
ATOM     14  C   UNL A   1      32.195  24.453  22.765  1.00  0.00     0.131 A 
ATOM     15  C   UNL A   1      33.307  26.217  24.206  1.00  0.00     0.156 A 
ATOM     16  C   UNL A   1      32.512  25.164  21.625  1.00  0.00     0.049 A 
ATOM     17  C   UNL A   1      33.538  26.938  23.031  1.00  0.00     0.084 A 
ATOM     18  C   UNL A   1      33.102  26.438  21.767  1.00  0.00     0.028 A 
ATOM     19  Cl  UNL A   1      34.202  28.531  23.070  1.00  0.00    -0.080 Cl
BRANCH  11  20
ATOM     20  C   UNL A   1      32.428  21.326  24.212  1.00  0.00     0.430 C 
ATOM     21  F   UNL A   1      32.153  20.563  25.291  1.00  0.00    -0.167 F 
ATOM     22  F   UNL A   1      32.529  20.454  23.181  1.00  0.00    -0.167 F 
ATOM     23  F   UNL A   1      33.655  21.862  24.414  1.00  0.00    -0.167 F 
ENDBRANCH  11  20
BRANCH  15  24
ATOM     24  O   UNL A   1      33.651  26.776  25.491  1.00  0.00    -0.455 OA
BRANCH  24  25
ATOM     25  C   UNL A   1      33.668  28.211  25.849  1.00  0.00     0.127 A 
ATOM     26  C   UNL A   1      32.079  29.098  25.792  1.00  0.00     0.047 A 
ATOM     27  C   UNL A   1      35.041  28.977  26.679  1.00  0.00     0.047 A 
ATOM     28  C   UNL A   1      31.825  30.651  26.732  1.00  0.00     0.004 A 
ATOM     29  C   UNL A   1      34.828  30.508  27.634  1.00  0.00     0.004 A 
ATOM     30  C   UNL A   1      33.235  31.399  27.630  1.00  0.00     0.000 A 
ENDBRANCH  24  25
ENDBRANCH  15  24
ENDBRANCH   7   9
ENDBRANCH   6   7
ENDBRANCH   5   6
ENDBRANCH   4   5
ENDBRANCH   3   4
ENDBRANCH   2   3
ENDBRANCH   1   2
BRANCH   1  31
ATOM     31  O   UNL A   1      37.228  21.594  24.519  1.00  0.00    -0.376 OA
BRANCH  31  32
ATOM     32  C   UNL A   1      37.737  20.608  25.411  1.00  0.00     0.202 C 
BRANCH  32  33
ATOM     33  C   UNL A   1      39.076  19.807  25.345  1.00  0.00     0.261 C 
BRANCH  33  34
ATOM     34  O   UNL A   1      39.933  19.703  26.494  1.00  0.00    -0.460 OA
BRANCH  34  35
ATOM     35  C   UNL A   1      41.230  20.100  26.311  1.00  0.00     0.338 C 
ATOM     36  O   UNL A   1      42.086  19.495  25.689  1.00  0.00    -0.246 OA
BRANCH  35  37
ATOM     37  C   UNL A   1      41.402  21.496  26.800  1.00  0.00     0.060 A 
ATOM     38  C   UNL A   1      40.837  22.528  26.034  1.00  0.00     0.016 A 
ATOM     39  C   UNL A   1      41.959  21.789  28.052  1.00  0.00     0.016 A 
ATOM     40  C   UNL A   1      40.746  23.826  26.553  1.00  0.00     0.010 A 
ATOM     41  C   UNL A   1      41.933  23.108  28.542  1.00  0.00     0.010 A 
ATOM     42  C   UNL A   1      41.329  24.137  27.794  1.00  0.00    -0.014 A 
BRANCH  42  43
ATOM     43  C   UNL A   1      41.672  25.564  28.059  1.00  0.00     0.031 A 
ATOM     44  C   UNL A   1      43.043  25.981  27.585  1.00  0.00     0.074 A 
ATOM     45  C   UNL A   1      40.851  26.464  28.635  1.00  0.00     0.049 A 
ATOM     46  N   UNL A   1      43.611  27.156  27.582  1.00  0.00    -0.248 NA
ATOM     47  C   UNL A   1      43.878  24.909  27.013  1.00  0.00     0.031 C 
ATOM     48  C   UNL A   1      39.487  26.215  29.099  1.00  0.00     0.029 A 
ATOM     49  N   UNL A   1      41.058  27.796  28.926  1.00  0.00    -0.354 N 
ATOM     50  C   UNL A   1      44.844  26.968  26.965  1.00  0.00     0.074 A 
ATOM     51  C   UNL A   1      44.958  25.567  26.643  1.00  0.00     0.031 C 
ATOM     52  C   UNL A   1      38.989  27.351  29.628  1.00  0.00     0.029 A 
ATOM     53  C   UNL A   1      40.000  28.409  29.562  1.00  0.00     0.049 A 
ATOM     54  H   UNL A   1      41.892  28.269  28.699  1.00  0.00     0.167 HD
ATOM     55  C   UNL A   1      45.806  27.876  26.689  1.00  0.00     0.034 A 
ATOM     56  C   UNL A   1      39.878  29.668  30.044  1.00  0.00     0.034 A 
ATOM     57  C   UNL A   1      45.744  29.244  27.117  1.00  0.00     0.049 A 
ATOM     58  C   UNL A   1      41.042  30.631  29.870  1.00  0.00     0.074 A 
ATOM     59  C   UNL A   1      46.690  30.237  26.957  1.00  0.00     0.029 A 
ATOM     60  N   UNL A   1      44.692  29.798  27.833  1.00  0.00    -0.354 N 
ATOM     61  N   UNL A   1      42.191  30.448  29.258  1.00  0.00    -0.248 NA
ATOM     62  C   UNL A   1      40.888  31.976  30.450  1.00  0.00     0.031 C 
ATOM     63  C   UNL A   1      46.249  31.367  27.653  1.00  0.00     0.029 A 
ATOM     64  C   UNL A   1      44.982  31.111  28.156  1.00  0.00     0.049 A 
ATOM     65  H   UNL A   1      43.862  29.327  28.074  1.00  0.00     0.167 HD
ATOM     66  C   UNL A   1      42.872  31.664  29.342  1.00  0.00     0.074 A 
ATOM     67  C   UNL A   1      42.001  32.575  30.054  1.00  0.00     0.031 C 
ATOM     68  C   UNL A   1      44.099  32.004  28.868  1.00  0.00     0.034 A 
BRANCH  55  69
ATOM     69  C   UNL A   1      47.031  27.360  25.982  1.00  0.00     0.023 A 
ATOM     70  C   UNL A   1      48.159  26.918  26.698  1.00  0.00     0.031 A 
ATOM     71  C   UNL A   1      47.113  27.407  24.581  1.00  0.00     0.131 A 
ATOM     72  C   UNL A   1      49.345  26.620  26.014  1.00  0.00     0.055 A 
ATOM     73  C   UNL A   1      48.269  27.024  23.901  1.00  0.00     0.041 A 
ATOM     74  F   UNL A   1      46.083  27.865  23.852  1.00  0.00    -0.206 F 
ATOM     75  C   UNL A   1      49.400  26.642  24.619  1.00  0.00     0.022 A 
BRANCH  72  76
ATOM     76  S   UNL A   1      50.863  26.373  26.978  1.00  0.00     0.124 S 
ATOM     77  O   UNL A   1      50.537  27.068  28.222  1.00  0.00    -0.237 OA
ATOM     78  O   UNL A   1      50.952  24.920  27.063  1.00  0.00    -0.237 OA
ATOM     79  O   UNL A   1      51.893  27.015  26.165  1.00  0.00    -0.744 OA
ENDBRANCH  72  76
ENDBRANCH  55  69
BRANCH  56  80
ATOM     80  C   UNL A   1      38.653  30.111  30.789  1.00  0.00     0.023 A 
ATOM     81  C   UNL A   1      37.805  31.117  30.288  1.00  0.00     0.031 A 
ATOM     82  C   UNL A   1      38.378  29.615  32.076  1.00  0.00     0.131 A 
ATOM     83  C   UNL A   1      36.767  31.632  31.088  1.00  0.00     0.055 A 
ATOM     84  C   UNL A   1      37.308  30.086  32.843  1.00  0.00     0.041 A 
ATOM     85  F   UNL A   1      39.163  28.673  32.623  1.00  0.00    -0.206 F 
ATOM     86  C   UNL A   1      36.504  31.111  32.356  1.00  0.00     0.022 A 
BRANCH  83  87
ATOM     87  S   UNL A   1      35.834  33.077  30.498  1.00  0.00     0.124 S 
ATOM     88  O   UNL A   1      34.459  32.599  30.595  1.00  0.00    -0.237 OA
ATOM     89  O   UNL A   1      36.226  34.105  31.456  1.00  0.00    -0.237 OA
ATOM     90  O   UNL A   1      36.332  33.272  29.138  1.00  0.00    -0.744 OA
ENDBRANCH  83  87
ENDBRANCH  56  80
BRANCH  68  91
ATOM     91  C   UNL A   1      44.551  33.436  29.045  1.00  0.00     0.023 A 
ATOM     92  C   UNL A   1      45.285  33.858  30.167  1.00  0.00     0.031 A 
ATOM     93  C   UNL A   1      44.259  34.390  28.051  1.00  0.00     0.131 A 
ATOM     94  C   UNL A   1      45.652  35.207  30.293  1.00  0.00     0.055 A 
ATOM     95  C   UNL A   1      44.691  35.712  28.149  1.00  0.00     0.041 A 
ATOM     96  F   UNL A   1      43.561  34.045  26.957  1.00  0.00    -0.206 F 
ATOM     97  C   UNL A   1      45.380  36.131  29.282  1.00  0.00     0.022 A 
BRANCH  94  98
ATOM     98  S   UNL A   1      46.406  35.762  31.847  1.00  0.00     0.124 S 
ATOM     99  O   UNL A   1      47.610  34.940  31.911  1.00  0.00    -0.237 OA
ATOM    100  O   UNL A   1      46.617  37.184  31.602  1.00  0.00    -0.237 OA
ATOM    101  O   UNL A   1      45.390  35.451  32.852  1.00  0.00    -0.744 OA
ENDBRANCH  94  98
ENDBRANCH  68  91
ENDBRANCH  42  43
ENDBRANCH  35  37
ENDBRANCH  34  35
ENDBRANCH  33  34
ENDBRANCH  32  33
ENDBRANCH  31  32
ENDBRANCH   1  31
TORSDOF 23
ENDMDL
MODEL 2
REMARK VINA RESULT:     -10.7      2.252      4.207
REMARK SMILES O=C(OCCOCCOCCOC(=O)c1ccc(-c2c3nc(c(-c4cc(S(=O)(=O)[O-])ccc4F)c4ccc([nH]4)c(-c4cc(S(=O)(=O)[O-])ccc4F)c4nc(c(-c5cc(S(=O)(=O)[O-])ccc5F)c5ccc2[nH]5)C=C4)C=C3)cc1)C1=Cc2c(ccc(Cl)c2Oc2ccccc2)O[C@H]1C(F)(F)F
REMARK SMILES IDX 8 1 7 2 6 3 5 4 4 5 3 6 2 7 1 8 78 9 79 10 95 11 80 12 94 13
REMARK SMILES IDX 81 14 86 15 82 16 84 17 83 18 85 19 96 20 97 21 98 22 99 23
REMARK SMILES IDX 87 24 88 25 89 26 93 27 90 28 92 29 91 30 9 31 10 32 11 33
REMARK SMILES IDX 12 34 13 35 14 36 15 37 16 38 77 39 17 40 76 41 18 42 19 43
REMARK SMILES IDX 20 44 70 45 21 46 75 47 69 48 71 49 22 50 74 51 68 52 67 53
REMARK SMILES IDX 23 55 55 56 35 57 54 58 36 59 39 60 53 61 72 62 37 63 38 64
REMARK SMILES IDX 52 66 73 67 40 68 24 69 25 70 33 71 26 72 32 73 34 74 31 75
REMARK SMILES IDX 27 76 28 77 29 78 30 79 56 80 57 81 65 82 58 83 64 84 66 85
REMARK SMILES IDX 63 86 59 87 60 88 61 89 62 90 41 91 42 92 50 93 43 94 49 95
REMARK SMILES IDX 51 96 48 97 44 98 45 99 46 100 47 101
REMARK H PARENT 71 54 39 65
REMARK Flexibility Score: inf
ROOT
ATOM      1  C   UNL A   1      36.931  23.387  24.602  1.00  0.00     0.188 C 
ENDROOT
BRANCH   1   2
ATOM      2  C   UNL A   1      35.238  24.687  24.947  1.00  0.00     0.188 C 
BRANCH   2   3
ATOM      3  O   UNL A   1      34.045  25.012  24.129  1.00  0.00    -0.376 OA
BRANCH   3   4
ATOM      4  C   UNL A   1      34.425  25.736  23.010  1.00  0.00     0.202 C 
BRANCH   4   5
ATOM      5  C   UNL A   1      33.570  26.936  22.515  1.00  0.00     0.261 C 
BRANCH   5   6
ATOM      6  O   UNL A   1      32.324  26.540  21.888  1.00  0.00    -0.460 OA
BRANCH   6   7
ATOM      7  C   UNL A   1      31.108  26.880  22.391  1.00  0.00     0.338 C 
ATOM      8  O   UNL A   1      30.466  27.819  21.949  1.00  0.00    -0.246 OA
BRANCH   7   9
ATOM      9  C   UNL A   1      30.639  26.093  23.560  1.00  0.00     0.088 C 
ATOM     10  C   UNL A   1      30.725  24.756  23.501  1.00  0.00     0.031 C 
ATOM     11  C   UNL A   1      30.325  26.813  24.850  1.00  0.00     0.316 C 
ATOM     12  C   UNL A   1      31.004  24.031  24.734  1.00  0.00     0.062 A 
ATOM     13  O   UNL A   1      29.777  25.842  25.847  1.00  0.00    -0.475 OA
ATOM     14  C   UNL A   1      30.220  24.529  25.789  1.00  0.00     0.131 A 
ATOM     15  C   UNL A   1      31.799  22.818  24.788  1.00  0.00     0.156 A 
ATOM     16  C   UNL A   1      29.804  23.614  26.734  1.00  0.00     0.049 A 
ATOM     17  C   UNL A   1      31.290  21.903  25.714  1.00  0.00     0.084 A 
ATOM     18  C   UNL A   1      30.273  22.286  26.639  1.00  0.00     0.028 A 
ATOM     19  Cl  UNL A   1      31.740  20.237  25.671  1.00  0.00    -0.080 Cl
BRANCH  11  20
ATOM     20  C   UNL A   1      31.452  27.735  25.421  1.00  0.00     0.430 C 
ATOM     21  F   UNL A   1      31.185  28.238  26.644  1.00  0.00    -0.167 F 
ATOM     22  F   UNL A   1      32.622  27.068  25.562  1.00  0.00    -0.167 F 
ATOM     23  F   UNL A   1      31.681  28.791  24.604  1.00  0.00    -0.167 F 
ENDBRANCH  11  20
BRANCH  15  24
ATOM     24  O   UNL A   1      32.747  22.398  23.784  1.00  0.00    -0.455 OA
BRANCH  24  25
ATOM     25  C   UNL A   1      33.086  21.004  23.425  1.00  0.00     0.127 A 
ATOM     26  C   UNL A   1      34.321  20.158  24.461  1.00  0.00     0.047 A 
ATOM     27  C   UNL A   1      32.094  20.030  22.317  1.00  0.00     0.047 A 
ATOM     28  C   UNL A   1      34.416  18.328  24.522  1.00  0.00     0.004 A 
ATOM     29  C   UNL A   1      32.147  18.214  22.356  1.00  0.00     0.004 A 
ATOM     30  C   UNL A   1      33.347  17.336  23.414  1.00  0.00     0.000 A 
ENDBRANCH  24  25
ENDBRANCH  15  24
ENDBRANCH   7   9
ENDBRANCH   6   7
ENDBRANCH   5   6
ENDBRANCH   4   5
ENDBRANCH   3   4
ENDBRANCH   2   3
ENDBRANCH   1   2
BRANCH   1  31
ATOM     31  O   UNL A   1      37.022  21.967  24.150  1.00  0.00    -0.376 OA
BRANCH  31  32
ATOM     32  C   UNL A   1      37.442  20.951  25.054  1.00  0.00     0.202 C 
BRANCH  32  33
ATOM     33  C   UNL A   1      38.724  20.060  25.020  1.00  0.00     0.261 C 
BRANCH  33  34
ATOM     34  O   UNL A   1      39.494  19.827  26.212  1.00  0.00    -0.460 OA
BRANCH  34  35
ATOM     35  C   UNL A   1      40.826  20.131  26.132  1.00  0.00     0.338 C 
ATOM     36  O   UNL A   1      41.680  19.478  25.557  1.00  0.00    -0.246 OA
BRANCH  35  37
ATOM     37  C   UNL A   1      41.062  21.500  26.667  1.00  0.00     0.060 A 
ATOM     38  C   UNL A   1      40.572  22.584  25.922  1.00  0.00     0.016 A 
ATOM     39  C   UNL A   1      41.606  21.725  27.940  1.00  0.00     0.016 A 
ATOM     40  C   UNL A   1      40.539  23.870  26.479  1.00  0.00     0.010 A 
ATOM     41  C   UNL A   1      41.640  23.028  28.470  1.00  0.00     0.010 A 
ATOM     42  C   UNL A   1      41.110  24.111  27.741  1.00  0.00    -0.014 A 
BRANCH  42  43
ATOM     43  C   UNL A   1      41.524  25.508  28.057  1.00  0.00     0.031 A 
ATOM     44  C   UNL A   1      42.920  25.868  27.613  1.00  0.00     0.074 A 
ATOM     45  C   UNL A   1      40.744  26.431  28.655  1.00  0.00     0.049 A 
ATOM     46  N   UNL A   1      43.549  27.011  27.655  1.00  0.00    -0.248 NA
ATOM     47  C   UNL A   1      43.705  24.773  27.014  1.00  0.00     0.031 C 
ATOM     48  C   UNL A   1      39.363  26.238  29.095  1.00  0.00     0.029 A 
ATOM     49  N   UNL A   1      41.016  27.740  28.992  1.00  0.00    -0.354 N 
ATOM     50  C   UNL A   1      44.777  26.779  27.046  1.00  0.00     0.074 A 
ATOM     51  C   UNL A   1      44.823  25.385  26.678  1.00  0.00     0.031 C 
ATOM     52  C   UNL A   1      38.917  27.381  29.656  1.00  0.00     0.029 A 
ATOM     53  C   UNL A   1      39.983  28.386  29.637  1.00  0.00     0.049 A 
ATOM     54  H   UNL A   1      41.876  28.175  28.790  1.00  0.00     0.167 HD
ATOM     55  C   UNL A   1      45.789  27.643  26.811  1.00  0.00     0.034 A 
ATOM     56  C   UNL A   1      39.921  29.633  30.159  1.00  0.00     0.034 A 
ATOM     57  C   UNL A   1      45.793  28.999  27.283  1.00  0.00     0.049 A 
ATOM     58  C   UNL A   1      41.136  30.539  30.030  1.00  0.00     0.074 A 
ATOM     59  C   UNL A   1      46.791  29.945  27.166  1.00  0.00     0.029 A 
ATOM     60  N   UNL A   1      44.763  29.583  28.006  1.00  0.00    -0.354 N 
ATOM     61  N   UNL A   1      42.281  30.317  29.425  1.00  0.00    -0.248 NA
ATOM     62  C   UNL A   1      41.045  31.870  30.653  1.00  0.00     0.031 C 
ATOM     63  C   UNL A   1      46.401  31.073  27.896  1.00  0.00     0.029 A 
ATOM     64  C   UNL A   1      45.117  30.868  28.376  1.00  0.00     0.049 A 
ATOM     65  H   UNL A   1      43.906  29.148  28.222  1.00  0.00     0.167 HD
ATOM     66  C   UNL A   1      43.023  31.492  29.557  1.00  0.00     0.074 A 
ATOM     67  C   UNL A   1      42.192  32.423  30.289  1.00  0.00     0.031 C 
ATOM     68  C   UNL A   1      44.272  31.782  29.108  1.00  0.00     0.034 A 
BRANCH  55  69
ATOM     69  C   UNL A   1      46.994  27.087  26.100  1.00  0.00     0.023 A 
ATOM     70  C   UNL A   1      47.998  26.388  26.796  1.00  0.00     0.031 A 
ATOM     71  C   UNL A   1      47.194  27.348  24.734  1.00  0.00     0.131 A 
ATOM     72  C   UNL A   1      49.190  26.046  26.143  1.00  0.00     0.055 A 
ATOM     73  C   UNL A   1      48.346  26.927  24.069  1.00  0.00     0.041 A 
ATOM     74  F   UNL A   1      46.291  28.053  24.034  1.00  0.00    -0.206 F 
ATOM     75  C   UNL A   1      49.359  26.285  24.778  1.00  0.00     0.022 A 
BRANCH  72  76
ATOM     76  S   UNL A   1      50.582  25.444  27.139  1.00  0.00     0.124 S 
ATOM     77  O   UNL A   1      50.769  26.547  28.079  1.00  0.00    -0.237 OA
ATOM     78  O   UNL A   1      50.057  24.207  27.703  1.00  0.00    -0.237 OA
ATOM     79  O   UNL A   1      51.656  25.280  26.161  1.00  0.00    -0.744 OA
ENDBRANCH  72  76
ENDBRANCH  55  69
BRANCH  56  80
ATOM     80  C   UNL A   1      38.712  30.116  30.905  1.00  0.00     0.023 A 
ATOM     81  C   UNL A   1      37.655  30.779  30.253  1.00  0.00     0.031 A 
ATOM     82  C   UNL A   1      38.651  30.025  32.308  1.00  0.00     0.131 A 
ATOM     83  C   UNL A   1      36.621  31.372  31.003  1.00  0.00     0.055 A 
ATOM     84  C   UNL A   1      37.590  30.561  33.044  1.00  0.00     0.041 A 
ATOM     85  F   UNL A   1      39.639  29.427  32.993  1.00  0.00    -0.206 F 
ATOM     86  C   UNL A   1      36.574  31.253  32.393  1.00  0.00     0.022 A 
BRANCH  83  87
ATOM     87  S   UNL A   1      35.394  32.406  30.148  1.00  0.00     0.124 S 
ATOM     88  O   UNL A   1      35.020  31.552  29.026  1.00  0.00    -0.237 OA
ATOM     89  O   UNL A   1      34.380  32.593  31.179  1.00  0.00    -0.237 OA
ATOM     90  O   UNL A   1      36.148  33.607  29.793  1.00  0.00    -0.744 OA
ENDBRANCH  83  87
ENDBRANCH  56  80
BRANCH  68  91
ATOM     91  C   UNL A   1      44.796  33.181  29.338  1.00  0.00     0.023 A 
ATOM     92  C   UNL A   1      44.680  34.194  28.371  1.00  0.00     0.031 A 
ATOM     93  C   UNL A   1      45.403  33.508  30.566  1.00  0.00     0.131 A 
ATOM     94  C   UNL A   1      45.212  35.467  28.627  1.00  0.00     0.055 A 
ATOM     95  C   UNL A   1      45.863  34.796  30.841  1.00  0.00     0.041 A 
ATOM     96  F   UNL A   1      45.542  32.582  31.528  1.00  0.00    -0.206 F 
ATOM     97  C   UNL A   1      45.782  35.781  29.863  1.00  0.00     0.022 A 
BRANCH  94  98
ATOM     98  S   UNL A   1      45.240  36.686  27.283  1.00  0.00     0.124 S 
ATOM     99  O   UNL A   1      43.828  37.036  27.162  1.00  0.00    -0.237 OA
ATOM    100  O   UNL A   1      46.110  37.725  27.821  1.00  0.00    -0.237 OA
ATOM    101  O   UNL A   1      45.792  35.939  26.154  1.00  0.00    -0.744 OA
ENDBRANCH  94  98
ENDBRANCH  68  91
ENDBRANCH  42  43
ENDBRANCH  35  37
ENDBRANCH  34  35
ENDBRANCH  33  34
ENDBRANCH  32  33
ENDBRANCH  31  32
ENDBRANCH   1  31
TORSDOF 23
ENDMDL
MODEL 3
REMARK VINA RESULT:     -10.6      2.405      2.962
REMARK SMILES O=C(OCCOCCOCCOC(=O)c1ccc(-c2c3nc(c(-c4cc(S(=O)(=O)[O-])ccc4F)c4ccc([nH]4)c(-c4cc(S(=O)(=O)[O-])ccc4F)c4nc(c(-c5cc(S(=O)(=O)[O-])ccc5F)c5ccc2[nH]5)C=C4)C=C3)cc1)C1=Cc2c(ccc(Cl)c2Oc2ccccc2)O[C@H]1C(F)(F)F
REMARK SMILES IDX 8 1 7 2 6 3 5 4 4 5 3 6 2 7 1 8 78 9 79 10 95 11 80 12 94 13
REMARK SMILES IDX 81 14 86 15 82 16 84 17 83 18 85 19 96 20 97 21 98 22 99 23
REMARK SMILES IDX 87 24 88 25 89 26 93 27 90 28 92 29 91 30 9 31 10 32 11 33
REMARK SMILES IDX 12 34 13 35 14 36 15 37 16 38 77 39 17 40 76 41 18 42 19 43
REMARK SMILES IDX 20 44 70 45 21 46 75 47 69 48 71 49 22 50 74 51 68 52 67 53
REMARK SMILES IDX 23 55 55 56 35 57 54 58 36 59 39 60 53 61 72 62 37 63 38 64
REMARK SMILES IDX 52 66 73 67 40 68 24 69 25 70 33 71 26 72 32 73 34 74 31 75
REMARK SMILES IDX 27 76 28 77 29 78 30 79 56 80 57 81 65 82 58 83 64 84 66 85
REMARK SMILES IDX 63 86 59 87 60 88 61 89 62 90 41 91 42 92 50 93 43 94 49 95
REMARK SMILES IDX 51 96 48 97 44 98 45 99 46 100 47 101
REMARK H PARENT 71 54 39 65
REMARK Flexibility Score: inf
ROOT
ATOM      1  C   UNL A   1      37.143  20.844  24.576  1.00  0.00     0.188 C 
ENDROOT
BRANCH   1   2
ATOM      2  C   UNL A   1      36.167  22.123  26.021  1.00  0.00     0.188 C 
BRANCH   2   3
ATOM      3  O   UNL A   1      34.962  21.940  26.865  1.00  0.00    -0.376 OA
BRANCH   3   4
ATOM      4  C   UNL A   1      33.852  22.460  26.220  1.00  0.00     0.202 C 
BRANCH   4   5
ATOM      5  C   UNL A   1      33.969  23.744  25.352  1.00  0.00     0.261 C 
BRANCH   5   6
ATOM      6  O   UNL A   1      32.797  24.595  25.415  1.00  0.00    -0.460 OA
BRANCH   6   7
ATOM      7  C   UNL A   1      31.663  24.337  24.713  1.00  0.00     0.338 C 
ATOM      8  O   UNL A   1      31.150  23.229  24.697  1.00  0.00    -0.246 OA
BRANCH   7   9
ATOM      9  C   UNL A   1      31.126  25.459  23.901  1.00  0.00     0.088 C 
ATOM     10  C   UNL A   1      30.641  26.531  24.543  1.00  0.00     0.031 C 
ATOM     11  C   UNL A   1      31.368  25.468  22.411  1.00  0.00     0.316 C 
ATOM     12  C   UNL A   1      30.808  27.838  23.921  1.00  0.00     0.062 A 
ATOM     13  O   UNL A   1      30.654  26.627  21.792  1.00  0.00    -0.475 OA
ATOM     14  C   UNL A   1      30.499  27.777  22.551  1.00  0.00     0.131 A 
ATOM     15  C   UNL A   1      31.029  29.061  24.672  1.00  0.00     0.156 A 
ATOM     16  C   UNL A   1      29.916  28.900  21.999  1.00  0.00     0.049 A 
ATOM     17  C   UNL A   1      30.360  30.148  24.102  1.00  0.00     0.084 A 
ATOM     18  C   UNL A   1      29.771  30.050  22.805  1.00  0.00     0.028 A 
ATOM     19  Cl  UNL A   1      30.068  31.594  25.000  1.00  0.00    -0.080 Cl
BRANCH  11  20
ATOM     20  C   UNL A   1      32.857  25.325  21.951  1.00  0.00     0.430 C 
ATOM     21  F   UNL A   1      33.740  25.982  22.733  1.00  0.00    -0.167 F 
ATOM     22  F   UNL A   1      33.264  24.034  21.966  1.00  0.00    -0.167 F 
ATOM     23  F   UNL A   1      33.026  25.791  20.691  1.00  0.00    -0.167 F 
ENDBRANCH  11  20
BRANCH  15  24
ATOM     24  O   UNL A   1      31.526  29.130  26.024  1.00  0.00    -0.455 OA
BRANCH  24  25
ATOM     25  C   UNL A   1      32.809  29.721  26.459  1.00  0.00     0.127 A 
ATOM     26  C   UNL A   1      32.756  31.408  27.144  1.00  0.00     0.047 A 
ATOM     27  C   UNL A   1      34.280  28.752  26.702  1.00  0.00     0.047 A 
ATOM     28  C   UNL A   1      34.093  32.035  28.229  1.00  0.00     0.004 A 
ATOM     29  C   UNL A   1      35.621  29.330  27.782  1.00  0.00     0.004 A 
ATOM     30  C   UNL A   1      35.577  31.001  28.515  1.00  0.00     0.000 A 
ENDBRANCH  24  25
ENDBRANCH  15  24
ENDBRANCH   7   9
ENDBRANCH   6   7
ENDBRANCH   5   6
ENDBRANCH   4   5
ENDBRANCH   3   4
ENDBRANCH   2   3
ENDBRANCH   1   2
BRANCH   1  31
ATOM     31  O   UNL A   1      37.484  19.391  24.602  1.00  0.00    -0.376 OA
BRANCH  31  32
ATOM     32  C   UNL A   1      38.374  18.879  25.588  1.00  0.00     0.202 C 
BRANCH  32  33
ATOM     33  C   UNL A   1      39.881  19.205  25.831  1.00  0.00     0.261 C 
BRANCH  33  34
ATOM     34  O   UNL A   1      40.289  20.493  26.320  1.00  0.00    -0.460 OA
BRANCH  34  35
ATOM     35  C   UNL A   1      41.625  20.639  26.580  1.00  0.00     0.338 C 
ATOM     36  O   UNL A   1      42.499  19.827  26.329  1.00  0.00    -0.246 OA
BRANCH  35  37
ATOM     37  C   UNL A   1      41.902  22.034  27.021  1.00  0.00     0.060 A 
ATOM     38  C   UNL A   1      41.621  23.071  26.118  1.00  0.00     0.016 A 
ATOM     39  C   UNL A   1      42.276  22.345  28.336  1.00  0.00     0.016 A 
ATOM     40  C   UNL A   1      41.622  24.404  26.548  1.00  0.00     0.010 A 
ATOM     41  C   UNL A   1      42.348  23.688  28.747  1.00  0.00     0.010 A 
ATOM     42  C   UNL A   1      42.026  24.729  27.855  1.00  0.00    -0.014 A 
BRANCH  42  43
ATOM     43  C   UNL A   1      42.512  26.116  28.105  1.00  0.00     0.031 A 
ATOM     44  C   UNL A   1      43.907  26.395  27.603  1.00  0.00     0.074 A 
ATOM     45  C   UNL A   1      41.794  27.094  28.692  1.00  0.00     0.049 A 
ATOM     46  N   UNL A   1      44.587  27.509  27.582  1.00  0.00    -0.248 NA
ATOM     47  C   UNL A   1      44.622  25.245  27.020  1.00  0.00     0.031 C 
ATOM     48  C   UNL A   1      40.421  26.980  29.182  1.00  0.00     0.029 A 
ATOM     49  N   UNL A   1      42.136  28.400  28.971  1.00  0.00    -0.354 N 
ATOM     50  C   UNL A   1      45.783  27.199  26.943  1.00  0.00     0.074 A 
ATOM     51  C   UNL A   1      45.754  25.792  26.627  1.00  0.00     0.031 C 
ATOM     52  C   UNL A   1      40.047  28.162  29.715  1.00  0.00     0.029 A 
ATOM     53  C   UNL A   1      41.155  29.116  29.624  1.00  0.00     0.049 A 
ATOM     54  H   UNL A   1      43.007  28.789  28.725  1.00  0.00     0.167 HD
ATOM     55  C   UNL A   1      46.824  28.007  26.643  1.00  0.00     0.034 A 
ATOM     56  C   UNL A   1      41.166  30.383  30.100  1.00  0.00     0.034 A 
ATOM     57  C   UNL A   1      46.904  29.377  27.064  1.00  0.00     0.049 A 
ATOM     58  C   UNL A   1      42.414  31.227  29.899  1.00  0.00     0.074 A 
ATOM     59  C   UNL A   1      47.938  30.273  26.880  1.00  0.00     0.029 A 
ATOM     60  N   UNL A   1      45.925  30.033  27.797  1.00  0.00    -0.354 N 
ATOM     61  N   UNL A   1      43.528  30.931  29.266  1.00  0.00    -0.248 NA
ATOM     62  C   UNL A   1      42.404  32.582  30.474  1.00  0.00     0.031 C 
ATOM     63  C   UNL A   1      47.624  31.443  27.579  1.00  0.00     0.029 A 
ATOM     64  C   UNL A   1      46.348  31.313  28.108  1.00  0.00     0.049 A 
ATOM     65  H   UNL A   1      45.058  29.647  28.057  1.00  0.00     0.167 HD
ATOM     66  C   UNL A   1      44.325  32.075  29.330  1.00  0.00     0.074 A 
ATOM     67  C   UNL A   1      43.562  33.068  30.053  1.00  0.00     0.031 C 
ATOM     68  C   UNL A   1      45.571  32.291  28.831  1.00  0.00     0.034 A 
BRANCH  55  69
ATOM     69  C   UNL A   1      47.978  27.372  25.916  1.00  0.00     0.023 A 
ATOM     70  C   UNL A   1      49.046  26.777  26.614  1.00  0.00     0.031 A 
ATOM     71  C   UNL A   1      48.065  27.453  24.516  1.00  0.00     0.131 A 
ATOM     72  C   UNL A   1      50.188  26.361  25.916  1.00  0.00     0.055 A 
ATOM     73  C   UNL A   1      49.167  26.956  23.821  1.00  0.00     0.041 A 
ATOM     74  F   UNL A   1      47.097  28.053  23.806  1.00  0.00    -0.206 F 
ATOM     75  C   UNL A   1      50.244  26.420  24.522  1.00  0.00     0.022 A 
BRANCH  72  76
ATOM     76  S   UNL A   1      51.666  25.905  26.866  1.00  0.00     0.124 S 
ATOM     77  O   UNL A   1      52.168  24.767  26.099  1.00  0.00    -0.237 OA
ATOM     78  O   UNL A   1      52.468  27.120  26.807  1.00  0.00    -0.237 OA
ATOM     79  O   UNL A   1      51.134  25.571  28.186  1.00  0.00    -0.744 OA
ENDBRANCH  72  76
ENDBRANCH  55  69
BRANCH  56  80
ATOM     80  C   UNL A   1      40.005  30.946  30.866  1.00  0.00     0.023 A 
ATOM     81  C   UNL A   1      39.992  30.981  32.273  1.00  0.00     0.031 A 
ATOM     82  C   UNL A   1      38.834  31.352  30.198  1.00  0.00     0.131 A 
ATOM     83  C   UNL A   1      38.821  31.352  32.962  1.00  0.00     0.055 A 
ATOM     84  C   UNL A   1      37.695  31.780  30.886  1.00  0.00     0.041 A 
ATOM     85  F   UNL A   1      38.772  31.320  28.858  1.00  0.00    -0.206 F 
ATOM     86  C   UNL A   1      37.679  31.767  32.277  1.00  0.00     0.022 A 
BRANCH  83  87
ATOM     87  S   UNL A   1      38.770  31.173  34.771  1.00  0.00     0.124 S 
ATOM     88  O   UNL A   1      39.827  32.087  35.188  1.00  0.00    -0.237 OA
ATOM     89  O   UNL A   1      37.405  31.586  35.080  1.00  0.00    -0.237 OA
ATOM     90  O   UNL A   1      39.052  29.755  34.982  1.00  0.00    -0.744 OA
ENDBRANCH  83  87
ENDBRANCH  56  80
BRANCH  68  91
ATOM     91  C   UNL A   1      46.164  33.673  28.992  1.00  0.00     0.023 A 
ATOM     92  C   UNL A   1      46.064  34.652  27.989  1.00  0.00     0.031 A 
ATOM     93  C   UNL A   1      46.821  34.017  30.189  1.00  0.00     0.131 A 
ATOM     94  C   UNL A   1      46.661  35.909  28.181  1.00  0.00     0.055 A 
ATOM     95  C   UNL A   1      47.347  35.291  30.400  1.00  0.00     0.041 A 
ATOM     96  F   UNL A   1      46.947  33.122  31.182  1.00  0.00    -0.206 F 
ATOM     97  C   UNL A   1      47.281  36.242  29.388  1.00  0.00     0.022 A 
BRANCH  94  98
ATOM     98  S   UNL A   1      46.703  37.073  26.790  1.00  0.00     0.124 S 
ATOM     99  O   UNL A   1      46.415  36.201  25.656  1.00  0.00    -0.237 OA
ATOM    100  O   UNL A   1      45.655  38.023  27.146  1.00  0.00    -0.237 OA
ATOM    101  O   UNL A   1      48.064  37.607  26.832  1.00  0.00    -0.744 OA
ENDBRANCH  94  98
ENDBRANCH  68  91
ENDBRANCH  42  43
ENDBRANCH  35  37
ENDBRANCH  34  35
ENDBRANCH  33  34
ENDBRANCH  32  33
ENDBRANCH  31  32
ENDBRANCH   1  31
TORSDOF 23
ENDMDL
