MODEL 1
REMARK VINA RESULT:     -10.4      0.000      0.000
REMARK SMILES Cc1ccn2c([C@@H]3CCCC[C@@H]3C(=O)OCCOCCOCCOC(=O)c3ccc(-c4c5nc(c(-c6cc(S(=O)(=O)[O-])ccc6F)c6ccc([nH]6)c(-c6cc(S(=O)(=O)[O-])ccc6F)c6nc(c(-c7cc(S(=O)(=O)[O-])ccc7F)c7ccc4[nH]7)C=C6)C=C5)cc3)nnc2c1
REMARK SMILES IDX 20 1 19 2 18 3 17 4 16 5 15 6 13 7 14 8 12 9 7 10 8 11 9 12
REMARK SMILES IDX 11 13 10 14 6 15 1 16 2 17 3 18 93 19 4 20 92 21 5 22 91 23
REMARK SMILES IDX 90 24 21 25 22 26 23 27 24 28 25 29 26 30 27 31 28 32 89 33
REMARK SMILES IDX 29 34 88 35 30 36 31 37 32 38 82 39 33 40 87 41 81 42 83 43
REMARK SMILES IDX 34 44 86 45 80 46 79 47 35 49 67 50 47 51 66 52 48 53 51 54
REMARK SMILES IDX 65 55 84 56 49 57 50 58 64 60 85 61 52 62 36 63 37 64 45 65
REMARK SMILES IDX 38 66 44 67 46 68 43 69 39 70 40 71 41 72 42 73 68 74 69 75
REMARK SMILES IDX 77 76 70 77 76 78 78 79 75 80 71 81 72 82 73 83 74 84 53 85
REMARK SMILES IDX 54 86 62 87 55 88 61 89 63 90 60 91 56 92 57 93 58 94 59 95
REMARK H PARENT 83 48 51 59
REMARK Flexibility Score: inf
ROOT
ATOM      1  C   UNL A   1      43.393  18.914  25.794  1.00  0.00     0.188 C 
ENDROOT
BRANCH   1   2
ATOM      2  C   UNL A   1      44.503  19.952  25.648  1.00  0.00     0.188 C 
BRANCH   2   3
ATOM      3  O   UNL A   1      45.692  19.447  25.040  1.00  0.00    -0.376 OA
BRANCH   3   4
ATOM      4  C   UNL A   1      46.581  20.423  24.500  1.00  0.00     0.202 C 
BRANCH   4   5
ATOM      5  C   UNL A   1      45.920  21.812  24.486  1.00  0.00     0.261 C 
BRANCH   5   6
ATOM      6  O   UNL A   1      46.872  22.911  24.501  1.00  0.00    -0.463 OA
BRANCH   6   7
ATOM      7  C   UNL A   1      46.297  24.110  24.798  1.00  0.00     0.309 C 
ATOM      8  O   UNL A   1      45.118  24.351  24.542  1.00  0.00    -0.252 OA
BRANCH   7   9
ATOM      9  C   UNL A   1      47.104  25.015  25.740  1.00  0.00     0.110 C 
ATOM     10  C   UNL A   1      46.581  25.699  27.026  1.00  0.00     0.072 C 
ATOM     11  C   UNL A   1      46.213  27.175  26.956  1.00  0.00     0.012 C 
ATOM     12  C   UNL A   1      46.111  27.785  25.579  1.00  0.00     0.001 C 
ATOM     13  C   UNL A   1      47.786  26.068  24.848  1.00  0.00     0.016 C 
ATOM     14  C   UNL A   1      46.750  27.079  24.393  1.00  0.00     0.001 C 
BRANCH  10  15
ATOM     15  C   UNL A   1      45.779  24.888  27.995  1.00  0.00     0.141 A 
ATOM     16  C   UNL A   1      44.237  25.278  33.264  1.00  0.00     0.044 C 
ATOM     17  C   UNL A   1      44.912  24.917  31.979  1.00  0.00    -0.046 A 
ATOM     18  C   UNL A   1      46.086  25.688  31.604  1.00  0.00     0.022 A 
ATOM     19  C   UNL A   1      44.380  24.025  31.118  1.00  0.00     0.053 A 
ATOM     20  C   UNL A   1      46.449  25.729  30.313  1.00  0.00     0.095 A 
ATOM     21  C   UNL A   1      44.825  24.010  29.767  1.00  0.00     0.161 A 
ATOM     22  N   UNL A   1      45.765  24.959  29.378  1.00  0.00    -0.286 N 
ATOM     23  N   UNL A   1      44.433  23.317  28.727  1.00  0.00    -0.130 NA
ATOM     24  N   UNL A   1      45.021  23.869  27.621  1.00  0.00    -0.134 NA
ENDBRANCH  10  15
ENDBRANCH   7   9
ENDBRANCH   6   7
ENDBRANCH   5   6
ENDBRANCH   4   5
ENDBRANCH   3   4
ENDBRANCH   2   3
ENDBRANCH   1   2
BRANCH   1  25
ATOM     25  O   UNL A   1      42.102  19.229  25.291  1.00  0.00    -0.376 OA
BRANCH  25  26
ATOM     26  C   UNL A   1      41.075  19.383  26.256  1.00  0.00     0.202 C 
BRANCH  26  27
ATOM     27  C   UNL A   1      41.329  20.405  27.379  1.00  0.00     0.261 C 
BRANCH  27  28
ATOM     28  O   UNL A   1      41.308  21.770  26.920  1.00  0.00    -0.460 OA
BRANCH  28  29
ATOM     29  C   UNL A   1      40.063  22.323  26.734  1.00  0.00     0.338 C 
ATOM     30  O   UNL A   1      39.089  21.743  26.333  1.00  0.00    -0.246 OA
BRANCH  29  31
ATOM     31  C   UNL A   1      40.026  23.700  27.340  1.00  0.00     0.060 A 
ATOM     32  C   UNL A   1      39.030  24.630  27.019  1.00  0.00     0.016 A 
ATOM     33  C   UNL A   1      41.115  24.111  28.124  1.00  0.00     0.016 A 
ATOM     34  C   UNL A   1      39.174  25.972  27.398  1.00  0.00     0.010 A 
ATOM     35  C   UNL A   1      41.245  25.452  28.522  1.00  0.00     0.010 A 
ATOM     36  C   UNL A   1      40.302  26.410  28.120  1.00  0.00    -0.014 A 
BRANCH  36  37
ATOM     37  C   UNL A   1      40.314  27.796  28.652  1.00  0.00     0.031 A 
ATOM     38  C   UNL A   1      41.471  28.490  28.089  1.00  0.00     0.074 A 
ATOM     39  C   UNL A   1      39.523  28.523  29.487  1.00  0.00     0.049 A 
ATOM     40  N   UNL A   1      42.641  28.515  28.636  1.00  0.00    -0.248 NA
ATOM     41  C   UNL A   1      41.406  29.004  26.718  1.00  0.00     0.031 C 
ATOM     42  C   UNL A   1      38.263  28.133  30.073  1.00  0.00     0.029 A 
ATOM     43  N   UNL A   1      39.651  29.803  30.001  1.00  0.00    -0.354 N 
ATOM     44  C   UNL A   1      43.337  29.396  27.841  1.00  0.00     0.074 A 
ATOM     45  C   UNL A   1      42.673  29.392  26.558  1.00  0.00     0.031 C 
ATOM     46  C   UNL A   1      37.594  29.153  30.618  1.00  0.00     0.029 A 
ATOM     47  C   UNL A   1      38.507  30.266  30.654  1.00  0.00     0.049 A 
ATOM     48  H   UNL A   1      40.472  30.338  29.914  1.00  0.00     0.167 HD
ATOM     49  C   UNL A   1      44.054  30.379  28.447  1.00  0.00     0.034 A 
ATOM     50  C   UNL A   1      38.249  31.315  31.471  1.00  0.00     0.034 A 
ATOM     51  C   UNL A   1      44.306  30.091  29.840  1.00  0.00     0.049 A 
ATOM     52  C   UNL A   1      39.496  31.666  32.170  1.00  0.00     0.074 A 
ATOM     53  C   UNL A   1      45.040  29.146  30.524  1.00  0.00     0.029 A 
ATOM     54  N   UNL A   1      43.409  30.627  30.731  1.00  0.00    -0.354 N 
ATOM     55  N   UNL A   1      40.083  30.900  33.052  1.00  0.00    -0.248 NA
ATOM     56  C   UNL A   1      40.317  32.736  31.623  1.00  0.00     0.031 C 
ATOM     57  C   UNL A   1      44.487  29.058  31.833  1.00  0.00     0.029 A 
ATOM     58  C   UNL A   1      43.433  29.962  31.938  1.00  0.00     0.049 A 
ATOM     59  H   UNL A   1      42.821  31.392  30.533  1.00  0.00     0.167 HD
ATOM     60  C   UNL A   1      41.428  31.098  32.813  1.00  0.00     0.074 A 
ATOM     61  C   UNL A   1      41.512  32.347  32.070  1.00  0.00     0.031 C 
ATOM     62  C   UNL A   1      42.336  30.084  32.893  1.00  0.00     0.034 A 
BRANCH  49  63
ATOM     63  C   UNL A   1      44.116  31.768  27.880  1.00  0.00     0.023 A 
ATOM     64  C   UNL A   1      43.536  32.874  28.534  1.00  0.00     0.031 A 
ATOM     65  C   UNL A   1      44.907  32.055  26.762  1.00  0.00     0.131 A 
ATOM     66  C   UNL A   1      43.635  34.167  28.027  1.00  0.00     0.055 A 
ATOM     67  C   UNL A   1      45.091  33.366  26.304  1.00  0.00     0.041 A 
ATOM     68  F   UNL A   1      45.550  31.076  26.108  1.00  0.00    -0.206 F 
ATOM     69  C   UNL A   1      44.435  34.429  26.923  1.00  0.00     0.022 A 
BRANCH  66  70
ATOM     70  S   UNL A   1      42.677  35.506  28.786  1.00  0.00     0.124 S 
ATOM     71  O   UNL A   1      43.662  36.580  28.849  1.00  0.00    -0.237 OA
ATOM     72  O   UNL A   1      41.599  35.683  27.816  1.00  0.00    -0.237 OA
ATOM     73  O   UNL A   1      42.262  34.944  30.069  1.00  0.00    -0.744 OA
ENDBRANCH  66  70
ENDBRANCH  49  63
BRANCH  50  74
ATOM     74  C   UNL A   1      36.910  31.914  31.692  1.00  0.00     0.023 A 
ATOM     75  C   UNL A   1      36.212  32.448  30.584  1.00  0.00     0.031 A 
ATOM     76  C   UNL A   1      36.355  32.146  32.956  1.00  0.00     0.131 A 
ATOM     77  C   UNL A   1      35.040  33.197  30.746  1.00  0.00     0.055 A 
ATOM     78  C   UNL A   1      35.177  32.894  33.121  1.00  0.00     0.041 A 
ATOM     79  F   UNL A   1      36.958  31.688  34.063  1.00  0.00    -0.206 F 
ATOM     80  C   UNL A   1      34.518  33.430  32.014  1.00  0.00     0.022 A 
BRANCH  77  81
ATOM     81  S   UNL A   1      34.214  33.875  29.279  1.00  0.00     0.124 S 
ATOM     82  O   UNL A   1      33.045  34.548  29.842  1.00  0.00    -0.237 OA
ATOM     83  O   UNL A   1      35.244  34.756  28.740  1.00  0.00    -0.237 OA
ATOM     84  O   UNL A   1      33.916  32.681  28.493  1.00  0.00    -0.744 OA
ENDBRANCH  77  81
ENDBRANCH  50  74
BRANCH  62  85
ATOM     85  C   UNL A   1      42.131  28.966  33.884  1.00  0.00     0.023 A 
ATOM     86  C   UNL A   1      42.951  28.983  35.032  1.00  0.00     0.031 A 
ATOM     87  C   UNL A   1      41.304  27.846  33.698  1.00  0.00     0.131 A 
ATOM     88  C   UNL A   1      42.979  27.896  35.913  1.00  0.00     0.055 A 
ATOM     89  C   UNL A   1      41.284  26.788  34.621  1.00  0.00     0.041 A 
ATOM     90  F   UNL A   1      40.552  27.705  32.597  1.00  0.00    -0.206 F 
ATOM     91  C   UNL A   1      42.136  26.801  35.723  1.00  0.00     0.022 A 
BRANCH  88  92
ATOM     92  S   UNL A   1      44.221  27.818  37.235  1.00  0.00     0.124 S 
ATOM     93  O   UNL A   1      44.204  29.179  37.761  1.00  0.00    -0.237 OA
ATOM     94  O   UNL A   1      43.668  26.796  38.123  1.00  0.00    -0.237 OA
ATOM     95  O   UNL A   1      45.447  27.429  36.542  1.00  0.00    -0.744 OA
ENDBRANCH  88  92
ENDBRANCH  62  85
ENDBRANCH  36  37
ENDBRANCH  29  31
ENDBRANCH  28  29
ENDBRANCH  27  28
ENDBRANCH  26  27
ENDBRANCH  25  26
ENDBRANCH   1  25
TORSDOF 21
ENDMDL
MODEL 2
REMARK VINA RESULT:     -10.1      3.688      7.234
REMARK SMILES Cc1ccn2c([C@@H]3CCCC[C@@H]3C(=O)OCCOCCOCCOC(=O)c3ccc(-c4c5nc(c(-c6cc(S(=O)(=O)[O-])ccc6F)c6ccc([nH]6)c(-c6cc(S(=O)(=O)[O-])ccc6F)c6nc(c(-c7cc(S(=O)(=O)[O-])ccc7F)c7ccc4[nH]7)C=C6)C=C5)cc3)nnc2c1
REMARK SMILES IDX 20 1 19 2 18 3 17 4 16 5 15 6 13 7 14 8 12 9 7 10 8 11 9 12
REMARK SMILES IDX 11 13 10 14 6 15 1 16 2 17 3 18 93 19 4 20 92 21 5 22 91 23
REMARK SMILES IDX 90 24 21 25 22 26 23 27 24 28 25 29 26 30 27 31 28 32 89 33
REMARK SMILES IDX 29 34 88 35 30 36 31 37 32 38 82 39 33 40 87 41 81 42 83 43
REMARK SMILES IDX 34 44 86 45 80 46 79 47 35 49 67 50 47 51 66 52 48 53 51 54
REMARK SMILES IDX 65 55 84 56 49 57 50 58 64 60 85 61 52 62 36 63 37 64 45 65
REMARK SMILES IDX 38 66 44 67 46 68 43 69 39 70 40 71 41 72 42 73 68 74 69 75
REMARK SMILES IDX 77 76 70 77 76 78 78 79 75 80 71 81 72 82 73 83 74 84 53 85
REMARK SMILES IDX 54 86 62 87 55 88 61 89 63 90 60 91 56 92 57 93 58 94 59 95
REMARK H PARENT 83 48 51 59
REMARK Flexibility Score: inf
ROOT
ATOM      1  C   UNL A   1      36.497  22.961  23.390  1.00  0.00     0.188 C 
ENDROOT
BRANCH   1   2
ATOM      2  C   UNL A   1      35.307  23.729  23.961  1.00  0.00     0.188 C 
BRANCH   2   3
ATOM      3  O   UNL A   1      34.241  22.894  24.412  1.00  0.00    -0.376 OA
BRANCH   3   4
ATOM      4  C   UNL A   1      33.474  23.393  25.505  1.00  0.00     0.202 C 
BRANCH   4   5
ATOM      5  C   UNL A   1      33.416  24.930  25.470  1.00  0.00     0.261 C 
BRANCH   5   6
ATOM      6  O   UNL A   1      32.537  25.504  26.476  1.00  0.00    -0.463 OA
BRANCH   6   7
ATOM      7  C   UNL A   1      31.520  26.236  25.941  1.00  0.00     0.309 C 
ATOM      8  O   UNL A   1      30.498  26.496  26.575  1.00  0.00    -0.252 OA
BRANCH   7   9
ATOM      9  C   UNL A   1      31.853  26.972  24.636  1.00  0.00     0.110 C 
ATOM     10  C   UNL A   1      31.628  28.477  24.349  1.00  0.00     0.072 C 
ATOM     11  C   UNL A   1      30.413  28.878  23.522  1.00  0.00     0.012 C 
ATOM     12  C   UNL A   1      29.369  27.813  23.289  1.00  0.00     0.001 C 
ATOM     13  C   UNL A   1      31.228  26.143  23.500  1.00  0.00     0.016 C 
ATOM     14  C   UNL A   1      29.724  26.350  23.503  1.00  0.00     0.001 C 
BRANCH  10  15
ATOM     15  C   UNL A   1      32.053  29.476  25.380  1.00  0.00     0.141 A 
ATOM     16  C   UNL A   1      36.701  30.836  27.993  1.00  0.00     0.044 C 
ATOM     17  C   UNL A   1      35.358  30.294  27.623  1.00  0.00    -0.046 A 
ATOM     18  C   UNL A   1      35.310  28.949  27.073  1.00  0.00     0.022 A 
ATOM     19  C   UNL A   1      34.247  31.059  27.645  1.00  0.00     0.053 A 
ATOM     20  C   UNL A   1      34.255  28.591  26.327  1.00  0.00     0.095 A 
ATOM     21  C   UNL A   1      33.097  30.639  26.922  1.00  0.00     0.161 A 
ATOM     22  N   UNL A   1      33.185  29.468  26.177  1.00  0.00    -0.286 N 
ATOM     23  N   UNL A   1      31.938  31.214  26.714  1.00  0.00    -0.130 NA
ATOM     24  N   UNL A   1      31.291  30.494  25.747  1.00  0.00    -0.134 NA
ENDBRANCH  10  15
ENDBRANCH   7   9
ENDBRANCH   6   7
ENDBRANCH   5   6
ENDBRANCH   4   5
ENDBRANCH   3   4
ENDBRANCH   2   3
ENDBRANCH   1   2
BRANCH   1  25
ATOM     25  O   UNL A   1      36.977  21.830  24.102  1.00  0.00    -0.376 OA
BRANCH  25  26
ATOM     26  C   UNL A   1      37.441  22.070  25.420  1.00  0.00     0.202 C 
BRANCH  26  27
ATOM     27  C   UNL A   1      38.861  21.578  25.752  1.00  0.00     0.261 C 
BRANCH  27  28
ATOM     28  O   UNL A   1      39.362  22.092  27.002  1.00  0.00    -0.460 OA
BRANCH  28  29
ATOM     29  C   UNL A   1      40.651  22.569  26.983  1.00  0.00     0.338 C 
ATOM     30  O   UNL A   1      41.608  21.990  26.543  1.00  0.00    -0.246 OA
BRANCH  29  31
ATOM     31  C   UNL A   1      40.657  24.025  27.365  1.00  0.00     0.060 A 
ATOM     32  C   UNL A   1      41.807  24.669  27.836  1.00  0.00     0.016 A 
ATOM     33  C   UNL A   1      39.431  24.708  27.398  1.00  0.00     0.016 A 
ATOM     34  C   UNL A   1      41.711  25.939  28.420  1.00  0.00     0.010 A 
ATOM     35  C   UNL A   1      39.341  25.992  27.963  1.00  0.00     0.010 A 
ATOM     36  C   UNL A   1      40.471  26.602  28.528  1.00  0.00    -0.014 A 
BRANCH  36  37
ATOM     37  C   UNL A   1      40.456  28.015  28.985  1.00  0.00     0.031 A 
ATOM     38  C   UNL A   1      41.557  28.717  28.330  1.00  0.00     0.074 A 
ATOM     39  C   UNL A   1      39.678  28.757  29.819  1.00  0.00     0.049 A 
ATOM     40  N   UNL A   1      42.750  28.813  28.815  1.00  0.00    -0.248 NA
ATOM     41  C   UNL A   1      41.408  29.153  26.938  1.00  0.00     0.031 C 
ATOM     42  C   UNL A   1      38.464  28.356  30.487  1.00  0.00     0.029 A 
ATOM     43  N   UNL A   1      39.782  30.067  30.258  1.00  0.00    -0.354 N 
ATOM     44  C   UNL A   1      43.374  29.674  27.942  1.00  0.00     0.074 A 
ATOM     45  C   UNL A   1      42.650  29.576  26.696  1.00  0.00     0.031 C 
ATOM     46  C   UNL A   1      37.784  29.380  31.010  1.00  0.00     0.029 A 
ATOM     47  C   UNL A   1      38.654  30.525  30.942  1.00  0.00     0.049 A 
ATOM     48  H   UNL A   1      40.578  30.625  30.102  1.00  0.00     0.167 HD
ATOM     49  C   UNL A   1      44.082  30.713  28.458  1.00  0.00     0.034 A 
ATOM     50  C   UNL A   1      38.396  31.607  31.714  1.00  0.00     0.034 A 
ATOM     51  C   UNL A   1      44.411  30.510  29.851  1.00  0.00     0.049 A 
ATOM     52  C   UNL A   1      39.661  32.039  32.330  1.00  0.00     0.074 A 
ATOM     53  C   UNL A   1      45.212  29.630  30.546  1.00  0.00     0.029 A 
ATOM     54  N   UNL A   1      43.537  31.062  30.756  1.00  0.00    -0.354 N 
ATOM     55  N   UNL A   1      40.318  31.343  33.222  1.00  0.00    -0.248 NA
ATOM     56  C   UNL A   1      40.414  33.106  31.688  1.00  0.00     0.031 C 
ATOM     57  C   UNL A   1      44.726  29.595  31.884  1.00  0.00     0.029 A 
ATOM     58  C   UNL A   1      43.644  30.465  31.994  1.00  0.00     0.049 A 
ATOM     59  H   UNL A   1      42.912  31.794  30.547  1.00  0.00     0.167 HD
ATOM     60  C   UNL A   1      41.642  31.576  32.906  1.00  0.00     0.074 A 
ATOM     61  C   UNL A   1      41.643  32.784  32.095  1.00  0.00     0.031 C 
ATOM     62  C   UNL A   1      42.590  30.601  32.994  1.00  0.00     0.034 A 
BRANCH  49  63
ATOM     63  C   UNL A   1      44.063  32.070  27.817  1.00  0.00     0.023 A 
ATOM     64  C   UNL A   1      43.387  33.165  28.392  1.00  0.00     0.031 A 
ATOM     65  C   UNL A   1      44.868  32.353  26.708  1.00  0.00     0.131 A 
ATOM     66  C   UNL A   1      43.411  34.433  27.816  1.00  0.00     0.055 A 
ATOM     67  C   UNL A   1      44.974  33.647  26.182  1.00  0.00     0.041 A 
ATOM     68  F   UNL A   1      45.600  31.388  26.127  1.00  0.00    -0.206 F 
ATOM     69  C   UNL A   1      44.225  34.691  26.722  1.00  0.00     0.022 A 
BRANCH  66  70
ATOM     70  S   UNL A   1      42.337  35.738  28.472  1.00  0.00     0.124 S 
ATOM     71  O   UNL A   1      41.252  34.964  29.062  1.00  0.00    -0.237 OA
ATOM     72  O   UNL A   1      43.231  36.407  29.414  1.00  0.00    -0.237 OA
ATOM     73  O   UNL A   1      41.993  36.524  27.290  1.00  0.00    -0.744 OA
ENDBRANCH  66  70
ENDBRANCH  49  63
BRANCH  50  74
ATOM     74  C   UNL A   1      37.048  32.170  31.969  1.00  0.00     0.023 A 
ATOM     75  C   UNL A   1      36.377  32.836  30.917  1.00  0.00     0.031 A 
ATOM     76  C   UNL A   1      36.456  32.241  33.236  1.00  0.00     0.131 A 
ATOM     77  C   UNL A   1      35.197  33.555  31.137  1.00  0.00     0.055 A 
ATOM     78  C   UNL A   1      35.269  32.958  33.458  1.00  0.00     0.041 A 
ATOM     79  F   UNL A   1      37.030  31.650  34.294  1.00  0.00    -0.206 F 
ATOM     80  C   UNL A   1      34.637  33.627  32.409  1.00  0.00     0.022 A 
BRANCH  77  81
ATOM     81  S   UNL A   1      34.408  34.408  29.743  1.00  0.00     0.124 S 
ATOM     82  O   UNL A   1      33.341  33.487  29.356  1.00  0.00    -0.237 OA
ATOM     83  O   UNL A   1      33.966  35.650  30.368  1.00  0.00    -0.237 OA
ATOM     84  O   UNL A   1      35.496  34.527  28.777  1.00  0.00    -0.744 OA
ENDBRANCH  77  81
ENDBRANCH  50  74
BRANCH  62  85
ATOM     85  C   UNL A   1      42.475  29.532  34.052  1.00  0.00     0.023 A 
ATOM     86  C   UNL A   1      43.275  29.695  35.202  1.00  0.00     0.031 A 
ATOM     87  C   UNL A   1      41.757  28.331  33.930  1.00  0.00     0.131 A 
ATOM     88  C   UNL A   1      43.390  28.671  36.151  1.00  0.00     0.055 A 
ATOM     89  C   UNL A   1      41.821  27.335  34.917  1.00  0.00     0.041 A 
ATOM     90  F   UNL A   1      41.035  28.053  32.834  1.00  0.00    -0.206 F 
ATOM     91  C   UNL A   1      42.654  27.494  36.023  1.00  0.00     0.022 A 
BRANCH  88  92
ATOM     92  S   UNL A   1      44.617  28.790  37.483  1.00  0.00     0.124 S 
ATOM     93  O   UNL A   1      44.160  29.960  38.225  1.00  0.00    -0.237 OA
ATOM     94  O   UNL A   1      44.454  27.509  38.172  1.00  0.00    -0.237 OA
ATOM     95  O   UNL A   1      45.887  28.950  36.780  1.00  0.00    -0.744 OA
ENDBRANCH  88  92
ENDBRANCH  62  85
ENDBRANCH  36  37
ENDBRANCH  29  31
ENDBRANCH  28  29
ENDBRANCH  27  28
ENDBRANCH  26  27
ENDBRANCH  25  26
ENDBRANCH   1  25
TORSDOF 21
ENDMDL
MODEL 3
REMARK VINA RESULT:     -10.1      1.609      3.225
REMARK SMILES Cc1ccn2c([C@@H]3CCCC[C@@H]3C(=O)OCCOCCOCCOC(=O)c3ccc(-c4c5nc(c(-c6cc(S(=O)(=O)[O-])ccc6F)c6ccc([nH]6)c(-c6cc(S(=O)(=O)[O-])ccc6F)c6nc(c(-c7cc(S(=O)(=O)[O-])ccc7F)c7ccc4[nH]7)C=C6)C=C5)cc3)nnc2c1
REMARK SMILES IDX 20 1 19 2 18 3 17 4 16 5 15 6 13 7 14 8 12 9 7 10 8 11 9 12
REMARK SMILES IDX 11 13 10 14 6 15 1 16 2 17 3 18 93 19 4 20 92 21 5 22 91 23
REMARK SMILES IDX 90 24 21 25 22 26 23 27 24 28 25 29 26 30 27 31 28 32 89 33
REMARK SMILES IDX 29 34 88 35 30 36 31 37 32 38 82 39 33 40 87 41 81 42 83 43
REMARK SMILES IDX 34 44 86 45 80 46 79 47 35 49 67 50 47 51 66 52 48 53 51 54
REMARK SMILES IDX 65 55 84 56 49 57 50 58 64 60 85 61 52 62 36 63 37 64 45 65
REMARK SMILES IDX 38 66 44 67 46 68 43 69 39 70 40 71 41 72 42 73 68 74 69 75
REMARK SMILES IDX 77 76 70 77 76 78 78 79 75 80 71 81 72 82 73 83 74 84 53 85
REMARK SMILES IDX 54 86 62 87 55 88 61 89 63 90 60 91 56 92 57 93 58 94 59 95
REMARK H PARENT 83 48 51 59
REMARK Flexibility Score: inf
ROOT
ATOM      1  C   UNL A   1      43.890  19.798  25.695  1.00  0.00     0.188 C 
ENDROOT
BRANCH   1   2
ATOM      2  C   UNL A   1      44.629  21.106  25.422  1.00  0.00     0.188 C 
BRANCH   2   3
ATOM      3  O   UNL A   1      44.728  21.437  24.037  1.00  0.00    -0.376 OA
BRANCH   3   4
ATOM      4  C   UNL A   1      45.128  22.774  23.741  1.00  0.00     0.202 C 
BRANCH   4   5
ATOM      5  C   UNL A   1      44.867  23.697  24.943  1.00  0.00     0.261 C 
BRANCH   5   6
ATOM      6  O   UNL A   1      44.964  25.113  24.623  1.00  0.00    -0.463 OA
BRANCH   6   7
ATOM      7  C   UNL A   1      44.469  25.916  25.606  1.00  0.00     0.309 C 
ATOM      8  O   UNL A   1      43.295  25.857  25.969  1.00  0.00    -0.252 OA
BRANCH   7   9
ATOM      9  C   UNL A   1      45.519  26.668  26.436  1.00  0.00     0.110 C 
ATOM     10  C   UNL A   1      47.005  26.882  26.059  1.00  0.00     0.072 C 
ATOM     11  C   UNL A   1      48.050  25.990  26.715  1.00  0.00     0.012 C 
ATOM     12  C   UNL A   1      47.538  24.780  27.460  1.00  0.00     0.001 C 
ATOM     13  C   UNL A   1      45.438  26.090  27.861  1.00  0.00     0.016 C 
ATOM     14  C   UNL A   1      46.077  24.714  27.875  1.00  0.00     0.001 C 
BRANCH  10  15
ATOM     15  C   UNL A   1      47.335  27.333  24.670  1.00  0.00     0.141 A 
ATOM     16  C   UNL A   1      51.476  26.685  21.103  1.00  0.00     0.044 C 
ATOM     17  C   UNL A   1      50.516  27.211  22.122  1.00  0.00    -0.046 A 
ATOM     18  C   UNL A   1      50.846  26.999  23.522  1.00  0.00     0.022 A 
ATOM     19  C   UNL A   1      49.316  27.724  21.776  1.00  0.00     0.053 A 
ATOM     20  C   UNL A   1      49.861  27.028  24.431  1.00  0.00     0.095 A 
ATOM     21  C   UNL A   1      48.296  27.835  22.760  1.00  0.00     0.161 A 
ATOM     22  N   UNL A   1      48.568  27.360  24.039  1.00  0.00    -0.286 N 
ATOM     23  N   UNL A   1      47.045  28.216  22.682  1.00  0.00    -0.130 NA
ATOM     24  N   UNL A   1      46.444  27.896  23.869  1.00  0.00    -0.134 NA
ENDBRANCH  10  15
ENDBRANCH   7   9
ENDBRANCH   6   7
ENDBRANCH   5   6
ENDBRANCH   4   5
ENDBRANCH   3   4
ENDBRANCH   2   3
ENDBRANCH   1   2
BRANCH   1  25
ATOM     25  O   UNL A   1      42.591  19.627  25.146  1.00  0.00    -0.376 OA
BRANCH  25  26
ATOM     26  C   UNL A   1      41.542  19.411  26.075  1.00  0.00     0.202 C 
BRANCH  26  27
ATOM     27  C   UNL A   1      41.600  20.220  27.384  1.00  0.00     0.261 C 
BRANCH  27  28
ATOM     28  O   UNL A   1      41.563  21.645  27.173  1.00  0.00    -0.460 OA
BRANCH  28  29
ATOM     29  C   UNL A   1      40.323  22.184  26.924  1.00  0.00     0.338 C 
ATOM     30  O   UNL A   1      39.367  21.586  26.507  1.00  0.00    -0.246 OA
BRANCH  29  31
ATOM     31  C   UNL A   1      40.257  23.579  27.485  1.00  0.00     0.060 A 
ATOM     32  C   UNL A   1      39.281  24.499  27.086  1.00  0.00     0.016 A 
ATOM     33  C   UNL A   1      41.306  24.013  28.311  1.00  0.00     0.016 A 
ATOM     34  C   UNL A   1      39.408  25.852  27.430  1.00  0.00     0.010 A 
ATOM     35  C   UNL A   1      41.418  25.366  28.675  1.00  0.00     0.010 A 
ATOM     36  C   UNL A   1      40.499  26.311  28.195  1.00  0.00    -0.014 A 
BRANCH  36  37
ATOM     37  C   UNL A   1      40.486  27.714  28.684  1.00  0.00     0.031 A 
ATOM     38  C   UNL A   1      41.618  28.416  28.083  1.00  0.00     0.074 A 
ATOM     39  C   UNL A   1      39.690  28.447  29.509  1.00  0.00     0.049 A 
ATOM     40  N   UNL A   1      42.795  28.485  28.611  1.00  0.00    -0.248 NA
ATOM     41  C   UNL A   1      41.521  28.886  26.698  1.00  0.00     0.031 C 
ATOM     42  C   UNL A   1      38.449  28.047  30.126  1.00  0.00     0.029 A 
ATOM     43  N   UNL A   1      39.795  29.745  29.982  1.00  0.00    -0.354 N 
ATOM     44  C   UNL A   1      43.459  29.357  27.780  1.00  0.00     0.074 A 
ATOM     45  C   UNL A   1      42.776  29.298  26.507  1.00  0.00     0.031 C 
ATOM     46  C   UNL A   1      37.764  29.068  30.650  1.00  0.00     0.029 A 
ATOM     47  C   UNL A   1      38.651  30.202  30.638  1.00  0.00     0.049 A 
ATOM     48  H   UNL A   1      40.603  30.295  29.866  1.00  0.00     0.167 HD
ATOM     49  C   UNL A   1      44.161  30.374  28.343  1.00  0.00     0.034 A 
ATOM     50  C   UNL A   1      38.381  31.269  31.427  1.00  0.00     0.034 A 
ATOM     51  C   UNL A   1      44.440  30.135  29.741  1.00  0.00     0.049 A 
ATOM     52  C   UNL A   1      39.629  31.670  32.095  1.00  0.00     0.074 A 
ATOM     53  C   UNL A   1      45.206  29.229  30.442  1.00  0.00     0.029 A 
ATOM     54  N   UNL A   1      43.544  30.677  30.629  1.00  0.00    -0.354 N 
ATOM     55  N   UNL A   1      40.246  30.945  32.992  1.00  0.00    -0.248 NA
ATOM     56  C   UNL A   1      40.416  32.741  31.503  1.00  0.00     0.031 C 
ATOM     57  C   UNL A   1      44.675  29.169  31.761  1.00  0.00     0.029 A 
ATOM     58  C   UNL A   1      43.601  30.050  31.855  1.00  0.00     0.049 A 
ATOM     59  H   UNL A   1      42.935  31.422  30.417  1.00  0.00     0.167 HD
ATOM     60  C   UNL A   1      41.583  31.167  32.726  1.00  0.00     0.074 A 
ATOM     61  C   UNL A   1      41.627  32.394  31.944  1.00  0.00     0.031 C 
ATOM     62  C   UNL A   1      42.516  30.177  32.822  1.00  0.00     0.034 A 
BRANCH  49  63
ATOM     63  C   UNL A   1      44.182  31.746  27.734  1.00  0.00     0.023 A 
ATOM     64  C   UNL A   1      43.516  32.840  28.321  1.00  0.00     0.031 A 
ATOM     65  C   UNL A   1      45.014  32.038  26.647  1.00  0.00     0.131 A 
ATOM     66  C   UNL A   1      43.575  34.121  27.776  1.00  0.00     0.055 A 
ATOM     67  C   UNL A   1      45.155  33.342  26.154  1.00  0.00     0.041 A 
ATOM     68  F   UNL A   1      45.737  31.073  26.059  1.00  0.00    -0.206 F 
ATOM     69  C   UNL A   1      44.416  34.388  26.705  1.00  0.00     0.022 A 
BRANCH  66  70
ATOM     70  S   UNL A   1      42.514  35.431  28.442  1.00  0.00     0.124 S 
ATOM     71  O   UNL A   1      43.481  36.273  29.138  1.00  0.00    -0.237 OA
ATOM     72  O   UNL A   1      41.940  35.992  27.222  1.00  0.00    -0.237 OA
ATOM     73  O   UNL A   1      41.570  34.709  29.289  1.00  0.00    -0.744 OA
ENDBRANCH  66  70
ENDBRANCH  49  63
BRANCH  50  74
ATOM     74  C   UNL A   1      37.031  31.844  31.650  1.00  0.00     0.023 A 
ATOM     75  C   UNL A   1      36.357  32.442  30.559  1.00  0.00     0.031 A 
ATOM     76  C   UNL A   1      36.442  31.992  32.910  1.00  0.00     0.131 A 
ATOM     77  C   UNL A   1      35.176  33.171  30.738  1.00  0.00     0.055 A 
ATOM     78  C   UNL A   1      35.254  32.720  33.091  1.00  0.00     0.041 A 
ATOM     79  F   UNL A   1      37.020  31.470  34.002  1.00  0.00    -0.206 F 
ATOM     80  C   UNL A   1      34.619  33.320  32.004  1.00  0.00     0.022 A 
BRANCH  77  81
ATOM     81  S   UNL A   1      34.382  33.934  29.295  1.00  0.00     0.124 S 
ATOM     82  O   UNL A   1      33.425  34.860  29.899  1.00  0.00    -0.237 OA
ATOM     83  O   UNL A   1      35.519  34.558  28.627  1.00  0.00    -0.237 OA
ATOM     84  O   UNL A   1      33.783  32.792  28.611  1.00  0.00    -0.744 OA
ENDBRANCH  77  81
ENDBRANCH  50  74
BRANCH  62  85
ATOM     85  C   UNL A   1      42.351  29.085  33.851  1.00  0.00     0.023 A 
ATOM     86  C   UNL A   1      43.152  29.184  35.007  1.00  0.00     0.031 A 
ATOM     87  C   UNL A   1      41.583  27.920  33.694  1.00  0.00     0.131 A 
ATOM     88  C   UNL A   1      43.221  28.130  35.928  1.00  0.00     0.055 A 
ATOM     89  C   UNL A   1      41.602  26.896  34.653  1.00  0.00     0.041 A 
ATOM     90  F   UNL A   1      40.855  27.703  32.589  1.00  0.00    -0.206 F 
ATOM     91  C   UNL A   1      42.436  26.989  35.766  1.00  0.00     0.022 A 
BRANCH  88  92
ATOM     92  S   UNL A   1      44.446  28.161  37.267  1.00  0.00     0.124 S 
ATOM     93  O   UNL A   1      43.982  27.086  38.139  1.00  0.00    -0.237 OA
ATOM     94  O   UNL A   1      45.694  27.893  36.553  1.00  0.00    -0.237 OA
ATOM     95  O   UNL A   1      44.332  29.508  37.818  1.00  0.00    -0.744 OA
ENDBRANCH  88  92
ENDBRANCH  62  85
ENDBRANCH  36  37
ENDBRANCH  29  31
ENDBRANCH  28  29
ENDBRANCH  27  28
ENDBRANCH  26  27
ENDBRANCH  25  26
ENDBRANCH   1  25
TORSDOF 21
ENDMDL
