MODEL 1
REMARK VINA RESULT:     -11.5      0.000      0.000
REMARK SMILES Cn1c(C(=O)N2CCC[C@@H](C(=O)OCCOCCOCCOC(=O)c3ccc(-c4c5nc(c(-c6cc(S(=O)(=O)[O-])ccc6F)c6ccc([nH]6)c(-c6cc(S(=O)(=O)[O-])ccc6F)c6nc(c(-c7cc(S(=O)(=O)[O-])ccc7F)c7ccc4[nH]7)C=C6)C=C5)cc3)C2)cc2sccc21
REMARK SMILES IDX 18 1 17 2 16 3 15 4 14 5 13 6 11 7 12 8 10 9 6 10 7 11 88 12
REMARK SMILES IDX 8 13 9 14 4 15 5 16 3 17 1 18 2 19 94 20 89 21 90 22 93 23
REMARK SMILES IDX 91 24 92 25 19 26 20 27 21 28 22 29 23 30 24 31 25 32 26 33
REMARK SMILES IDX 87 34 27 35 86 36 28 37 29 38 30 39 80 40 31 41 85 42 79 43
REMARK SMILES IDX 81 44 32 45 84 46 78 47 77 48 33 50 65 51 45 52 64 53 46 54
REMARK SMILES IDX 49 55 63 56 82 57 47 58 48 59 62 61 83 62 50 63 34 64 35 65
REMARK SMILES IDX 43 66 36 67 42 68 44 69 41 70 37 71 38 72 39 73 40 74 66 75
REMARK SMILES IDX 67 76 75 77 68 78 74 79 76 80 73 81 69 82 70 83 71 84 72 85
REMARK SMILES IDX 51 86 52 87 60 88 53 89 59 90 61 91 58 92 54 93 55 94 56 95
REMARK SMILES IDX 57 96
REMARK H PARENT 81 49 49 60
REMARK Flexibility Score: inf
ROOT
ATOM      1  C   UNL A   1      33.089  28.363  27.065  1.00  0.00     0.188 C 
ENDROOT
BRANCH   1   2
ATOM      2  C   UNL A   1      32.036  29.091  26.208  1.00  0.00     0.188 C 
BRANCH   2   3
ATOM      3  O   UNL A   1      31.553  28.458  25.031  1.00  0.00    -0.376 OA
BRANCH   3   4
ATOM      4  C   UNL A   1      32.074  28.899  23.778  1.00  0.00     0.202 C 
BRANCH   4   5
ATOM      5  C   UNL A   1      33.558  28.622  23.463  1.00  0.00     0.261 C 
BRANCH   5   6
ATOM      6  O   UNL A   1      33.972  27.246  23.637  1.00  0.00    -0.463 OA
BRANCH   6   7
ATOM      7  C   UNL A   1      33.528  26.350  22.720  1.00  0.00     0.310 C 
ATOM      8  O   UNL A   1      33.660  26.482  21.508  1.00  0.00    -0.252 OA
BRANCH   7   9
ATOM      9  C   UNL A   1      32.907  25.096  23.319  1.00  0.00     0.119 C 
ATOM     10  N   UNL A   1      32.344  24.023  25.476  1.00  0.00    -0.337 N 
ATOM     11  C   UNL A   1      31.023  23.626  25.015  1.00  0.00     0.120 C 
ATOM     12  C   UNL A   1      32.919  25.215  24.853  1.00  0.00     0.135 C 
ATOM     13  C   UNL A   1      30.994  23.441  23.504  1.00  0.00     0.022 C 
ATOM     14  C   UNL A   1      31.532  24.676  22.772  1.00  0.00     0.019 C 
BRANCH  10  15
ATOM     15  C   UNL A   1      33.040  23.188  26.345  1.00  0.00     0.270 C 
ATOM     16  O   UNL A   1      32.611  22.968  27.479  1.00  0.00    -0.267 OA
BRANCH  15  17
ATOM     17  C   UNL A   1      34.336  22.683  25.900  1.00  0.00     0.108 A 
ATOM     18  C   UNL A   1      33.508  20.573  24.759  1.00  0.00     0.150 C 
ATOM     19  N   UNL A   1      34.521  21.475  25.251  1.00  0.00    -0.339 N 
ATOM     20  C   UNL A   1      35.868  21.183  25.213  1.00  0.00     0.059 A 
ATOM     21  C   UNL A   1      35.597  23.208  26.168  1.00  0.00     0.053 A 
ATOM     22  C   UNL A   1      36.545  22.238  25.741  1.00  0.00     0.053 A 
ATOM     23  C   UNL A   1      36.711  20.111  24.807  1.00  0.00     0.038 A 
ATOM     24  S   UNL A   1      38.258  21.991  25.744  1.00  0.00    -0.142 S 
ATOM     25  C   UNL A   1      38.029  20.426  25.068  1.00  0.00     0.068 A 
ENDBRANCH  15  17
ENDBRANCH  10  15
ENDBRANCH   7   9
ENDBRANCH   6   7
ENDBRANCH   5   6
ENDBRANCH   4   5
ENDBRANCH   3   4
ENDBRANCH   2   3
ENDBRANCH   1   2
BRANCH   1  26
ATOM     26  O   UNL A   1      34.102  29.202  27.600  1.00  0.00    -0.376 OA
BRANCH  26  27
ATOM     27  C   UNL A   1      34.026  30.592  27.297  1.00  0.00     0.202 C 
BRANCH  27  28
ATOM     28  C   UNL A   1      34.635  31.508  28.365  1.00  0.00     0.261 C 
BRANCH  28  29
ATOM     29  O   UNL A   1      36.033  31.321  28.554  1.00  0.00    -0.460 OA
BRANCH  29  30
ATOM     30  C   UNL A   1      36.387  30.535  29.596  1.00  0.00     0.338 C 
ATOM     31  O   UNL A   1      35.975  30.603  30.737  1.00  0.00    -0.246 OA
BRANCH  30  32
ATOM     32  C   UNL A   1      37.312  29.510  29.099  1.00  0.00     0.060 A 
ATOM     33  C   UNL A   1      37.787  28.574  30.021  1.00  0.00     0.016 A 
ATOM     34  C   UNL A   1      37.834  29.609  27.800  1.00  0.00     0.016 A 
ATOM     35  C   UNL A   1      38.949  27.900  29.724  1.00  0.00     0.010 A 
ATOM     36  C   UNL A   1      39.004  28.951  27.511  1.00  0.00     0.010 A 
ATOM     37  C   UNL A   1      39.593  28.189  28.518  1.00  0.00    -0.014 A 
BRANCH  37  38
ATOM     38  C   UNL A   1      40.986  27.817  28.400  1.00  0.00     0.031 A 
ATOM     39  C   UNL A   1      41.255  26.529  27.749  1.00  0.00     0.074 A 
ATOM     40  C   UNL A   1      41.950  28.674  28.788  1.00  0.00     0.049 A 
ATOM     41  N   UNL A   1      41.800  25.481  28.266  1.00  0.00    -0.248 NA
ATOM     42  C   UNL A   1      40.757  26.343  26.380  1.00  0.00     0.031 C 
ATOM     43  C   UNL A   1      41.773  30.089  29.143  1.00  0.00     0.029 A 
ATOM     44  N   UNL A   1      43.299  28.501  28.834  1.00  0.00    -0.354 N 
ATOM     45  C   UNL A   1      41.923  24.577  27.218  1.00  0.00     0.074 A 
ATOM     46  C   UNL A   1      41.096  25.075  26.154  1.00  0.00     0.031 C 
ATOM     47  C   UNL A   1      42.979  30.692  29.161  1.00  0.00     0.029 A 
ATOM     48  C   UNL A   1      44.008  29.687  28.953  1.00  0.00     0.049 A 
ATOM     49  H   UNL A   1      43.731  27.617  28.786  1.00  0.00     0.167 HD
ATOM     50  C   UNL A   1      42.901  23.634  27.222  1.00  0.00     0.034 A 
ATOM     51  C   UNL A   1      45.345  29.855  28.819  1.00  0.00     0.034 A 
ATOM     52  C   UNL A   1      43.438  23.444  28.548  1.00  0.00     0.049 A 
ATOM     53  C   UNL A   1      45.993  28.546  29.064  1.00  0.00     0.074 A 
ATOM     54  C   UNL A   1      42.949  22.952  29.740  1.00  0.00     0.029 A 
ATOM     55  N   UNL A   1      44.593  24.126  28.845  1.00  0.00    -0.354 N 
ATOM     56  N   UNL A   1      45.953  27.924  30.211  1.00  0.00    -0.248 NA
ATOM     57  C   UNL A   1      46.402  27.721  27.935  1.00  0.00     0.031 C 
ATOM     58  C   UNL A   1      43.668  23.629  30.766  1.00  0.00     0.029 A 
ATOM     59  C   UNL A   1      44.583  24.497  30.168  1.00  0.00     0.049 A 
ATOM     60  H   UNL A   1      45.317  24.320  28.206  1.00  0.00     0.167 HD
ATOM     61  C   UNL A   1      45.920  26.581  29.889  1.00  0.00     0.074 A 
ATOM     62  C   UNL A   1      46.366  26.514  28.506  1.00  0.00     0.031 C 
ATOM     63  C   UNL A   1      45.250  25.687  30.673  1.00  0.00     0.034 A 
BRANCH  50  64
ATOM     64  C   UNL A   1      43.624  23.147  25.984  1.00  0.00     0.023 A 
ATOM     65  C   UNL A   1      43.586  21.766  25.718  1.00  0.00     0.031 A 
ATOM     66  C   UNL A   1      44.551  23.893  25.219  1.00  0.00     0.131 A 
ATOM     67  C   UNL A   1      44.473  21.181  24.797  1.00  0.00     0.055 A 
ATOM     68  C   UNL A   1      45.380  23.319  24.253  1.00  0.00     0.041 A 
ATOM     69  F   UNL A   1      44.786  25.194  25.426  1.00  0.00    -0.206 F 
ATOM     70  C   UNL A   1      45.365  21.951  24.055  1.00  0.00     0.022 A 
BRANCH  67  71
ATOM     71  S   UNL A   1      44.565  19.375  24.714  1.00  0.00     0.124 S 
ATOM     72  O   UNL A   1      43.402  18.978  25.498  1.00  0.00    -0.237 OA
ATOM     73  O   UNL A   1      44.487  19.138  23.276  1.00  0.00    -0.237 OA
ATOM     74  O   UNL A   1      45.858  19.074  25.325  1.00  0.00    -0.744 OA
ENDBRANCH  67  71
ENDBRANCH  50  64
BRANCH  51  75
ATOM     75  C   UNL A   1      46.024  31.027  28.214  1.00  0.00     0.023 A 
ATOM     76  C   UNL A   1      45.450  31.767  27.166  1.00  0.00     0.031 A 
ATOM     77  C   UNL A   1      47.178  31.570  28.824  1.00  0.00     0.131 A 
ATOM     78  C   UNL A   1      46.030  32.992  26.766  1.00  0.00     0.055 A 
ATOM     79  C   UNL A   1      47.759  32.769  28.413  1.00  0.00     0.041 A 
ATOM     80  F   UNL A   1      47.736  30.990  29.900  1.00  0.00    -0.206 F 
ATOM     81  C   UNL A   1      47.179  33.493  27.384  1.00  0.00     0.022 A 
BRANCH  78  82
ATOM     82  S   UNL A   1      45.215  34.009  25.498  1.00  0.00     0.124 S 
ATOM     83  O   UNL A   1      44.532  33.006  24.690  1.00  0.00    -0.237 OA
ATOM     84  O   UNL A   1      44.367  34.885  26.300  1.00  0.00    -0.237 OA
ATOM     85  O   UNL A   1      46.331  34.681  24.832  1.00  0.00    -0.744 OA
ENDBRANCH  78  82
ENDBRANCH  51  75
BRANCH  63  86
ATOM     86  C   UNL A   1      45.016  26.059  32.119  1.00  0.00     0.023 A 
ATOM     87  C   UNL A   1      43.819  26.604  32.629  1.00  0.00     0.031 A 
ATOM     88  C   UNL A   1      46.043  25.760  33.035  1.00  0.00     0.131 A 
ATOM     89  C   UNL A   1      43.687  26.839  34.012  1.00  0.00     0.055 A 
ATOM     90  C   UNL A   1      45.903  25.977  34.404  1.00  0.00     0.041 A 
ATOM     91  F   UNL A   1      47.196  25.217  32.610  1.00  0.00    -0.206 F 
ATOM     92  C   UNL A   1      44.724  26.523  34.898  1.00  0.00     0.022 A 
BRANCH  89  93
ATOM     93  S   UNL A   1      42.159  27.566  34.683  1.00  0.00     0.124 S 
ATOM     94  O   UNL A   1      41.801  28.577  33.696  1.00  0.00    -0.237 OA
ATOM     95  O   UNL A   1      41.271  26.409  34.766  1.00  0.00    -0.237 OA
ATOM     96  O   UNL A   1      42.577  28.103  35.979  1.00  0.00    -0.744 OA
ENDBRANCH  89  93
ENDBRANCH  63  86
ENDBRANCH  37  38
ENDBRANCH  30  32
ENDBRANCH  29  30
ENDBRANCH  28  29
ENDBRANCH  27  28
ENDBRANCH  26  27
ENDBRANCH   1  26
TORSDOF 22
ENDMDL
MODEL 2
REMARK VINA RESULT:     -11.0      1.367      2.195
REMARK SMILES Cn1c(C(=O)N2CCC[C@@H](C(=O)OCCOCCOCCOC(=O)c3ccc(-c4c5nc(c(-c6cc(S(=O)(=O)[O-])ccc6F)c6ccc([nH]6)c(-c6cc(S(=O)(=O)[O-])ccc6F)c6nc(c(-c7cc(S(=O)(=O)[O-])ccc7F)c7ccc4[nH]7)C=C6)C=C5)cc3)C2)cc2sccc21
REMARK SMILES IDX 18 1 17 2 16 3 15 4 14 5 13 6 11 7 12 8 10 9 6 10 7 11 88 12
REMARK SMILES IDX 8 13 9 14 4 15 5 16 3 17 1 18 2 19 94 20 89 21 90 22 93 23
REMARK SMILES IDX 91 24 92 25 19 26 20 27 21 28 22 29 23 30 24 31 25 32 26 33
REMARK SMILES IDX 87 34 27 35 86 36 28 37 29 38 30 39 80 40 31 41 85 42 79 43
REMARK SMILES IDX 81 44 32 45 84 46 78 47 77 48 33 50 65 51 45 52 64 53 46 54
REMARK SMILES IDX 49 55 63 56 82 57 47 58 48 59 62 61 83 62 50 63 34 64 35 65
REMARK SMILES IDX 43 66 36 67 42 68 44 69 41 70 37 71 38 72 39 73 40 74 66 75
REMARK SMILES IDX 67 76 75 77 68 78 74 79 76 80 73 81 69 82 70 83 71 84 72 85
REMARK SMILES IDX 51 86 52 87 60 88 53 89 59 90 61 91 58 92 54 93 55 94 56 95
REMARK SMILES IDX 57 96
REMARK H PARENT 81 49 49 60
REMARK Flexibility Score: inf
ROOT
ATOM      1  C   UNL A   1      34.666  33.700  28.057  1.00  0.00     0.188 C 
ENDROOT
BRANCH   1   2
ATOM      2  C   UNL A   1      33.647  32.548  27.963  1.00  0.00     0.188 C 
BRANCH   2   3
ATOM      3  O   UNL A   1      34.092  31.272  27.524  1.00  0.00    -0.376 OA
BRANCH   3   4
ATOM      4  C   UNL A   1      33.102  30.302  27.187  1.00  0.00     0.202 C 
BRANCH   4   5
ATOM      5  C   UNL A   1      32.138  30.612  26.025  1.00  0.00     0.261 C 
BRANCH   5   6
ATOM      6  O   UNL A   1      31.549  29.450  25.393  1.00  0.00    -0.463 OA
BRANCH   6   7
ATOM      7  C   UNL A   1      32.276  28.845  24.421  1.00  0.00     0.310 C 
ATOM      8  O   UNL A   1      33.316  29.298  23.955  1.00  0.00    -0.252 OA
BRANCH   7   9
ATOM      9  C   UNL A   1      31.739  27.488  23.989  1.00  0.00     0.119 C 
ATOM     10  N   UNL A   1      32.222  25.063  24.092  1.00  0.00    -0.337 N 
ATOM     11  C   UNL A   1      30.847  24.732  24.433  1.00  0.00     0.120 C 
ATOM     12  C   UNL A   1      32.690  26.389  24.496  1.00  0.00     0.135 C 
ATOM     13  C   UNL A   1      29.874  25.771  23.892  1.00  0.00     0.022 C 
ATOM     14  C   UNL A   1      30.267  27.190  24.321  1.00  0.00     0.019 C 
BRANCH  10  15
ATOM     15  C   UNL A   1      32.951  24.193  23.287  1.00  0.00     0.270 C 
ATOM     16  O   UNL A   1      33.564  24.614  22.305  1.00  0.00    -0.267 OA
BRANCH  15  17
ATOM     17  C   UNL A   1      32.865  22.767  23.588  1.00  0.00     0.108 A 
ATOM     18  C   UNL A   1      34.503  22.727  25.527  1.00  0.00     0.150 C 
ATOM     19  N   UNL A   1      33.624  22.127  24.553  1.00  0.00    -0.339 N 
ATOM     20  C   UNL A   1      33.495  20.763  24.398  1.00  0.00     0.059 A 
ATOM     21  C   UNL A   1      32.162  21.786  22.895  1.00  0.00     0.053 A 
ATOM     22  C   UNL A   1      32.588  20.532  23.411  1.00  0.00     0.053 A 
ATOM     23  C   UNL A   1      34.048  19.574  24.953  1.00  0.00     0.038 A 
ATOM     24  S   UNL A   1      32.335  18.843  23.125  1.00  0.00    -0.142 S 
ATOM     25  C   UNL A   1      33.511  18.470  24.324  1.00  0.00     0.068 A 
ENDBRANCH  15  17
ENDBRANCH  10  15
ENDBRANCH   7   9
ENDBRANCH   6   7
ENDBRANCH   5   6
ENDBRANCH   4   5
ENDBRANCH   3   4
ENDBRANCH   2   3
ENDBRANCH   1   2
BRANCH   1  26
ATOM     26  O   UNL A   1      34.905  34.175  29.374  1.00  0.00    -0.376 OA
BRANCH  26  27
ATOM     27  C   UNL A   1      34.967  33.206  30.417  1.00  0.00     0.202 C 
BRANCH  27  28
ATOM     28  C   UNL A   1      36.341  32.551  30.594  1.00  0.00     0.261 C 
BRANCH  28  29
ATOM     29  O   UNL A   1      36.488  31.324  29.888  1.00  0.00    -0.460 OA
BRANCH  29  30
ATOM     30  C   UNL A   1      36.561  30.210  30.651  1.00  0.00     0.338 C 
ATOM     31  O   UNL A   1      35.948  29.982  31.674  1.00  0.00    -0.246 OA
BRANCH  30  32
ATOM     32  C   UNL A   1      37.464  29.262  29.986  1.00  0.00     0.060 A 
ATOM     33  C   UNL A   1      38.021  28.250  30.772  1.00  0.00     0.016 A 
ATOM     34  C   UNL A   1      37.887  29.503  28.670  1.00  0.00     0.016 A 
ATOM     35  C   UNL A   1      39.169  27.637  30.324  1.00  0.00     0.010 A 
ATOM     36  C   UNL A   1      39.042  28.905  28.232  1.00  0.00     0.010 A 
ATOM     37  C   UNL A   1      39.717  28.060  29.111  1.00  0.00    -0.014 A 
BRANCH  37  38
ATOM     38  C   UNL A   1      41.102  27.735  28.855  1.00  0.00     0.031 A 
ATOM     39  C   UNL A   1      41.348  26.470  28.152  1.00  0.00     0.074 A 
ATOM     40  C   UNL A   1      42.073  28.613  29.173  1.00  0.00     0.049 A 
ATOM     41  N   UNL A   1      41.969  25.429  28.591  1.00  0.00    -0.248 NA
ATOM     42  C   UNL A   1      40.730  26.298  26.831  1.00  0.00     0.031 C 
ATOM     43  C   UNL A   1      41.889  30.014  29.576  1.00  0.00     0.029 A 
ATOM     44  N   UNL A   1      43.425  28.483  29.089  1.00  0.00    -0.354 N 
ATOM     45  C   UNL A   1      42.021  24.552  27.515  1.00  0.00     0.074 A 
ATOM     46  C   UNL A   1      41.083  25.046  26.545  1.00  0.00     0.031 C 
ATOM     47  C   UNL A   1      43.072  30.655  29.497  1.00  0.00     0.029 A 
ATOM     48  C   UNL A   1      44.106  29.688  29.170  1.00  0.00     0.049 A 
ATOM     49  H   UNL A   1      43.877  27.614  28.981  1.00  0.00     0.167 HD
ATOM     50  C   UNL A   1      43.022  23.641  27.406  1.00  0.00     0.034 A 
ATOM     51  C   UNL A   1      45.420  29.901  28.917  1.00  0.00     0.034 A 
ATOM     52  C   UNL A   1      43.686  23.440  28.671  1.00  0.00     0.049 A 
ATOM     53  C   UNL A   1      46.126  28.608  29.070  1.00  0.00     0.074 A 
ATOM     54  C   UNL A   1      43.325  22.907  29.892  1.00  0.00     0.029 A 
ATOM     55  N   UNL A   1      44.843  24.152  28.876  1.00  0.00    -0.354 N 
ATOM     56  N   UNL A   1      46.212  27.961  30.200  1.00  0.00    -0.248 NA
ATOM     57  C   UNL A   1      46.452  27.820  27.888  1.00  0.00     0.031 C 
ATOM     58  C   UNL A   1      44.117  23.585  30.863  1.00  0.00     0.029 A 
ATOM     59  C   UNL A   1      44.946  24.494  30.202  1.00  0.00     0.049 A 
ATOM     60  H   UNL A   1      45.499  24.382  28.178  1.00  0.00     0.167 HD
ATOM     61  C   UNL A   1      46.188  26.624  29.851  1.00  0.00     0.074 A 
ATOM     62  C   UNL A   1      46.505  26.601  28.431  1.00  0.00     0.031 C 
ATOM     63  C   UNL A   1      45.622  25.694  30.672  1.00  0.00     0.034 A 
BRANCH  50  64
ATOM     64  C   UNL A   1      43.640  23.202  26.095  1.00  0.00     0.023 A 
ATOM     65  C   UNL A   1      43.541  21.839  25.759  1.00  0.00     0.031 A 
ATOM     66  C   UNL A   1      44.534  23.964  25.306  1.00  0.00     0.131 A 
ATOM     67  C   UNL A   1      44.342  21.283  24.747  1.00  0.00     0.055 A 
ATOM     68  C   UNL A   1      45.275  23.421  24.253  1.00  0.00     0.041 A 
ATOM     69  F   UNL A   1      44.823  25.244  25.563  1.00  0.00    -0.206 F 
ATOM     70  C   UNL A   1      45.202  22.067  23.985  1.00  0.00     0.022 A 
BRANCH  67  71
ATOM     71  S   UNL A   1      44.371  19.482  24.562  1.00  0.00     0.124 S 
ATOM     72  O   UNL A   1      43.022  19.115  24.978  1.00  0.00    -0.237 OA
ATOM     73  O   UNL A   1      44.673  19.332  23.142  1.00  0.00    -0.237 OA
ATOM     74  O   UNL A   1      45.436  19.066  25.472  1.00  0.00    -0.744 OA
ENDBRANCH  67  71
ENDBRANCH  50  64
BRANCH  51  75
ATOM     75  C   UNL A   1      46.004  31.106  28.279  1.00  0.00     0.023 A 
ATOM     76  C   UNL A   1      45.395  31.746  27.186  1.00  0.00     0.031 A 
ATOM     77  C   UNL A   1      47.084  31.779  28.895  1.00  0.00     0.131 A 
ATOM     78  C   UNL A   1      45.870  33.003  26.749  1.00  0.00     0.055 A 
ATOM     79  C   UNL A   1      47.563  33.011  28.448  1.00  0.00     0.041 A 
ATOM     80  F   UNL A   1      47.662  31.299  30.008  1.00  0.00    -0.206 F 
ATOM     81  C   UNL A   1      46.949  33.634  27.374  1.00  0.00     0.022 A 
BRANCH  78  82
ATOM     82  S   UNL A   1      45.002  33.887  25.419  1.00  0.00     0.124 S 
ATOM     83  O   UNL A   1      46.104  34.496  24.683  1.00  0.00    -0.237 OA
ATOM     84  O   UNL A   1      44.287  32.808  24.743  1.00  0.00    -0.237 OA
ATOM     85  O   UNL A   1      44.146  34.830  26.139  1.00  0.00    -0.744 OA
ENDBRANCH  78  82
ENDBRANCH  51  75
BRANCH  63  86
ATOM     86  C   UNL A   1      45.513  26.028  32.142  1.00  0.00     0.023 A 
ATOM     87  C   UNL A   1      44.368  26.570  32.765  1.00  0.00     0.031 A 
ATOM     88  C   UNL A   1      46.609  25.695  32.960  1.00  0.00     0.131 A 
ATOM     89  C   UNL A   1      44.355  26.767  34.159  1.00  0.00     0.055 A 
ATOM     90  C   UNL A   1      46.586  25.875  34.342  1.00  0.00     0.041 A 
ATOM     91  F   UNL A   1      47.716  25.153  32.426  1.00  0.00    -0.206 F 
ATOM     92  C   UNL A   1      45.458  26.418  34.947  1.00  0.00     0.022 A 
BRANCH  89  93
ATOM     93  S   UNL A   1      42.896  27.490  34.975  1.00  0.00     0.124 S 
ATOM     94  O   UNL A   1      42.686  28.738  34.253  1.00  0.00    -0.237 OA
ATOM     95  O   UNL A   1      41.882  26.456  34.777  1.00  0.00    -0.237 OA
ATOM     96  O   UNL A   1      43.329  27.656  36.363  1.00  0.00    -0.744 OA
ENDBRANCH  89  93
ENDBRANCH  63  86
ENDBRANCH  37  38
ENDBRANCH  30  32
ENDBRANCH  29  30
ENDBRANCH  28  29
ENDBRANCH  27  28
ENDBRANCH  26  27
ENDBRANCH   1  26
TORSDOF 22
ENDMDL
MODEL 3
REMARK VINA RESULT:     -10.6      1.668      2.092
REMARK SMILES Cn1c(C(=O)N2CCC[C@@H](C(=O)OCCOCCOCCOC(=O)c3ccc(-c4c5nc(c(-c6cc(S(=O)(=O)[O-])ccc6F)c6ccc([nH]6)c(-c6cc(S(=O)(=O)[O-])ccc6F)c6nc(c(-c7cc(S(=O)(=O)[O-])ccc7F)c7ccc4[nH]7)C=C6)C=C5)cc3)C2)cc2sccc21
REMARK SMILES IDX 18 1 17 2 16 3 15 4 14 5 13 6 11 7 12 8 10 9 6 10 7 11 88 12
REMARK SMILES IDX 8 13 9 14 4 15 5 16 3 17 1 18 2 19 94 20 89 21 90 22 93 23
REMARK SMILES IDX 91 24 92 25 19 26 20 27 21 28 22 29 23 30 24 31 25 32 26 33
REMARK SMILES IDX 87 34 27 35 86 36 28 37 29 38 30 39 80 40 31 41 85 42 79 43
REMARK SMILES IDX 81 44 32 45 84 46 78 47 77 48 33 50 65 51 45 52 64 53 46 54
REMARK SMILES IDX 49 55 63 56 82 57 47 58 48 59 62 61 83 62 50 63 34 64 35 65
REMARK SMILES IDX 43 66 36 67 42 68 44 69 41 70 37 71 38 72 39 73 40 74 66 75
REMARK SMILES IDX 67 76 75 77 68 78 74 79 76 80 73 81 69 82 70 83 71 84 72 85
REMARK SMILES IDX 51 86 52 87 60 88 53 89 59 90 61 91 58 92 54 93 55 94 56 95
REMARK SMILES IDX 57 96
REMARK H PARENT 81 49 49 60
REMARK Flexibility Score: inf
ROOT
ATOM      1  C   UNL A   1      33.546  28.426  26.985  1.00  0.00     0.188 C 
ENDROOT
BRANCH   1   2
ATOM      2  C   UNL A   1      32.134  28.994  26.740  1.00  0.00     0.188 C 
BRANCH   2   3
ATOM      3  O   UNL A   1      31.297  28.361  25.783  1.00  0.00    -0.376 OA
BRANCH   3   4
ATOM      4  C   UNL A   1      31.223  28.937  24.480  1.00  0.00     0.202 C 
BRANCH   4   5
ATOM      5  C   UNL A   1      32.460  28.840  23.564  1.00  0.00     0.261 C 
BRANCH   5   6
ATOM      6  O   UNL A   1      33.275  27.661  23.763  1.00  0.00    -0.463 OA
BRANCH   6   7
ATOM      7  C   UNL A   1      33.560  26.918  22.664  1.00  0.00     0.310 C 
ATOM      8  O   UNL A   1      33.974  27.383  21.607  1.00  0.00    -0.252 OA
BRANCH   7   9
ATOM      9  C   UNL A   1      33.401  25.417  22.862  1.00  0.00     0.119 C 
ATOM     10  N   UNL A   1      32.197  23.735  24.220  1.00  0.00    -0.337 N 
ATOM     11  C   UNL A   1      31.880  22.920  23.057  1.00  0.00     0.120 C 
ATOM     12  C   UNL A   1      32.374  25.167  23.981  1.00  0.00     0.135 C 
ATOM     13  C   UNL A   1      32.913  23.100  21.953  1.00  0.00     0.022 C 
ATOM     14  C   UNL A   1      33.116  24.580  21.604  1.00  0.00     0.019 C 
BRANCH  10  15
ATOM     15  C   UNL A   1      32.464  23.111  25.434  1.00  0.00     0.270 C 
ATOM     16  O   UNL A   1      32.436  23.751  26.486  1.00  0.00    -0.267 OA
BRANCH  15  17
ATOM     17  C   UNL A   1      32.881  21.712  25.394  1.00  0.00     0.108 A 
ATOM     18  C   UNL A   1      35.366  22.107  25.059  1.00  0.00     0.150 C 
ATOM     19  N   UNL A   1      34.179  21.292  25.157  1.00  0.00    -0.339 N 
ATOM     20  C   UNL A   1      34.179  19.934  24.923  1.00  0.00     0.059 A 
ATOM     21  C   UNL A   1      32.077  20.577  25.423  1.00  0.00     0.053 A 
ATOM     22  C   UNL A   1      32.913  19.471  25.106  1.00  0.00     0.053 A 
ATOM     23  C   UNL A   1      35.104  18.923  24.534  1.00  0.00     0.038 A 
ATOM     24  S   UNL A   1      32.787  17.765  24.844  1.00  0.00    -0.142 S 
ATOM     25  C   UNL A   1      34.457  17.709  24.436  1.00  0.00     0.068 A 
ENDBRANCH  15  17
ENDBRANCH  10  15
ENDBRANCH   7   9
ENDBRANCH   6   7
ENDBRANCH   5   6
ENDBRANCH   4   5
ENDBRANCH   3   4
ENDBRANCH   2   3
ENDBRANCH   1   2
BRANCH   1  26
ATOM     26  O   UNL A   1      34.402  29.270  27.741  1.00  0.00    -0.376 OA
BRANCH  26  27
ATOM     27  C   UNL A   1      34.218  30.677  27.607  1.00  0.00     0.202 C 
BRANCH  27  28
ATOM     28  C   UNL A   1      34.940  31.515  28.668  1.00  0.00     0.261 C 
BRANCH  28  29
ATOM     29  O   UNL A   1      36.345  31.300  28.713  1.00  0.00    -0.460 OA
BRANCH  29  30
ATOM     30  C   UNL A   1      36.790  30.516  29.720  1.00  0.00     0.338 C 
ATOM     31  O   UNL A   1      36.493  30.596  30.895  1.00  0.00    -0.246 OA
BRANCH  30  32
ATOM     32  C   UNL A   1      37.650  29.477  29.142  1.00  0.00     0.060 A 
ATOM     33  C   UNL A   1      38.110  28.475  30.000  1.00  0.00     0.016 A 
ATOM     34  C   UNL A   1      38.135  29.618  27.832  1.00  0.00     0.016 A 
ATOM     35  C   UNL A   1      39.229  27.764  29.630  1.00  0.00     0.010 A 
ATOM     36  C   UNL A   1      39.262  28.923  27.471  1.00  0.00     0.010 A 
ATOM     37  C   UNL A   1      39.847  28.084  28.419  1.00  0.00    -0.014 A 
BRANCH  37  38
ATOM     38  C   UNL A   1      41.216  27.656  28.235  1.00  0.00     0.031 A 
ATOM     39  C   UNL A   1      41.400  26.337  27.618  1.00  0.00     0.074 A 
ATOM     40  C   UNL A   1      42.231  28.488  28.535  1.00  0.00     0.049 A 
ATOM     41  N   UNL A   1      41.936  25.287  28.140  1.00  0.00    -0.248 NA
ATOM     42  C   UNL A   1      40.817  26.123  26.287  1.00  0.00     0.031 C 
ATOM     43  C   UNL A   1      42.126  29.920  28.848  1.00  0.00     0.029 A 
ATOM     44  N   UNL A   1      43.574  28.266  28.511  1.00  0.00    -0.354 N 
ATOM     45  C   UNL A   1      41.965  24.344  27.121  1.00  0.00     0.074 A 
ATOM     46  C   UNL A   1      41.096  24.836  26.089  1.00  0.00     0.031 C 
ATOM     47  C   UNL A   1      43.352  30.478  28.775  1.00  0.00     0.029 A 
ATOM     48  C   UNL A   1      44.330  29.428  28.545  1.00  0.00     0.049 A 
ATOM     49  H   UNL A   1      43.970  27.366  28.471  1.00  0.00     0.167 HD
ATOM     50  C   UNL A   1      42.907  23.365  27.104  1.00  0.00     0.034 A 
ATOM     51  C   UNL A   1      45.663  29.540  28.329  1.00  0.00     0.034 A 
ATOM     52  C   UNL A   1      43.513  23.201  28.403  1.00  0.00     0.049 A 
ATOM     53  C   UNL A   1      46.276  28.217  28.585  1.00  0.00     0.074 A 
ATOM     54  C   UNL A   1      43.078  22.769  29.638  1.00  0.00     0.029 A 
ATOM     55  N   UNL A   1      44.708  23.848  28.608  1.00  0.00    -0.354 N 
ATOM     56  N   UNL A   1      46.282  27.637  29.754  1.00  0.00    -0.248 NA
ATOM     57  C   UNL A   1      46.589  27.339  27.465  1.00  0.00     0.031 C 
ATOM     58  C   UNL A   1      43.880  23.453  30.596  1.00  0.00     0.029 A 
ATOM     59  C   UNL A   1      44.789  24.265  29.915  1.00  0.00     0.049 A 
ATOM     60  H   UNL A   1      45.400  23.993  27.922  1.00  0.00     0.167 HD
ATOM     61  C   UNL A   1      46.181  26.285  29.484  1.00  0.00     0.074 A 
ATOM     62  C   UNL A   1      46.542  26.154  28.081  1.00  0.00     0.031 C 
ATOM     63  C   UNL A   1      45.526  25.445  30.337  1.00  0.00     0.034 A 
BRANCH  50  64
ATOM     64  C   UNL A   1      43.538  22.809  25.845  1.00  0.00     0.023 A 
ATOM     65  C   UNL A   1      43.678  21.411  25.758  1.00  0.00     0.031 A 
ATOM     66  C   UNL A   1      44.242  23.556  24.871  1.00  0.00     0.131 A 
ATOM     67  C   UNL A   1      44.523  20.826  24.800  1.00  0.00     0.055 A 
ATOM     68  C   UNL A   1      45.024  22.966  23.875  1.00  0.00     0.041 A 
ATOM     69  F   UNL A   1      44.301  24.892  24.881  1.00  0.00    -0.206 F 
ATOM     70  C   UNL A   1      45.191  21.594  23.851  1.00  0.00     0.022 A 
BRANCH  67  71
ATOM     71  S   UNL A   1      44.875  19.054  24.926  1.00  0.00     0.124 S 
ATOM     72  O   UNL A   1      44.980  18.667  23.524  1.00  0.00    -0.237 OA
ATOM     73  O   UNL A   1      46.117  19.050  25.693  1.00  0.00    -0.237 OA
ATOM     74  O   UNL A   1      43.708  18.527  25.630  1.00  0.00    -0.744 OA
ENDBRANCH  67  71
ENDBRANCH  50  64
BRANCH  51  75
ATOM     75  C   UNL A   1      46.346  30.664  27.644  1.00  0.00     0.023 A 
ATOM     76  C   UNL A   1      45.638  31.672  26.966  1.00  0.00     0.031 A 
ATOM     77  C   UNL A   1      47.731  30.874  27.838  1.00  0.00     0.131 A 
ATOM     78  C   UNL A   1      46.313  32.827  26.513  1.00  0.00     0.055 A 
ATOM     79  C   UNL A   1      48.398  32.007  27.370  1.00  0.00     0.041 A 
ATOM     80  F   UNL A   1      48.471  30.020  28.562  1.00  0.00    -0.206 F 
ATOM     81  C   UNL A   1      47.686  32.996  26.711  1.00  0.00     0.022 A 
BRANCH  78  82
ATOM     82  S   UNL A   1      45.374  34.185  25.752  1.00  0.00     0.124 S 
ATOM     83  O   UNL A   1      46.423  35.152  25.446  1.00  0.00    -0.237 OA
ATOM     84  O   UNL A   1      44.745  33.527  24.611  1.00  0.00    -0.237 OA
ATOM     85  O   UNL A   1      44.449  34.593  26.809  1.00  0.00    -0.744 OA
ENDBRANCH  78  82
ENDBRANCH  51  75
BRANCH  63  86
ATOM     86  C   UNL A   1      45.391  25.875  31.780  1.00  0.00     0.023 A 
ATOM     87  C   UNL A   1      46.369  25.672  32.777  1.00  0.00     0.031 A 
ATOM     88  C   UNL A   1      44.240  26.604  32.130  1.00  0.00     0.131 A 
ATOM     89  C   UNL A   1      46.167  26.186  34.073  1.00  0.00     0.055 A 
ATOM     90  C   UNL A   1      44.051  27.127  33.408  1.00  0.00     0.041 A 
ATOM     91  F   UNL A   1      43.287  26.850  31.215  1.00  0.00    -0.206 F 
ATOM     92  C   UNL A   1      45.013  26.915  34.388  1.00  0.00     0.022 A 
BRANCH  89  93
ATOM     93  S   UNL A   1      47.406  25.911  35.379  1.00  0.00     0.124 S 
ATOM     94  O   UNL A   1      48.328  27.028  35.213  1.00  0.00    -0.237 OA
ATOM     95  O   UNL A   1      46.592  25.926  36.592  1.00  0.00    -0.237 OA
ATOM     96  O   UNL A   1      47.970  24.603  35.043  1.00  0.00    -0.744 OA
ENDBRANCH  89  93
ENDBRANCH  63  86
ENDBRANCH  37  38
ENDBRANCH  30  32
ENDBRANCH  29  30
ENDBRANCH  28  29
ENDBRANCH  27  28
ENDBRANCH  26  27
ENDBRANCH   1  26
TORSDOF 22
ENDMDL
