MODEL 1
REMARK VINA RESULT:     -10.4      0.000      0.000
REMARK SMILES Cc1c(C#N)c2ccccc2n1CC(=O)N1CC[C@H](O)C[C@@H]1C(=O)OCCOCCOCCOC(=O)c1ccc(-c2c3nc(c(-c4cc(S(=O)(=O)[O-])ccc4F)c4ccc([nH]4)c(-c4cc(S(=O)(=O)[O-])ccc4F)c4nc(c(-c5cc(S(=O)(=O)[O-])ccc5F)c5ccc2[nH]5)C=C4)C=C3)cc1
REMARK SMILES IDX 29 1 28 2 27 3 26 4 25 5 23 6 24 7 22 8 16 9 17 10 18 11
REMARK SMILES IDX 21 12 19 13 14 14 15 15 13 16 12 17 1 18 2 19 3 20 6 21
REMARK SMILES IDX 11 22 7 23 10 24 8 25 9 26 4 27 5 28 20 29 30 31 31 32 32 33
REMARK SMILES IDX 33 34 34 35 35 36 36 37 37 38 38 39 99 40 39 41 98 42 40 43
REMARK SMILES IDX 41 44 42 45 92 46 43 47 97 48 91 49 93 50 44 51 96 52 90 53
REMARK SMILES IDX 89 54 45 56 77 57 57 58 76 59 58 60 61 61 75 62 94 63 59 64
REMARK SMILES IDX 60 65 74 67 95 68 62 69 46 70 47 71 55 72 48 73 54 74 56 75
REMARK SMILES IDX 53 76 49 77 50 78 51 79 52 80 78 81 79 82 87 83 80 84 86 85
REMARK SMILES IDX 88 86 85 87 81 88 82 89 83 90 84 91 63 92 64 93 72 94 65 95
REMARK SMILES IDX 71 96 73 97 70 98 66 99 67 100 68 101 69 102
REMARK H PARENT 20 30 93 55 61 66
REMARK Flexibility Score: inf
ROOT
ATOM      1  C   UNL A   1      32.934  29.039  26.242  1.00  0.00     0.188 C 
ENDROOT
BRANCH   1   2
ATOM      2  O   UNL A   1      33.233  28.676  24.922  1.00  0.00    -0.376 OA
BRANCH   2   3
ATOM      3  C   UNL A   1      33.655  27.367  24.597  1.00  0.00     0.202 C 
BRANCH   3   4
ATOM      4  C   UNL A   1      34.427  26.386  25.506  1.00  0.00     0.261 C 
BRANCH   4   5
ATOM      5  O   UNL A   1      33.697  25.463  26.356  1.00  0.00    -0.462 OA
BRANCH   5   6
ATOM      6  C   UNL A   1      34.214  24.207  26.288  1.00  0.00     0.329 C 
ATOM      7  O   UNL A   1      34.008  23.433  27.214  1.00  0.00    -0.250 OA
BRANCH   6   8
ATOM      8  C   UNL A   1      35.021  23.805  25.018  1.00  0.00     0.197 C 
ATOM      9  N   UNL A   1      34.311  22.750  24.340  1.00  0.00    -0.327 N 
ATOM     10  C   UNL A   1      34.778  21.431  24.727  1.00  0.00     0.123 C 
ATOM     11  C   UNL A   1      36.241  21.250  24.342  1.00  0.00     0.053 C 
ATOM     12  C   UNL A   1      36.543  23.679  24.852  1.00  0.00     0.069 C 
ATOM     13  C   UNL A   1      37.099  22.285  25.048  1.00  0.00     0.118 C 
BRANCH   9  14
ATOM     14  C   UNL A   1      33.975  23.021  23.014  1.00  0.00     0.243 C 
ATOM     15  O   UNL A   1      34.833  23.279  22.174  1.00  0.00    -0.273 OA
BRANCH  14  16
ATOM     16  C   UNL A   1      32.499  23.118  22.703  1.00  0.00     0.222 C 
BRANCH  16  17
ATOM     17  N   UNL A   1      31.970  24.376  23.183  1.00  0.00    -0.334 N 
ATOM     18  C   UNL A   1      32.410  25.588  21.002  1.00  0.00     0.066 C 
ATOM     19  C   UNL A   1      31.825  25.495  22.383  1.00  0.00     0.034 A 
ATOM     20  C   UNL A   1      30.935  26.330  23.036  1.00  0.00     0.080 A 
ATOM     21  C   UNL A   1      30.540  25.704  24.259  1.00  0.00     0.018 A 
ATOM     22  C   UNL A   1      31.225  24.491  24.345  1.00  0.00     0.050 A 
ATOM     23  C   UNL A   1      29.596  26.011  25.263  1.00  0.00     0.012 A 
ATOM     24  C   UNL A   1      31.005  23.576  25.392  1.00  0.00     0.027 A 
ATOM     25  C   UNL A   1      29.365  25.102  26.304  1.00  0.00     0.001 A 
ATOM     26  C   UNL A   1      30.062  23.902  26.366  1.00  0.00     0.002 A 
BRANCH  20  27
ATOM     27  C   UNL A   1      30.390  27.542  22.488  1.00  0.00     0.102 C 
ATOM     28  N   UNL A   1      29.972  28.500  22.007  1.00  0.00    -0.192 NA
ENDBRANCH  20  27
ENDBRANCH  16  17
ENDBRANCH  14  16
ENDBRANCH   9  14
BRANCH  13  29
ATOM     29  O   UNL A   1      37.220  21.950  26.426  1.00  0.00    -0.393 OA
ATOM     30  H   UNL A   1      38.090  22.227  26.751  1.00  0.00     0.210 HD
ENDBRANCH  13  29
ENDBRANCH   6   8
ENDBRANCH   5   6
ENDBRANCH   4   5
ENDBRANCH   3   4
ENDBRANCH   2   3
ENDBRANCH   1   2
BRANCH   1  31
ATOM     31  C   UNL A   1      33.007  30.519  26.591  1.00  0.00     0.188 C 
BRANCH  31  32
ATOM     32  O   UNL A   1      31.846  31.283  26.781  1.00  0.00    -0.376 OA
BRANCH  32  33
ATOM     33  C   UNL A   1      32.091  32.599  27.253  1.00  0.00     0.202 C 
BRANCH  33  34
ATOM     34  C   UNL A   1      33.507  33.028  27.756  1.00  0.00     0.261 C 
BRANCH  34  35
ATOM     35  O   UNL A   1      34.034  32.348  28.934  1.00  0.00    -0.460 OA
BRANCH  35  36
ATOM     36  C   UNL A   1      35.254  32.756  29.425  1.00  0.00     0.338 C 
ATOM     37  O   UNL A   1      35.403  33.560  30.332  1.00  0.00    -0.246 OA
BRANCH  36  38
ATOM     38  C   UNL A   1      36.339  31.778  28.986  1.00  0.00     0.060 A 
ATOM     39  C   UNL A   1      36.109  30.421  28.714  1.00  0.00     0.016 A 
ATOM     40  C   UNL A   1      37.659  32.168  29.246  1.00  0.00     0.016 A 
ATOM     41  C   UNL A   1      37.145  29.454  28.897  1.00  0.00     0.010 A 
ATOM     42  C   UNL A   1      38.670  31.201  29.431  1.00  0.00     0.010 A 
ATOM     43  C   UNL A   1      38.422  29.818  29.365  1.00  0.00    -0.014 A 
BRANCH  43  44
ATOM     44  C   UNL A   1      39.636  28.931  29.362  1.00  0.00     0.031 A 
ATOM     45  C   UNL A   1      40.108  28.737  30.738  1.00  0.00     0.074 A 
ATOM     46  C   UNL A   1      40.412  28.307  28.429  1.00  0.00     0.049 A 
ATOM     47  N   UNL A   1      41.154  29.344  31.194  1.00  0.00    -0.248 NA
ATOM     48  C   UNL A   1      39.285  28.078  31.742  1.00  0.00     0.031 C 
ATOM     49  C   UNL A   1      40.688  28.679  27.066  1.00  0.00     0.029 A 
ATOM     50  N   UNL A   1      41.220  27.173  28.542  1.00  0.00    -0.354 N 
ATOM     51  C   UNL A   1      41.264  28.949  32.510  1.00  0.00     0.074 A 
ATOM     52  C   UNL A   1      39.996  28.345  32.840  1.00  0.00     0.031 C 
ATOM     53  C   UNL A   1      41.373  27.731  26.400  1.00  0.00     0.029 A 
ATOM     54  C   UNL A   1      41.597  26.606  27.292  1.00  0.00     0.049 A 
ATOM     55  H   UNL A   1      41.503  26.799  29.407  1.00  0.00     0.167 HD
ATOM     56  C   UNL A   1      42.481  28.942  33.115  1.00  0.00     0.034 A 
ATOM     57  C   UNL A   1      42.589  25.740  26.921  1.00  0.00     0.034 A 
ATOM     58  C   UNL A   1      43.448  29.709  32.363  1.00  0.00     0.049 A 
ATOM     59  C   UNL A   1      43.767  26.110  27.740  1.00  0.00     0.074 A 
ATOM     60  C   UNL A   1      43.596  31.036  32.015  1.00  0.00     0.029 A 
ATOM     61  N   UNL A   1      44.297  29.012  31.537  1.00  0.00    -0.354 N 
ATOM     62  N   UNL A   1      44.429  27.221  27.560  1.00  0.00    -0.248 NA
ATOM     63  C   UNL A   1      43.812  25.535  29.078  1.00  0.00     0.031 C 
ATOM     64  C   UNL A   1      44.168  31.024  30.711  1.00  0.00     0.029 A 
ATOM     65  C   UNL A   1      44.419  29.699  30.359  1.00  0.00     0.049 A 
ATOM     66  H   UNL A   1      44.743  28.163  31.755  1.00  0.00     0.167 HD
ATOM     67  C   UNL A   1      44.547  27.741  28.841  1.00  0.00     0.074 A 
ATOM     68  C   UNL A   1      44.158  26.645  29.734  1.00  0.00     0.031 C 
ATOM     69  C   UNL A   1      44.691  29.077  29.082  1.00  0.00     0.034 A 
BRANCH  56  70
ATOM     70  C   UNL A   1      42.876  27.916  34.145  1.00  0.00     0.023 A 
ATOM     71  C   UNL A   1      43.287  26.610  33.824  1.00  0.00     0.031 A 
ATOM     72  C   UNL A   1      43.070  28.313  35.482  1.00  0.00     0.131 A 
ATOM     73  C   UNL A   1      43.863  25.767  34.780  1.00  0.00     0.055 A 
ATOM     74  C   UNL A   1      43.709  27.498  36.421  1.00  0.00     0.041 A 
ATOM     75  F   UNL A   1      42.707  29.534  35.903  1.00  0.00    -0.206 F 
ATOM     76  C   UNL A   1      44.113  26.217  36.071  1.00  0.00     0.022 A 
BRANCH  73  77
ATOM     77  S   UNL A   1      44.314  24.063  34.355  1.00  0.00     0.124 S 
ATOM     78  O   UNL A   1      45.612  23.923  35.005  1.00  0.00    -0.237 OA
ATOM     79  O   UNL A   1      43.217  23.313  34.961  1.00  0.00    -0.237 OA
ATOM     80  O   UNL A   1      44.328  24.066  32.895  1.00  0.00    -0.744 OA
ENDBRANCH  73  77
ENDBRANCH  56  70
BRANCH  57  81
ATOM     81  C   UNL A   1      42.277  24.307  26.610  1.00  0.00     0.023 A 
ATOM     82  C   UNL A   1      43.232  23.481  25.992  1.00  0.00     0.031 A 
ATOM     83  C   UNL A   1      41.025  23.724  26.894  1.00  0.00     0.131 A 
ATOM     84  C   UNL A   1      42.929  22.156  25.644  1.00  0.00     0.055 A 
ATOM     85  C   UNL A   1      40.723  22.392  26.557  1.00  0.00     0.041 A 
ATOM     86  F   UNL A   1      40.068  24.431  27.516  1.00  0.00    -0.206 F 
ATOM     87  C   UNL A   1      41.678  21.604  25.920  1.00  0.00     0.022 A 
BRANCH  84  88
ATOM     88  S   UNL A   1      44.181  21.120  24.837  1.00  0.00     0.124 S 
ATOM     89  O   UNL A   1      44.340  21.778  23.540  1.00  0.00    -0.237 OA
ATOM     90  O   UNL A   1      45.308  21.257  25.753  1.00  0.00    -0.237 OA
ATOM     91  O   UNL A   1      43.560  19.803  24.780  1.00  0.00    -0.744 OA
ENDBRANCH  84  88
ENDBRANCH  57  81
BRANCH  69  92
ATOM     92  C   UNL A   1      44.960  30.039  27.945  1.00  0.00     0.023 A 
ATOM     93  C   UNL A   1      46.287  30.389  27.689  1.00  0.00     0.031 A 
ATOM     94  C   UNL A   1      43.977  30.879  27.403  1.00  0.00     0.131 A 
ATOM     95  C   UNL A   1      46.573  31.558  26.966  1.00  0.00     0.055 A 
ATOM     96  C   UNL A   1      44.253  31.959  26.560  1.00  0.00     0.041 A 
ATOM     97  F   UNL A   1      42.734  30.802  27.851  1.00  0.00    -0.206 F 
ATOM     98  C   UNL A   1      45.571  32.317  26.351  1.00  0.00     0.022 A 
BRANCH  95  99
ATOM     99  S   UNL A   1      48.219  32.300  27.083  1.00  0.00     0.124 S 
ATOM    100  O   UNL A   1      48.123  33.413  26.145  1.00  0.00    -0.237 OA
ATOM    101  O   UNL A   1      48.281  32.673  28.495  1.00  0.00    -0.237 OA
ATOM    102  O   UNL A   1      49.120  31.220  26.689  1.00  0.00    -0.744 OA
ENDBRANCH  95  99
ENDBRANCH  69  92
ENDBRANCH  43  44
ENDBRANCH  36  38
ENDBRANCH  35  36
ENDBRANCH  34  35
ENDBRANCH  33  34
ENDBRANCH  32  33
ENDBRANCH  31  32
ENDBRANCH   1  31
TORSDOF 25
ENDMDL
MODEL 2
REMARK VINA RESULT:      -9.0      7.398     13.275
REMARK SMILES Cc1c(C#N)c2ccccc2n1CC(=O)N1CC[C@H](O)C[C@@H]1C(=O)OCCOCCOCCOC(=O)c1ccc(-c2c3nc(c(-c4cc(S(=O)(=O)[O-])ccc4F)c4ccc([nH]4)c(-c4cc(S(=O)(=O)[O-])ccc4F)c4nc(c(-c5cc(S(=O)(=O)[O-])ccc5F)c5ccc2[nH]5)C=C4)C=C3)cc1
REMARK SMILES IDX 29 1 28 2 27 3 26 4 25 5 23 6 24 7 22 8 16 9 17 10 18 11
REMARK SMILES IDX 21 12 19 13 14 14 15 15 13 16 12 17 1 18 2 19 3 20 6 21
REMARK SMILES IDX 11 22 7 23 10 24 8 25 9 26 4 27 5 28 20 29 30 31 31 32 32 33
REMARK SMILES IDX 33 34 34 35 35 36 36 37 37 38 38 39 99 40 39 41 98 42 40 43
REMARK SMILES IDX 41 44 42 45 92 46 43 47 97 48 91 49 93 50 44 51 96 52 90 53
REMARK SMILES IDX 89 54 45 56 77 57 57 58 76 59 58 60 61 61 75 62 94 63 59 64
REMARK SMILES IDX 60 65 74 67 95 68 62 69 46 70 47 71 55 72 48 73 54 74 56 75
REMARK SMILES IDX 53 76 49 77 50 78 51 79 52 80 78 81 79 82 87 83 80 84 86 85
REMARK SMILES IDX 88 86 85 87 81 88 82 89 83 90 84 91 63 92 64 93 72 94 65 95
REMARK SMILES IDX 71 96 73 97 70 98 66 99 67 100 68 101 69 102
REMARK H PARENT 20 30 93 55 61 66
REMARK Flexibility Score: inf
ROOT
ATOM      1  C   UNL A   1      42.285  27.500  29.551  1.00  0.00     0.188 C 
ENDROOT
BRANCH   1   2
ATOM      2  O   UNL A   1      43.417  28.185  29.087  1.00  0.00    -0.376 OA
BRANCH   2   3
ATOM      3  C   UNL A   1      43.327  29.130  28.040  1.00  0.00     0.202 C 
BRANCH   3   4
ATOM      4  C   UNL A   1      44.323  29.328  26.878  1.00  0.00     0.261 C 
BRANCH   4   5
ATOM      5  O   UNL A   1      45.612  28.661  26.911  1.00  0.00    -0.462 OA
BRANCH   5   6
ATOM      6  C   UNL A   1      46.173  28.597  25.673  1.00  0.00     0.329 C 
ATOM      7  O   UNL A   1      46.403  29.641  25.075  1.00  0.00    -0.250 OA
BRANCH   6   8
ATOM      8  C   UNL A   1      46.522  27.197  25.089  1.00  0.00     0.197 C 
ATOM      9  N   UNL A   1      46.255  26.201  26.097  1.00  0.00    -0.327 N 
ATOM     10  C   UNL A   1      47.435  25.874  26.876  1.00  0.00     0.123 C 
ATOM     11  C   UNL A   1      48.513  25.270  25.983  1.00  0.00     0.053 C 
ATOM     12  C   UNL A   1      47.700  26.804  24.184  1.00  0.00     0.069 C 
ATOM     13  C   UNL A   1      48.915  26.263  24.907  1.00  0.00     0.118 C 
BRANCH   9  14
ATOM     14  C   UNL A   1      45.357  25.204  25.720  1.00  0.00     0.243 C 
ATOM     15  O   UNL A   1      44.800  25.222  24.626  1.00  0.00    -0.273 OA
BRANCH  14  16
ATOM     16  C   UNL A   1      45.003  24.185  26.779  1.00  0.00     0.222 C 
BRANCH  16  17
ATOM     17  N   UNL A   1      44.018  23.257  26.268  1.00  0.00    -0.334 N 
ATOM     18  C   UNL A   1      45.752  21.594  25.464  1.00  0.00     0.066 C 
ATOM     19  C   UNL A   1      44.338  22.014  25.754  1.00  0.00     0.034 A 
ATOM     20  C   UNL A   1      43.170  21.273  25.764  1.00  0.00     0.080 A 
ATOM     21  C   UNL A   1      42.120  22.090  26.288  1.00  0.00     0.018 A 
ATOM     22  C   UNL A   1      42.669  23.342  26.571  1.00  0.00     0.050 A 
ATOM     23  C   UNL A   1      40.771  21.859  26.635  1.00  0.00     0.012 A 
ATOM     24  C   UNL A   1      41.926  24.368  27.183  1.00  0.00     0.027 A 
ATOM     25  C   UNL A   1      40.026  22.872  27.252  1.00  0.00     0.001 A 
ATOM     26  C   UNL A   1      40.597  24.110  27.521  1.00  0.00     0.002 A 
BRANCH  20  27
ATOM     27  C   UNL A   1      43.078  19.874  25.447  1.00  0.00     0.102 C 
ATOM     28  N   UNL A   1      43.048  18.748  25.214  1.00  0.00    -0.192 NA
ENDBRANCH  20  27
ENDBRANCH  16  17
ENDBRANCH  14  16
ENDBRANCH   9  14
BRANCH  13  29
ATOM     29  O   UNL A   1      49.699  27.303  25.480  1.00  0.00    -0.393 OA
ATOM     30  H   UNL A   1      49.673  27.232  26.447  1.00  0.00     0.210 HD
ENDBRANCH  13  29
ENDBRANCH   6   8
ENDBRANCH   5   6
ENDBRANCH   4   5
ENDBRANCH   3   4
ENDBRANCH   2   3
ENDBRANCH   1   2
BRANCH   1  31
ATOM     31  C   UNL A   1      41.244  28.310  30.309  1.00  0.00     0.188 C 
BRANCH  31  32
ATOM     32  O   UNL A   1      39.927  28.430  29.841  1.00  0.00    -0.376 OA
BRANCH  32  33
ATOM     33  C   UNL A   1      39.298  29.654  30.188  1.00  0.00     0.202 C 
BRANCH  33  34
ATOM     34  C   UNL A   1      40.041  31.020  30.024  1.00  0.00     0.261 C 
BRANCH  34  35
ATOM     35  O   UNL A   1      39.222  32.224  29.952  1.00  0.00    -0.460 OA
BRANCH  35  36
ATOM     36  C   UNL A   1      39.649  33.340  30.637  1.00  0.00     0.338 C 
ATOM     37  O   UNL A   1      39.398  33.569  31.810  1.00  0.00    -0.246 OA
BRANCH  36  38
ATOM     38  C   UNL A   1      40.791  34.006  29.878  1.00  0.00     0.060 A 
ATOM     39  C   UNL A   1      42.094  34.139  30.380  1.00  0.00     0.016 A 
ATOM     40  C   UNL A   1      40.417  34.847  28.822  1.00  0.00     0.016 A 
ATOM     41  C   UNL A   1      42.928  35.223  29.965  1.00  0.00     0.010 A 
ATOM     42  C   UNL A   1      41.248  35.918  28.429  1.00  0.00     0.010 A 
ATOM     43  C   UNL A   1      42.476  36.198  29.056  1.00  0.00    -0.014 A 
BRANCH  43  44
ATOM     44  C   UNL A   1      43.340  37.226  28.381  1.00  0.00     0.031 A 
ATOM     45  C   UNL A   1      44.615  36.615  27.985  1.00  0.00     0.074 A 
ATOM     46  C   UNL A   1      43.261  38.556  28.083  1.00  0.00     0.049 A 
ATOM     47  N   UNL A   1      45.709  36.833  28.636  1.00  0.00    -0.248 NA
ATOM     48  C   UNL A   1      44.672  35.526  27.019  1.00  0.00     0.031 C 
ATOM     49  C   UNL A   1      42.550  39.608  28.760  1.00  0.00     0.029 A 
ATOM     50  N   UNL A   1      43.898  39.295  27.084  1.00  0.00    -0.354 N 
ATOM     51  C   UNL A   1      46.671  36.075  28.003  1.00  0.00     0.074 A 
ATOM     52  C   UNL A   1      45.946  35.154  27.161  1.00  0.00     0.031 C 
ATOM     53  C   UNL A   1      42.575  40.770  28.082  1.00  0.00     0.029 A 
ATOM     54  C   UNL A   1      43.312  40.570  26.846  1.00  0.00     0.049 A 
ATOM     55  H   UNL A   1      44.682  38.965  26.589  1.00  0.00     0.167 HD
ATOM     56  C   UNL A   1      47.975  36.454  28.056  1.00  0.00     0.034 A 
ATOM     57  C   UNL A   1      43.765  41.706  26.231  1.00  0.00     0.034 A 
ATOM     58  C   UNL A   1      48.197  37.433  29.096  1.00  0.00     0.049 A 
ATOM     59  C   UNL A   1      45.196  41.814  26.600  1.00  0.00     0.074 A 
ATOM     60  C   UNL A   1      48.108  37.444  30.473  1.00  0.00     0.029 A 
ATOM     61  N   UNL A   1      48.241  38.753  28.717  1.00  0.00    -0.354 N 
ATOM     62  N   UNL A   1      45.592  42.099  27.812  1.00  0.00    -0.248 NA
ATOM     63  C   UNL A   1      46.119  41.042  25.779  1.00  0.00     0.031 C 
ATOM     64  C   UNL A   1      47.643  38.747  30.812  1.00  0.00     0.029 A 
ATOM     65  C   UNL A   1      47.552  39.494  29.639  1.00  0.00     0.049 A 
ATOM     66  H   UNL A   1      48.693  39.107  27.918  1.00  0.00     0.167 HD
ATOM     67  C   UNL A   1      46.562  41.143  28.072  1.00  0.00     0.074 A 
ATOM     68  C   UNL A   1      46.850  40.529  26.772  1.00  0.00     0.031 C 
ATOM     69  C   UNL A   1      46.868  40.732  29.338  1.00  0.00     0.034 A 
BRANCH  56  70
ATOM     70  C   UNL A   1      48.934  36.245  26.913  1.00  0.00     0.023 A 
ATOM     71  C   UNL A   1      49.800  35.140  26.817  1.00  0.00     0.031 A 
ATOM     72  C   UNL A   1      48.829  37.049  25.762  1.00  0.00     0.131 A 
ATOM     73  C   UNL A   1      50.502  34.860  25.640  1.00  0.00     0.055 A 
ATOM     74  C   UNL A   1      49.475  36.731  24.564  1.00  0.00     0.041 A 
ATOM     75  F   UNL A   1      48.040  38.134  25.743  1.00  0.00    -0.206 F 
ATOM     76  C   UNL A   1      50.315  35.628  24.497  1.00  0.00     0.022 A 
BRANCH  73  77
ATOM     77  S   UNL A   1      51.668  33.473  25.570  1.00  0.00     0.124 S 
ATOM     78  O   UNL A   1      51.243  32.664  26.707  1.00  0.00    -0.237 OA
ATOM     79  O   UNL A   1      51.377  32.916  24.251  1.00  0.00    -0.237 OA
ATOM     80  O   UNL A   1      52.973  34.115  25.696  1.00  0.00    -0.744 OA
ENDBRANCH  73  77
ENDBRANCH  56  70
BRANCH  57  81
ATOM     81  C   UNL A   1      43.284  42.078  24.861  1.00  0.00     0.023 A 
ATOM     82  C   UNL A   1      44.111  42.799  23.981  1.00  0.00     0.031 A 
ATOM     83  C   UNL A   1      41.994  41.754  24.395  1.00  0.00     0.131 A 
ATOM     84  C   UNL A   1      43.649  43.203  22.720  1.00  0.00     0.055 A 
ATOM     85  C   UNL A   1      41.533  42.148  23.126  1.00  0.00     0.041 A 
ATOM     86  F   UNL A   1      41.153  41.037  25.158  1.00  0.00    -0.206 F 
ATOM     87  C   UNL A   1      42.362  42.884  22.284  1.00  0.00     0.022 A 
BRANCH  84  88
ATOM     88  S   UNL A   1      44.738  44.139  21.611  1.00  0.00     0.124 S 
ATOM     89  O   UNL A   1      43.975  44.151  20.364  1.00  0.00    -0.237 OA
ATOM     90  O   UNL A   1      44.830  45.419  22.305  1.00  0.00    -0.237 OA
ATOM     91  O   UNL A   1      45.960  43.345  21.569  1.00  0.00    -0.744 OA
ENDBRANCH  84  88
ENDBRANCH  57  81
BRANCH  69  92
ATOM     92  C   UNL A   1      46.322  41.472  30.539  1.00  0.00     0.023 A 
ATOM     93  C   UNL A   1      45.113  41.032  31.081  1.00  0.00     0.031 A 
ATOM     94  C   UNL A   1      46.729  42.767  30.892  1.00  0.00     0.131 A 
ATOM     95  C   UNL A   1      44.355  41.894  31.889  1.00  0.00     0.055 A 
ATOM     96  C   UNL A   1      46.053  43.574  31.811  1.00  0.00     0.041 A 
ATOM     97  F   UNL A   1      47.678  43.367  30.190  1.00  0.00    -0.206 F 
ATOM     98  C   UNL A   1      44.838  43.140  32.306  1.00  0.00     0.022 A 
BRANCH  95  99
ATOM     99  S   UNL A   1      42.597  41.559  32.148  1.00  0.00     0.124 S 
ATOM    100  O   UNL A   1      42.553  40.100  32.118  1.00  0.00    -0.237 OA
ATOM    101  O   UNL A   1      42.363  42.167  33.457  1.00  0.00    -0.237 OA
ATOM    102  O   UNL A   1      41.943  42.231  31.029  1.00  0.00    -0.744 OA
ENDBRANCH  95  99
ENDBRANCH  69  92
ENDBRANCH  43  44
ENDBRANCH  36  38
ENDBRANCH  35  36
ENDBRANCH  34  35
ENDBRANCH  33  34
ENDBRANCH  32  33
ENDBRANCH  31  32
ENDBRANCH   1  31
TORSDOF 25
ENDMDL
MODEL 3
REMARK VINA RESULT:      -8.9      8.781     14.638
REMARK SMILES Cc1c(C#N)c2ccccc2n1CC(=O)N1CC[C@H](O)C[C@@H]1C(=O)OCCOCCOCCOC(=O)c1ccc(-c2c3nc(c(-c4cc(S(=O)(=O)[O-])ccc4F)c4ccc([nH]4)c(-c4cc(S(=O)(=O)[O-])ccc4F)c4nc(c(-c5cc(S(=O)(=O)[O-])ccc5F)c5ccc2[nH]5)C=C4)C=C3)cc1
REMARK SMILES IDX 29 1 28 2 27 3 26 4 25 5 23 6 24 7 22 8 16 9 17 10 18 11
REMARK SMILES IDX 21 12 19 13 14 14 15 15 13 16 12 17 1 18 2 19 3 20 6 21
REMARK SMILES IDX 11 22 7 23 10 24 8 25 9 26 4 27 5 28 20 29 30 31 31 32 32 33
REMARK SMILES IDX 33 34 34 35 35 36 36 37 37 38 38 39 99 40 39 41 98 42 40 43
REMARK SMILES IDX 41 44 42 45 92 46 43 47 97 48 91 49 93 50 44 51 96 52 90 53
REMARK SMILES IDX 89 54 45 56 77 57 57 58 76 59 58 60 61 61 75 62 94 63 59 64
REMARK SMILES IDX 60 65 74 67 95 68 62 69 46 70 47 71 55 72 48 73 54 74 56 75
REMARK SMILES IDX 53 76 49 77 50 78 51 79 52 80 78 81 79 82 87 83 80 84 86 85
REMARK SMILES IDX 88 86 85 87 81 88 82 89 83 90 84 91 63 92 64 93 72 94 65 95
REMARK SMILES IDX 71 96 73 97 70 98 66 99 67 100 68 101 69 102
REMARK H PARENT 20 30 93 55 61 66
REMARK Flexibility Score: inf
ROOT
ATOM      1  C   UNL A   1      43.338  40.566  28.436  1.00  0.00     0.188 C 
ENDROOT
BRANCH   1   2
ATOM      2  O   UNL A   1      43.658  41.374  27.336  1.00  0.00    -0.376 OA
BRANCH   2   3
ATOM      3  C   UNL A   1      43.336  40.982  26.017  1.00  0.00     0.202 C 
BRANCH   3   4
ATOM      4  C   UNL A   1      42.767  41.875  24.894  1.00  0.00     0.261 C 
BRANCH   4   5
ATOM      5  O   UNL A   1      43.386  41.865  23.582  1.00  0.00    -0.462 OA
BRANCH   5   6
ATOM      6  C   UNL A   1      43.785  43.111  23.209  1.00  0.00     0.329 C 
ATOM      7  O   UNL A   1      42.943  43.993  23.103  1.00  0.00    -0.250 OA
BRANCH   6   8
ATOM      8  C   UNL A   1      45.302  43.361  22.962  1.00  0.00     0.197 C 
ATOM      9  N   UNL A   1      45.568  43.207  21.554  1.00  0.00    -0.327 N 
ATOM     10  C   UNL A   1      46.008  41.865  21.217  1.00  0.00     0.123 C 
ATOM     11  C   UNL A   1      47.323  41.545  21.917  1.00  0.00     0.053 C 
ATOM     12  C   UNL A   1      46.496  42.929  23.827  1.00  0.00     0.069 C 
ATOM     13  C   UNL A   1      47.147  41.624  23.423  1.00  0.00     0.118 C 
BRANCH   9  14
ATOM     14  C   UNL A   1      46.144  44.316  20.936  1.00  0.00     0.243 C 
ATOM     15  O   UNL A   1      47.141  44.211  20.228  1.00  0.00    -0.273 OA
BRANCH  14  16
ATOM     16  C   UNL A   1      45.561  45.663  21.299  1.00  0.00     0.222 C 
BRANCH  16  17
ATOM     17  N   UNL A   1      45.197  46.388  20.101  1.00  0.00    -0.334 N 
ATOM     18  C   UNL A   1      47.093  48.053  20.327  1.00  0.00     0.066 C 
ATOM     19  C   UNL A   1      45.950  47.425  19.581  1.00  0.00     0.034 A 
ATOM     20  C   UNL A   1      45.546  47.580  18.267  1.00  0.00     0.080 A 
ATOM     21  C   UNL A   1      44.524  46.621  17.990  1.00  0.00     0.018 A 
ATOM     22  C   UNL A   1      44.299  45.902  19.166  1.00  0.00     0.050 A 
ATOM     23  C   UNL A   1      43.826  46.232  16.825  1.00  0.00     0.012 A 
ATOM     24  C   UNL A   1      43.408  44.815  19.223  1.00  0.00     0.027 A 
ATOM     25  C   UNL A   1      42.943  45.146  16.872  1.00  0.00     0.001 A 
ATOM     26  C   UNL A   1      42.737  44.448  18.056  1.00  0.00     0.002 A 
BRANCH  20  27
ATOM     27  C   UNL A   1      46.171  48.454  17.312  1.00  0.00     0.102 C 
ATOM     28  N   UNL A   1      46.662  49.191  16.576  1.00  0.00    -0.192 NA
ENDBRANCH  20  27
ENDBRANCH  16  17
ENDBRANCH  14  16
ENDBRANCH   9  14
BRANCH  13  29
ATOM     29  O   UNL A   1      46.406  40.497  23.880  1.00  0.00    -0.393 OA
ATOM     30  H   UNL A   1      46.852  40.107  24.648  1.00  0.00     0.210 HD
ENDBRANCH  13  29
ENDBRANCH   6   8
ENDBRANCH   5   6
ENDBRANCH   4   5
ENDBRANCH   3   4
ENDBRANCH   2   3
ENDBRANCH   1   2
BRANCH   1  31
ATOM     31  C   UNL A   1      43.333  39.060  28.217  1.00  0.00     0.188 C 
BRANCH  31  32
ATOM     32  O   UNL A   1      42.143  38.320  28.256  1.00  0.00    -0.376 OA
BRANCH  32  33
ATOM     33  C   UNL A   1      42.148  37.172  27.421  1.00  0.00     0.202 C 
BRANCH  33  34
ATOM     34  C   UNL A   1      41.463  35.841  27.871  1.00  0.00     0.261 C 
BRANCH  34  35
ATOM     35  O   UNL A   1      42.198  34.988  28.798  1.00  0.00    -0.460 OA
BRANCH  35  36
ATOM     36  C   UNL A   1      43.537  34.775  28.558  1.00  0.00     0.338 C 
ATOM     37  O   UNL A   1      44.435  35.508  28.943  1.00  0.00    -0.246 OA
BRANCH  36  38
ATOM     38  C   UNL A   1      43.761  33.328  28.134  1.00  0.00     0.060 A 
ATOM     39  C   UNL A   1      43.589  32.225  28.984  1.00  0.00     0.016 A 
ATOM     40  C   UNL A   1      44.534  33.138  26.981  1.00  0.00     0.016 A 
ATOM     41  C   UNL A   1      44.340  31.026  28.784  1.00  0.00     0.010 A 
ATOM     42  C   UNL A   1      45.275  31.951  26.801  1.00  0.00     0.010 A 
ATOM     43  C   UNL A   1      45.281  30.907  27.744  1.00  0.00    -0.014 A 
BRANCH  43  44
ATOM     44  C   UNL A   1      45.936  29.627  27.305  1.00  0.00     0.031 A 
ATOM     45  C   UNL A   1      44.962  28.530  27.360  1.00  0.00     0.074 A 
ATOM     46  C   UNL A   1      47.181  29.228  26.914  1.00  0.00     0.049 A 
ATOM     47  N   UNL A   1      44.982  27.646  28.302  1.00  0.00    -0.248 NA
ATOM     48  C   UNL A   1      43.766  28.528  26.530  1.00  0.00     0.031 C 
ATOM     49  C   UNL A   1      48.471  29.759  27.271  1.00  0.00     0.029 A 
ATOM     50  N   UNL A   1      47.573  28.150  26.115  1.00  0.00    -0.354 N 
ATOM     51  C   UNL A   1      43.915  26.812  28.046  1.00  0.00     0.074 A 
ATOM     52  C   UNL A   1      43.100  27.511  27.081  1.00  0.00     0.031 C 
ATOM     53  C   UNL A   1      49.472  29.207  26.562  1.00  0.00     0.029 A 
ATOM     54  C   UNL A   1      48.907  28.248  25.629  1.00  0.00     0.049 A 
ATOM     55  H   UNL A   1      46.981  27.392  25.909  1.00  0.00     0.167 HD
ATOM     56  C   UNL A   1      43.945  25.523  28.475  1.00  0.00     0.034 A 
ATOM     57  C   UNL A   1      49.782  27.330  25.114  1.00  0.00     0.034 A 
ATOM     58  C   UNL A   1      44.974  25.322  29.469  1.00  0.00     0.049 A 
ATOM     59  C   UNL A   1      49.566  26.091  25.899  1.00  0.00     0.074 A 
ATOM     60  C   UNL A   1      45.211  25.783  30.748  1.00  0.00     0.029 A 
ATOM     61  N   UNL A   1      46.166  24.790  29.040  1.00  0.00    -0.354 N 
ATOM     62  N   UNL A   1      49.915  25.982  27.153  1.00  0.00    -0.248 NA
ATOM     63  C   UNL A   1      48.469  25.244  25.453  1.00  0.00     0.031 C 
ATOM     64  C   UNL A   1      46.626  25.921  30.844  1.00  0.00     0.029 A 
ATOM     65  C   UNL A   1      47.189  25.460  29.656  1.00  0.00     0.049 A 
ATOM     66  H   UNL A   1      46.268  24.051  28.398  1.00  0.00     0.167 HD
ATOM     67  C   UNL A   1      48.788  25.447  27.759  1.00  0.00     0.074 A 
ATOM     68  C   UNL A   1      47.935  25.002  26.652  1.00  0.00     0.031 C 
ATOM     69  C   UNL A   1      48.504  25.639  29.081  1.00  0.00     0.034 A 
BRANCH  56  70
ATOM     70  C   UNL A   1      43.326  24.389  27.699  1.00  0.00     0.023 A 
ATOM     71  C   UNL A   1      44.026  23.625  26.748  1.00  0.00     0.031 A 
ATOM     72  C   UNL A   1      42.061  23.897  28.077  1.00  0.00     0.131 A 
ATOM     73  C   UNL A   1      43.493  22.443  26.222  1.00  0.00     0.055 A 
ATOM     74  C   UNL A   1      41.559  22.682  27.605  1.00  0.00     0.041 A 
ATOM     75  F   UNL A   1      41.302  24.549  28.970  1.00  0.00    -0.206 F 
ATOM     76  C   UNL A   1      42.278  21.944  26.675  1.00  0.00     0.022 A 
BRANCH  73  77
ATOM     77  S   UNL A   1      44.386  21.520  24.942  1.00  0.00     0.124 S 
ATOM     78  O   UNL A   1      45.647  21.220  25.609  1.00  0.00    -0.237 OA
ATOM     79  O   UNL A   1      43.494  20.382  24.731  1.00  0.00    -0.237 OA
ATOM     80  O   UNL A   1      44.460  22.461  23.828  1.00  0.00    -0.744 OA
ENDBRANCH  73  77
ENDBRANCH  56  70
BRANCH  57  81
ATOM     81  C   UNL A   1      50.060  27.279  23.642  1.00  0.00     0.023 A 
ATOM     82  C   UNL A   1      51.378  27.181  23.162  1.00  0.00     0.031 A 
ATOM     83  C   UNL A   1      49.038  27.349  22.673  1.00  0.00     0.131 A 
ATOM     84  C   UNL A   1      51.652  27.193  21.787  1.00  0.00     0.055 A 
ATOM     85  C   UNL A   1      49.310  27.349  21.293  1.00  0.00     0.041 A 
ATOM     86  F   UNL A   1      47.749  27.408  23.045  1.00  0.00    -0.206 F 
ATOM     87  C   UNL A   1      50.627  27.278  20.846  1.00  0.00     0.022 A 
BRANCH  84  88
ATOM     88  S   UNL A   1      53.366  27.074  21.202  1.00  0.00     0.124 S 
ATOM     89  O   UNL A   1      54.017  26.349  22.292  1.00  0.00    -0.237 OA
ATOM     90  O   UNL A   1      53.200  26.327  19.961  1.00  0.00    -0.237 OA
ATOM     91  O   UNL A   1      53.783  28.464  21.061  1.00  0.00    -0.744 OA
ENDBRANCH  84  88
ENDBRANCH  57  81
BRANCH  69  92
ATOM     92  C   UNL A   1      49.530  26.255  30.006  1.00  0.00     0.023 A 
ATOM     93  C   UNL A   1      50.326  25.393  30.763  1.00  0.00     0.031 A 
ATOM     94  C   UNL A   1      49.470  27.588  30.437  1.00  0.00     0.131 A 
ATOM     95  C   UNL A   1      50.973  25.870  31.914  1.00  0.00     0.055 A 
ATOM     96  C   UNL A   1      50.227  28.101  31.495  1.00  0.00     0.041 A 
ATOM     97  F   UNL A   1      48.514  28.381  29.978  1.00  0.00    -0.206 F 
ATOM     98  C   UNL A   1      50.977  27.226  32.258  1.00  0.00     0.022 A 
BRANCH  95  99
ATOM     99  S   UNL A   1      51.544  24.697  33.167  1.00  0.00     0.124 S 
ATOM    100  O   UNL A   1      52.921  24.447  32.751  1.00  0.00    -0.237 OA
ATOM    101  O   UNL A   1      51.392  25.472  34.397  1.00  0.00    -0.237 OA
ATOM    102  O   UNL A   1      50.631  23.566  33.032  1.00  0.00    -0.744 OA
ENDBRANCH  95  99
ENDBRANCH  69  92
ENDBRANCH  43  44
ENDBRANCH  36  38
ENDBRANCH  35  36
ENDBRANCH  34  35
ENDBRANCH  33  34
ENDBRANCH  32  33
ENDBRANCH  31  32
ENDBRANCH   1  31
TORSDOF 25
ENDMDL
