MODEL 1
REMARK VINA RESULT:     -12.2      0.000      0.000
REMARK SMILES O=C(OCCOCCOCCOC(=O)[C@@H]1[C@H](C(=O)Nc2ccccc2Cc2ccccc2)[C@H]2C=C[C@@H]1O2)c1ccc(-c2c3nc(c(-c4cc(S(=O)(=O)[O-])ccc4F)c4ccc([nH]4)c(-c4cc(S(=O)(=O)[O-])ccc4F)c4nc(c(-c5cc(S(=O)(=O)[O-])ccc5F)c5ccc2[nH]5)C=C4)C=C3)cc1
REMARK SMILES IDX 8 1 7 2 6 3 5 4 4 5 3 6 2 7 1 8 38 9 39 10 100 11 40 12
REMARK SMILES IDX 99 13 41 14 42 15 43 16 93 17 44 18 98 19 92 20 94 21 45 22
REMARK SMILES IDX 97 23 91 24 90 25 46 27 78 28 58 29 77 30 59 31 62 32 76 33
REMARK SMILES IDX 95 34 60 35 61 36 75 38 96 39 63 40 47 41 48 42 56 43 49 44
REMARK SMILES IDX 55 45 57 46 54 47 50 48 51 49 52 50 53 51 79 52 80 53 88 54
REMARK SMILES IDX 81 55 87 56 89 57 86 58 82 59 83 60 84 61 85 62 64 63 65 64
REMARK SMILES IDX 73 65 66 66 72 67 74 68 71 69 67 70 68 71 69 72 70 73 9 74
REMARK SMILES IDX 10 75 11 76 12 77 13 78 14 79 15 80 16 81 36 82 33 83 35 84
REMARK SMILES IDX 37 85 34 86 17 87 18 88 19 89 20 91 21 92 25 93 22 94 24 95
REMARK SMILES IDX 23 96 26 97 27 98 28 99 32 100 29 101 31 102 30 103
REMARK H PARENT 94 26 62 37 19 90
REMARK Flexibility Score: inf
ROOT
ATOM      1  C   UNL A   1      36.664  23.674  24.887  1.00  0.00     0.188 C 
ENDROOT
BRANCH   1   2
ATOM      2  C   UNL A   1      37.663  23.051  26.057  1.00  0.00     0.188 C 
BRANCH   2   3
ATOM      3  O   UNL A   1      38.606  22.002  25.898  1.00  0.00    -0.376 OA
BRANCH   3   4
ATOM      4  C   UNL A   1      38.297  20.750  25.300  1.00  0.00     0.202 C 
BRANCH   4   5
ATOM      5  C   UNL A   1      39.023  19.516  25.791  1.00  0.00     0.261 C 
BRANCH   5   6
ATOM      6  O   UNL A   1      40.412  19.348  25.444  1.00  0.00    -0.460 OA
BRANCH   6   7
ATOM      7  C   UNL A   1      41.575  19.838  25.938  1.00  0.00     0.338 C 
ATOM      8  O   UNL A   1      42.576  19.123  25.867  1.00  0.00    -0.246 OA
BRANCH   7   9
ATOM      9  C   UNL A   1      41.729  21.184  26.562  1.00  0.00     0.060 A 
ATOM     10  C   UNL A   1      41.673  22.361  25.850  1.00  0.00     0.016 A 
ATOM     11  C   UNL A   1      41.827  21.332  27.946  1.00  0.00     0.016 A 
ATOM     12  C   UNL A   1      41.928  23.609  26.333  1.00  0.00     0.010 A 
ATOM     13  C   UNL A   1      41.902  22.617  28.520  1.00  0.00     0.010 A 
ATOM     14  C   UNL A   1      41.988  23.746  27.697  1.00  0.00    -0.014 A 
BRANCH  14  15
ATOM     15  C   UNL A   1      42.350  25.105  28.090  1.00  0.00     0.031 A 
ATOM     16  C   UNL A   1      43.679  25.554  27.574  1.00  0.00     0.074 A 
ATOM     17  C   UNL A   1      41.395  25.990  28.436  1.00  0.00     0.049 A 
ATOM     18  N   UNL A   1      44.154  26.760  27.484  1.00  0.00    -0.248 NA
ATOM     19  C   UNL A   1      44.513  24.516  26.931  1.00  0.00     0.031 C 
ATOM     20  C   UNL A   1      39.964  25.691  28.546  1.00  0.00     0.029 A 
ATOM     21  N   UNL A   1      41.466  27.337  28.672  1.00  0.00    -0.354 N 
ATOM     22  C   UNL A   1      45.306  26.633  26.728  1.00  0.00     0.074 A 
ATOM     23  C   UNL A   1      45.450  25.247  26.357  1.00  0.00     0.031 C 
ATOM     24  C   UNL A   1      39.312  26.820  28.870  1.00  0.00     0.029 A 
ATOM     25  C   UNL A   1      40.269  27.889  29.068  1.00  0.00     0.049 A 
ATOM     26  H   UNL A   1      42.293  27.859  28.569  1.00  0.00     0.167 HD
ATOM     27  C   UNL A   1      46.185  27.604  26.407  1.00  0.00     0.034 A 
ATOM     28  C   UNL A   1      40.005  29.107  29.581  1.00  0.00     0.034 A 
ATOM     29  C   UNL A   1      46.073  28.928  26.941  1.00  0.00     0.049 A 
ATOM     30  C   UNL A   1      41.156  30.079  29.571  1.00  0.00     0.074 A 
ATOM     31  C   UNL A   1      47.008  29.940  26.944  1.00  0.00     0.029 A 
ATOM     32  N   UNL A   1      44.957  29.400  27.626  1.00  0.00    -0.354 N 
ATOM     33  N   UNL A   1      42.334  29.933  29.004  1.00  0.00    -0.248 NA
ATOM     34  C   UNL A   1      40.957  31.368  30.234  1.00  0.00     0.031 C 
ATOM     35  C   UNL A   1      46.494  30.990  27.712  1.00  0.00     0.029 A 
ATOM     36  C   UNL A   1      45.198  30.675  28.098  1.00  0.00     0.049 A 
ATOM     37  H   UNL A   1      44.119  28.898  27.755  1.00  0.00     0.167 HD
ATOM     38  C   UNL A   1      43.004  31.130  29.207  1.00  0.00     0.074 A 
ATOM     39  C   UNL A   1      42.085  31.991  29.931  1.00  0.00     0.031 C 
ATOM     40  C   UNL A   1      44.257  31.490  28.829  1.00  0.00     0.034 A 
BRANCH  27  41
ATOM     41  C   UNL A   1      47.395  27.157  25.645  1.00  0.00     0.023 A 
ATOM     42  C   UNL A   1      48.541  26.669  26.298  1.00  0.00     0.031 A 
ATOM     43  C   UNL A   1      47.462  27.391  24.262  1.00  0.00     0.131 A 
ATOM     44  C   UNL A   1      49.725  26.485  25.569  1.00  0.00     0.055 A 
ATOM     45  C   UNL A   1      48.621  27.137  23.531  1.00  0.00     0.041 A 
ATOM     46  F   UNL A   1      46.418  27.931  23.611  1.00  0.00    -0.206 F 
ATOM     47  C   UNL A   1      49.765  26.689  24.187  1.00  0.00     0.022 A 
BRANCH  44  48
ATOM     48  S   UNL A   1      51.258  26.129  26.472  1.00  0.00     0.124 S 
ATOM     49  O   UNL A   1      51.025  24.758  26.920  1.00  0.00    -0.237 OA
ATOM     50  O   UNL A   1      52.280  26.299  25.446  1.00  0.00    -0.237 OA
ATOM     51  O   UNL A   1      51.269  27.133  27.535  1.00  0.00    -0.744 OA
ENDBRANCH  44  48
ENDBRANCH  27  41
BRANCH  28  52
ATOM     52  C   UNL A   1      38.707  29.438  30.256  1.00  0.00     0.023 A 
ATOM     53  C   UNL A   1      37.727  30.242  29.650  1.00  0.00     0.031 A 
ATOM     54  C   UNL A   1      38.503  29.087  31.609  1.00  0.00     0.131 A 
ATOM     55  C   UNL A   1      36.641  30.728  30.407  1.00  0.00     0.055 A 
ATOM     56  C   UNL A   1      37.391  29.521  32.338  1.00  0.00     0.041 A 
ATOM     57  F   UNL A   1      39.406  28.341  32.264  1.00  0.00    -0.206 F 
ATOM     58  C   UNL A   1      36.463  30.365  31.743  1.00  0.00     0.022 A 
BRANCH  55  59
ATOM     59  S   UNL A   1      35.545  31.972  29.664  1.00  0.00     0.124 S 
ATOM     60  O   UNL A   1      34.694  32.329  30.794  1.00  0.00    -0.237 OA
ATOM     61  O   UNL A   1      36.497  32.989  29.232  1.00  0.00    -0.237 OA
ATOM     62  O   UNL A   1      34.880  31.242  28.587  1.00  0.00    -0.744 OA
ENDBRANCH  55  59
ENDBRANCH  28  52
BRANCH  40  63
ATOM     63  C   UNL A   1      44.673  32.893  29.163  1.00  0.00     0.023 A 
ATOM     64  C   UNL A   1      44.445  33.954  28.274  1.00  0.00     0.031 A 
ATOM     65  C   UNL A   1      45.322  33.162  30.378  1.00  0.00     0.131 A 
ATOM     66  C   UNL A   1      44.942  35.225  28.578  1.00  0.00     0.055 A 
ATOM     67  C   UNL A   1      45.732  34.449  30.716  1.00  0.00     0.041 A 
ATOM     68  F   UNL A   1      45.565  32.177  31.259  1.00  0.00    -0.206 F 
ATOM     69  C   UNL A   1      45.560  35.486  29.803  1.00  0.00     0.022 A 
BRANCH  66  70
ATOM     70  S   UNL A   1      44.891  36.493  27.287  1.00  0.00     0.124 S 
ATOM     71  O   UNL A   1      43.562  36.291  26.720  1.00  0.00    -0.237 OA
ATOM     72  O   UNL A   1      45.076  37.723  28.050  1.00  0.00    -0.237 OA
ATOM     73  O   UNL A   1      46.003  36.132  26.411  1.00  0.00    -0.744 OA
ENDBRANCH  66  70
ENDBRANCH  40  63
ENDBRANCH  14  15
ENDBRANCH   7   9
ENDBRANCH   6   7
ENDBRANCH   5   6
ENDBRANCH   4   5
ENDBRANCH   3   4
ENDBRANCH   2   3
ENDBRANCH   1   2
BRANCH   1  74
ATOM     74  O   UNL A   1      34.902  24.645  24.901  1.00  0.00    -0.376 OA
BRANCH  74  75
ATOM     75  C   UNL A   1      34.177  26.006  24.769  1.00  0.00     0.202 C 
BRANCH  75  76
ATOM     76  C   UNL A   1      33.328  26.711  25.917  1.00  0.00     0.261 C 
BRANCH  76  77
ATOM     77  O   UNL A   1      32.513  27.883  25.595  1.00  0.00    -0.463 OA
BRANCH  77  78
ATOM     78  C   UNL A   1      32.247  28.305  24.330  1.00  0.00     0.312 C 
ATOM     79  O   UNL A   1      33.097  28.284  23.443  1.00  0.00    -0.252 OA
BRANCH  78  80
ATOM     80  C   UNL A   1      30.785  28.826  24.035  1.00  0.00     0.147 C 
ATOM     81  C   UNL A   1      29.921  27.742  23.394  1.00  0.00     0.129 C 
ATOM     82  C   UNL A   1      30.308  30.056  23.187  1.00  0.00     0.157 C 
ATOM     83  C   UNL A   1      29.020  28.478  22.421  1.00  0.00     0.155 C 
ATOM     84  C   UNL A   1      28.898  30.468  23.517  1.00  0.00     0.004 C 
ATOM     85  O   UNL A   1      29.969  29.431  21.911  1.00  0.00    -0.365 OA
ATOM     86  C   UNL A   1      28.110  29.475  23.080  1.00  0.00     0.004 C 
BRANCH  81  87
ATOM     87  C   UNL A   1      30.739  26.637  22.774  1.00  0.00     0.231 C 
ATOM     88  O   UNL A   1      31.216  26.890  21.651  1.00  0.00    -0.274 OA
ATOM     89  N   UNL A   1      31.002  25.381  23.212  1.00  0.00    -0.325 N 
ATOM     90  H   UNL A   1      31.384  24.855  22.474  1.00  0.00     0.169 HD
BRANCH  89  91
ATOM     91  C   UNL A   1      30.916  24.560  24.372  1.00  0.00     0.044 A 
ATOM     92  C   UNL A   1      30.044  25.199  25.297  1.00  0.00     0.026 A 
ATOM     93  C   UNL A   1      31.541  23.334  24.774  1.00  0.00    -0.020 A 
ATOM     94  C   UNL A   1      29.643  24.618  26.492  1.00  0.00     0.002 A 
ATOM     95  C   UNL A   1      31.082  22.771  25.992  1.00  0.00     0.006 A 
ATOM     96  C   UNL A   1      30.137  23.376  26.823  1.00  0.00     0.000 A 
BRANCH  93  97
ATOM     97  C   UNL A   1      32.449  22.375  24.002  1.00  0.00     0.073 C 
BRANCH  97  98
ATOM     98  C   UNL A   1      32.645  20.853  24.030  1.00  0.00    -0.044 A 
ATOM     99  C   UNL A   1      32.245  19.924  22.495  1.00  0.00     0.004 A 
ATOM    100  C   UNL A   1      33.109  19.871  25.502  1.00  0.00     0.004 A 
ATOM    101  C   UNL A   1      32.310  18.118  22.455  1.00  0.00     0.000 A 
ATOM    102  C   UNL A   1      33.086  18.069  25.455  1.00  0.00     0.000 A 
ATOM    103  C   UNL A   1      32.713  17.205  23.929  1.00  0.00     0.000 A 
ENDBRANCH  97  98
ENDBRANCH  93  97
ENDBRANCH  89  91
ENDBRANCH  81  87
ENDBRANCH  78  80
ENDBRANCH  77  78
ENDBRANCH  76  77
ENDBRANCH  75  76
ENDBRANCH  74  75
ENDBRANCH   1  74
TORSDOF 24
ENDMDL
MODEL 2
REMARK VINA RESULT:     -12.0      1.578      4.321
REMARK SMILES O=C(OCCOCCOCCOC(=O)[C@@H]1[C@H](C(=O)Nc2ccccc2Cc2ccccc2)[C@H]2C=C[C@@H]1O2)c1ccc(-c2c3nc(c(-c4cc(S(=O)(=O)[O-])ccc4F)c4ccc([nH]4)c(-c4cc(S(=O)(=O)[O-])ccc4F)c4nc(c(-c5cc(S(=O)(=O)[O-])ccc5F)c5ccc2[nH]5)C=C4)C=C3)cc1
REMARK SMILES IDX 8 1 7 2 6 3 5 4 4 5 3 6 2 7 1 8 38 9 39 10 100 11 40 12
REMARK SMILES IDX 99 13 41 14 42 15 43 16 93 17 44 18 98 19 92 20 94 21 45 22
REMARK SMILES IDX 97 23 91 24 90 25 46 27 78 28 58 29 77 30 59 31 62 32 76 33
REMARK SMILES IDX 95 34 60 35 61 36 75 38 96 39 63 40 47 41 48 42 56 43 49 44
REMARK SMILES IDX 55 45 57 46 54 47 50 48 51 49 52 50 53 51 79 52 80 53 88 54
REMARK SMILES IDX 81 55 87 56 89 57 86 58 82 59 83 60 84 61 85 62 64 63 65 64
REMARK SMILES IDX 73 65 66 66 72 67 74 68 71 69 67 70 68 71 69 72 70 73 9 74
REMARK SMILES IDX 10 75 11 76 12 77 13 78 14 79 15 80 16 81 36 82 33 83 35 84
REMARK SMILES IDX 37 85 34 86 17 87 18 88 19 89 20 91 21 92 25 93 22 94 24 95
REMARK SMILES IDX 23 96 26 97 27 98 28 99 32 100 29 101 31 102 30 103
REMARK H PARENT 94 26 62 37 19 90
REMARK Flexibility Score: inf
ROOT
ATOM      1  C   UNL A   1      35.875  23.213  22.904  1.00  0.00     0.188 C 
ENDROOT
BRANCH   1   2
ATOM      2  C   UNL A   1      36.423  22.484  24.291  1.00  0.00     0.188 C 
BRANCH   2   3
ATOM      3  O   UNL A   1      37.489  21.553  24.398  1.00  0.00    -0.376 OA
BRANCH   3   4
ATOM      4  C   UNL A   1      37.325  20.222  24.871  1.00  0.00     0.202 C 
BRANCH   4   5
ATOM      5  C   UNL A   1      38.544  19.327  24.944  1.00  0.00     0.261 C 
BRANCH   5   6
ATOM      6  O   UNL A   1      39.471  19.511  26.034  1.00  0.00    -0.460 OA
BRANCH   6   7
ATOM      7  C   UNL A   1      40.724  20.017  26.134  1.00  0.00     0.338 C 
ATOM      8  O   UNL A   1      41.648  19.362  25.650  1.00  0.00    -0.246 OA
BRANCH   7   9
ATOM      9  C   UNL A   1      41.062  21.313  26.788  1.00  0.00     0.060 A 
ATOM     10  C   UNL A   1      40.539  22.523  26.390  1.00  0.00     0.016 A 
ATOM     11  C   UNL A   1      41.857  21.359  27.934  1.00  0.00     0.016 A 
ATOM     12  C   UNL A   1      40.898  23.751  26.859  1.00  0.00     0.010 A 
ATOM     13  C   UNL A   1      42.109  22.589  28.577  1.00  0.00     0.010 A 
ATOM     14  C   UNL A   1      41.651  23.781  28.006  1.00  0.00    -0.014 A 
BRANCH  14  15
ATOM     15  C   UNL A   1      42.044  25.142  28.361  1.00  0.00     0.031 A 
ATOM     16  C   UNL A   1      43.390  25.541  27.846  1.00  0.00     0.074 A 
ATOM     17  C   UNL A   1      41.109  26.062  28.667  1.00  0.00     0.049 A 
ATOM     18  N   UNL A   1      43.897  26.730  27.725  1.00  0.00    -0.248 NA
ATOM     19  C   UNL A   1      44.204  24.461  27.246  1.00  0.00     0.031 C 
ATOM     20  C   UNL A   1      39.670  25.804  28.769  1.00  0.00     0.029 A 
ATOM     21  N   UNL A   1      41.212  27.414  28.862  1.00  0.00    -0.354 N 
ATOM     22  C   UNL A   1      45.055  26.549  26.987  1.00  0.00     0.074 A 
ATOM     23  C   UNL A   1      45.166  25.149  26.662  1.00  0.00     0.031 C 
ATOM     24  C   UNL A   1      39.044  26.959  29.050  1.00  0.00     0.029 A 
ATOM     25  C   UNL A   1      40.026  28.009  29.226  1.00  0.00     0.049 A 
ATOM     26  H   UNL A   1      42.054  27.911  28.753  1.00  0.00     0.167 HD
ATOM     27  C   UNL A   1      45.962  27.487  26.646  1.00  0.00     0.034 A 
ATOM     28  C   UNL A   1      39.788  29.249  29.697  1.00  0.00     0.034 A 
ATOM     29  C   UNL A   1      45.879  28.830  27.137  1.00  0.00     0.049 A 
ATOM     30  C   UNL A   1      40.965  30.190  29.671  1.00  0.00     0.074 A 
ATOM     31  C   UNL A   1      46.840  29.817  27.120  1.00  0.00     0.029 A 
ATOM     32  N   UNL A   1      44.768  29.351  27.793  1.00  0.00    -0.354 N 
ATOM     33  N   UNL A   1      42.145  29.996  29.123  1.00  0.00    -0.248 NA
ATOM     34  C   UNL A   1      40.792  31.503  30.291  1.00  0.00     0.031 C 
ATOM     35  C   UNL A   1      46.345  30.903  27.848  1.00  0.00     0.029 A 
ATOM     36  C   UNL A   1      45.037  30.634  28.228  1.00  0.00     0.049 A 
ATOM     37  H   UNL A   1      43.916  28.876  27.928  1.00  0.00     0.167 HD
ATOM     38  C   UNL A   1      42.844  31.181  29.297  1.00  0.00     0.074 A 
ATOM     39  C   UNL A   1      41.940  32.088  29.982  1.00  0.00     0.031 C 
ATOM     40  C   UNL A   1      44.109  31.496  28.922  1.00  0.00     0.034 A 
BRANCH  27  41
ATOM     41  C   UNL A   1      47.169  26.985  25.913  1.00  0.00     0.023 A 
ATOM     42  C   UNL A   1      48.195  26.284  26.571  1.00  0.00     0.031 A 
ATOM     43  C   UNL A   1      47.371  27.371  24.578  1.00  0.00     0.131 A 
ATOM     44  C   UNL A   1      49.403  26.040  25.902  1.00  0.00     0.055 A 
ATOM     45  C   UNL A   1      48.547  27.061  23.897  1.00  0.00     0.041 A 
ATOM     46  F   UNL A   1      46.452  28.110  23.935  1.00  0.00    -0.206 F 
ATOM     47  C   UNL A   1      49.575  26.400  24.562  1.00  0.00     0.022 A 
BRANCH  44  48
ATOM     48  S   UNL A   1      50.808  25.391  26.850  1.00  0.00     0.124 S 
ATOM     49  O   UNL A   1      51.320  26.603  27.485  1.00  0.00    -0.237 OA
ATOM     50  O   UNL A   1      50.174  24.425  27.739  1.00  0.00    -0.237 OA
ATOM     51  O   UNL A   1      51.676  24.817  25.823  1.00  0.00    -0.744 OA
ENDBRANCH  44  48
ENDBRANCH  27  41
BRANCH  28  52
ATOM     52  C   UNL A   1      38.492  29.634  30.347  1.00  0.00     0.023 A 
ATOM     53  C   UNL A   1      37.532  30.429  29.697  1.00  0.00     0.031 A 
ATOM     54  C   UNL A   1      38.272  29.349  31.712  1.00  0.00     0.131 A 
ATOM     55  C   UNL A   1      36.450  30.969  30.422  1.00  0.00     0.055 A 
ATOM     56  C   UNL A   1      37.163  29.836  32.411  1.00  0.00     0.041 A 
ATOM     57  F   UNL A   1      39.155  28.616  32.407  1.00  0.00    -0.206 F 
ATOM     58  C   UNL A   1      36.255  30.670  31.771  1.00  0.00     0.022 A 
BRANCH  55  59
ATOM     59  S   UNL A   1      35.383  32.199  29.615  1.00  0.00     0.124 S 
ATOM     60  O   UNL A   1      34.841  31.433  28.498  1.00  0.00    -0.237 OA
ATOM     61  O   UNL A   1      34.446  32.528  30.683  1.00  0.00    -0.237 OA
ATOM     62  O   UNL A   1      36.311  33.266  29.248  1.00  0.00    -0.744 OA
ENDBRANCH  55  59
ENDBRANCH  28  52
BRANCH  40  63
ATOM     63  C   UNL A   1      44.558  32.898  29.217  1.00  0.00     0.023 A 
ATOM     64  C   UNL A   1      44.231  33.964  28.366  1.00  0.00     0.031 A 
ATOM     65  C   UNL A   1      45.339  33.160  30.354  1.00  0.00     0.131 A 
ATOM     66  C   UNL A   1      44.757  35.234  28.621  1.00  0.00     0.055 A 
ATOM     67  C   UNL A   1      45.782  34.446  30.653  1.00  0.00     0.041 A 
ATOM     68  F   UNL A   1      45.679  32.170  31.195  1.00  0.00    -0.206 F 
ATOM     69  C   UNL A   1      45.509  35.488  29.772  1.00  0.00     0.022 A 
BRANCH  66  70
ATOM     70  S   UNL A   1      44.561  36.511  27.353  1.00  0.00     0.124 S 
ATOM     71  O   UNL A   1      43.611  35.883  26.440  1.00  0.00    -0.237 OA
ATOM     72  O   UNL A   1      44.053  37.641  28.123  1.00  0.00    -0.237 OA
ATOM     73  O   UNL A   1      45.914  36.677  26.825  1.00  0.00    -0.744 OA
ENDBRANCH  66  70
ENDBRANCH  40  63
ENDBRANCH  14  15
ENDBRANCH   7   9
ENDBRANCH   6   7
ENDBRANCH   5   6
ENDBRANCH   4   5
ENDBRANCH   3   4
ENDBRANCH   2   3
ENDBRANCH   1   2
BRANCH   1  74
ATOM     74  O   UNL A   1      34.092  23.337  21.979  1.00  0.00    -0.376 OA
BRANCH  74  75
ATOM     75  C   UNL A   1      32.967  24.267  21.467  1.00  0.00     0.202 C 
BRANCH  75  76
ATOM     76  C   UNL A   1      32.674  25.737  22.003  1.00  0.00     0.261 C 
BRANCH  76  77
ATOM     77  O   UNL A   1      31.745  25.927  23.118  1.00  0.00    -0.463 OA
BRANCH  77  78
ATOM     78  C   UNL A   1      31.085  24.916  23.743  1.00  0.00     0.312 C 
ATOM     79  O   UNL A   1      29.914  24.644  23.487  1.00  0.00    -0.252 OA
BRANCH  78  80
ATOM     80  C   UNL A   1      31.889  24.086  24.821  1.00  0.00     0.147 C 
ATOM     81  C   UNL A   1      31.180  24.086  26.174  1.00  0.00     0.129 C 
ATOM     82  C   UNL A   1      33.368  24.249  25.316  1.00  0.00     0.157 C 
ATOM     83  C   UNL A   1      32.293  24.107  27.204  1.00  0.00     0.155 C 
ATOM     84  C   UNL A   1      33.884  23.012  26.001  1.00  0.00     0.004 C 
ATOM     85  O   UNL A   1      33.192  25.017  26.547  1.00  0.00    -0.365 OA
ATOM     86  C   UNL A   1      33.191  22.904  27.145  1.00  0.00     0.004 C 
BRANCH  81  87
ATOM     87  C   UNL A   1      30.184  25.210  26.309  1.00  0.00     0.231 C 
ATOM     88  O   UNL A   1      29.023  24.864  26.601  1.00  0.00    -0.274 OA
ATOM     89  N   UNL A   1      30.326  26.544  26.112  1.00  0.00    -0.325 N 
ATOM     90  H   UNL A   1      29.436  26.962  26.077  1.00  0.00     0.169 HD
BRANCH  89  91
ATOM     91  C   UNL A   1      31.319  27.549  25.937  1.00  0.00     0.044 A 
ATOM     92  C   UNL A   1      32.214  27.478  27.041  1.00  0.00     0.026 A 
ATOM     93  C   UNL A   1      31.535  28.578  24.962  1.00  0.00    -0.020 A 
ATOM     94  C   UNL A   1      33.370  28.240  27.135  1.00  0.00     0.002 A 
ATOM     95  C   UNL A   1      32.740  29.314  25.090  1.00  0.00     0.006 A 
ATOM     96  C   UNL A   1      33.653  29.138  26.131  1.00  0.00     0.000 A 
BRANCH  93  97
ATOM     97  C   UNL A   1      30.818  28.871  23.643  1.00  0.00     0.073 C 
BRANCH  97  98
ATOM     98  C   UNL A   1      29.910  30.013  23.165  1.00  0.00    -0.044 A 
ATOM     99  C   UNL A   1      29.113  29.823  21.520  1.00  0.00     0.004 A 
ATOM    100  C   UNL A   1      29.667  31.607  24.031  1.00  0.00     0.004 A 
ATOM    101  C   UNL A   1      28.132  31.160  20.800  1.00  0.00     0.000 A 
ATOM    102  C   UNL A   1      28.753  32.950  23.252  1.00  0.00     0.000 A 
ATOM    103  C   UNL A   1      27.971  32.713  21.657  1.00  0.00     0.000 A 
ENDBRANCH  97  98
ENDBRANCH  93  97
ENDBRANCH  89  91
ENDBRANCH  81  87
ENDBRANCH  78  80
ENDBRANCH  77  78
ENDBRANCH  76  77
ENDBRANCH  75  76
ENDBRANCH  74  75
ENDBRANCH   1  74
TORSDOF 24
ENDMDL
MODEL 3
REMARK VINA RESULT:     -11.9      1.270      2.074
REMARK SMILES O=C(OCCOCCOCCOC(=O)[C@@H]1[C@H](C(=O)Nc2ccccc2Cc2ccccc2)[C@H]2C=C[C@@H]1O2)c1ccc(-c2c3nc(c(-c4cc(S(=O)(=O)[O-])ccc4F)c4ccc([nH]4)c(-c4cc(S(=O)(=O)[O-])ccc4F)c4nc(c(-c5cc(S(=O)(=O)[O-])ccc5F)c5ccc2[nH]5)C=C4)C=C3)cc1
REMARK SMILES IDX 8 1 7 2 6 3 5 4 4 5 3 6 2 7 1 8 38 9 39 10 100 11 40 12
REMARK SMILES IDX 99 13 41 14 42 15 43 16 93 17 44 18 98 19 92 20 94 21 45 22
REMARK SMILES IDX 97 23 91 24 90 25 46 27 78 28 58 29 77 30 59 31 62 32 76 33
REMARK SMILES IDX 95 34 60 35 61 36 75 38 96 39 63 40 47 41 48 42 56 43 49 44
REMARK SMILES IDX 55 45 57 46 54 47 50 48 51 49 52 50 53 51 79 52 80 53 88 54
REMARK SMILES IDX 81 55 87 56 89 57 86 58 82 59 83 60 84 61 85 62 64 63 65 64
REMARK SMILES IDX 73 65 66 66 72 67 74 68 71 69 67 70 68 71 69 72 70 73 9 74
REMARK SMILES IDX 10 75 11 76 12 77 13 78 14 79 15 80 16 81 36 82 33 83 35 84
REMARK SMILES IDX 37 85 34 86 17 87 18 88 19 89 20 91 21 92 25 93 22 94 24 95
REMARK SMILES IDX 23 96 26 97 27 98 28 99 32 100 29 101 31 102 30 103
REMARK H PARENT 94 26 62 37 19 90
REMARK Flexibility Score: inf
ROOT
ATOM      1  C   UNL A   1      34.907  24.157  23.681  1.00  0.00     0.188 C 
ENDROOT
BRANCH   1   2
ATOM      2  C   UNL A   1      35.640  22.796  24.286  1.00  0.00     0.188 C 
BRANCH   2   3
ATOM      3  O   UNL A   1      36.891  22.256  23.888  1.00  0.00    -0.376 OA
BRANCH   3   4
ATOM      4  C   UNL A   1      37.313  20.935  24.202  1.00  0.00     0.202 C 
BRANCH   4   5
ATOM      5  C   UNL A   1      37.887  20.668  25.577  1.00  0.00     0.261 C 
BRANCH   5   6
ATOM      6  O   UNL A   1      39.128  19.939  25.677  1.00  0.00    -0.460 OA
BRANCH   6   7
ATOM      7  C   UNL A   1      40.380  20.256  26.086  1.00  0.00     0.338 C 
ATOM      8  O   UNL A   1      41.274  19.431  25.894  1.00  0.00    -0.246 OA
BRANCH   7   9
ATOM      9  C   UNL A   1      40.752  21.537  26.753  1.00  0.00     0.060 A 
ATOM     10  C   UNL A   1      40.358  22.774  26.294  1.00  0.00     0.016 A 
ATOM     11  C   UNL A   1      41.441  21.547  27.966  1.00  0.00     0.016 A 
ATOM     12  C   UNL A   1      40.762  23.982  26.779  1.00  0.00     0.010 A 
ATOM     13  C   UNL A   1      41.723  22.767  28.615  1.00  0.00     0.010 A 
ATOM     14  C   UNL A   1      41.409  23.979  27.989  1.00  0.00    -0.014 A 
BRANCH  14  15
ATOM     15  C   UNL A   1      41.867  25.314  28.362  1.00  0.00     0.031 A 
ATOM     16  C   UNL A   1      43.240  25.645  27.871  1.00  0.00     0.074 A 
ATOM     17  C   UNL A   1      40.977  26.280  28.661  1.00  0.00     0.049 A 
ATOM     18  N   UNL A   1      43.811  26.807  27.768  1.00  0.00    -0.248 NA
ATOM     19  C   UNL A   1      44.006  24.529  27.275  1.00  0.00     0.031 C 
ATOM     20  C   UNL A   1      39.525  26.097  28.739  1.00  0.00     0.029 A 
ATOM     21  N   UNL A   1      41.149  27.622  28.870  1.00  0.00    -0.354 N 
ATOM     22  C   UNL A   1      44.969  26.571  27.047  1.00  0.00     0.074 A 
ATOM     23  C   UNL A   1      45.012  25.169  26.711  1.00  0.00     0.031 C 
ATOM     24  C   UNL A   1      38.957  27.282  29.020  1.00  0.00     0.029 A 
ATOM     25  C   UNL A   1      39.989  28.276  29.221  1.00  0.00     0.049 A 
ATOM     26  H   UNL A   1      42.017  28.076  28.778  1.00  0.00     0.167 HD
ATOM     27  C   UNL A   1      45.930  27.462  26.728  1.00  0.00     0.034 A 
ATOM     28  C   UNL A   1      39.810  29.524  29.699  1.00  0.00     0.034 A 
ATOM     29  C   UNL A   1      45.910  28.804  27.230  1.00  0.00     0.049 A 
ATOM     30  C   UNL A   1      41.035  30.401  29.699  1.00  0.00     0.074 A 
ATOM     31  C   UNL A   1      46.922  29.739  27.236  1.00  0.00     0.029 A 
ATOM     32  N   UNL A   1      44.818  29.378  27.873  1.00  0.00    -0.354 N 
ATOM     33  N   UNL A   1      42.212  30.150  29.168  1.00  0.00    -0.248 NA
ATOM     34  C   UNL A   1      40.922  31.717  30.328  1.00  0.00     0.031 C 
ATOM     35  C   UNL A   1      46.473  30.844  27.965  1.00  0.00     0.029 A 
ATOM     36  C   UNL A   1      45.147  30.641  28.323  1.00  0.00     0.049 A 
ATOM     37  H   UNL A   1      43.940  28.947  27.990  1.00  0.00     0.167 HD
ATOM     38  C   UNL A   1      42.969  31.294  29.362  1.00  0.00     0.074 A 
ATOM     39  C   UNL A   1      42.103  32.242  30.042  1.00  0.00     0.031 C 
ATOM     40  C   UNL A   1      44.255  31.546  29.010  1.00  0.00     0.034 A 
BRANCH  27  41
ATOM     41  C   UNL A   1      47.120  26.903  26.009  1.00  0.00     0.023 A 
ATOM     42  C   UNL A   1      48.155  26.242  26.695  1.00  0.00     0.031 A 
ATOM     43  C   UNL A   1      47.299  27.194  24.647  1.00  0.00     0.131 A 
ATOM     44  C   UNL A   1      49.348  25.945  26.022  1.00  0.00     0.055 A 
ATOM     45  C   UNL A   1      48.460  26.831  23.968  1.00  0.00     0.041 A 
ATOM     46  F   UNL A   1      46.372  27.893  23.972  1.00  0.00    -0.206 F 
ATOM     47  C   UNL A   1      49.498  26.210  24.658  1.00  0.00     0.022 A 
BRANCH  44  48
ATOM     48  S   UNL A   1      50.768  25.354  26.987  1.00  0.00     0.124 S 
ATOM     49  O   UNL A   1      51.229  26.588  27.619  1.00  0.00    -0.237 OA
ATOM     50  O   UNL A   1      50.162  24.370  27.876  1.00  0.00    -0.237 OA
ATOM     51  O   UNL A   1      51.666  24.806  25.972  1.00  0.00    -0.744 OA
ENDBRANCH  44  48
ENDBRANCH  27  41
BRANCH  28  52
ATOM     52  C   UNL A   1      38.526  29.972  30.332  1.00  0.00     0.023 A 
ATOM     53  C   UNL A   1      37.635  30.847  29.687  1.00  0.00     0.031 A 
ATOM     54  C   UNL A   1      38.255  29.658  31.681  1.00  0.00     0.131 A 
ATOM     55  C   UNL A   1      36.573  31.433  30.406  1.00  0.00     0.055 A 
ATOM     56  C   UNL A   1      37.163  30.195  32.372  1.00  0.00     0.041 A 
ATOM     57  F   UNL A   1      39.072  28.849  32.372  1.00  0.00    -0.206 F 
ATOM     58  C   UNL A   1      36.327  31.105  31.740  1.00  0.00     0.022 A 
BRANCH  55  59
ATOM     59  S   UNL A   1      35.607  32.755  29.616  1.00  0.00     0.124 S 
ATOM     60  O   UNL A   1      36.183  33.947  30.227  1.00  0.00    -0.237 OA
ATOM     61  O   UNL A   1      35.913  32.545  28.205  1.00  0.00    -0.237 OA
ATOM     62  O   UNL A   1      34.232  32.454  30.008  1.00  0.00    -0.744 OA
ENDBRANCH  55  59
ENDBRANCH  28  52
BRANCH  40  63
ATOM     63  C   UNL A   1      44.773  32.919  29.324  1.00  0.00     0.023 A 
ATOM     64  C   UNL A   1      44.679  33.965  28.394  1.00  0.00     0.031 A 
ATOM     65  C   UNL A   1      45.384  33.173  30.563  1.00  0.00     0.131 A 
ATOM     66  C   UNL A   1      45.267  35.199  28.686  1.00  0.00     0.055 A 
ATOM     67  C   UNL A   1      45.885  34.431  30.883  1.00  0.00     0.041 A 
ATOM     68  F   UNL A   1      45.499  32.200  31.482  1.00  0.00    -0.206 F 
ATOM     69  C   UNL A   1      45.846  35.449  29.933  1.00  0.00     0.022 A 
BRANCH  66  70
ATOM     70  S   UNL A   1      45.387  36.424  27.358  1.00  0.00     0.124 S 
ATOM     71  O   UNL A   1      43.987  36.786  27.157  1.00  0.00    -0.237 OA
ATOM     72  O   UNL A   1      46.230  37.454  27.957  1.00  0.00    -0.237 OA
ATOM     73  O   UNL A   1      46.001  35.679  26.262  1.00  0.00    -0.744 OA
ENDBRANCH  66  70
ENDBRANCH  40  63
ENDBRANCH  14  15
ENDBRANCH   7   9
ENDBRANCH   6   7
ENDBRANCH   5   6
ENDBRANCH   4   5
ENDBRANCH   3   4
ENDBRANCH   2   3
ENDBRANCH   1   2
BRANCH   1  74
ATOM     74  O   UNL A   1      33.224  24.513  22.638  1.00  0.00    -0.376 OA
BRANCH  74  75
ATOM     75  C   UNL A   1      31.920  25.340  22.535  1.00  0.00     0.202 C 
BRANCH  75  76
ATOM     76  C   UNL A   1      31.584  26.386  21.382  1.00  0.00     0.261 C 
BRANCH  76  77
ATOM     77  O   UNL A   1      30.736  27.542  21.682  1.00  0.00    -0.463 OA
BRANCH  77  78
ATOM     78  C   UNL A   1      31.206  28.744  22.108  1.00  0.00     0.312 C 
ATOM     79  O   UNL A   1      32.403  28.945  22.302  1.00  0.00    -0.252 OA
BRANCH  78  80
ATOM     80  C   UNL A   1      30.145  29.891  22.344  1.00  0.00     0.147 C 
ATOM     81  C   UNL A   1      29.192  29.549  23.487  1.00  0.00     0.129 C 
ATOM     82  C   UNL A   1      29.117  30.529  21.346  1.00  0.00     0.157 C 
ATOM     83  C   UNL A   1      27.853  30.129  23.073  1.00  0.00     0.155 C 
ATOM     84  C   UNL A   1      28.615  31.867  21.818  1.00  0.00     0.004 C 
ATOM     85  O   UNL A   1      27.890  29.805  21.672  1.00  0.00    -0.365 OA
ATOM     86  C   UNL A   1      27.870  31.622  22.907  1.00  0.00     0.004 C 
BRANCH  81  87
ATOM     87  C   UNL A   1      29.164  28.074  23.800  1.00  0.00     0.231 C 
ATOM     88  O   UNL A   1      28.277  27.421  23.217  1.00  0.00    -0.274 OA
ATOM     89  N   UNL A   1      29.913  27.339  24.657  1.00  0.00    -0.325 N 
ATOM     90  H   UNL A   1      29.497  26.455  24.774  1.00  0.00     0.169 HD
BRANCH  89  91
ATOM     91  C   UNL A   1      31.096  27.404  25.448  1.00  0.00     0.044 A 
ATOM     92  C   UNL A   1      31.627  28.719  25.334  1.00  0.00     0.026 A 
ATOM     93  C   UNL A   1      31.826  26.449  26.229  1.00  0.00    -0.020 A 
ATOM     94  C   UNL A   1      32.717  29.166  26.068  1.00  0.00     0.002 A 
ATOM     95  C   UNL A   1      32.918  26.960  26.976  1.00  0.00     0.006 A 
ATOM     96  C   UNL A   1      33.343  28.288  26.924  1.00  0.00     0.000 A 
BRANCH  93  97
ATOM     97  C   UNL A   1      31.494  25.005  26.609  1.00  0.00     0.073 C 
BRANCH  97  98
ATOM     98  C   UNL A   1      32.191  23.660  26.361  1.00  0.00    -0.044 A 
ATOM     99  C   UNL A   1      31.567  22.631  24.971  1.00  0.00     0.004 A 
ATOM    100  C   UNL A   1      33.497  22.932  27.416  1.00  0.00     0.004 A 
ATOM    101  C   UNL A   1      32.223  20.973  24.671  1.00  0.00     0.000 A 
ATOM    102  C   UNL A   1      34.072  21.247  27.142  1.00  0.00     0.000 A 
ATOM    103  C   UNL A   1      33.454  20.288  25.760  1.00  0.00     0.000 A 
ENDBRANCH  97  98
ENDBRANCH  93  97
ENDBRANCH  89  91
ENDBRANCH  81  87
ENDBRANCH  78  80
ENDBRANCH  77  78
ENDBRANCH  76  77
ENDBRANCH  75  76
ENDBRANCH  74  75
ENDBRANCH   1  74
TORSDOF 24
ENDMDL
