MODEL 1
REMARK VINA RESULT:     -10.3      0.000      0.000
REMARK SMILES CCOc1ccc(-c2cc(Cl)cc3c2O[C@H](C(F)(F)F)C(C(=O)OCCOCCOCCOC(=O)c2ccc(-c4c5nc(c(-c6cc(S(=O)(=O)[O-])ccc6F)c6ccc([nH]6)c(-c6cc(S(=O)(=O)[O-])ccc6F)c6nc(c(-c7cc(S(=O)(=O)[O-])ccc7F)c7ccc4[nH]7)C=C6)C=C5)cc2)=C3)cc1
REMARK SMILES IDX 28 1 27 2 26 3 25 4 24 5 22 6 23 7 21 8 8 9 9 10 14 11 10 12
REMARK SMILES IDX 13 13 15 14 11 15 12 16 99 17 16 18 7 19 4 20 5 21 101 22
REMARK SMILES IDX 6 23 100 24 3 25 2 26 1 27 17 28 18 29 19 30 20 31 29 32
REMARK SMILES IDX 30 33 31 34 32 35 33 36 34 37 35 38 36 39 37 40 98 41 38 42
REMARK SMILES IDX 97 43 39 44 40 45 41 46 91 47 42 48 96 49 90 50 92 51 43 52
REMARK SMILES IDX 95 53 89 54 88 55 44 57 76 58 56 59 75 60 57 61 60 62 74 63
REMARK SMILES IDX 93 64 58 65 59 66 73 68 94 69 61 70 45 71 46 72 54 73 47 74
REMARK SMILES IDX 53 75 55 76 52 77 48 78 49 79 50 80 51 81 77 82 78 83 86 84
REMARK SMILES IDX 79 85 85 86 87 87 84 88 80 89 81 90 82 91 83 92 62 93 63 94
REMARK SMILES IDX 71 95 64 96 70 97 72 98 69 99 65 100 66 101 67 102 68 103
REMARK H PARENT 92 56 60 67
REMARK Flexibility Score: inf
ROOT
ATOM      1  C   UNL A   1      35.513  20.211  25.047  1.00  0.00     0.188 C 
ENDROOT
BRANCH   1   2
ATOM      2  O   UNL A   1      34.292  19.561  25.352  1.00  0.00    -0.376 OA
BRANCH   2   3
ATOM      3  C   UNL A   1      33.126  20.379  25.357  1.00  0.00     0.202 C 
BRANCH   3   4
ATOM      4  C   UNL A   1      32.477  20.657  23.990  1.00  0.00     0.261 C 
BRANCH   4   5
ATOM      5  O   UNL A   1      32.846  21.953  23.448  1.00  0.00    -0.460 OA
BRANCH   5   6
ATOM      6  C   UNL A   1      31.972  22.955  23.683  1.00  0.00     0.338 C 
ATOM      7  O   UNL A   1      31.024  23.224  22.957  1.00  0.00    -0.246 OA
BRANCH   6   8
ATOM      8  C   UNL A   1      32.211  23.640  24.985  1.00  0.00     0.087 C 
ATOM      9  C   UNL A   1      32.674  27.728  25.452  1.00  0.00     0.026 A 
ATOM     10  C   UNL A   1      32.986  28.148  24.140  1.00  0.00     0.033 A 
ATOM     11  C   UNL A   1      32.648  26.335  25.626  1.00  0.00     0.135 A 
ATOM     12  C   UNL A   1      33.462  27.288  23.153  1.00  0.00     0.042 A 
ATOM     13  C   UNL A   1      33.362  25.517  24.723  1.00  0.00     0.019 A 
ATOM     14  O   UNL A   1      31.771  25.645  26.473  1.00  0.00    -0.475 OA
ATOM     15  Cl  UNL A   1      33.781  27.849  21.563  1.00  0.00    -0.084 Cl
ATOM     16  C   UNL A   1      33.741  25.978  23.472  1.00  0.00     0.032 A 
ATOM     17  C   UNL A   1      33.477  24.080  25.054  1.00  0.00     0.027 C 
ATOM     18  C   UNL A   1      31.169  24.445  25.763  1.00  0.00     0.316 C 
BRANCH   9  19
ATOM     19  C   UNL A   1      32.887  28.810  26.470  1.00  0.00    -0.014 A 
ATOM     20  C   UNL A   1      33.797  31.238  27.746  1.00  0.00     0.119 A 
ATOM     21  C   UNL A   1      32.549  31.168  27.132  1.00  0.00     0.047 A 
ATOM     22  C   UNL A   1      34.593  30.101  27.726  1.00  0.00     0.047 A 
ATOM     23  C   UNL A   1      32.105  29.977  26.514  1.00  0.00     0.013 A 
ATOM     24  C   UNL A   1      34.142  28.909  27.106  1.00  0.00     0.013 A 
BRANCH  20  25
ATOM     25  O   UNL A   1      34.044  32.361  28.485  1.00  0.00    -0.494 OA
BRANCH  25  26
ATOM     26  C   UNL A   1      34.970  33.346  28.014  1.00  0.00     0.226 C 
ATOM     27  C   UNL A   1      34.520  34.779  28.242  1.00  0.00     0.049 C 
ENDBRANCH  25  26
ENDBRANCH  20  25
ENDBRANCH   9  19
BRANCH  18  28
ATOM     28  C   UNL A   1      30.447  23.480  26.713  1.00  0.00     0.430 C 
ATOM     29  F   UNL A   1      31.228  23.093  27.746  1.00  0.00    -0.167 F 
ATOM     30  F   UNL A   1      29.312  24.007  27.221  1.00  0.00    -0.167 F 
ATOM     31  F   UNL A   1      30.082  22.346  26.054  1.00  0.00    -0.167 F 
ENDBRANCH  18  28
ENDBRANCH   6   8
ENDBRANCH   5   6
ENDBRANCH   4   5
ENDBRANCH   3   4
ENDBRANCH   2   3
ENDBRANCH   1   2
BRANCH   1  32
ATOM     32  C   UNL A   1      36.667  19.251  24.677  1.00  0.00     0.188 C 
BRANCH  32  33
ATOM     33  O   UNL A   1      38.010  19.613  24.959  1.00  0.00    -0.376 OA
BRANCH  33  34
ATOM     34  C   UNL A   1      38.294  20.938  25.387  1.00  0.00     0.202 C 
BRANCH  34  35
ATOM     35  C   UNL A   1      39.628  21.256  26.082  1.00  0.00     0.261 C 
BRANCH  35  36
ATOM     36  O   UNL A   1      40.418  20.122  26.489  1.00  0.00    -0.460 OA
BRANCH  36  37
ATOM     37  C   UNL A   1      41.689  20.098  26.018  1.00  0.00     0.338 C 
ATOM     38  O   UNL A   1      42.192  19.221  25.322  1.00  0.00    -0.246 OA
BRANCH  37  39
ATOM     39  C   UNL A   1      42.378  21.375  26.295  1.00  0.00     0.060 A 
ATOM     40  C   UNL A   1      42.664  21.693  27.624  1.00  0.00     0.016 A 
ATOM     41  C   UNL A   1      42.649  22.302  25.285  1.00  0.00     0.016 A 
ATOM     42  C   UNL A   1      43.205  22.940  27.939  1.00  0.00     0.010 A 
ATOM     43  C   UNL A   1      43.188  23.560  25.612  1.00  0.00     0.010 A 
ATOM     44  C   UNL A   1      43.465  23.898  26.947  1.00  0.00    -0.014 A 
BRANCH  44  45
ATOM     45  C   UNL A   1      43.852  25.286  27.348  1.00  0.00     0.031 A 
ATOM     46  C   UNL A   1      45.204  25.797  26.945  1.00  0.00     0.074 A 
ATOM     47  C   UNL A   1      43.016  26.099  28.026  1.00  0.00     0.049 A 
ATOM     48  N   UNL A   1      45.741  26.969  27.153  1.00  0.00    -0.248 NA
ATOM     49  C   UNL A   1      46.080  24.840  26.256  1.00  0.00     0.031 C 
ATOM     50  C   UNL A   1      41.710  25.695  28.515  1.00  0.00     0.029 A 
ATOM     51  N   UNL A   1      43.094  27.429  28.377  1.00  0.00    -0.354 N 
ATOM     52  C   UNL A   1      47.048  26.870  26.692  1.00  0.00     0.074 A 
ATOM     53  C   UNL A   1      47.202  25.534  26.153  1.00  0.00     0.031 C 
ATOM     54  C   UNL A   1      41.040  26.778  28.946  1.00  0.00     0.029 A 
ATOM     55  C   UNL A   1      41.915  27.944  28.888  1.00  0.00     0.049 A 
ATOM     56  H   UNL A   1      43.913  27.965  28.273  1.00  0.00     0.167 HD
ATOM     57  C   UNL A   1      48.038  27.794  26.766  1.00  0.00     0.034 A 
ATOM     58  C   UNL A   1      41.586  29.204  29.267  1.00  0.00     0.034 A 
ATOM     59  C   UNL A   1      47.865  29.108  27.335  1.00  0.00     0.049 A 
ATOM     60  C   UNL A   1      42.693  30.243  29.258  1.00  0.00     0.074 A 
ATOM     61  C   UNL A   1      48.813  30.103  27.506  1.00  0.00     0.029 A 
ATOM     62  N   UNL A   1      46.670  29.612  27.836  1.00  0.00    -0.354 N 
ATOM     63  N   UNL A   1      43.930  30.132  28.826  1.00  0.00    -0.248 NA
ATOM     64  C   UNL A   1      42.377  31.563  29.821  1.00  0.00     0.031 C 
ATOM     65  C   UNL A   1      48.212  31.170  28.180  1.00  0.00     0.029 A 
ATOM     66  C   UNL A   1      46.864  30.889  28.343  1.00  0.00     0.049 A 
ATOM     67  H   UNL A   1      45.810  29.133  27.831  1.00  0.00     0.167 HD
ATOM     68  C   UNL A   1      44.538  31.360  29.081  1.00  0.00     0.074 A 
ATOM     69  C   UNL A   1      43.514  32.218  29.638  1.00  0.00     0.031 C 
ATOM     70  C   UNL A   1      45.832  31.734  28.903  1.00  0.00     0.034 A 
BRANCH  57  71
ATOM     71  C   UNL A   1      49.417  27.354  26.335  1.00  0.00     0.023 A 
ATOM     72  C   UNL A   1      49.971  27.728  25.100  1.00  0.00     0.031 A 
ATOM     73  C   UNL A   1      50.161  26.484  27.154  1.00  0.00     0.131 A 
ATOM     74  C   UNL A   1      51.192  27.171  24.686  1.00  0.00     0.055 A 
ATOM     75  C   UNL A   1      51.417  26.007  26.776  1.00  0.00     0.041 A 
ATOM     76  F   UNL A   1      49.671  26.065  28.331  1.00  0.00    -0.206 F 
ATOM     77  C   UNL A   1      51.932  26.335  25.526  1.00  0.00     0.022 A 
BRANCH  74  78
ATOM     78  S   UNL A   1      51.715  27.415  22.966  1.00  0.00     0.124 S 
ATOM     79  O   UNL A   1      52.278  26.107  22.641  1.00  0.00    -0.237 OA
ATOM     80  O   UNL A   1      50.463  27.755  22.301  1.00  0.00    -0.237 OA
ATOM     81  O   UNL A   1      52.690  28.500  23.054  1.00  0.00    -0.744 OA
ENDBRANCH  74  78
ENDBRANCH  57  71
BRANCH  58  82
ATOM     82  C   UNL A   1      40.192  29.577  29.708  1.00  0.00     0.023 A 
ATOM     83  C   UNL A   1      39.852  29.630  31.073  1.00  0.00     0.031 A 
ATOM     84  C   UNL A   1      39.151  29.831  28.799  1.00  0.00     0.131 A 
ATOM     85  C   UNL A   1      38.539  29.902  31.493  1.00  0.00     0.055 A 
ATOM     86  C   UNL A   1      37.855  30.167  29.216  1.00  0.00     0.041 A 
ATOM     87  F   UNL A   1      39.368  29.758  27.477  1.00  0.00    -0.206 F 
ATOM     88  C   UNL A   1      37.539  30.192  30.570  1.00  0.00     0.022 A 
BRANCH  85  89
ATOM     89  S   UNL A   1      38.134  29.744  33.257  1.00  0.00     0.124 S 
ATOM     90  O   UNL A   1      37.609  31.069  33.565  1.00  0.00    -0.237 OA
ATOM     91  O   UNL A   1      37.160  28.658  33.246  1.00  0.00    -0.237 OA
ATOM     92  O   UNL A   1      39.419  29.421  33.873  1.00  0.00    -0.744 OA
ENDBRANCH  85  89
ENDBRANCH  58  82
BRANCH  70  93
ATOM     93  C   UNL A   1      46.216  33.142  29.307  1.00  0.00     0.023 A 
ATOM     94  C   UNL A   1      46.763  33.426  30.571  1.00  0.00     0.031 A 
ATOM     95  C   UNL A   1      46.064  34.209  28.402  1.00  0.00     0.131 A 
ATOM     96  C   UNL A   1      47.087  34.749  30.915  1.00  0.00     0.055 A 
ATOM     97  C   UNL A   1      46.452  35.511  28.726  1.00  0.00     0.041 A 
ATOM     98  F   UNL A   1      45.547  34.002  27.180  1.00  0.00    -0.206 F 
ATOM     99  C   UNL A   1      46.955  35.789  29.992  1.00  0.00     0.022 A 
BRANCH  96 100
ATOM    100  S   UNL A   1      47.601  35.107  32.618  1.00  0.00     0.124 S 
ATOM    101  O   UNL A   1      47.703  36.563  32.603  1.00  0.00    -0.237 OA
ATOM    102  O   UNL A   1      46.502  34.553  33.401  1.00  0.00    -0.237 OA
ATOM    103  O   UNL A   1      48.874  34.399  32.748  1.00  0.00    -0.744 OA
ENDBRANCH  96 100
ENDBRANCH  70  93
ENDBRANCH  44  45
ENDBRANCH  37  39
ENDBRANCH  36  37
ENDBRANCH  35  36
ENDBRANCH  34  35
ENDBRANCH  33  34
ENDBRANCH  32  33
ENDBRANCH   1  32
TORSDOF 24
ENDMDL
MODEL 2
REMARK VINA RESULT:     -10.3      1.793      2.064
REMARK SMILES CCOc1ccc(-c2cc(Cl)cc3c2O[C@H](C(F)(F)F)C(C(=O)OCCOCCOCCOC(=O)c2ccc(-c4c5nc(c(-c6cc(S(=O)(=O)[O-])ccc6F)c6ccc([nH]6)c(-c6cc(S(=O)(=O)[O-])ccc6F)c6nc(c(-c7cc(S(=O)(=O)[O-])ccc7F)c7ccc4[nH]7)C=C6)C=C5)cc2)=C3)cc1
REMARK SMILES IDX 28 1 27 2 26 3 25 4 24 5 22 6 23 7 21 8 8 9 9 10 14 11 10 12
REMARK SMILES IDX 13 13 15 14 11 15 12 16 99 17 16 18 7 19 4 20 5 21 101 22
REMARK SMILES IDX 6 23 100 24 3 25 2 26 1 27 17 28 18 29 19 30 20 31 29 32
REMARK SMILES IDX 30 33 31 34 32 35 33 36 34 37 35 38 36 39 37 40 98 41 38 42
REMARK SMILES IDX 97 43 39 44 40 45 41 46 91 47 42 48 96 49 90 50 92 51 43 52
REMARK SMILES IDX 95 53 89 54 88 55 44 57 76 58 56 59 75 60 57 61 60 62 74 63
REMARK SMILES IDX 93 64 58 65 59 66 73 68 94 69 61 70 45 71 46 72 54 73 47 74
REMARK SMILES IDX 53 75 55 76 52 77 48 78 49 79 50 80 51 81 77 82 78 83 86 84
REMARK SMILES IDX 79 85 85 86 87 87 84 88 80 89 81 90 82 91 83 92 62 93 63 94
REMARK SMILES IDX 71 95 64 96 70 97 72 98 69 99 65 100 66 101 67 102 68 103
REMARK H PARENT 92 56 60 67
REMARK Flexibility Score: inf
ROOT
ATOM      1  C   UNL A   1      35.493  20.369  24.940  1.00  0.00     0.188 C 
ENDROOT
BRANCH   1   2
ATOM      2  O   UNL A   1      34.253  19.783  25.297  1.00  0.00    -0.376 OA
BRANCH   2   3
ATOM      3  C   UNL A   1      33.110  20.630  25.223  1.00  0.00     0.202 C 
BRANCH   3   4
ATOM      4  C   UNL A   1      32.538  20.888  23.819  1.00  0.00     0.261 C 
BRANCH   4   5
ATOM      5  O   UNL A   1      32.924  22.183  23.287  1.00  0.00    -0.460 OA
BRANCH   5   6
ATOM      6  C   UNL A   1      32.075  23.200  23.548  1.00  0.00     0.338 C 
ATOM      7  O   UNL A   1      31.148  23.525  22.819  1.00  0.00    -0.246 OA
BRANCH   6   8
ATOM      8  C   UNL A   1      32.311  23.824  24.881  1.00  0.00     0.087 C 
ATOM      9  C   UNL A   1      32.878  27.874  25.523  1.00  0.00     0.026 A 
ATOM     10  C   UNL A   1      33.223  28.339  24.236  1.00  0.00     0.033 A 
ATOM     11  C   UNL A   1      32.811  26.477  25.640  1.00  0.00     0.135 A 
ATOM     12  C   UNL A   1      33.692  27.507  23.220  1.00  0.00     0.042 A 
ATOM     13  C   UNL A   1      33.517  25.677  24.715  1.00  0.00     0.019 A 
ATOM     14  O   UNL A   1      31.901  25.778  26.444  1.00  0.00    -0.475 OA
ATOM     15  Cl  UNL A   1      34.052  28.123  21.660  1.00  0.00    -0.084 Cl
ATOM     16  C   UNL A   1      33.929  26.177  23.489  1.00  0.00     0.032 A 
ATOM     17  C   UNL A   1      33.587  24.225  24.988  1.00  0.00     0.027 C 
ATOM     18  C   UNL A   1      31.279  24.625  25.675  1.00  0.00     0.316 C 
BRANCH   9  19
ATOM     19  C   UNL A   1      33.104  28.908  26.588  1.00  0.00    -0.014 A 
ATOM     20  C   UNL A   1      33.867  31.357  27.921  1.00  0.00     0.119 A 
ATOM     21  C   UNL A   1      32.557  31.140  27.499  1.00  0.00     0.047 A 
ATOM     22  C   UNL A   1      34.798  30.355  27.680  1.00  0.00     0.047 A 
ATOM     23  C   UNL A   1      32.186  29.939  26.853  1.00  0.00     0.013 A 
ATOM     24  C   UNL A   1      34.420  29.152  27.032  1.00  0.00     0.013 A 
BRANCH  20  25
ATOM     25  O   UNL A   1      34.075  32.453  28.709  1.00  0.00    -0.494 OA
BRANCH  25  26
ATOM     26  C   UNL A   1      33.665  33.751  28.263  1.00  0.00     0.226 C 
ATOM     27  C   UNL A   1      34.796  34.603  27.715  1.00  0.00     0.049 C 
ENDBRANCH  25  26
ENDBRANCH  20  25
ENDBRANCH   9  19
BRANCH  18  28
ATOM     28  C   UNL A   1      30.515  23.643  26.574  1.00  0.00     0.430 C 
ATOM     29  F   UNL A   1      30.178  22.506  25.925  1.00  0.00    -0.167 F 
ATOM     30  F   UNL A   1      31.211  23.304  27.679  1.00  0.00    -0.167 F 
ATOM     31  F   UNL A   1      29.351  24.202  27.009  1.00  0.00    -0.167 F 
ENDBRANCH  18  28
ENDBRANCH   6   8
ENDBRANCH   5   6
ENDBRANCH   4   5
ENDBRANCH   3   4
ENDBRANCH   2   3
ENDBRANCH   1   2
BRANCH   1  32
ATOM     32  C   UNL A   1      36.634  19.352  24.716  1.00  0.00     0.188 C 
BRANCH  32  33
ATOM     33  O   UNL A   1      37.968  19.695  25.059  1.00  0.00    -0.376 OA
BRANCH  33  34
ATOM     34  C   UNL A   1      38.266  21.037  25.421  1.00  0.00     0.202 C 
BRANCH  34  35
ATOM     35  C   UNL A   1      39.600  21.372  26.109  1.00  0.00     0.261 C 
BRANCH  35  36
ATOM     36  O   UNL A   1      40.378  20.251  26.567  1.00  0.00    -0.460 OA
BRANCH  36  37
ATOM     37  C   UNL A   1      41.643  20.182  26.083  1.00  0.00     0.338 C 
ATOM     38  O   UNL A   1      42.119  19.269  25.417  1.00  0.00    -0.246 OA
BRANCH  37  39
ATOM     39  C   UNL A   1      42.362  21.454  26.303  1.00  0.00     0.060 A 
ATOM     40  C   UNL A   1      42.673  21.816  27.615  1.00  0.00     0.016 A 
ATOM     41  C   UNL A   1      42.636  22.337  25.255  1.00  0.00     0.016 A 
ATOM     42  C   UNL A   1      43.243  23.062  27.876  1.00  0.00     0.010 A 
ATOM     43  C   UNL A   1      43.205  23.595  25.528  1.00  0.00     0.010 A 
ATOM     44  C   UNL A   1      43.508  23.977  26.845  1.00  0.00    -0.014 A 
BRANCH  44  45
ATOM     45  C   UNL A   1      43.929  25.370  27.189  1.00  0.00     0.031 A 
ATOM     46  C   UNL A   1      45.276  25.844  26.731  1.00  0.00     0.074 A 
ATOM     47  C   UNL A   1      43.126  26.219  27.863  1.00  0.00     0.049 A 
ATOM     48  N   UNL A   1      45.839  27.013  26.885  1.00  0.00    -0.248 NA
ATOM     49  C   UNL A   1      46.117  24.850  26.050  1.00  0.00     0.031 C 
ATOM     50  C   UNL A   1      41.828  25.853  28.401  1.00  0.00     0.029 A 
ATOM     51  N   UNL A   1      43.235  27.558  28.166  1.00  0.00    -0.354 N 
ATOM     52  C   UNL A   1      47.130  26.877  26.390  1.00  0.00     0.074 A 
ATOM     53  C   UNL A   1      47.247  25.521  25.892  1.00  0.00     0.031 C 
ATOM     54  C   UNL A   1      41.188  26.962  28.814  1.00  0.00     0.029 A 
ATOM     55  C   UNL A   1      42.080  28.110  28.692  1.00  0.00     0.049 A 
ATOM     56  H   UNL A   1      44.060  28.077  28.021  1.00  0.00     0.167 HD
ATOM     57  C   UNL A   1      48.137  27.785  26.406  1.00  0.00     0.034 A 
ATOM     58  C   UNL A   1      41.782  29.387  29.038  1.00  0.00     0.034 A 
ATOM     59  C   UNL A   1      48.001  29.121  26.935  1.00  0.00     0.049 A 
ATOM     60  C   UNL A   1      42.905  30.406  28.963  1.00  0.00     0.074 A 
ATOM     61  C   UNL A   1      48.969  30.104  27.046  1.00  0.00     0.029 A 
ATOM     62  N   UNL A   1      46.829  29.661  27.453  1.00  0.00    -0.354 N 
ATOM     63  N   UNL A   1      44.127  30.260  28.501  1.00  0.00    -0.248 NA
ATOM     64  C   UNL A   1      42.627  31.749  29.491  1.00  0.00     0.031 C 
ATOM     65  C   UNL A   1      48.405  31.203  27.700  1.00  0.00     0.029 A 
ATOM     66  C   UNL A   1      47.058  30.950  27.911  1.00  0.00     0.049 A 
ATOM     67  H   UNL A   1      45.962  29.196  27.488  1.00  0.00     0.167 HD
ATOM     68  C   UNL A   1      44.762  31.485  28.697  1.00  0.00     0.074 A 
ATOM     69  C   UNL A   1      43.769  32.378  29.254  1.00  0.00     0.031 C 
ATOM     70  C   UNL A   1      46.056  31.831  28.470  1.00  0.00     0.034 A 
BRANCH  57  71
ATOM     71  C   UNL A   1      49.495  27.308  25.951  1.00  0.00     0.023 A 
ATOM     72  C   UNL A   1      50.505  26.945  26.858  1.00  0.00     0.031 A 
ATOM     73  C   UNL A   1      49.804  27.283  24.578  1.00  0.00     0.131 A 
ATOM     74  C   UNL A   1      51.794  26.652  26.386  1.00  0.00     0.055 A 
ATOM     75  C   UNL A   1      51.063  26.901  24.111  1.00  0.00     0.041 A 
ATOM     76  F   UNL A   1      48.892  27.650  23.665  1.00  0.00    -0.206 F 
ATOM     77  C   UNL A   1      52.073  26.601  25.018  1.00  0.00     0.022 A 
BRANCH  74  78
ATOM     78  S   UNL A   1      53.144  26.510  27.589  1.00  0.00     0.124 S 
ATOM     79  O   UNL A   1      53.812  27.800  27.437  1.00  0.00    -0.237 OA
ATOM     80  O   UNL A   1      52.428  26.305  28.843  1.00  0.00    -0.237 OA
ATOM     81  O   UNL A   1      53.910  25.360  27.112  1.00  0.00    -0.744 OA
ENDBRANCH  74  78
ENDBRANCH  57  71
BRANCH  58  82
ATOM     82  C   UNL A   1      40.407  29.798  29.506  1.00  0.00     0.023 A 
ATOM     83  C   UNL A   1      40.139  30.015  30.871  1.00  0.00     0.031 A 
ATOM     84  C   UNL A   1      39.316  29.929  28.630  1.00  0.00     0.131 A 
ATOM     85  C   UNL A   1      38.845  30.323  31.324  1.00  0.00     0.055 A 
ATOM     86  C   UNL A   1      38.039  30.301  29.073  1.00  0.00     0.041 A 
ATOM     87  F   UNL A   1      39.464  29.696  27.317  1.00  0.00    -0.206 F 
ATOM     88  C   UNL A   1      37.794  30.489  30.429  1.00  0.00     0.022 A 
BRANCH  85  89
ATOM     89  S   UNL A   1      38.537  30.380  33.114  1.00  0.00     0.124 S 
ATOM     90  O   UNL A   1      39.328  31.536  33.520  1.00  0.00    -0.237 OA
ATOM     91  O   UNL A   1      37.089  30.548  33.164  1.00  0.00    -0.237 OA
ATOM     92  O   UNL A   1      39.030  29.088  33.585  1.00  0.00    -0.744 OA
ENDBRANCH  85  89
ENDBRANCH  58  82
BRANCH  70  93
ATOM     93  C   UNL A   1      46.474  33.245  28.816  1.00  0.00     0.023 A 
ATOM     94  C   UNL A   1      46.423  34.285  27.870  1.00  0.00     0.031 A 
ATOM     95  C   UNL A   1      46.898  33.563  30.120  1.00  0.00     0.131 A 
ATOM     96  C   UNL A   1      46.840  35.578  28.225  1.00  0.00     0.055 A 
ATOM     97  C   UNL A   1      47.245  34.866  30.485  1.00  0.00     0.041 A 
ATOM     98  F   UNL A   1      46.968  32.615  31.067  1.00  0.00    -0.206 F 
ATOM     99  C   UNL A   1      47.229  35.879  29.532  1.00  0.00     0.022 A 
BRANCH  96 100
ATOM    100  S   UNL A   1      46.951  36.845  26.931  1.00  0.00     0.124 S 
ATOM    101  O   UNL A   1      48.370  37.187  26.962  1.00  0.00    -0.237 OA
ATOM    102  O   UNL A   1      46.495  36.126  25.746  1.00  0.00    -0.237 OA
ATOM    103  O   UNL A   1      46.050  37.896  27.402  1.00  0.00    -0.744 OA
ENDBRANCH  96 100
ENDBRANCH  70  93
ENDBRANCH  44  45
ENDBRANCH  37  39
ENDBRANCH  36  37
ENDBRANCH  35  36
ENDBRANCH  34  35
ENDBRANCH  33  34
ENDBRANCH  32  33
ENDBRANCH   1  32
TORSDOF 24
ENDMDL
MODEL 3
REMARK VINA RESULT:     -10.2      4.209      8.732
REMARK SMILES CCOc1ccc(-c2cc(Cl)cc3c2O[C@H](C(F)(F)F)C(C(=O)OCCOCCOCCOC(=O)c2ccc(-c4c5nc(c(-c6cc(S(=O)(=O)[O-])ccc6F)c6ccc([nH]6)c(-c6cc(S(=O)(=O)[O-])ccc6F)c6nc(c(-c7cc(S(=O)(=O)[O-])ccc7F)c7ccc4[nH]7)C=C6)C=C5)cc2)=C3)cc1
REMARK SMILES IDX 28 1 27 2 26 3 25 4 24 5 22 6 23 7 21 8 8 9 9 10 14 11 10 12
REMARK SMILES IDX 13 13 15 14 11 15 12 16 99 17 16 18 7 19 4 20 5 21 101 22
REMARK SMILES IDX 6 23 100 24 3 25 2 26 1 27 17 28 18 29 19 30 20 31 29 32
REMARK SMILES IDX 30 33 31 34 32 35 33 36 34 37 35 38 36 39 37 40 98 41 38 42
REMARK SMILES IDX 97 43 39 44 40 45 41 46 91 47 42 48 96 49 90 50 92 51 43 52
REMARK SMILES IDX 95 53 89 54 88 55 44 57 76 58 56 59 75 60 57 61 60 62 74 63
REMARK SMILES IDX 93 64 58 65 59 66 73 68 94 69 61 70 45 71 46 72 54 73 47 74
REMARK SMILES IDX 53 75 55 76 52 77 48 78 49 79 50 80 51 81 77 82 78 83 86 84
REMARK SMILES IDX 79 85 85 86 87 87 84 88 80 89 81 90 82 91 83 92 62 93 63 94
REMARK SMILES IDX 71 95 64 96 70 97 72 98 69 99 65 100 66 101 67 102 68 103
REMARK H PARENT 92 56 60 67
REMARK Flexibility Score: inf
ROOT
ATOM      1  C   UNL A   1      33.417  31.323  27.650  1.00  0.00     0.188 C 
ENDROOT
BRANCH   1   2
ATOM      2  O   UNL A   1      32.941  30.281  26.816  1.00  0.00    -0.376 OA
BRANCH   2   3
ATOM      3  C   UNL A   1      31.829  30.597  25.984  1.00  0.00     0.202 C 
BRANCH   3   4
ATOM      4  C   UNL A   1      31.328  29.479  25.054  1.00  0.00     0.261 C 
BRANCH   4   5
ATOM      5  O   UNL A   1      32.090  28.250  25.196  1.00  0.00    -0.460 OA
BRANCH   5   6
ATOM      6  C   UNL A   1      31.488  27.133  24.735  1.00  0.00     0.338 C 
ATOM      7  O   UNL A   1      30.280  27.016  24.581  1.00  0.00    -0.246 OA
BRANCH   6   8
ATOM      8  C   UNL A   1      32.459  26.080  24.321  1.00  0.00     0.087 C 
ATOM      9  C   UNL A   1      31.844  22.007  24.742  1.00  0.00     0.026 A 
ATOM     10  C   UNL A   1      30.812  21.955  25.704  1.00  0.00     0.033 A 
ATOM     11  C   UNL A   1      32.391  23.285  24.543  1.00  0.00     0.135 A 
ATOM     12  C   UNL A   1      30.508  23.012  26.561  1.00  0.00     0.042 A 
ATOM     13  C   UNL A   1      32.262  24.253  25.563  1.00  0.00     0.019 A 
ATOM     14  O   UNL A   1      32.843  23.785  23.315  1.00  0.00    -0.475 OA
ATOM     15  Cl  UNL A   1      29.211  22.906  27.678  1.00  0.00    -0.084 Cl
ATOM     16  C   UNL A   1      31.299  24.138  26.554  1.00  0.00     0.032 A 
ATOM     17  C   UNL A   1      33.019  25.513  25.401  1.00  0.00     0.027 C 
ATOM     18  C   UNL A   1      32.325  25.194  23.083  1.00  0.00     0.316 C 
BRANCH   9  19
ATOM     19  C   UNL A   1      32.453  20.661  24.476  1.00  0.00    -0.014 A 
ATOM     20  C   UNL A   1      32.784  17.802  24.207  1.00  0.00     0.119 A 
ATOM     21  C   UNL A   1      32.483  18.602  23.108  1.00  0.00     0.047 A 
ATOM     22  C   UNL A   1      32.921  18.423  25.441  1.00  0.00     0.047 A 
ATOM     23  C   UNL A   1      32.327  20.001  23.242  1.00  0.00     0.013 A 
ATOM     24  C   UNL A   1      32.764  19.826  25.570  1.00  0.00     0.013 A 
BRANCH  20  25
ATOM     25  O   UNL A   1      33.112  16.503  23.937  1.00  0.00    -0.494 OA
BRANCH  25  26
ATOM     26  C   UNL A   1      33.656  15.668  24.965  1.00  0.00     0.226 C 
ATOM     27  C   UNL A   1      35.138  15.885  25.219  1.00  0.00     0.049 C 
ENDBRANCH  25  26
ENDBRANCH  20  25
ENDBRANCH   9  19
BRANCH  18  28
ATOM     28  C   UNL A   1      33.022  25.909  21.918  1.00  0.00     0.430 C 
ATOM     29  F   UNL A   1      34.309  26.211  22.195  1.00  0.00    -0.167 F 
ATOM     30  F   UNL A   1      32.998  25.187  20.778  1.00  0.00    -0.167 F 
ATOM     31  F   UNL A   1      32.396  27.087  21.640  1.00  0.00    -0.167 F 
ENDBRANCH  18  28
ENDBRANCH   6   8
ENDBRANCH   5   6
ENDBRANCH   4   5
ENDBRANCH   3   4
ENDBRANCH   2   3
ENDBRANCH   1   2
BRANCH   1  32
ATOM     32  C   UNL A   1      34.919  31.220  27.998  1.00  0.00     0.188 C 
BRANCH  32  33
ATOM     33  O   UNL A   1      35.593  32.332  28.568  1.00  0.00    -0.376 OA
BRANCH  33  34
ATOM     34  C   UNL A   1      35.090  32.906  29.767  1.00  0.00     0.202 C 
BRANCH  34  35
ATOM     35  C   UNL A   1      34.863  32.028  31.008  1.00  0.00     0.261 C 
BRANCH  35  36
ATOM     36  O   UNL A   1      36.036  31.694  31.773  1.00  0.00    -0.460 OA
BRANCH  36  37
ATOM     37  C   UNL A   1      36.632  30.520  31.445  1.00  0.00     0.338 C 
ATOM     38  O   UNL A   1      36.085  29.426  31.351  1.00  0.00    -0.246 OA
BRANCH  37  39
ATOM     39  C   UNL A   1      38.031  30.739  31.025  1.00  0.00     0.060 A 
ATOM     40  C   UNL A   1      38.970  31.064  32.007  1.00  0.00     0.016 A 
ATOM     41  C   UNL A   1      38.407  30.734  29.679  1.00  0.00     0.016 A 
ATOM     42  C   UNL A   1      40.275  31.395  31.639  1.00  0.00     0.010 A 
ATOM     43  C   UNL A   1      39.723  31.077  29.316  1.00  0.00     0.010 A 
ATOM     44  C   UNL A   1      40.672  31.420  30.293  1.00  0.00    -0.014 A 
BRANCH  44  45
ATOM     45  C   UNL A   1      42.014  31.973  29.933  1.00  0.00     0.031 A 
ATOM     46  C   UNL A   1      43.140  31.014  29.683  1.00  0.00     0.074 A 
ATOM     47  C   UNL A   1      42.233  33.297  29.793  1.00  0.00     0.049 A 
ATOM     48  N   UNL A   1      44.374  31.260  29.331  1.00  0.00    -0.248 NA
ATOM     49  C   UNL A   1      42.843  29.593  29.906  1.00  0.00     0.031 C 
ATOM     50  C   UNL A   1      41.236  34.318  30.063  1.00  0.00     0.029 A 
ATOM     51  N   UNL A   1      43.318  34.018  29.345  1.00  0.00    -0.354 N 
ATOM     52  C   UNL A   1      45.025  30.033  29.365  1.00  0.00     0.074 A 
ATOM     53  C   UNL A   1      44.034  29.042  29.729  1.00  0.00     0.031 C 
ATOM     54  C   UNL A   1      41.683  35.506  29.621  1.00  0.00     0.029 A 
ATOM     55  C   UNL A   1      43.057  35.363  29.150  1.00  0.00     0.049 A 
ATOM     56  H   UNL A   1      44.200  33.613  29.177  1.00  0.00     0.167 HD
ATOM     57  C   UNL A   1      46.341  29.775  29.165  1.00  0.00     0.034 A 
ATOM     58  C   UNL A   1      43.835  36.358  28.658  1.00  0.00     0.034 A 
ATOM     59  C   UNL A   1      47.314  30.786  28.831  1.00  0.00     0.049 A 
ATOM     60  C   UNL A   1      45.285  36.021  28.358  1.00  0.00     0.074 A 
ATOM     61  C   UNL A   1      48.680  30.642  28.657  1.00  0.00     0.029 A 
ATOM     62  N   UNL A   1      47.032  32.133  28.631  1.00  0.00    -0.354 N 
ATOM     63  N   UNL A   1      45.891  34.854  28.404  1.00  0.00    -0.248 NA
ATOM     64  C   UNL A   1      46.167  37.134  27.980  1.00  0.00     0.031 C 
ATOM     65  C   UNL A   1      49.230  31.908  28.432  1.00  0.00     0.029 A 
ATOM     66  C   UNL A   1      48.200  32.833  28.366  1.00  0.00     0.049 A 
ATOM     67  H   UNL A   1      46.132  32.532  28.671  1.00  0.00     0.167 HD
ATOM     68  C   UNL A   1      47.223  35.100  28.075  1.00  0.00     0.074 A 
ATOM     69  C   UNL A   1      47.317  36.511  27.766  1.00  0.00     0.031 C 
ATOM     70  C   UNL A   1      48.280  34.246  28.063  1.00  0.00     0.034 A 
BRANCH  57  71
ATOM     71  C   UNL A   1      46.809  28.364  29.432  1.00  0.00     0.023 A 
ATOM     72  C   UNL A   1      46.819  27.375  28.434  1.00  0.00     0.031 A 
ATOM     73  C   UNL A   1      47.188  27.988  30.734  1.00  0.00     0.131 A 
ATOM     74  C   UNL A   1      47.121  26.046  28.771  1.00  0.00     0.055 A 
ATOM     75  C   UNL A   1      47.576  26.683  31.043  1.00  0.00     0.041 A 
ATOM     76  F   UNL A   1      47.167  28.879  31.738  1.00  0.00    -0.206 F 
ATOM     77  C   UNL A   1      47.526  25.698  30.062  1.00  0.00     0.022 A 
BRANCH  74  78
ATOM     78  S   UNL A   1      46.809  24.750  27.542  1.00  0.00     0.124 S 
ATOM     79  O   UNL A   1      45.988  23.812  28.304  1.00  0.00    -0.237 OA
ATOM     80  O   UNL A   1      46.126  25.480  26.480  1.00  0.00    -0.237 OA
ATOM     81  O   UNL A   1      48.146  24.265  27.207  1.00  0.00    -0.744 OA
ENDBRANCH  74  78
ENDBRANCH  57  71
BRANCH  58  82
ATOM     82  C   UNL A   1      43.314  37.756  28.432  1.00  0.00     0.023 A 
ATOM     83  C   UNL A   1      43.372  38.726  29.451  1.00  0.00     0.031 A 
ATOM     84  C   UNL A   1      42.696  38.150  27.233  1.00  0.00     0.131 A 
ATOM     85  C   UNL A   1      42.821  40.007  29.276  1.00  0.00     0.055 A 
ATOM     86  C   UNL A   1      42.203  39.448  27.034  1.00  0.00     0.041 A 
ATOM     87  F   UNL A   1      42.552  37.280  26.222  1.00  0.00    -0.206 F 
ATOM     88  C   UNL A   1      42.253  40.382  28.064  1.00  0.00     0.022 A 
BRANCH  85  89
ATOM     89  S   UNL A   1      42.747  41.128  30.705  1.00  0.00     0.124 S 
ATOM     90  O   UNL A   1      43.655  42.194  30.297  1.00  0.00    -0.237 OA
ATOM     91  O   UNL A   1      41.330  41.475  30.740  1.00  0.00    -0.237 OA
ATOM     92  O   UNL A   1      43.213  40.299  31.813  1.00  0.00    -0.744 OA
ENDBRANCH  85  89
ENDBRANCH  58  82
BRANCH  70  93
ATOM     93  C   UNL A   1      49.634  34.812  27.694  1.00  0.00     0.023 A 
ATOM     94  C   UNL A   1      50.132  34.742  26.380  1.00  0.00     0.031 A 
ATOM     95  C   UNL A   1      50.424  35.459  28.662  1.00  0.00     0.131 A 
ATOM     96  C   UNL A   1      51.403  35.261  26.082  1.00  0.00     0.055 A 
ATOM     97  C   UNL A   1      51.657  36.034  28.344  1.00  0.00     0.041 A 
ATOM     98  F   UNL A   1      50.003  35.558  29.933  1.00  0.00    -0.206 F 
ATOM     99  C   UNL A   1      52.158  35.925  27.051  1.00  0.00     0.022 A 
BRANCH  96 100
ATOM    100  S   UNL A   1      52.097  34.977  24.430  1.00  0.00     0.124 S 
ATOM    101  O   UNL A   1      51.686  36.183  23.718  1.00  0.00    -0.237 OA
ATOM    102  O   UNL A   1      53.525  34.855  24.705  1.00  0.00    -0.237 OA
ATOM    103  O   UNL A   1      51.444  33.745  23.991  1.00  0.00    -0.744 OA
ENDBRANCH  96 100
ENDBRANCH  70  93
ENDBRANCH  44  45
ENDBRANCH  37  39
ENDBRANCH  36  37
ENDBRANCH  35  36
ENDBRANCH  34  35
ENDBRANCH  33  34
ENDBRANCH  32  33
ENDBRANCH   1  32
TORSDOF 24
ENDMDL
