MODEL 1
REMARK VINA RESULT:     -12.0      0.000      0.000
REMARK SMILES Cc1nnc(SCC(=O)Nc2cccc(C(=O)OCCOCCOCCOC(=O)c3ccc(-c4c5nc(c(-c6cc(S(=O)(=O)[O-])ccc6F)c6ccc([nH]6)c(-c6cc(S(=O)(=O)[O-])ccc6F)c6nc(c(-c7cc(S(=O)(=O)[O-])ccc7F)c7ccc4[nH]7)C=C6)C=C5)cc3)c2)n1-c1ccccc1
REMARK SMILES IDX 22 1 21 2 20 3 19 4 18 5 16 6 17 7 15 8 11 9 12 10 93 11
REMARK SMILES IDX 13 12 14 13 10 14 8 15 9 16 7 18 6 19 5 20 1 21 2 22 3 23
REMARK SMILES IDX 94 24 4 25 95 26 96 27 100 28 97 29 99 30 98 31 23 32 24 33
REMARK SMILES IDX 25 34 26 35 27 36 28 37 29 38 30 39 31 40 92 41 32 42 91 43
REMARK SMILES IDX 33 44 34 45 35 46 85 47 36 48 90 49 84 50 86 51 37 52 89 53
REMARK SMILES IDX 83 54 82 55 38 57 70 58 50 59 69 60 51 61 54 62 68 63 87 64
REMARK SMILES IDX 52 65 53 66 67 68 88 69 55 70 39 71 40 72 48 73 41 74 47 75
REMARK SMILES IDX 49 76 46 77 42 78 43 79 44 80 45 81 71 82 72 83 80 84 73 85
REMARK SMILES IDX 79 86 81 87 78 88 74 89 75 90 76 91 77 92 56 93 57 94 65 95
REMARK SMILES IDX 58 96 64 97 66 98 63 99 59 100 60 101 61 102 62 103
REMARK H PARENT 10 17 86 56 54 67
REMARK Flexibility Score: inf
ROOT
ATOM      1  C   UNL A   1      33.640  33.744  28.465  1.00  0.00     0.188 C 
ENDROOT
BRANCH   1   2
ATOM      2  O   UNL A   1      34.582  32.958  27.742  1.00  0.00    -0.376 OA
BRANCH   2   3
ATOM      3  C   UNL A   1      34.346  31.575  27.540  1.00  0.00     0.202 C 
BRANCH   3   4
ATOM      4  C   UNL A   1      32.917  31.125  27.199  1.00  0.00     0.261 C 
BRANCH   4   5
ATOM      5  O   UNL A   1      32.743  29.703  27.137  1.00  0.00    -0.460 OA
BRANCH   5   6
ATOM      6  C   UNL A   1      33.505  29.024  26.246  1.00  0.00     0.338 C 
ATOM      7  O   UNL A   1      34.632  28.597  26.413  1.00  0.00    -0.246 OA
BRANCH   6   8
ATOM      8  C   UNL A   1      32.693  28.737  25.036  1.00  0.00     0.062 A 
ATOM      9  C   UNL A   1      32.497  27.884  22.783  1.00  0.00     0.042 A 
ATOM     10  C   UNL A   1      31.234  28.471  22.678  1.00  0.00     0.026 A 
ATOM     11  C   UNL A   1      33.237  28.056  23.945  1.00  0.00     0.041 A 
ATOM     12  C   UNL A   1      30.672  29.129  23.772  1.00  0.00     0.003 A 
ATOM     13  C   UNL A   1      31.392  29.244  24.960  1.00  0.00     0.016 A 
BRANCH   9  14
ATOM     14  N   UNL A   1      32.946  27.159  21.681  1.00  0.00    -0.325 N 
ATOM     15  C   UNL A   1      32.773  25.859  21.325  1.00  0.00     0.234 C 
ATOM     16  O   UNL A   1      33.133  25.592  20.173  1.00  0.00    -0.274 OA
ATOM     17  H   UNL A   1      33.486  27.682  21.045  1.00  0.00     0.169 HD
BRANCH  15  18
ATOM     18  C   UNL A   1      31.984  24.852  22.137  1.00  0.00     0.178 C 
BRANCH  18  19
ATOM     19  S   UNL A   1      32.809  23.373  22.748  1.00  0.00    -0.076 SA
BRANCH  19  20
ATOM     20  C   UNL A   1      32.595  23.289  24.459  1.00  0.00     0.196 A 
ATOM     21  C   UNL A   1      33.520  22.244  27.803  1.00  0.00     0.090 C 
ATOM     22  C   UNL A   1      32.891  22.741  26.559  1.00  0.00     0.135 A 
ATOM     23  N   UNL A   1      31.604  22.946  26.366  1.00  0.00    -0.134 NA
ATOM     24  N   UNL A   1      33.569  22.972  25.379  1.00  0.00    -0.274 N 
ATOM     25  N   UNL A   1      31.419  23.285  25.046  1.00  0.00    -0.123 NA
BRANCH  24  26
ATOM     26  C   UNL A   1      34.954  22.928  25.173  1.00  0.00     0.049 A 
ATOM     27  C   UNL A   1      35.493  21.776  24.603  1.00  0.00     0.027 A 
ATOM     28  C   UNL A   1      35.769  23.920  25.718  1.00  0.00     0.027 A 
ATOM     29  C   UNL A   1      36.865  21.554  24.689  1.00  0.00     0.002 A 
ATOM     30  C   UNL A   1      37.148  23.717  25.739  1.00  0.00     0.002 A 
ATOM     31  C   UNL A   1      37.690  22.522  25.259  1.00  0.00     0.000 A 
ENDBRANCH  24  26
ENDBRANCH  19  20
ENDBRANCH  18  19
ENDBRANCH  15  18
ENDBRANCH   9  14
ENDBRANCH   6   8
ENDBRANCH   5   6
ENDBRANCH   4   5
ENDBRANCH   3   4
ENDBRANCH   2   3
ENDBRANCH   1   2
BRANCH   1  32
ATOM     32  C   UNL A   1      34.040  34.657  29.647  1.00  0.00     0.188 C 
BRANCH  32  33
ATOM     33  O   UNL A   1      35.128  34.210  30.440  1.00  0.00    -0.376 OA
BRANCH  33  34
ATOM     34  C   UNL A   1      35.064  32.846  30.855  1.00  0.00     0.202 C 
BRANCH  34  35
ATOM     35  C   UNL A   1      36.428  32.163  30.804  1.00  0.00     0.261 C 
BRANCH  35  36
ATOM     36  O   UNL A   1      36.400  30.894  30.160  1.00  0.00    -0.460 OA
BRANCH  36  37
ATOM     37  C   UNL A   1      36.754  29.837  30.921  1.00  0.00     0.338 C 
ATOM     38  O   UNL A   1      36.502  29.660  32.097  1.00  0.00    -0.246 OA
BRANCH  37  39
ATOM     39  C   UNL A   1      37.558  28.926  30.096  1.00  0.00     0.060 A 
ATOM     40  C   UNL A   1      38.135  27.838  30.751  1.00  0.00     0.016 A 
ATOM     41  C   UNL A   1      37.947  29.315  28.804  1.00  0.00     0.016 A 
ATOM     42  C   UNL A   1      39.292  27.311  30.227  1.00  0.00     0.010 A 
ATOM     43  C   UNL A   1      39.114  28.804  28.293  1.00  0.00     0.010 A 
ATOM     44  C   UNL A   1      39.820  27.891  29.071  1.00  0.00    -0.014 A 
BRANCH  44  45
ATOM     45  C   UNL A   1      41.190  27.576  28.741  1.00  0.00     0.031 A 
ATOM     46  C   UNL A   1      41.382  26.292  28.057  1.00  0.00     0.074 A 
ATOM     47  C   UNL A   1      42.191  28.440  28.985  1.00  0.00     0.049 A 
ATOM     48  N   UNL A   1      41.987  25.246  28.504  1.00  0.00    -0.248 NA
ATOM     49  C   UNL A   1      40.691  26.099  26.776  1.00  0.00     0.031 C 
ATOM     50  C   UNL A   1      42.075  29.844  29.393  1.00  0.00     0.029 A 
ATOM     51  N   UNL A   1      43.528  28.274  28.798  1.00  0.00    -0.354 N 
ATOM     52  C   UNL A   1      41.962  24.335  27.458  1.00  0.00     0.074 A 
ATOM     53  C   UNL A   1      40.982  24.823  26.527  1.00  0.00     0.031 C 
ATOM     54  C   UNL A   1      43.266  30.452  29.201  1.00  0.00     0.029 A 
ATOM     55  C   UNL A   1      44.240  29.463  28.768  1.00  0.00     0.049 A 
ATOM     56  H   UNL A   1      43.950  27.391  28.693  1.00  0.00     0.167 HD
ATOM     57  C   UNL A   1      42.936  23.397  27.327  1.00  0.00     0.034 A 
ATOM     58  C   UNL A   1      45.508  29.636  28.319  1.00  0.00     0.034 A 
ATOM     59  C   UNL A   1      43.645  23.200  28.577  1.00  0.00     0.049 A 
ATOM     60  C   UNL A   1      46.185  28.314  28.366  1.00  0.00     0.074 A 
ATOM     61  C   UNL A   1      43.254  22.868  29.863  1.00  0.00     0.029 A 
ATOM     62  N   UNL A   1      44.927  23.688  28.700  1.00  0.00    -0.354 N 
ATOM     63  N   UNL A   1      46.471  27.686  29.473  1.00  0.00    -0.248 NA
ATOM     64  C   UNL A   1      46.160  27.475  27.176  1.00  0.00     0.031 C 
ATOM     65  C   UNL A   1      44.118  23.606  30.723  1.00  0.00     0.029 A 
ATOM     66  C   UNL A   1      45.022  24.308  29.924  1.00  0.00     0.049 A 
ATOM     67  H   UNL A   1      45.646  23.609  28.032  1.00  0.00     0.167 HD
ATOM     68  C   UNL A   1      46.236  26.348  29.203  1.00  0.00     0.074 A 
ATOM     69  C   UNL A   1      46.172  26.266  27.747  1.00  0.00     0.031 C 
ATOM     70  C   UNL A   1      45.828  25.487  30.183  1.00  0.00     0.034 A 
BRANCH  57  71
ATOM     71  C   UNL A   1      43.485  22.937  25.993  1.00  0.00     0.023 A 
ATOM     72  C   UNL A   1      43.562  21.549  25.790  1.00  0.00     0.031 A 
ATOM     73  C   UNL A   1      44.190  23.729  25.055  1.00  0.00     0.131 A 
ATOM     74  C   UNL A   1      44.406  21.007  24.809  1.00  0.00     0.055 A 
ATOM     75  C   UNL A   1      44.963  23.186  24.026  1.00  0.00     0.041 A 
ATOM     76  F   UNL A   1      44.252  25.064  25.121  1.00  0.00    -0.206 F 
ATOM     77  C   UNL A   1      45.110  21.816  23.923  1.00  0.00     0.022 A 
BRANCH  74  78
ATOM     78  S   UNL A   1      44.731  19.229  24.864  1.00  0.00     0.124 S 
ATOM     79  O   UNL A   1      45.945  19.182  25.673  1.00  0.00    -0.237 OA
ATOM     80  O   UNL A   1      43.514  18.725  25.493  1.00  0.00    -0.237 OA
ATOM     81  O   UNL A   1      44.902  18.874  23.457  1.00  0.00    -0.744 OA
ENDBRANCH  74  78
ENDBRANCH  57  71
BRANCH  58  82
ATOM     82  C   UNL A   1      46.039  30.821  27.599  1.00  0.00     0.023 A 
ATOM     83  C   UNL A   1      45.236  31.602  26.747  1.00  0.00     0.031 A 
ATOM     84  C   UNL A   1      47.319  31.336  27.913  1.00  0.00     0.131 A 
ATOM     85  C   UNL A   1      45.725  32.826  26.238  1.00  0.00     0.055 A 
ATOM     86  C   UNL A   1      47.808  32.532  27.386  1.00  0.00     0.041 A 
ATOM     87  F   UNL A   1      48.113  30.736  28.815  1.00  0.00    -0.206 F 
ATOM     88  C   UNL A   1      47.007  33.288  26.549  1.00  0.00     0.022 A 
BRANCH  85  89
ATOM     89  S   UNL A   1      44.638  33.905  25.255  1.00  0.00     0.124 S 
ATOM     90  O   UNL A   1      45.560  34.459  24.269  1.00  0.00    -0.237 OA
ATOM     91  O   UNL A   1      43.637  32.971  24.755  1.00  0.00    -0.237 OA
ATOM     92  O   UNL A   1      44.138  34.867  26.238  1.00  0.00    -0.744 OA
ENDBRANCH  85  89
ENDBRANCH  58  82
BRANCH  70  93
ATOM     93  C   UNL A   1      45.995  25.907  31.631  1.00  0.00     0.023 A 
ATOM     94  C   UNL A   1      44.940  26.336  32.467  1.00  0.00     0.031 A 
ATOM     95  C   UNL A   1      47.267  25.766  32.212  1.00  0.00     0.131 A 
ATOM     96  C   UNL A   1      45.187  26.627  33.822  1.00  0.00     0.055 A 
ATOM     97  C   UNL A   1      47.504  26.037  33.559  1.00  0.00     0.041 A 
ATOM     98  F   UNL A   1      48.308  25.331  31.481  1.00  0.00    -0.206 F 
ATOM     99  C   UNL A   1      46.465  26.478  34.369  1.00  0.00     0.022 A 
BRANCH  96 100
ATOM    100  S   UNL A   1      43.847  27.230  34.898  1.00  0.00     0.124 S 
ATOM    101  O   UNL A   1      44.075  26.535  36.159  1.00  0.00    -0.237 OA
ATOM    102  O   UNL A   1      44.086  28.672  34.911  1.00  0.00    -0.237 OA
ATOM    103  O   UNL A   1      42.634  26.823  34.188  1.00  0.00    -0.744 OA
ENDBRANCH  96 100
ENDBRANCH  70  93
ENDBRANCH  44  45
ENDBRANCH  37  39
ENDBRANCH  36  37
ENDBRANCH  35  36
ENDBRANCH  34  35
ENDBRANCH  33  34
ENDBRANCH  32  33
ENDBRANCH   1  32
TORSDOF 25
ENDMDL
MODEL 2
REMARK VINA RESULT:     -11.4      2.690      8.909
REMARK SMILES Cc1nnc(SCC(=O)Nc2cccc(C(=O)OCCOCCOCCOC(=O)c3ccc(-c4c5nc(c(-c6cc(S(=O)(=O)[O-])ccc6F)c6ccc([nH]6)c(-c6cc(S(=O)(=O)[O-])ccc6F)c6nc(c(-c7cc(S(=O)(=O)[O-])ccc7F)c7ccc4[nH]7)C=C6)C=C5)cc3)c2)n1-c1ccccc1
REMARK SMILES IDX 22 1 21 2 20 3 19 4 18 5 16 6 17 7 15 8 11 9 12 10 93 11
REMARK SMILES IDX 13 12 14 13 10 14 8 15 9 16 7 18 6 19 5 20 1 21 2 22 3 23
REMARK SMILES IDX 94 24 4 25 95 26 96 27 100 28 97 29 99 30 98 31 23 32 24 33
REMARK SMILES IDX 25 34 26 35 27 36 28 37 29 38 30 39 31 40 92 41 32 42 91 43
REMARK SMILES IDX 33 44 34 45 35 46 85 47 36 48 90 49 84 50 86 51 37 52 89 53
REMARK SMILES IDX 83 54 82 55 38 57 70 58 50 59 69 60 51 61 54 62 68 63 87 64
REMARK SMILES IDX 52 65 53 66 67 68 88 69 55 70 39 71 40 72 48 73 41 74 47 75
REMARK SMILES IDX 49 76 46 77 42 78 43 79 44 80 45 81 71 82 72 83 80 84 73 85
REMARK SMILES IDX 79 86 81 87 78 88 74 89 75 90 76 91 77 92 56 93 57 94 65 95
REMARK SMILES IDX 58 96 64 97 66 98 63 99 59 100 60 101 61 102 62 103
REMARK H PARENT 10 17 86 56 54 67
REMARK Flexibility Score: inf
ROOT
ATOM      1  C   UNL A   1      42.279  19.257  27.035  1.00  0.00     0.188 C 
ENDROOT
BRANCH   1   2
ATOM      2  O   UNL A   1      42.518  20.558  26.507  1.00  0.00    -0.376 OA
BRANCH   2   3
ATOM      3  C   UNL A   1      41.458  21.495  26.422  1.00  0.00     0.202 C 
BRANCH   3   4
ATOM      4  C   UNL A   1      40.016  20.965  26.460  1.00  0.00     0.261 C 
BRANCH   4   5
ATOM      5  O   UNL A   1      39.067  21.782  25.761  1.00  0.00    -0.460 OA
BRANCH   5   6
ATOM      6  C   UNL A   1      37.958  21.170  25.281  1.00  0.00     0.338 C 
ATOM      7  O   UNL A   1      37.868  20.035  24.850  1.00  0.00    -0.246 OA
BRANCH   6   8
ATOM      8  C   UNL A   1      36.787  22.060  25.488  1.00  0.00     0.062 A 
ATOM      9  C   UNL A   1      34.409  22.380  25.785  1.00  0.00     0.042 A 
ATOM     10  C   UNL A   1      34.576  23.752  25.583  1.00  0.00     0.026 A 
ATOM     11  C   UNL A   1      35.509  21.536  25.694  1.00  0.00     0.041 A 
ATOM     12  C   UNL A   1      35.853  24.286  25.405  1.00  0.00     0.003 A 
ATOM     13  C   UNL A   1      36.963  23.443  25.378  1.00  0.00     0.016 A 
BRANCH   9  14
ATOM     14  N   UNL A   1      33.116  21.938  26.057  1.00  0.00    -0.325 N 
ATOM     15  C   UNL A   1      31.963  22.033  25.346  1.00  0.00     0.234 C 
ATOM     16  O   UNL A   1      31.033  21.347  25.787  1.00  0.00    -0.274 OA
ATOM     17  H   UNL A   1      33.021  21.475  26.920  1.00  0.00     0.169 HD
BRANCH  15  18
ATOM     18  C   UNL A   1      31.849  22.702  23.991  1.00  0.00     0.178 C 
BRANCH  18  19
ATOM     19  S   UNL A   1      31.220  24.385  23.890  1.00  0.00    -0.076 SA
BRANCH  19  20
ATOM     20  C   UNL A   1      32.381  25.359  23.062  1.00  0.00     0.196 A 
ATOM     21  C   UNL A   1      34.038  28.487  22.285  1.00  0.00     0.090 C 
ATOM     22  C   UNL A   1      33.496  27.112  22.368  1.00  0.00     0.135 A 
ATOM     23  N   UNL A   1      33.497  26.216  21.402  1.00  0.00    -0.134 NA
ATOM     24  N   UNL A   1      32.819  26.603  23.457  1.00  0.00    -0.274 N 
ATOM     25  N   UNL A   1      32.793  25.119  21.837  1.00  0.00    -0.123 NA
BRANCH  24  26
ATOM     26  C   UNL A   1      32.646  27.210  24.709  1.00  0.00     0.049 A 
ATOM     27  C   UNL A   1      31.528  28.021  24.892  1.00  0.00     0.027 A 
ATOM     28  C   UNL A   1      33.673  27.162  25.651  1.00  0.00     0.027 A 
ATOM     29  C   UNL A   1      31.492  28.893  25.977  1.00  0.00     0.002 A 
ATOM     30  C   UNL A   1      33.595  27.992  26.768  1.00  0.00     0.002 A 
ATOM     31  C   UNL A   1      32.526  28.880  26.912  1.00  0.00     0.000 A 
ENDBRANCH  24  26
ENDBRANCH  19  20
ENDBRANCH  18  19
ENDBRANCH  15  18
ENDBRANCH   9  14
ENDBRANCH   6   8
ENDBRANCH   5   6
ENDBRANCH   4   5
ENDBRANCH   3   4
ENDBRANCH   2   3
ENDBRANCH   1   2
BRANCH   1  32
ATOM     32  C   UNL A   1      43.110  18.019  26.625  1.00  0.00     0.188 C 
BRANCH  32  33
ATOM     33  O   UNL A   1      44.014  18.204  25.548  1.00  0.00    -0.376 OA
BRANCH  33  34
ATOM     34  C   UNL A   1      45.397  18.148  25.893  1.00  0.00     0.202 C 
BRANCH  34  35
ATOM     35  C   UNL A   1      46.213  19.226  25.185  1.00  0.00     0.261 C 
BRANCH  35  36
ATOM     36  O   UNL A   1      45.673  20.535  25.340  1.00  0.00    -0.460 OA
BRANCH  36  37
ATOM     37  C   UNL A   1      45.089  21.066  24.245  1.00  0.00     0.338 C 
ATOM     38  O   UNL A   1      44.656  20.468  23.279  1.00  0.00    -0.246 OA
BRANCH  37  39
ATOM     39  C   UNL A   1      45.098  22.528  24.384  1.00  0.00     0.060 A 
ATOM     40  C   UNL A   1      46.275  23.100  24.869  1.00  0.00     0.016 A 
ATOM     41  C   UNL A   1      43.893  23.243  24.313  1.00  0.00     0.016 A 
ATOM     42  C   UNL A   1      46.180  24.296  25.539  1.00  0.00     0.010 A 
ATOM     43  C   UNL A   1      43.794  24.426  25.000  1.00  0.00     0.010 A 
ATOM     44  C   UNL A   1      44.917  24.872  25.693  1.00  0.00    -0.014 A 
BRANCH  44  45
ATOM     45  C   UNL A   1      44.782  25.913  26.683  1.00  0.00     0.031 A 
ATOM     46  C   UNL A   1      45.808  26.961  26.622  1.00  0.00     0.074 A 
ATOM     47  C   UNL A   1      43.746  25.943  27.540  1.00  0.00     0.049 A 
ATOM     48  N   UNL A   1      46.719  27.220  27.495  1.00  0.00    -0.248 NA
ATOM     49  C   UNL A   1      45.924  27.721  25.371  1.00  0.00     0.031 C 
ATOM     50  C   UNL A   1      42.533  25.120  27.498  1.00  0.00     0.029 A 
ATOM     51  N   UNL A   1      43.508  26.807  28.563  1.00  0.00    -0.354 N 
ATOM     52  C   UNL A   1      47.380  28.339  27.011  1.00  0.00     0.074 A 
ATOM     53  C   UNL A   1      47.001  28.462  25.630  1.00  0.00     0.031 C 
ATOM     54  C   UNL A   1      41.602  25.676  28.303  1.00  0.00     0.029 A 
ATOM     55  C   UNL A   1      42.189  26.815  28.991  1.00  0.00     0.049 A 
ATOM     56  H   UNL A   1      44.207  27.373  28.962  1.00  0.00     0.167 HD
ATOM     57  C   UNL A   1      47.979  29.217  27.858  1.00  0.00     0.034 A 
ATOM     58  C   UNL A   1      41.598  27.753  29.773  1.00  0.00     0.034 A 
ATOM     59  C   UNL A   1      48.219  28.612  29.155  1.00  0.00     0.049 A 
ATOM     60  C   UNL A   1      42.672  28.458  30.519  1.00  0.00     0.074 A 
ATOM     61  C   UNL A   1      48.888  27.477  29.577  1.00  0.00     0.029 A 
ATOM     62  N   UNL A   1      47.438  28.995  30.223  1.00  0.00    -0.354 N 
ATOM     63  N   UNL A   1      43.405  27.893  31.439  1.00  0.00    -0.248 NA
ATOM     64  C   UNL A   1      43.238  29.672  29.948  1.00  0.00     0.031 C 
ATOM     65  C   UNL A   1      48.129  26.977  30.674  1.00  0.00     0.029 A 
ATOM     66  C   UNL A   1      47.069  27.856  30.898  1.00  0.00     0.049 A 
ATOM     67  H   UNL A   1      47.189  29.917  30.461  1.00  0.00     0.167 HD
ATOM     68  C   UNL A   1      44.678  28.410  31.259  1.00  0.00     0.074 A 
ATOM     69  C   UNL A   1      44.487  29.588  30.418  1.00  0.00     0.031 C 
ATOM     70  C   UNL A   1      45.791  27.678  31.564  1.00  0.00     0.034 A 
BRANCH  57  71
ATOM     71  C   UNL A   1      48.004  30.715  27.636  1.00  0.00     0.023 A 
ATOM     72  C   UNL A   1      46.761  31.371  27.634  1.00  0.00     0.031 A 
ATOM     73  C   UNL A   1      49.094  31.474  27.149  1.00  0.00     0.131 A 
ATOM     74  C   UNL A   1      46.612  32.636  27.046  1.00  0.00     0.055 A 
ATOM     75  C   UNL A   1      48.955  32.769  26.640  1.00  0.00     0.041 A 
ATOM     76  F   UNL A   1      50.338  30.992  27.048  1.00  0.00    -0.206 F 
ATOM     77  C   UNL A   1      47.702  33.342  26.547  1.00  0.00     0.022 A 
BRANCH  74  78
ATOM     78  S   UNL A   1      44.933  33.237  26.751  1.00  0.00     0.124 S 
ATOM     79  O   UNL A   1      45.182  34.634  26.408  1.00  0.00    -0.237 OA
ATOM     80  O   UNL A   1      44.496  32.372  25.659  1.00  0.00    -0.237 OA
ATOM     81  O   UNL A   1      44.266  33.016  28.032  1.00  0.00    -0.744 OA
ENDBRANCH  74  78
ENDBRANCH  57  71
BRANCH  58  82
ATOM     82  C   UNL A   1      40.197  28.234  29.673  1.00  0.00     0.023 A 
ATOM     83  C   UNL A   1      39.420  28.521  30.811  1.00  0.00     0.031 A 
ATOM     84  C   UNL A   1      39.661  28.627  28.424  1.00  0.00     0.131 A 
ATOM     85  C   UNL A   1      38.166  29.158  30.671  1.00  0.00     0.055 A 
ATOM     86  C   UNL A   1      38.411  29.231  28.288  1.00  0.00     0.041 A 
ATOM     87  F   UNL A   1      40.374  28.516  27.291  1.00  0.00    -0.206 F 
ATOM     88  C   UNL A   1      37.659  29.506  29.416  1.00  0.00     0.022 A 
BRANCH  85  89
ATOM     89  S   UNL A   1      37.228  29.660  32.147  1.00  0.00     0.124 S 
ATOM     90  O   UNL A   1      37.288  28.460  32.975  1.00  0.00    -0.237 OA
ATOM     91  O   UNL A   1      37.981  30.815  32.621  1.00  0.00    -0.237 OA
ATOM     92  O   UNL A   1      35.902  29.974  31.614  1.00  0.00    -0.744 OA
ENDBRANCH  85  89
ENDBRANCH  58  82
BRANCH  70  93
ATOM     93  C   UNL A   1      45.633  26.454  32.445  1.00  0.00     0.023 A 
ATOM     94  C   UNL A   1      45.735  26.463  33.854  1.00  0.00     0.031 A 
ATOM     95  C   UNL A   1      45.261  25.246  31.829  1.00  0.00     0.131 A 
ATOM     96  C   UNL A   1      45.491  25.287  34.588  1.00  0.00     0.055 A 
ATOM     97  C   UNL A   1      45.002  24.087  32.560  1.00  0.00     0.041 A 
ATOM     98  F   UNL A   1      45.114  25.176  30.495  1.00  0.00    -0.206 F 
ATOM     99  C   UNL A   1      45.125  24.101  33.944  1.00  0.00     0.022 A 
BRANCH  96 100
ATOM    100  S   UNL A   1      45.670  25.271  36.400  1.00  0.00     0.124 S 
ATOM    101  O   UNL A   1      46.631  26.336  36.662  1.00  0.00    -0.237 OA
ATOM    102  O   UNL A   1      44.302  25.518  36.849  1.00  0.00    -0.237 OA
ATOM    103  O   UNL A   1      46.165  23.922  36.679  1.00  0.00    -0.744 OA
ENDBRANCH  96 100
ENDBRANCH  70  93
ENDBRANCH  44  45
ENDBRANCH  37  39
ENDBRANCH  36  37
ENDBRANCH  35  36
ENDBRANCH  34  35
ENDBRANCH  33  34
ENDBRANCH  32  33
ENDBRANCH   1  32
TORSDOF 25
ENDMDL
MODEL 3
REMARK VINA RESULT:     -11.3      2.680      6.948
REMARK SMILES Cc1nnc(SCC(=O)Nc2cccc(C(=O)OCCOCCOCCOC(=O)c3ccc(-c4c5nc(c(-c6cc(S(=O)(=O)[O-])ccc6F)c6ccc([nH]6)c(-c6cc(S(=O)(=O)[O-])ccc6F)c6nc(c(-c7cc(S(=O)(=O)[O-])ccc7F)c7ccc4[nH]7)C=C6)C=C5)cc3)c2)n1-c1ccccc1
REMARK SMILES IDX 22 1 21 2 20 3 19 4 18 5 16 6 17 7 15 8 11 9 12 10 93 11
REMARK SMILES IDX 13 12 14 13 10 14 8 15 9 16 7 18 6 19 5 20 1 21 2 22 3 23
REMARK SMILES IDX 94 24 4 25 95 26 96 27 100 28 97 29 99 30 98 31 23 32 24 33
REMARK SMILES IDX 25 34 26 35 27 36 28 37 29 38 30 39 31 40 92 41 32 42 91 43
REMARK SMILES IDX 33 44 34 45 35 46 85 47 36 48 90 49 84 50 86 51 37 52 89 53
REMARK SMILES IDX 83 54 82 55 38 57 70 58 50 59 69 60 51 61 54 62 68 63 87 64
REMARK SMILES IDX 52 65 53 66 67 68 88 69 55 70 39 71 40 72 48 73 41 74 47 75
REMARK SMILES IDX 49 76 46 77 42 78 43 79 44 80 45 81 71 82 72 83 80 84 73 85
REMARK SMILES IDX 79 86 81 87 78 88 74 89 75 90 76 91 77 92 56 93 57 94 65 95
REMARK SMILES IDX 58 96 64 97 66 98 63 99 59 100 60 101 61 102 62 103
REMARK H PARENT 10 17 86 56 54 67
REMARK Flexibility Score: inf
ROOT
ATOM      1  C   UNL A   1      30.698  30.398  24.749  1.00  0.00     0.188 C 
ENDROOT
BRANCH   1   2
ATOM      2  O   UNL A   1      29.850  31.542  24.781  1.00  0.00    -0.376 OA
BRANCH   2   3
ATOM      3  C   UNL A   1      29.069  31.877  23.646  1.00  0.00     0.202 C 
BRANCH   3   4
ATOM      4  C   UNL A   1      27.578  31.508  23.657  1.00  0.00     0.261 C 
BRANCH   4   5
ATOM      5  O   UNL A   1      27.299  30.161  23.251  1.00  0.00    -0.460 OA
BRANCH   5   6
ATOM      6  C   UNL A   1      28.015  29.667  22.212  1.00  0.00     0.338 C 
ATOM      7  O   UNL A   1      28.127  30.145  21.098  1.00  0.00    -0.246 OA
BRANCH   6   8
ATOM      8  C   UNL A   1      28.787  28.486  22.676  1.00  0.00     0.062 A 
ATOM      9  C   UNL A   1      30.699  27.016  22.500  1.00  0.00     0.042 A 
ATOM     10  C   UNL A   1      30.072  26.111  23.360  1.00  0.00     0.026 A 
ATOM     11  C   UNL A   1      30.035  28.179  22.130  1.00  0.00     0.041 A 
ATOM     12  C   UNL A   1      28.838  26.423  23.931  1.00  0.00     0.003 A 
ATOM     13  C   UNL A   1      28.204  27.621  23.607  1.00  0.00     0.016 A 
BRANCH   9  14
ATOM     14  N   UNL A   1      31.973  26.677  22.052  1.00  0.00    -0.325 N 
ATOM     15  C   UNL A   1      33.195  26.796  22.634  1.00  0.00     0.234 C 
ATOM     16  O   UNL A   1      34.103  26.202  22.041  1.00  0.00    -0.274 OA
ATOM     17  H   UNL A   1      31.992  26.280  21.151  1.00  0.00     0.169 HD
BRANCH  15  18
ATOM     18  C   UNL A   1      33.429  27.377  24.013  1.00  0.00     0.178 C 
BRANCH  18  19
ATOM     19  S   UNL A   1      34.033  26.308  25.329  1.00  0.00    -0.076 SA
BRANCH  19  20
ATOM     20  C   UNL A   1      32.686  25.495  26.041  1.00  0.00     0.196 A 
ATOM     21  C   UNL A   1      30.389  22.717  26.405  1.00  0.00     0.090 C 
ATOM     22  C   UNL A   1      31.136  23.993  26.417  1.00  0.00     0.135 A 
ATOM     23  N   UNL A   1      30.655  25.174  26.753  1.00  0.00    -0.134 NA
ATOM     24  N   UNL A   1      32.437  24.142  25.981  1.00  0.00    -0.274 N 
ATOM     25  N   UNL A   1      31.627  26.115  26.510  1.00  0.00    -0.123 NA
BRANCH  24  26
ATOM     26  C   UNL A   1      33.325  23.129  25.596  1.00  0.00     0.049 A 
ATOM     27  C   UNL A   1      33.030  22.408  24.440  1.00  0.00     0.027 A 
ATOM     28  C   UNL A   1      34.342  22.730  26.463  1.00  0.00     0.027 A 
ATOM     29  C   UNL A   1      33.682  21.200  24.209  1.00  0.00     0.002 A 
ATOM     30  C   UNL A   1      35.034  21.553  26.186  1.00  0.00     0.002 A 
ATOM     31  C   UNL A   1      34.681  20.772  25.083  1.00  0.00     0.000 A 
ENDBRANCH  24  26
ENDBRANCH  19  20
ENDBRANCH  18  19
ENDBRANCH  15  18
ENDBRANCH   9  14
ENDBRANCH   6   8
ENDBRANCH   5   6
ENDBRANCH   4   5
ENDBRANCH   3   4
ENDBRANCH   2   3
ENDBRANCH   1   2
BRANCH   1  32
ATOM     32  C   UNL A   1      31.559  29.959  25.956  1.00  0.00     0.188 C 
BRANCH  32  33
ATOM     33  O   UNL A   1      32.763  30.681  26.160  1.00  0.00    -0.376 OA
BRANCH  33  34
ATOM     34  C   UNL A   1      33.790  29.977  26.855  1.00  0.00     0.202 C 
BRANCH  34  35
ATOM     35  C   UNL A   1      34.445  30.831  27.937  1.00  0.00     0.261 C 
BRANCH  35  36
ATOM     36  O   UNL A   1      35.698  30.319  28.379  1.00  0.00    -0.460 OA
BRANCH  36  37
ATOM     37  C   UNL A   1      36.577  31.230  28.846  1.00  0.00     0.338 C 
ATOM     38  O   UNL A   1      36.669  32.398  28.520  1.00  0.00    -0.246 OA
BRANCH  37  39
ATOM     39  C   UNL A   1      37.464  30.562  29.806  1.00  0.00     0.060 A 
ATOM     40  C   UNL A   1      38.619  31.254  30.174  1.00  0.00     0.016 A 
ATOM     41  C   UNL A   1      37.289  29.197  30.085  1.00  0.00     0.016 A 
ATOM     42  C   UNL A   1      39.710  30.519  30.571  1.00  0.00     0.010 A 
ATOM     43  C   UNL A   1      38.385  28.462  30.461  1.00  0.00     0.010 A 
ATOM     44  C   UNL A   1      39.602  29.126  30.587  1.00  0.00    -0.014 A 
BRANCH  44  45
ATOM     45  C   UNL A   1      40.829  28.369  30.654  1.00  0.00     0.031 A 
ATOM     46  C   UNL A   1      41.413  28.255  31.996  1.00  0.00     0.074 A 
ATOM     47  C   UNL A   1      41.343  27.760  29.571  1.00  0.00     0.049 A 
ATOM     48  N   UNL A   1      42.523  28.756  32.415  1.00  0.00    -0.248 NA
ATOM     49  C   UNL A   1      40.592  27.628  33.039  1.00  0.00     0.031 C 
ATOM     50  C   UNL A   1      40.698  27.572  28.267  1.00  0.00     0.029 A 
ATOM     51  N   UNL A   1      42.509  27.072  29.450  1.00  0.00    -0.354 N 
ATOM     52  C   UNL A   1      42.659  28.303  33.719  1.00  0.00     0.074 A 
ATOM     53  C   UNL A   1      41.366  27.811  34.108  1.00  0.00     0.031 C 
ATOM     54  C   UNL A   1      41.382  26.634  27.576  1.00  0.00     0.029 A 
ATOM     55  C   UNL A   1      42.558  26.246  28.337  1.00  0.00     0.049 A 
ATOM     56  H   UNL A   1      43.250  27.152  30.094  1.00  0.00     0.167 HD
ATOM     57  C   UNL A   1      43.888  28.134  34.274  1.00  0.00     0.034 A 
ATOM     58  C   UNL A   1      43.443  25.244  28.112  1.00  0.00     0.034 A 
ATOM     59  C   UNL A   1      44.897  28.885  33.551  1.00  0.00     0.049 A 
ATOM     60  C   UNL A   1      44.642  25.505  28.950  1.00  0.00     0.074 A 
ATOM     61  C   UNL A   1      45.041  30.218  33.208  1.00  0.00     0.029 A 
ATOM     62  N   UNL A   1      45.793  28.204  32.757  1.00  0.00    -0.354 N 
ATOM     63  N   UNL A   1      45.454  26.509  28.760  1.00  0.00    -0.248 NA
ATOM     64  C   UNL A   1      44.709  24.909  30.278  1.00  0.00     0.031 C 
ATOM     65  C   UNL A   1      45.652  30.212  31.921  1.00  0.00     0.029 A 
ATOM     66  C   UNL A   1      45.895  28.884  31.567  1.00  0.00     0.049 A 
ATOM     67  H   UNL A   1      46.272  27.378  32.997  1.00  0.00     0.167 HD
ATOM     68  C   UNL A   1      45.804  26.939  30.030  1.00  0.00     0.074 A 
ATOM     69  C   UNL A   1      45.421  25.844  30.915  1.00  0.00     0.031 C 
ATOM     70  C   UNL A   1      46.101  28.250  30.277  1.00  0.00     0.034 A 
BRANCH  57  71
ATOM     71  C   UNL A   1      44.231  27.009  35.228  1.00  0.00     0.023 A 
ATOM     72  C   UNL A   1      44.700  25.816  34.650  1.00  0.00     0.031 A 
ATOM     73  C   UNL A   1      43.865  26.922  36.592  1.00  0.00     0.131 A 
ATOM     74  C   UNL A   1      44.656  24.605  35.357  1.00  0.00     0.055 A 
ATOM     75  C   UNL A   1      43.903  25.728  37.318  1.00  0.00     0.041 A 
ATOM     76  F   UNL A   1      43.367  27.952  37.286  1.00  0.00    -0.206 F 
ATOM     77  C   UNL A   1      44.260  24.551  36.690  1.00  0.00     0.022 A 
BRANCH  74  78
ATOM     78  S   UNL A   1      44.918  23.076  34.428  1.00  0.00     0.124 S 
ATOM     79  O   UNL A   1      43.827  23.136  33.460  1.00  0.00    -0.237 OA
ATOM     80  O   UNL A   1      46.263  23.278  33.899  1.00  0.00    -0.237 OA
ATOM     81  O   UNL A   1      44.794  22.037  35.447  1.00  0.00    -0.744 OA
ENDBRANCH  74  78
ENDBRANCH  57  71
BRANCH  58  82
ATOM     82  C   UNL A   1      43.166  23.953  27.432  1.00  0.00     0.023 A 
ATOM     83  C   UNL A   1      43.939  23.496  26.348  1.00  0.00     0.031 A 
ATOM     84  C   UNL A   1      42.246  23.033  27.987  1.00  0.00     0.131 A 
ATOM     85  C   UNL A   1      43.766  22.182  25.858  1.00  0.00     0.055 A 
ATOM     86  C   UNL A   1      42.058  21.746  27.483  1.00  0.00     0.041 A 
ATOM     87  F   UNL A   1      41.552  23.323  29.100  1.00  0.00    -0.206 F 
ATOM     88  C   UNL A   1      42.826  21.312  26.417  1.00  0.00     0.022 A 
BRANCH  85  89
ATOM     89  S   UNL A   1      44.863  21.541  24.555  1.00  0.00     0.124 S 
ATOM     90  O   UNL A   1      44.523  22.391  23.420  1.00  0.00    -0.237 OA
ATOM     91  O   UNL A   1      46.186  21.731  25.137  1.00  0.00    -0.237 OA
ATOM     92  O   UNL A   1      44.450  20.143  24.423  1.00  0.00    -0.744 OA
ENDBRANCH  85  89
ENDBRANCH  58  82
BRANCH  70  93
ATOM     93  C   UNL A   1      46.414  29.156  29.102  1.00  0.00     0.023 A 
ATOM     94  C   UNL A   1      45.473  29.996  28.466  1.00  0.00     0.031 A 
ATOM     95  C   UNL A   1      47.752  29.243  28.678  1.00  0.00     0.131 A 
ATOM     96  C   UNL A   1      45.883  30.861  27.433  1.00  0.00     0.055 A 
ATOM     97  C   UNL A   1      48.158  30.114  27.668  1.00  0.00     0.041 A 
ATOM     98  F   UNL A   1      48.704  28.495  29.264  1.00  0.00    -0.206 F 
ATOM     99  C   UNL A   1      47.222  30.922  27.035  1.00  0.00     0.022 A 
BRANCH  96 100
ATOM    100  S   UNL A   1      44.672  31.911  26.570  1.00  0.00     0.124 S 
ATOM    101  O   UNL A   1      44.345  32.942  27.548  1.00  0.00    -0.237 OA
ATOM    102  O   UNL A   1      45.425  32.355  25.399  1.00  0.00    -0.237 OA
ATOM    103  O   UNL A   1      43.577  30.986  26.270  1.00  0.00    -0.744 OA
ENDBRANCH  96 100
ENDBRANCH  70  93
ENDBRANCH  44  45
ENDBRANCH  37  39
ENDBRANCH  36  37
ENDBRANCH  35  36
ENDBRANCH  34  35
ENDBRANCH  33  34
ENDBRANCH  32  33
ENDBRANCH   1  32
TORSDOF 25
ENDMDL
