MODEL 1
REMARK VINA RESULT:     -11.4      0.000      0.000
REMARK SMILES CCc1cc(OC(F)(F)F)cc2c1O[C@H](C(F)(F)F)C(C(=O)OCCOCCOCCOC(=O)c1ccc(-c3c4nc(c(-c5cc(S(=O)(=O)[O-])ccc5F)c5ccc([nH]5)c(-c5cc(S(=O)(=O)[O-])ccc5F)c5nc(c(-c6cc(S(=O)(=O)[O-])ccc6F)c6ccc3[nH]6)C=C5)C=C4)cc1)=C2
REMARK SMILES IDX 28 1 27 2 26 3 25 4 24 5 23 6 21 7 22 8 20 9 3 10 4 11 13 12
REMARK SMILES IDX 5 13 12 14 14 15 11 16 98 17 15 18 2 19 1 20 6 21 7 22 8 23
REMARK SMILES IDX 9 24 10 25 16 26 17 27 18 28 19 29 29 30 30 31 31 32 32 33
REMARK SMILES IDX 33 34 34 35 35 36 36 37 97 38 37 39 96 40 38 41 39 42 40 43
REMARK SMILES IDX 90 44 41 45 95 46 89 47 91 48 42 49 94 50 88 51 87 52 43 54
REMARK SMILES IDX 75 55 55 56 74 57 56 58 59 59 73 60 92 61 57 62 58 63 72 65
REMARK SMILES IDX 93 66 60 67 44 68 45 69 53 70 46 71 52 72 54 73 51 74 47 75
REMARK SMILES IDX 48 76 49 77 50 78 76 79 77 80 85 81 78 82 84 83 86 84 83 85
REMARK SMILES IDX 79 86 80 87 81 88 82 89 61 90 62 91 70 92 63 93 69 94 71 95
REMARK SMILES IDX 68 96 64 97 65 98 66 99 67 100
REMARK H PARENT 91 53 59 64
REMARK Flexibility Score: inf
ROOT
ATOM      1  C   UNL A   1      32.358  30.462  26.177  1.00  0.00     0.188 C 
ENDROOT
BRANCH   1   2
ATOM      2  C   UNL A   1      32.710  29.557  24.974  1.00  0.00     0.188 C 
BRANCH   2   3
ATOM      3  O   UNL A   1      31.717  29.148  24.052  1.00  0.00    -0.376 OA
BRANCH   3   4
ATOM      4  C   UNL A   1      31.190  27.838  24.121  1.00  0.00     0.202 C 
BRANCH   4   5
ATOM      5  C   UNL A   1      31.422  26.841  22.979  1.00  0.00     0.261 C 
BRANCH   5   6
ATOM      6  O   UNL A   1      32.773  26.753  22.493  1.00  0.00    -0.460 OA
BRANCH   6   7
ATOM      7  C   UNL A   1      33.067  25.602  21.834  1.00  0.00     0.338 C 
ATOM      8  O   UNL A   1      33.216  25.492  20.628  1.00  0.00    -0.246 OA
BRANCH   7   9
ATOM      9  C   UNL A   1      33.288  24.466  22.751  1.00  0.00     0.087 C 
ATOM     10  C   UNL A   1      35.017  21.322  24.813  1.00  0.00    -0.002 A 
ATOM     11  C   UNL A   1      34.301  20.128  24.971  1.00  0.00     0.054 A 
ATOM     12  C   UNL A   1      34.473  22.317  23.999  1.00  0.00     0.131 A 
ATOM     13  C   UNL A   1      33.063  19.945  24.341  1.00  0.00     0.130 A 
ATOM     14  C   UNL A   1      33.207  22.175  23.399  1.00  0.00     0.021 A 
ATOM     15  O   UNL A   1      35.215  23.462  23.824  1.00  0.00    -0.475 OA
ATOM     16  C   UNL A   1      32.510  20.980  23.574  1.00  0.00     0.058 A 
ATOM     17  C   UNL A   1      32.688  23.276  22.581  1.00  0.00     0.027 C 
ATOM     18  C   UNL A   1      34.385  24.645  23.781  1.00  0.00     0.316 C 
BRANCH  10  19
ATOM     19  C   UNL A   1      36.316  21.539  25.554  1.00  0.00     0.036 C 
ATOM     20  C   UNL A   1      37.528  21.225  24.696  1.00  0.00     0.009 C 
ENDBRANCH  10  19
BRANCH  13  21
ATOM     21  O   UNL A   1      32.295  18.816  24.414  1.00  0.00    -0.406 OA
BRANCH  21  22
ATOM     22  C   UNL A   1      32.692  17.715  23.613  1.00  0.00     0.573 C 
ATOM     23  F   UNL A   1      32.023  17.692  22.439  1.00  0.00    -0.132 F 
ATOM     24  F   UNL A   1      34.020  17.732  23.379  1.00  0.00    -0.132 F 
ATOM     25  F   UNL A   1      32.399  16.573  24.275  1.00  0.00    -0.132 F 
ENDBRANCH  21  22
ENDBRANCH  13  21
BRANCH  18  26
ATOM     26  C   UNL A   1      33.900  25.013  25.203  1.00  0.00     0.430 C 
ATOM     27  F   UNL A   1      32.621  24.630  25.411  1.00  0.00    -0.167 F 
ATOM     28  F   UNL A   1      34.622  24.438  26.191  1.00  0.00    -0.167 F 
ATOM     29  F   UNL A   1      33.939  26.350  25.406  1.00  0.00    -0.167 F 
ENDBRANCH  18  26
ENDBRANCH   7   9
ENDBRANCH   6   7
ENDBRANCH   5   6
ENDBRANCH   4   5
ENDBRANCH   3   4
ENDBRANCH   2   3
ENDBRANCH   1   2
BRANCH   1  30
ATOM     30  O   UNL A   1      31.314  31.398  26.051  1.00  0.00    -0.376 OA
BRANCH  30  31
ATOM     31  C   UNL A   1      31.448  32.706  26.570  1.00  0.00     0.202 C 
BRANCH  31  32
ATOM     32  C   UNL A   1      32.667  33.245  27.341  1.00  0.00     0.261 C 
BRANCH  32  33
ATOM     33  O   UNL A   1      32.437  34.173  28.406  1.00  0.00    -0.460 OA
BRANCH  33  34
ATOM     34  C   UNL A   1      33.524  34.888  28.791  1.00  0.00     0.338 C 
ATOM     35  O   UNL A   1      33.582  36.099  28.957  1.00  0.00    -0.246 OA
BRANCH  34  36
ATOM     36  C   UNL A   1      34.642  33.986  29.117  1.00  0.00     0.060 A 
ATOM     37  C   UNL A   1      34.391  32.885  29.940  1.00  0.00     0.016 A 
ATOM     38  C   UNL A   1      35.945  34.276  28.705  1.00  0.00     0.016 A 
ATOM     39  C   UNL A   1      35.440  32.063  30.354  1.00  0.00     0.010 A 
ATOM     40  C   UNL A   1      37.000  33.460  29.138  1.00  0.00     0.010 A 
ATOM     41  C   UNL A   1      36.758  32.359  29.981  1.00  0.00    -0.014 A 
BRANCH  41  42
ATOM     42  C   UNL A   1      37.881  31.592  30.588  1.00  0.00     0.031 A 
ATOM     43  C   UNL A   1      38.285  31.884  32.008  1.00  0.00     0.074 A 
ATOM     44  C   UNL A   1      38.491  30.603  29.907  1.00  0.00     0.049 A 
ATOM     45  N   UNL A   1      39.265  31.383  32.717  1.00  0.00    -0.248 NA
ATOM     46  C   UNL A   1      37.470  32.877  32.724  1.00  0.00     0.031 C 
ATOM     47  C   UNL A   1      38.139  30.169  28.556  1.00  0.00     0.029 A 
ATOM     48  N   UNL A   1      39.533  29.780  30.262  1.00  0.00    -0.354 N 
ATOM     49  C   UNL A   1      39.193  32.005  33.960  1.00  0.00     0.074 A 
ATOM     50  C   UNL A   1      38.091  32.944  33.893  1.00  0.00     0.031 C 
ATOM     51  C   UNL A   1      38.948  29.158  28.198  1.00  0.00     0.029 A 
ATOM     52  C   UNL A   1      39.913  28.909  29.266  1.00  0.00     0.049 A 
ATOM     53  H   UNL A   1      39.967  29.812  31.145  1.00  0.00     0.167 HD
ATOM     54  C   UNL A   1      39.971  31.810  35.054  1.00  0.00     0.034 A 
ATOM     55  C   UNL A   1      40.941  28.036  29.210  1.00  0.00     0.034 A 
ATOM     56  C   UNL A   1      41.071  30.875  35.102  1.00  0.00     0.049 A 
ATOM     57  C   UNL A   1      41.861  27.914  30.404  1.00  0.00     0.074 A 
ATOM     58  C   UNL A   1      41.930  30.606  36.154  1.00  0.00     0.029 A 
ATOM     59  N   UNL A   1      41.474  30.062  34.049  1.00  0.00    -0.354 N 
ATOM     60  N   UNL A   1      41.802  28.529  31.563  1.00  0.00    -0.248 NA
ATOM     61  C   UNL A   1      42.984  26.977  30.279  1.00  0.00     0.031 C 
ATOM     62  C   UNL A   1      42.897  29.696  35.713  1.00  0.00     0.029 A 
ATOM     63  C   UNL A   1      42.590  29.322  34.415  1.00  0.00     0.049 A 
ATOM     64  H   UNL A   1      41.032  30.018  33.170  1.00  0.00     0.167 HD
ATOM     65  C   UNL A   1      42.864  28.030  32.314  1.00  0.00     0.074 A 
ATOM     66  C   UNL A   1      43.528  27.045  31.485  1.00  0.00     0.031 C 
ATOM     67  C   UNL A   1      43.257  28.354  33.574  1.00  0.00     0.034 A 
BRANCH  54  68
ATOM     68  C   UNL A   1      39.699  32.677  36.262  1.00  0.00     0.023 A 
ATOM     69  C   UNL A   1      38.861  32.257  37.311  1.00  0.00     0.031 A 
ATOM     70  C   UNL A   1      40.262  33.964  36.347  1.00  0.00     0.131 A 
ATOM     71  C   UNL A   1      38.553  33.142  38.357  1.00  0.00     0.055 A 
ATOM     72  C   UNL A   1      40.019  34.807  37.434  1.00  0.00     0.041 A 
ATOM     73  F   UNL A   1      41.050  34.431  35.366  1.00  0.00    -0.206 F 
ATOM     74  C   UNL A   1      39.147  34.403  38.440  1.00  0.00     0.022 A 
BRANCH  71  75
ATOM     75  S   UNL A   1      37.246  32.681  39.528  1.00  0.00     0.124 S 
ATOM     76  O   UNL A   1      37.695  31.361  39.965  1.00  0.00    -0.237 OA
ATOM     77  O   UNL A   1      37.322  33.743  40.523  1.00  0.00    -0.237 OA
ATOM     78  O   UNL A   1      36.036  32.677  38.708  1.00  0.00    -0.744 OA
ENDBRANCH  71  75
ENDBRANCH  54  68
BRANCH  55  79
ATOM     79  C   UNL A   1      41.207  27.250  27.967  1.00  0.00     0.023 A 
ATOM     80  C   UNL A   1      40.940  25.871  27.900  1.00  0.00     0.031 A 
ATOM     81  C   UNL A   1      41.808  27.855  26.849  1.00  0.00     0.131 A 
ATOM     82  C   UNL A   1      41.316  25.139  26.762  1.00  0.00     0.055 A 
ATOM     83  C   UNL A   1      42.121  27.136  25.695  1.00  0.00     0.041 A 
ATOM     84  F   UNL A   1      42.100  29.166  26.860  1.00  0.00    -0.206 F 
ATOM     85  C   UNL A   1      41.889  25.765  25.652  1.00  0.00     0.022 A 
BRANCH  82  86
ATOM     86  S   UNL A   1      41.142  23.333  26.790  1.00  0.00     0.124 S 
ATOM     87  O   UNL A   1      41.492  23.023  28.172  1.00  0.00    -0.237 OA
ATOM     88  O   UNL A   1      39.740  23.157  26.428  1.00  0.00    -0.237 OA
ATOM     89  O   UNL A   1      42.104  22.882  25.786  1.00  0.00    -0.744 OA
ENDBRANCH  82  86
ENDBRANCH  55  79
BRANCH  67  90
ATOM     90  C   UNL A   1      44.440  27.598  34.140  1.00  0.00     0.023 A 
ATOM     91  C   UNL A   1      44.279  26.404  34.867  1.00  0.00     0.031 A 
ATOM     92  C   UNL A   1      45.744  28.100  33.984  1.00  0.00     0.131 A 
ATOM     93  C   UNL A   1      45.389  25.799  35.476  1.00  0.00     0.055 A 
ATOM     94  C   UNL A   1      46.855  27.451  34.526  1.00  0.00     0.041 A 
ATOM     95  F   UNL A   1      45.963  29.238  33.304  1.00  0.00    -0.206 F 
ATOM     96  C   UNL A   1      46.679  26.304  35.293  1.00  0.00     0.022 A 
BRANCH  93  97
ATOM     97  S   UNL A   1      45.109  24.421  36.622  1.00  0.00     0.124 S 
ATOM     98  O   UNL A   1      43.934  24.875  37.359  1.00  0.00    -0.237 OA
ATOM     99  O   UNL A   1      44.898  23.299  35.715  1.00  0.00    -0.237 OA
ATOM    100  O   UNL A   1      46.345  24.365  37.401  1.00  0.00    -0.744 OA
ENDBRANCH  93  97
ENDBRANCH  67  90
ENDBRANCH  41  42
ENDBRANCH  34  36
ENDBRANCH  33  34
ENDBRANCH  32  33
ENDBRANCH  31  32
ENDBRANCH  30  31
ENDBRANCH   1  30
TORSDOF 24
ENDMDL
MODEL 2
REMARK VINA RESULT:     -10.8      1.543      2.491
REMARK SMILES CCc1cc(OC(F)(F)F)cc2c1O[C@H](C(F)(F)F)C(C(=O)OCCOCCOCCOC(=O)c1ccc(-c3c4nc(c(-c5cc(S(=O)(=O)[O-])ccc5F)c5ccc([nH]5)c(-c5cc(S(=O)(=O)[O-])ccc5F)c5nc(c(-c6cc(S(=O)(=O)[O-])ccc6F)c6ccc3[nH]6)C=C5)C=C4)cc1)=C2
REMARK SMILES IDX 28 1 27 2 26 3 25 4 24 5 23 6 21 7 22 8 20 9 3 10 4 11 13 12
REMARK SMILES IDX 5 13 12 14 14 15 11 16 98 17 15 18 2 19 1 20 6 21 7 22 8 23
REMARK SMILES IDX 9 24 10 25 16 26 17 27 18 28 19 29 29 30 30 31 31 32 32 33
REMARK SMILES IDX 33 34 34 35 35 36 36 37 97 38 37 39 96 40 38 41 39 42 40 43
REMARK SMILES IDX 90 44 41 45 95 46 89 47 91 48 42 49 94 50 88 51 87 52 43 54
REMARK SMILES IDX 75 55 55 56 74 57 56 58 59 59 73 60 92 61 57 62 58 63 72 65
REMARK SMILES IDX 93 66 60 67 44 68 45 69 53 70 46 71 52 72 54 73 51 74 47 75
REMARK SMILES IDX 48 76 49 77 50 78 76 79 77 80 85 81 78 82 84 83 86 84 83 85
REMARK SMILES IDX 79 86 80 87 81 88 82 89 61 90 62 91 70 92 63 93 69 94 71 95
REMARK SMILES IDX 68 96 64 97 65 98 66 99 67 100
REMARK H PARENT 91 53 59 64
REMARK Flexibility Score: inf
ROOT
ATOM      1  C   UNL A   1      32.290  30.308  26.767  1.00  0.00     0.188 C 
ENDROOT
BRANCH   1   2
ATOM      2  C   UNL A   1      33.142  29.449  25.805  1.00  0.00     0.188 C 
BRANCH   2   3
ATOM      3  O   UNL A   1      32.555  28.786  24.702  1.00  0.00    -0.376 OA
BRANCH   3   4
ATOM      4  C   UNL A   1      31.240  28.276  24.806  1.00  0.00     0.202 C 
BRANCH   4   5
ATOM      5  C   UNL A   1      30.997  26.773  24.986  1.00  0.00     0.261 C 
BRANCH   5   6
ATOM      6  O   UNL A   1      30.901  26.314  26.346  1.00  0.00    -0.460 OA
BRANCH   6   7
ATOM      7  C   UNL A   1      30.459  25.038  26.487  1.00  0.00     0.338 C 
ATOM      8  O   UNL A   1      29.372  24.708  26.931  1.00  0.00    -0.246 OA
BRANCH   7   9
ATOM      9  C   UNL A   1      31.413  24.046  25.952  1.00  0.00     0.087 C 
ATOM     10  C   UNL A   1      33.292  20.494  24.966  1.00  0.00    -0.002 A 
ATOM     11  C   UNL A   1      34.679  20.381  25.135  1.00  0.00     0.054 A 
ATOM     12  C   UNL A   1      32.662  21.648  25.432  1.00  0.00     0.131 A 
ATOM     13  C   UNL A   1      35.413  21.407  25.742  1.00  0.00     0.130 A 
ATOM     14  C   UNL A   1      33.387  22.714  25.997  1.00  0.00     0.021 A 
ATOM     15  O   UNL A   1      31.294  21.716  25.295  1.00  0.00    -0.475 OA
ATOM     16  C   UNL A   1      34.766  22.582  26.151  1.00  0.00     0.058 A 
ATOM     17  C   UNL A   1      32.658  23.908  26.437  1.00  0.00     0.027 C 
ATOM     18  C   UNL A   1      30.849  23.050  24.958  1.00  0.00     0.316 C 
BRANCH  10  19
ATOM     19  C   UNL A   1      32.519  19.414  24.246  1.00  0.00     0.036 C 
ATOM     20  C   UNL A   1      33.312  18.126  24.116  1.00  0.00     0.009 C 
ENDBRANCH  10  19
BRANCH  13  21
ATOM     21  O   UNL A   1      36.762  21.390  25.971  1.00  0.00    -0.406 OA
BRANCH  21  22
ATOM     22  C   UNL A   1      37.602  21.199  24.844  1.00  0.00     0.573 C 
ATOM     23  F   UNL A   1      38.772  21.863  24.982  1.00  0.00    -0.132 F 
ATOM     24  F   UNL A   1      37.846  19.890  24.629  1.00  0.00    -0.132 F 
ATOM     25  F   UNL A   1      36.977  21.692  23.751  1.00  0.00    -0.132 F 
ENDBRANCH  21  22
ENDBRANCH  13  21
BRANCH  18  26
ATOM     26  C   UNL A   1      31.151  23.358  23.473  1.00  0.00     0.430 C 
ATOM     27  F   UNL A   1      32.238  24.149  23.336  1.00  0.00    -0.167 F 
ATOM     28  F   UNL A   1      31.399  22.257  22.727  1.00  0.00    -0.167 F 
ATOM     29  F   UNL A   1      30.123  24.014  22.887  1.00  0.00    -0.167 F 
ENDBRANCH  18  26
ENDBRANCH   7   9
ENDBRANCH   6   7
ENDBRANCH   5   6
ENDBRANCH   4   5
ENDBRANCH   3   4
ENDBRANCH   2   3
ENDBRANCH   1   2
BRANCH   1  30
ATOM     30  O   UNL A   1      31.383  31.243  26.232  1.00  0.00    -0.376 OA
BRANCH  30  31
ATOM     31  C   UNL A   1      31.425  32.600  26.628  1.00  0.00     0.202 C 
BRANCH  31  32
ATOM     32  C   UNL A   1      32.650  33.326  27.212  1.00  0.00     0.261 C 
BRANCH  32  33
ATOM     33  O   UNL A   1      32.461  34.146  28.369  1.00  0.00    -0.460 OA
BRANCH  33  34
ATOM     34  C   UNL A   1      33.543  34.877  28.739  1.00  0.00     0.338 C 
ATOM     35  O   UNL A   1      33.591  36.092  28.885  1.00  0.00    -0.246 OA
BRANCH  34  36
ATOM     36  C   UNL A   1      34.670  33.991  29.078  1.00  0.00     0.060 A 
ATOM     37  C   UNL A   1      34.440  32.925  29.953  1.00  0.00     0.016 A 
ATOM     38  C   UNL A   1      35.962  34.263  28.624  1.00  0.00     0.016 A 
ATOM     39  C   UNL A   1      35.499  32.123  30.378  1.00  0.00     0.010 A 
ATOM     40  C   UNL A   1      37.028  33.466  29.068  1.00  0.00     0.010 A 
ATOM     41  C   UNL A   1      36.807  32.402  29.962  1.00  0.00    -0.014 A 
BRANCH  41  42
ATOM     42  C   UNL A   1      37.945  31.663  30.575  1.00  0.00     0.031 A 
ATOM     43  C   UNL A   1      38.305  31.931  32.012  1.00  0.00     0.074 A 
ATOM     44  C   UNL A   1      38.609  30.717  29.883  1.00  0.00     0.049 A 
ATOM     45  N   UNL A   1      39.287  31.449  32.730  1.00  0.00    -0.248 NA
ATOM     46  C   UNL A   1      37.437  32.872  32.734  1.00  0.00     0.031 C 
ATOM     47  C   UNL A   1      38.304  30.306  28.513  1.00  0.00     0.029 A 
ATOM     48  N   UNL A   1      39.673  29.925  30.241  1.00  0.00    -0.354 N 
ATOM     49  C   UNL A   1      39.163  32.034  33.986  1.00  0.00     0.074 A 
ATOM     50  C   UNL A   1      38.028  32.931  33.919  1.00  0.00     0.031 C 
ATOM     51  C   UNL A   1      39.160  29.337  28.148  1.00  0.00     0.029 A 
ATOM     52  C   UNL A   1      40.109  29.096  29.232  1.00  0.00     0.049 A 
ATOM     53  H   UNL A   1      40.085  29.949  31.134  1.00  0.00     0.167 HD
ATOM     54  C   UNL A   1      39.923  31.838  35.094  1.00  0.00     0.034 A 
ATOM     55  C   UNL A   1      41.171  28.264  29.177  1.00  0.00     0.034 A 
ATOM     56  C   UNL A   1      41.057  30.945  35.143  1.00  0.00     0.049 A 
ATOM     57  C   UNL A   1      42.068  28.145  30.389  1.00  0.00     0.074 A 
ATOM     58  C   UNL A   1      41.901  30.680  36.208  1.00  0.00     0.029 A 
ATOM     59  N   UNL A   1      41.515  30.177  34.079  1.00  0.00    -0.354 N 
ATOM     60  N   UNL A   1      41.958  28.726  31.562  1.00  0.00    -0.248 NA
ATOM     61  C   UNL A   1      43.229  27.255  30.266  1.00  0.00     0.031 C 
ATOM     62  C   UNL A   1      42.912  29.820  35.766  1.00  0.00     0.029 A 
ATOM     63  C   UNL A   1      42.650  29.470  34.451  1.00  0.00     0.049 A 
ATOM     64  H   UNL A   1      41.095  30.140  33.189  1.00  0.00     0.167 HD
ATOM     65  C   UNL A   1      43.022  28.247  32.324  1.00  0.00     0.074 A 
ATOM     66  C   UNL A   1      43.742  27.311  31.486  1.00  0.00     0.031 C 
ATOM     67  C   UNL A   1      43.373  28.551  33.602  1.00  0.00     0.034 A 
BRANCH  54  68
ATOM     68  C   UNL A   1      39.590  32.661  36.317  1.00  0.00     0.023 A 
ATOM     69  C   UNL A   1      38.728  32.190  37.324  1.00  0.00     0.031 A 
ATOM     70  C   UNL A   1      40.119  33.958  36.460  1.00  0.00     0.131 A 
ATOM     71  C   UNL A   1      38.364  33.035  38.385  1.00  0.00     0.055 A 
ATOM     72  C   UNL A   1      39.820  34.761  37.562  1.00  0.00     0.041 A 
ATOM     73  F   UNL A   1      40.928  34.473  35.521  1.00  0.00    -0.206 F 
ATOM     74  C   UNL A   1      38.925  34.306  38.526  1.00  0.00     0.022 A 
BRANCH  71  75
ATOM     75  S   UNL A   1      37.030  32.508  39.497  1.00  0.00     0.124 S 
ATOM     76  O   UNL A   1      37.133  33.494  40.570  1.00  0.00    -0.237 OA
ATOM     77  O   UNL A   1      35.851  32.609  38.647  1.00  0.00    -0.237 OA
ATOM     78  O   UNL A   1      37.415  31.149  39.874  1.00  0.00    -0.744 OA
ENDBRANCH  71  75
ENDBRANCH  54  68
BRANCH  55  79
ATOM     79  C   UNL A   1      41.496  27.523  27.921  1.00  0.00     0.023 A 
ATOM     80  C   UNL A   1      41.359  26.127  27.837  1.00  0.00     0.031 A 
ATOM     81  C   UNL A   1      42.023  28.197  26.805  1.00  0.00     0.131 A 
ATOM     82  C   UNL A   1      41.789  25.448  26.685  1.00  0.00     0.055 A 
ATOM     83  C   UNL A   1      42.390  27.526  25.637  1.00  0.00     0.041 A 
ATOM     84  F   UNL A   1      42.190  29.529  26.831  1.00  0.00    -0.206 F 
ATOM     85  C   UNL A   1      42.287  26.140  25.578  1.00  0.00     0.022 A 
BRANCH  82  86
ATOM     86  S   UNL A   1      41.787  23.633  26.690  1.00  0.00     0.124 S 
ATOM     87  O   UNL A   1      42.470  23.333  25.436  1.00  0.00    -0.237 OA
ATOM     88  O   UNL A   1      42.524  23.331  27.911  1.00  0.00    -0.237 OA
ATOM     89  O   UNL A   1      40.365  23.295  26.722  1.00  0.00    -0.744 OA
ENDBRANCH  82  86
ENDBRANCH  55  79
BRANCH  67  90
ATOM     90  C   UNL A   1      44.571  27.826  34.176  1.00  0.00     0.023 A 
ATOM     91  C   UNL A   1      44.442  26.601  34.856  1.00  0.00     0.031 A 
ATOM     92  C   UNL A   1      45.856  28.388  34.075  1.00  0.00     0.131 A 
ATOM     93  C   UNL A   1      45.559  26.023  35.476  1.00  0.00     0.055 A 
ATOM     94  C   UNL A   1      46.979  27.766  34.626  1.00  0.00     0.041 A 
ATOM     95  F   UNL A   1      46.045  29.557  33.441  1.00  0.00    -0.206 F 
ATOM     96  C   UNL A   1      46.831  26.587  35.348  1.00  0.00     0.022 A 
BRANCH  93  97
ATOM     97  S   UNL A   1      45.307  24.594  36.566  1.00  0.00     0.124 S 
ATOM     98  O   UNL A   1      45.753  23.488  35.725  1.00  0.00    -0.237 OA
ATOM     99  O   UNL A   1      46.162  24.915  37.703  1.00  0.00    -0.237 OA
ATOM    100  O   UNL A   1      43.872  24.622  36.842  1.00  0.00    -0.744 OA
ENDBRANCH  93  97
ENDBRANCH  67  90
ENDBRANCH  41  42
ENDBRANCH  34  36
ENDBRANCH  33  34
ENDBRANCH  32  33
ENDBRANCH  31  32
ENDBRANCH  30  31
ENDBRANCH   1  30
TORSDOF 24
ENDMDL
MODEL 3
REMARK VINA RESULT:     -10.5      1.968      2.363
REMARK SMILES CCc1cc(OC(F)(F)F)cc2c1O[C@H](C(F)(F)F)C(C(=O)OCCOCCOCCOC(=O)c1ccc(-c3c4nc(c(-c5cc(S(=O)(=O)[O-])ccc5F)c5ccc([nH]5)c(-c5cc(S(=O)(=O)[O-])ccc5F)c5nc(c(-c6cc(S(=O)(=O)[O-])ccc6F)c6ccc3[nH]6)C=C5)C=C4)cc1)=C2
REMARK SMILES IDX 28 1 27 2 26 3 25 4 24 5 23 6 21 7 22 8 20 9 3 10 4 11 13 12
REMARK SMILES IDX 5 13 12 14 14 15 11 16 98 17 15 18 2 19 1 20 6 21 7 22 8 23
REMARK SMILES IDX 9 24 10 25 16 26 17 27 18 28 19 29 29 30 30 31 31 32 32 33
REMARK SMILES IDX 33 34 34 35 35 36 36 37 97 38 37 39 96 40 38 41 39 42 40 43
REMARK SMILES IDX 90 44 41 45 95 46 89 47 91 48 42 49 94 50 88 51 87 52 43 54
REMARK SMILES IDX 75 55 55 56 74 57 56 58 59 59 73 60 92 61 57 62 58 63 72 65
REMARK SMILES IDX 93 66 60 67 44 68 45 69 53 70 46 71 52 72 54 73 51 74 47 75
REMARK SMILES IDX 48 76 49 77 50 78 76 79 77 80 85 81 78 82 84 83 86 84 83 85
REMARK SMILES IDX 79 86 80 87 81 88 82 89 61 90 62 91 70 92 63 93 69 94 71 95
REMARK SMILES IDX 68 96 64 97 65 98 66 99 67 100
REMARK H PARENT 91 53 59 64
REMARK Flexibility Score: inf
ROOT
ATOM      1  C   UNL A   1      31.851  30.033  26.021  1.00  0.00     0.188 C 
ENDROOT
BRANCH   1   2
ATOM      2  C   UNL A   1      32.807  29.450  24.953  1.00  0.00     0.188 C 
BRANCH   2   3
ATOM      3  O   UNL A   1      32.306  28.793  23.805  1.00  0.00    -0.376 OA
BRANCH   3   4
ATOM      4  C   UNL A   1      31.359  27.752  23.946  1.00  0.00     0.202 C 
BRANCH   4   5
ATOM      5  C   UNL A   1      31.677  26.335  23.455  1.00  0.00     0.261 C 
BRANCH   5   6
ATOM      6  O   UNL A   1      31.427  25.277  24.396  1.00  0.00    -0.460 OA
BRANCH   6   7
ATOM      7  C   UNL A   1      31.106  24.081  23.837  1.00  0.00     0.338 C 
ATOM      8  O   UNL A   1      30.243  23.900  22.995  1.00  0.00    -0.246 OA
BRANCH   7   9
ATOM      9  C   UNL A   1      31.990  22.989  24.291  1.00  0.00     0.087 C 
ATOM     10  C   UNL A   1      35.295  20.591  24.960  1.00  0.00    -0.002 A 
ATOM     11  C   UNL A   1      35.180  19.204  24.805  1.00  0.00     0.054 A 
ATOM     12  C   UNL A   1      34.210  21.390  24.597  1.00  0.00     0.131 A 
ATOM     13  C   UNL A   1      33.999  18.633  24.313  1.00  0.00     0.130 A 
ATOM     14  C   UNL A   1      32.997  20.834  24.150  1.00  0.00     0.021 A 
ATOM     15  O   UNL A   1      34.364  22.752  24.717  1.00  0.00    -0.475 OA
ATOM     16  C   UNL A   1      32.902  19.451  24.009  1.00  0.00     0.058 A 
ATOM     17  C   UNL A   1      31.890  21.736  23.816  1.00  0.00     0.027 C 
ATOM     18  C   UNL A   1      33.153  23.396  25.173  1.00  0.00     0.316 C 
BRANCH  10  19
ATOM     19  C   UNL A   1      36.546  21.192  25.559  1.00  0.00     0.036 C 
ATOM     20  C   UNL A   1      37.359  21.966  24.537  1.00  0.00     0.009 C 
ENDBRANCH  10  19
BRANCH  13  21
ATOM     21  O   UNL A   1      33.789  17.297  24.107  1.00  0.00    -0.406 OA
BRANCH  21  22
ATOM     22  C   UNL A   1      33.364  16.533  25.225  1.00  0.00     0.573 C 
ATOM     23  F   UNL A   1      32.937  17.327  26.232  1.00  0.00    -0.132 F 
ATOM     24  F   UNL A   1      32.388  15.667  24.884  1.00  0.00    -0.132 F 
ATOM     25  F   UNL A   1      34.417  15.818  25.683  1.00  0.00    -0.132 F 
ENDBRANCH  21  22
ENDBRANCH  13  21
BRANCH  18  26
ATOM     26  C   UNL A   1      32.950  23.148  26.686  1.00  0.00     0.430 C 
ATOM     27  F   UNL A   1      34.127  22.997  27.332  1.00  0.00    -0.167 F 
ATOM     28  F   UNL A   1      32.307  24.154  27.322  1.00  0.00    -0.167 F 
ATOM     29  F   UNL A   1      32.242  22.017  26.910  1.00  0.00    -0.167 F 
ENDBRANCH  18  26
ENDBRANCH   7   9
ENDBRANCH   6   7
ENDBRANCH   5   6
ENDBRANCH   4   5
ENDBRANCH   3   4
ENDBRANCH   2   3
ENDBRANCH   1   2
BRANCH   1  30
ATOM     30  O   UNL A   1      31.081  31.168  25.706  1.00  0.00    -0.376 OA
BRANCH  30  31
ATOM     31  C   UNL A   1      31.166  32.341  26.492  1.00  0.00     0.202 C 
BRANCH  31  32
ATOM     32  C   UNL A   1      32.461  32.946  27.064  1.00  0.00     0.261 C 
BRANCH  32  33
ATOM     33  O   UNL A   1      32.355  33.837  28.179  1.00  0.00    -0.460 OA
BRANCH  33  34
ATOM     34  C   UNL A   1      33.452  34.602  28.410  1.00  0.00     0.338 C 
ATOM     35  O   UNL A   1      33.500  35.825  28.432  1.00  0.00    -0.246 OA
BRANCH  34  36
ATOM     36  C   UNL A   1      34.603  33.755  28.765  1.00  0.00     0.060 A 
ATOM     37  C   UNL A   1      34.360  32.529  29.391  1.00  0.00     0.016 A 
ATOM     38  C   UNL A   1      35.912  34.204  28.580  1.00  0.00     0.016 A 
ATOM     39  C   UNL A   1      35.424  31.742  29.833  1.00  0.00     0.010 A 
ATOM     40  C   UNL A   1      36.979  33.420  29.043  1.00  0.00     0.010 A 
ATOM     41  C   UNL A   1      36.743  32.193  29.690  1.00  0.00    -0.014 A 
BRANCH  41  42
ATOM     42  C   UNL A   1      37.850  31.438  30.339  1.00  0.00     0.031 A 
ATOM     43  C   UNL A   1      38.160  31.695  31.790  1.00  0.00     0.074 A 
ATOM     44  C   UNL A   1      38.529  30.490  29.666  1.00  0.00     0.049 A 
ATOM     45  N   UNL A   1      39.111  31.198  32.540  1.00  0.00    -0.248 NA
ATOM     46  C   UNL A   1      37.276  32.640  32.486  1.00  0.00     0.031 C 
ATOM     47  C   UNL A   1      38.271  30.090  28.283  1.00  0.00     0.029 A 
ATOM     48  N   UNL A   1      39.572  29.685  30.057  1.00  0.00    -0.354 N 
ATOM     49  C   UNL A   1      38.948  31.777  33.795  1.00  0.00     0.074 A 
ATOM     50  C   UNL A   1      37.824  32.686  33.692  1.00  0.00     0.031 C 
ATOM     51  C   UNL A   1      39.129  29.114  27.943  1.00  0.00     0.029 A 
ATOM     52  C   UNL A   1      40.036  28.857  29.059  1.00  0.00     0.049 A 
ATOM     53  H   UNL A   1      39.951  29.699  30.965  1.00  0.00     0.167 HD
ATOM     54  C   UNL A   1      39.664  31.567  34.928  1.00  0.00     0.034 A 
ATOM     55  C   UNL A   1      41.091  28.016  29.038  1.00  0.00     0.034 A 
ATOM     56  C   UNL A   1      40.787  30.662  35.013  1.00  0.00     0.049 A 
ATOM     57  C   UNL A   1      41.942  27.880  30.281  1.00  0.00     0.074 A 
ATOM     58  C   UNL A   1      41.590  30.383  36.106  1.00  0.00     0.029 A 
ATOM     59  N   UNL A   1      41.275  29.896  33.960  1.00  0.00    -0.354 N 
ATOM     60  N   UNL A   1      41.796  28.455  31.453  1.00  0.00    -0.248 NA
ATOM     61  C   UNL A   1      43.098  26.979  30.195  1.00  0.00     0.031 C 
ATOM     62  C   UNL A   1      42.607  29.515  35.695  1.00  0.00     0.029 A 
ATOM     63  C   UNL A   1      42.390  29.176  34.370  1.00  0.00     0.049 A 
ATOM     64  H   UNL A   1      40.888  29.868  33.056  1.00  0.00     0.167 HD
ATOM     65  C   UNL A   1      42.826  27.961  32.250  1.00  0.00     0.074 A 
ATOM     66  C   UNL A   1      43.567  27.023  31.432  1.00  0.00     0.031 C 
ATOM     67  C   UNL A   1      43.134  28.254  33.542  1.00  0.00     0.034 A 
BRANCH  54  68
ATOM     68  C   UNL A   1      39.296  32.386  36.144  1.00  0.00     0.023 A 
ATOM     69  C   UNL A   1      39.870  33.644  36.401  1.00  0.00     0.031 A 
ATOM     70  C   UNL A   1      38.377  31.880  37.082  1.00  0.00     0.131 A 
ATOM     71  C   UNL A   1      39.577  34.315  37.600  1.00  0.00     0.055 A 
ATOM     72  C   UNL A   1      38.025  32.593  38.230  1.00  0.00     0.041 A 
ATOM     73  F   UNL A   1      37.812  30.675  36.905  1.00  0.00    -0.206 F 
ATOM     74  C   UNL A   1      38.638  33.812  38.502  1.00  0.00     0.022 A 
BRANCH  71  75
ATOM     75  S   UNL A   1      40.555  35.781  38.035  1.00  0.00     0.124 S 
ATOM     76  O   UNL A   1      40.081  36.753  37.053  1.00  0.00    -0.237 OA
ATOM     77  O   UNL A   1      40.162  36.024  39.418  1.00  0.00    -0.237 OA
ATOM     78  O   UNL A   1      41.935  35.340  37.846  1.00  0.00    -0.744 OA
ENDBRANCH  71  75
ENDBRANCH  54  68
BRANCH  55  79
ATOM     79  C   UNL A   1      41.454  27.279  27.790  1.00  0.00     0.023 A 
ATOM     80  C   UNL A   1      41.280  25.888  27.682  1.00  0.00     0.031 A 
ATOM     81  C   UNL A   1      42.054  27.948  26.708  1.00  0.00     0.131 A 
ATOM     82  C   UNL A   1      41.745  25.209  26.544  1.00  0.00     0.055 A 
ATOM     83  C   UNL A   1      42.456  27.279  25.552  1.00  0.00     0.041 A 
ATOM     84  F   UNL A   1      42.259  29.275  26.759  1.00  0.00    -0.206 F 
ATOM     85  C   UNL A   1      42.316  25.897  25.471  1.00  0.00     0.022 A 
BRANCH  82  86
ATOM     86  S   UNL A   1      41.689  23.395  26.527  1.00  0.00     0.124 S 
ATOM     87  O   UNL A   1      42.435  23.088  25.311  1.00  0.00    -0.237 OA
ATOM     88  O   UNL A   1      42.345  23.058  27.785  1.00  0.00    -0.237 OA
ATOM     89  O   UNL A   1      40.259  23.099  26.473  1.00  0.00    -0.744 OA
ENDBRANCH  82  86
ENDBRANCH  55  79
BRANCH  67  90
ATOM     90  C   UNL A   1      44.303  27.514  34.154  1.00  0.00     0.023 A 
ATOM     91  C   UNL A   1      45.610  28.032  34.120  1.00  0.00     0.031 A 
ATOM     92  C   UNL A   1      44.112  26.252  34.746  1.00  0.00     0.131 A 
ATOM     93  C   UNL A   1      46.683  27.260  34.592  1.00  0.00     0.055 A 
ATOM     94  C   UNL A   1      45.173  25.523  35.286  1.00  0.00     0.041 A 
ATOM     95  F   UNL A   1      42.888  25.702  34.806  1.00  0.00    -0.206 F 
ATOM     96  C   UNL A   1      46.470  26.017  35.193  1.00  0.00     0.022 A 
BRANCH  93  97
ATOM     97  S   UNL A   1      48.374  27.842  34.287  1.00  0.00     0.124 S 
ATOM     98  O   UNL A   1      48.743  27.089  33.093  1.00  0.00    -0.237 OA
ATOM     99  O   UNL A   1      48.181  29.276  34.101  1.00  0.00    -0.237 OA
ATOM    100  O   UNL A   1      49.091  27.465  35.503  1.00  0.00    -0.744 OA
ENDBRANCH  93  97
ENDBRANCH  67  90
ENDBRANCH  41  42
ENDBRANCH  34  36
ENDBRANCH  33  34
ENDBRANCH  32  33
ENDBRANCH  31  32
ENDBRANCH  30  31
ENDBRANCH   1  30
TORSDOF 24
ENDMDL
