MODEL 1
REMARK VINA RESULT:     -10.7      0.000      0.000
REMARK SMILES Cc1ccc(NC(=O)C[C@@H](C(=O)OCCOCCOCCOC(=O)c2ccc(-c3c4nc(c(-c5cc(S(=O)(=O)[O-])ccc5F)c5ccc([nH]5)c(-c5cc(S(=O)(=O)[O-])ccc5F)c5nc(c(-c6cc(S(=O)(=O)[O-])ccc6F)c6ccc3[nH]6)C=C5)C=C4)cc2)[C@@H](C)c2ccccc2)cc1Br
REMARK SMILES IDX 17 1 16 2 15 3 14 4 13 5 11 6 12 7 10 8 9 9 7 10 6 11 8 13
REMARK SMILES IDX 5 14 1 15 2 16 3 17 97 18 4 19 96 20 98 21 88 22 89 23 90 24
REMARK SMILES IDX 91 25 95 26 92 27 94 28 93 29 18 30 19 31 20 32 21 33 22 34
REMARK SMILES IDX 23 35 24 36 25 37 26 38 87 39 27 40 86 41 28 42 29 43 30 44
REMARK SMILES IDX 80 45 31 46 85 47 79 48 81 49 32 50 84 51 78 52 77 53 33 55
REMARK SMILES IDX 65 56 45 57 64 58 46 59 49 60 63 61 82 62 47 63 48 64 62 66
REMARK SMILES IDX 83 67 50 68 34 69 35 70 43 71 36 72 42 73 44 74 41 75 37 76
REMARK SMILES IDX 38 77 39 78 40 79 66 80 67 81 75 82 68 83 74 84 76 85 73 86
REMARK SMILES IDX 69 87 70 88 71 89 72 90 51 91 52 92 60 93 53 94 59 95 61 96
REMARK SMILES IDX 58 97 54 98 55 99 56 100 57 101
REMARK H PARENT 6 12 81 54 49 65
REMARK Flexibility Score: inf
ROOT
ATOM      1  C   UNL A   1      35.885  31.496  28.352  1.00  0.00     0.188 C 
ENDROOT
BRANCH   1   2
ATOM      2  O   UNL A   1      35.026  30.698  27.540  1.00  0.00    -0.376 OA
BRANCH   2   3
ATOM      3  C   UNL A   1      33.549  31.016  27.239  1.00  0.00     0.202 C 
BRANCH   3   4
ATOM      4  C   UNL A   1      31.967  29.798  26.352  1.00  0.00     0.261 C 
BRANCH   4   5
ATOM      5  O   UNL A   1      31.631  29.758  24.662  1.00  0.00    -0.463 OA
BRANCH   5   6
ATOM      6  C   UNL A   1      30.948  28.833  23.938  1.00  0.00     0.310 C 
ATOM      7  O   UNL A   1      29.902  29.158  23.387  1.00  0.00    -0.252 OA
BRANCH   6   8
ATOM      8  C   UNL A   1      31.445  27.315  24.005  1.00  0.00     0.116 C 
BRANCH   8   9
ATOM      9  C   UNL A   1      32.135  26.718  25.264  1.00  0.00     0.116 C 
BRANCH   9  10
ATOM     10  C   UNL A   1      31.395  26.080  26.408  1.00  0.00     0.225 C 
ATOM     11  N   UNL A   1      31.626  24.805  26.788  1.00  0.00    -0.326 N 
ATOM     12  H   UNL A   1      30.979  24.440  27.433  1.00  0.00     0.169 HD
ATOM     13  O   UNL A   1      30.492  26.697  26.983  1.00  0.00    -0.275 OA
BRANCH  11  14
ATOM     14  C   UNL A   1      32.639  23.927  26.410  1.00  0.00     0.042 A 
ATOM     15  C   UNL A   1      35.988  20.376  25.075  1.00  0.00     0.045 C 
ATOM     16  C   UNL A   1      35.105  21.355  25.812  1.00  0.00    -0.037 A 
ATOM     17  C   UNL A   1      33.389  20.922  26.084  1.00  0.00     0.007 A 
ATOM     18  C   UNL A   1      35.635  23.056  25.862  1.00  0.00     0.022 A 
ATOM     19  C   UNL A   1      32.160  22.191  26.374  1.00  0.00     0.026 A 
ATOM     20  C   UNL A   1      34.402  24.350  26.186  1.00  0.00     0.042 A 
ATOM     21  Br  UNL A   1      37.384  23.458  25.200  1.00  0.00    -0.050 Br
ENDBRANCH  11  14
ENDBRANCH   9  10
ENDBRANCH   8   9
BRANCH   8  22
ATOM     22  C   UNL A   1      32.321  26.829  22.750  1.00  0.00     0.031 C 
ATOM     23  C   UNL A   1      33.579  27.686  22.493  1.00  0.00     0.013 C 
BRANCH  22  24
ATOM     24  C   UNL A   1      32.596  25.343  22.708  1.00  0.00    -0.044 A 
ATOM     25  C   UNL A   1      33.857  24.768  22.591  1.00  0.00     0.004 A 
ATOM     26  C   UNL A   1      31.496  24.487  22.827  1.00  0.00     0.004 A 
ATOM     27  C   UNL A   1      33.996  23.377  22.661  1.00  0.00     0.000 A 
ATOM     28  C   UNL A   1      31.623  23.109  22.927  1.00  0.00     0.000 A 
ATOM     29  C   UNL A   1      32.886  22.552  22.856  1.00  0.00     0.000 A 
ENDBRANCH  22  24
ENDBRANCH   8  22
ENDBRANCH   6   8
ENDBRANCH   5   6
ENDBRANCH   4   5
ENDBRANCH   3   4
ENDBRANCH   2   3
ENDBRANCH   1   2
BRANCH   1  30
ATOM     30  C   UNL A   1      35.356  32.747  29.056  1.00  0.00     0.188 C 
BRANCH  30  31
ATOM     31  O   UNL A   1      35.395  33.959  28.353  1.00  0.00    -0.376 OA
BRANCH  31  32
ATOM     32  C   UNL A   1      34.240  34.754  28.198  1.00  0.00     0.202 C 
BRANCH  32  33
ATOM     33  C   UNL A   1      33.182  35.116  29.267  1.00  0.00     0.261 C 
BRANCH  33  34
ATOM     34  O   UNL A   1      33.522  35.833  30.456  1.00  0.00    -0.460 OA
BRANCH  34  35
ATOM     35  C   UNL A   1      33.127  35.342  31.658  1.00  0.00     0.338 C 
ATOM     36  O   UNL A   1      31.980  35.256  32.054  1.00  0.00    -0.246 OA
BRANCH  35  37
ATOM     37  C   UNL A   1      34.316  34.690  32.293  1.00  0.00     0.060 A 
ATOM     38  C   UNL A   1      35.602  35.201  32.033  1.00  0.00     0.016 A 
ATOM     39  C   UNL A   1      34.155  33.686  33.253  1.00  0.00     0.016 A 
ATOM     40  C   UNL A   1      36.722  34.687  32.699  1.00  0.00     0.010 A 
ATOM     41  C   UNL A   1      35.281  33.137  33.881  1.00  0.00     0.010 A 
ATOM     42  C   UNL A   1      36.573  33.605  33.575  1.00  0.00    -0.014 A 
BRANCH  42  43
ATOM     43  C   UNL A   1      37.743  32.734  33.873  1.00  0.00     0.031 A 
ATOM     44  C   UNL A   1      38.479  33.021  35.159  1.00  0.00     0.074 A 
ATOM     45  C   UNL A   1      38.158  31.743  33.062  1.00  0.00     0.049 A 
ATOM     46  N   UNL A   1      39.582  32.504  35.630  1.00  0.00    -0.248 NA
ATOM     47  C   UNL A   1      37.880  34.050  36.026  1.00  0.00     0.031 C 
ATOM     48  C   UNL A   1      37.499  31.319  31.829  1.00  0.00     0.029 A 
ATOM     49  N   UNL A   1      39.255  30.918  33.156  1.00  0.00    -0.354 N 
ATOM     50  C   UNL A   1      39.813  33.152  36.840  1.00  0.00     0.074 A 
ATOM     51  C   UNL A   1      38.756  34.122  37.012  1.00  0.00     0.031 C 
ATOM     52  C   UNL A   1      38.214  30.322  31.274  1.00  0.00     0.029 A 
ATOM     53  C   UNL A   1      39.406  30.068  32.085  1.00  0.00     0.049 A 
ATOM     54  H   UNL A   1      39.876  30.934  33.921  1.00  0.00     0.167 HD
ATOM     55  C   UNL A   1      40.816  32.958  37.730  1.00  0.00     0.034 A 
ATOM     56  C   UNL A   1      40.407  29.211  31.784  1.00  0.00     0.034 A 
ATOM     57  C   UNL A   1      41.881  32.011  37.528  1.00  0.00     0.049 A 
ATOM     58  C   UNL A   1      41.582  29.093  32.735  1.00  0.00     0.074 A 
ATOM     59  C   UNL A   1      42.947  31.727  38.360  1.00  0.00     0.029 A 
ATOM     60  N   UNL A   1      42.028  31.211  36.402  1.00  0.00    -0.354 N 
ATOM     61  N   UNL A   1      41.788  29.706  33.880  1.00  0.00    -0.248 NA
ATOM     62  C   UNL A   1      42.656  28.165  32.354  1.00  0.00     0.031 C 
ATOM     63  C   UNL A   1      43.788  30.830  37.698  1.00  0.00     0.029 A 
ATOM     64  C   UNL A   1      43.192  30.468  36.500  1.00  0.00     0.049 A 
ATOM     65  H   UNL A   1      41.398  31.178  35.646  1.00  0.00     0.167 HD
ATOM     66  C   UNL A   1      42.993  29.202  34.372  1.00  0.00     0.074 A 
ATOM     67  C   UNL A   1      43.461  28.231  33.405  1.00  0.00     0.031 C 
ATOM     68  C   UNL A   1      43.649  29.506  35.523  1.00  0.00     0.034 A 
BRANCH  55  69
ATOM     69  C   UNL A   1      40.835  33.842  38.954  1.00  0.00     0.023 A 
ATOM     70  C   UNL A   1      40.002  33.599  40.061  1.00  0.00     0.031 A 
ATOM     71  C   UNL A   1      41.666  34.975  38.993  1.00  0.00     0.131 A 
ATOM     72  C   UNL A   1      39.961  34.517  41.120  1.00  0.00     0.055 A 
ATOM     73  C   UNL A   1      41.689  35.834  40.093  1.00  0.00     0.041 A 
ATOM     74  F   UNL A   1      42.457  35.279  37.952  1.00  0.00    -0.206 F 
ATOM     75  C   UNL A   1      40.821  35.617  41.158  1.00  0.00     0.022 A 
BRANCH  72  76
ATOM     76  S   UNL A   1      38.652  34.346  42.365  1.00  0.00     0.124 S 
ATOM     77  O   UNL A   1      39.428  34.099  43.578  1.00  0.00    -0.237 OA
ATOM     78  O   UNL A   1      37.976  35.635  42.290  1.00  0.00    -0.237 OA
ATOM     79  O   UNL A   1      37.874  33.203  41.889  1.00  0.00    -0.744 OA
ENDBRANCH  72  76
ENDBRANCH  55  69
BRANCH  56  80
ATOM     80  C   UNL A   1      40.385  28.420  30.515  1.00  0.00     0.023 A 
ATOM     81  C   UNL A   1      41.233  28.740  29.441  1.00  0.00     0.031 A 
ATOM     82  C   UNL A   1      39.457  27.379  30.325  1.00  0.00     0.131 A 
ATOM     83  C   UNL A   1      41.107  28.061  28.217  1.00  0.00     0.055 A 
ATOM     84  C   UNL A   1      39.380  26.664  29.127  1.00  0.00     0.041 A 
ATOM     85  F   UNL A   1      38.606  27.040  31.307  1.00  0.00    -0.206 F 
ATOM     86  C   UNL A   1      40.199  27.013  28.059  1.00  0.00     0.022 A 
BRANCH  83  87
ATOM     87  S   UNL A   1      42.072  28.643  26.794  1.00  0.00     0.124 S 
ATOM     88  O   UNL A   1      41.020  28.986  25.844  1.00  0.00    -0.237 OA
ATOM     89  O   UNL A   1      42.813  29.763  27.364  1.00  0.00    -0.237 OA
ATOM     90  O   UNL A   1      42.883  27.482  26.434  1.00  0.00    -0.744 OA
ENDBRANCH  83  87
ENDBRANCH  56  80
BRANCH  68  91
ATOM     91  C   UNL A   1      44.912  28.734  35.832  1.00  0.00     0.023 A 
ATOM     92  C   UNL A   1      44.889  27.504  36.511  1.00  0.00     0.031 A 
ATOM     93  C   UNL A   1      46.162  29.240  35.427  1.00  0.00     0.131 A 
ATOM     94  C   UNL A   1      46.094  26.853  36.818  1.00  0.00     0.055 A 
ATOM     95  C   UNL A   1      47.350  28.550  35.668  1.00  0.00     0.041 A 
ATOM     96  F   UNL A   1      46.248  30.412  34.778  1.00  0.00    -0.206 F 
ATOM     97  C   UNL A   1      47.321  27.356  36.380  1.00  0.00     0.022 A 
BRANCH  94  98
ATOM     98  S   UNL A   1      46.046  25.398  37.898  1.00  0.00     0.124 S 
ATOM     99  O   UNL A   1      47.446  25.256  38.280  1.00  0.00    -0.237 OA
ATOM    100  O   UNL A   1      45.137  25.824  38.957  1.00  0.00    -0.237 OA
ATOM    101  O   UNL A   1      45.529  24.342  37.028  1.00  0.00    -0.744 OA
ENDBRANCH  94  98
ENDBRANCH  68  91
ENDBRANCH  42  43
ENDBRANCH  35  37
ENDBRANCH  34  35
ENDBRANCH  33  34
ENDBRANCH  32  33
ENDBRANCH  31  32
ENDBRANCH  30  31
ENDBRANCH   1  30
TORSDOF 25
ENDMDL
MODEL 2
REMARK VINA RESULT:      -9.9      6.767     12.438
REMARK SMILES Cc1ccc(NC(=O)C[C@@H](C(=O)OCCOCCOCCOC(=O)c2ccc(-c3c4nc(c(-c5cc(S(=O)(=O)[O-])ccc5F)c5ccc([nH]5)c(-c5cc(S(=O)(=O)[O-])ccc5F)c5nc(c(-c6cc(S(=O)(=O)[O-])ccc6F)c6ccc3[nH]6)C=C5)C=C4)cc2)[C@@H](C)c2ccccc2)cc1Br
REMARK SMILES IDX 17 1 16 2 15 3 14 4 13 5 11 6 12 7 10 8 9 9 7 10 6 11 8 13
REMARK SMILES IDX 5 14 1 15 2 16 3 17 97 18 4 19 96 20 98 21 88 22 89 23 90 24
REMARK SMILES IDX 91 25 95 26 92 27 94 28 93 29 18 30 19 31 20 32 21 33 22 34
REMARK SMILES IDX 23 35 24 36 25 37 26 38 87 39 27 40 86 41 28 42 29 43 30 44
REMARK SMILES IDX 80 45 31 46 85 47 79 48 81 49 32 50 84 51 78 52 77 53 33 55
REMARK SMILES IDX 65 56 45 57 64 58 46 59 49 60 63 61 82 62 47 63 48 64 62 66
REMARK SMILES IDX 83 67 50 68 34 69 35 70 43 71 36 72 42 73 44 74 41 75 37 76
REMARK SMILES IDX 38 77 39 78 40 79 66 80 67 81 75 82 68 83 74 84 76 85 73 86
REMARK SMILES IDX 69 87 70 88 71 89 72 90 51 91 52 92 60 93 53 94 59 95 61 96
REMARK SMILES IDX 58 97 54 98 55 99 56 100 57 101
REMARK H PARENT 6 12 81 54 49 65
REMARK Flexibility Score: inf
ROOT
ATOM      1  C   UNL A   1      38.780  24.459  26.854  1.00  0.00     0.188 C 
ENDROOT
BRANCH   1   2
ATOM      2  O   UNL A   1      37.707  23.623  26.426  1.00  0.00    -0.376 OA
BRANCH   2   3
ATOM      3  C   UNL A   1      36.228  24.049  26.357  1.00  0.00     0.202 C 
BRANCH   3   4
ATOM      4  C   UNL A   1      34.417  23.088  27.110  1.00  0.00     0.261 C 
BRANCH   4   5
ATOM      5  O   UNL A   1      32.895  23.161  26.303  1.00  0.00    -0.463 OA
BRANCH   5   6
ATOM      6  C   UNL A   1      31.895  24.072  26.425  1.00  0.00     0.310 C 
ATOM      7  O   UNL A   1      31.016  23.887  27.260  1.00  0.00    -0.252 OA
BRANCH   6   8
ATOM      8  C   UNL A   1      31.811  25.241  25.338  1.00  0.00     0.116 C 
BRANCH   8   9
ATOM      9  C   UNL A   1      32.995  25.584  24.388  1.00  0.00     0.116 C 
BRANCH   9  10
ATOM     10  C   UNL A   1      32.951  25.417  22.894  1.00  0.00     0.225 C 
ATOM     11  N   UNL A   1      33.350  24.277  22.290  1.00  0.00    -0.326 N 
ATOM     12  H   UNL A   1      33.433  24.333  21.310  1.00  0.00     0.169 HD
ATOM     13  O   UNL A   1      32.614  26.363  22.174  1.00  0.00    -0.275 OA
BRANCH  11  14
ATOM     14  C   UNL A   1      33.660  23.034  22.836  1.00  0.00     0.042 A 
ATOM     15  C   UNL A   1      34.322  18.388  24.729  1.00  0.00     0.045 C 
ATOM     16  C   UNL A   1      34.026  19.853  24.509  1.00  0.00    -0.037 A 
ATOM     17  C   UNL A   1      32.468  20.307  23.753  1.00  0.00     0.007 A 
ATOM     18  C   UNL A   1      35.414  20.971  24.479  1.00  0.00     0.022 A 
ATOM     19  C   UNL A   1      32.280  21.878  22.917  1.00  0.00     0.026 A 
ATOM     20  C   UNL A   1      35.226  22.581  23.660  1.00  0.00     0.042 A 
ATOM     21  Br  UNL A   1      37.126  20.271  24.970  1.00  0.00    -0.050 Br
ENDBRANCH  11  14
ENDBRANCH   9  10
ENDBRANCH   8   9
BRANCH   8  22
ATOM     22  C   UNL A   1      31.269  26.647  25.890  1.00  0.00     0.031 C 
ATOM     23  C   UNL A   1      32.263  27.387  26.810  1.00  0.00     0.013 C 
BRANCH  22  24
ATOM     24  C   UNL A   1      30.651  27.544  24.841  1.00  0.00    -0.044 A 
ATOM     25  C   UNL A   1      31.120  28.807  24.494  1.00  0.00     0.004 A 
ATOM     26  C   UNL A   1      29.542  27.046  24.148  1.00  0.00     0.004 A 
ATOM     27  C   UNL A   1      30.524  29.504  23.437  1.00  0.00     0.000 A 
ATOM     28  C   UNL A   1      28.961  27.714  23.081  1.00  0.00     0.000 A 
ATOM     29  C   UNL A   1      29.465  28.948  22.715  1.00  0.00     0.000 A 
ENDBRANCH  22  24
ENDBRANCH   8  22
ENDBRANCH   6   8
ENDBRANCH   5   6
ENDBRANCH   4   5
ENDBRANCH   3   4
ENDBRANCH   2   3
ENDBRANCH   1   2
BRANCH   1  30
ATOM     30  C   UNL A   1      40.234  24.046  26.622  1.00  0.00     0.188 C 
BRANCH  30  31
ATOM     31  O   UNL A   1      40.929  23.469  27.694  1.00  0.00    -0.376 OA
BRANCH  31  32
ATOM     32  C   UNL A   1      40.842  22.087  27.965  1.00  0.00     0.202 C 
BRANCH  32  33
ATOM     33  C   UNL A   1      40.815  20.917  26.952  1.00  0.00     0.261 C 
BRANCH  33  34
ATOM     34  O   UNL A   1      41.404  21.025  25.654  1.00  0.00    -0.460 OA
BRANCH  34  35
ATOM     35  C   UNL A   1      42.717  20.720  25.498  1.00  0.00     0.338 C 
ATOM     36  O   UNL A   1      43.162  19.668  25.081  1.00  0.00    -0.246 OA
BRANCH  35  37
ATOM     37  C   UNL A   1      43.500  21.983  25.676  1.00  0.00     0.060 A 
ATOM     38  C   UNL A   1      44.572  22.006  26.589  1.00  0.00     0.016 A 
ATOM     39  C   UNL A   1      43.281  23.086  24.844  1.00  0.00     0.016 A 
ATOM     40  C   UNL A   1      45.395  23.135  26.696  1.00  0.00     0.010 A 
ATOM     41  C   UNL A   1      44.072  24.234  24.987  1.00  0.00     0.010 A 
ATOM     42  C   UNL A   1      45.104  24.280  25.943  1.00  0.00    -0.014 A 
BRANCH  42  43
ATOM     43  C   UNL A   1      45.603  25.606  26.400  1.00  0.00     0.031 A 
ATOM     44  C   UNL A   1      46.972  26.009  25.908  1.00  0.00     0.074 A 
ATOM     45  C   UNL A   1      44.908  26.423  27.213  1.00  0.00     0.049 A 
ATOM     46  N   UNL A   1      47.704  27.046  26.216  1.00  0.00    -0.248 NA
ATOM     47  C   UNL A   1      47.601  25.097  24.938  1.00  0.00     0.031 C 
ATOM     48  C   UNL A   1      43.553  26.185  27.702  1.00  0.00     0.029 A 
ATOM     49  N   UNL A   1      45.264  27.624  27.781  1.00  0.00    -0.354 N 
ATOM     50  C   UNL A   1      48.881  26.904  25.486  1.00  0.00     0.074 A 
ATOM     51  C   UNL A   1      48.778  25.665  24.750  1.00  0.00     0.031 C 
ATOM     52  C   UNL A   1      43.197  27.201  28.511  1.00  0.00     0.029 A 
ATOM     53  C   UNL A   1      44.315  28.139  28.635  1.00  0.00     0.049 A 
ATOM     54  H   UNL A   1      46.120  28.074  27.595  1.00  0.00     0.167 HD
ATOM     55  C   UNL A   1      49.953  27.731  25.432  1.00  0.00     0.034 A 
ATOM     56  C   UNL A   1      44.362  29.222  29.442  1.00  0.00     0.034 A 
ATOM     57  C   UNL A   1      50.054  28.946  26.198  1.00  0.00     0.049 A 
ATOM     58  C   UNL A   1      45.617  30.071  29.458  1.00  0.00     0.074 A 
ATOM     59  C   UNL A   1      51.089  29.861  26.222  1.00  0.00     0.029 A 
ATOM     60  N   UNL A   1      49.096  29.400  27.095  1.00  0.00    -0.354 N 
ATOM     61  N   UNL A   1      46.723  29.932  28.759  1.00  0.00    -0.248 NA
ATOM     62  C   UNL A   1      45.629  31.225  30.368  1.00  0.00     0.031 C 
ATOM     63  C   UNL A   1      50.802  30.816  27.201  1.00  0.00     0.029 A 
ATOM     64  C   UNL A   1      49.537  30.560  27.709  1.00  0.00     0.049 A 
ATOM     65  H   UNL A   1      48.231  28.963  27.267  1.00  0.00     0.167 HD
ATOM     66  C   UNL A   1      47.539  31.005  29.116  1.00  0.00     0.074 A 
ATOM     67  C   UNL A   1      46.796  31.786  30.084  1.00  0.00     0.031 C 
ATOM     68  C   UNL A   1      48.786  31.325  28.679  1.00  0.00     0.034 A 
BRANCH  55  69
ATOM     69  C   UNL A   1      51.117  27.299  24.574  1.00  0.00     0.023 A 
ATOM     70  C   UNL A   1      51.158  27.553  23.191  1.00  0.00     0.031 A 
ATOM     71  C   UNL A   1      52.183  26.578  25.140  1.00  0.00     0.131 A 
ATOM     72  C   UNL A   1      52.196  27.023  22.412  1.00  0.00     0.055 A 
ATOM     73  C   UNL A   1      53.262  26.133  24.374  1.00  0.00     0.041 A 
ATOM     74  F   UNL A   1      52.184  26.274  26.447  1.00  0.00    -0.206 F 
ATOM     75  C   UNL A   1      53.265  26.341  22.998  1.00  0.00     0.022 A 
BRANCH  72  76
ATOM     76  S   UNL A   1      52.045  27.091  20.605  1.00  0.00     0.124 S 
ATOM     77  O   UNL A   1      51.851  28.521  20.379  1.00  0.00    -0.237 OA
ATOM     78  O   UNL A   1      53.320  26.542  20.161  1.00  0.00    -0.237 OA
ATOM     79  O   UNL A   1      50.876  26.259  20.327  1.00  0.00    -0.744 OA
ENDBRANCH  72  76
ENDBRANCH  55  69
BRANCH  56  80
ATOM     80  C   UNL A   1      43.215  29.559  30.341  1.00  0.00     0.023 A 
ATOM     81  C   UNL A   1      43.075  28.958  31.603  1.00  0.00     0.031 A 
ATOM     82  C   UNL A   1      42.194  30.431  29.917  1.00  0.00     0.131 A 
ATOM     83  C   UNL A   1      41.926  29.199  32.375  1.00  0.00     0.055 A 
ATOM     84  C   UNL A   1      41.084  30.717  30.716  1.00  0.00     0.041 A 
ATOM     85  F   UNL A   1      42.260  31.020  28.712  1.00  0.00    -0.206 F 
ATOM     86  C   UNL A   1      40.939  30.089  31.948  1.00  0.00     0.022 A 
BRANCH  83  87
ATOM     87  S   UNL A   1      41.684  28.245  33.900  1.00  0.00     0.124 S 
ATOM     88  O   UNL A   1      41.848  29.273  34.921  1.00  0.00    -0.237 OA
ATOM     89  O   UNL A   1      40.333  27.725  33.724  1.00  0.00    -0.237 OA
ATOM     90  O   UNL A   1      42.746  27.243  33.847  1.00  0.00    -0.744 OA
ENDBRANCH  83  87
ENDBRANCH  56  80
BRANCH  68  91
ATOM     91  C   UNL A   1      49.401  32.606  29.193  1.00  0.00     0.023 A 
ATOM     92  C   UNL A   1      49.105  33.858  28.626  1.00  0.00     0.031 A 
ATOM     93  C   UNL A   1      50.293  32.571  30.281  1.00  0.00     0.131 A 
ATOM     94  C   UNL A   1      49.742  35.012  29.109  1.00  0.00     0.055 A 
ATOM     95  C   UNL A   1      50.864  33.731  30.806  1.00  0.00     0.041 A 
ATOM     96  F   UNL A   1      50.618  31.405  30.862  1.00  0.00    -0.206 F 
ATOM     97  C   UNL A   1      50.600  34.959  30.209  1.00  0.00     0.022 A 
BRANCH  94  98
ATOM     98  S   UNL A   1      49.523  36.568  28.205  1.00  0.00     0.124 S 
ATOM     99  O   UNL A   1      48.190  36.403  27.635  1.00  0.00    -0.237 OA
ATOM    100  O   UNL A   1      49.644  37.565  29.264  1.00  0.00    -0.237 OA
ATOM    101  O   UNL A   1      50.618  36.560  27.236  1.00  0.00    -0.744 OA
ENDBRANCH  94  98
ENDBRANCH  68  91
ENDBRANCH  42  43
ENDBRANCH  35  37
ENDBRANCH  34  35
ENDBRANCH  33  34
ENDBRANCH  32  33
ENDBRANCH  31  32
ENDBRANCH  30  31
ENDBRANCH   1  30
TORSDOF 25
ENDMDL
MODEL 3
REMARK VINA RESULT:      -9.9      2.939      8.627
REMARK SMILES Cc1ccc(NC(=O)C[C@@H](C(=O)OCCOCCOCCOC(=O)c2ccc(-c3c4nc(c(-c5cc(S(=O)(=O)[O-])ccc5F)c5ccc([nH]5)c(-c5cc(S(=O)(=O)[O-])ccc5F)c5nc(c(-c6cc(S(=O)(=O)[O-])ccc6F)c6ccc3[nH]6)C=C5)C=C4)cc2)[C@@H](C)c2ccccc2)cc1Br
REMARK SMILES IDX 17 1 16 2 15 3 14 4 13 5 11 6 12 7 10 8 9 9 7 10 6 11 8 13
REMARK SMILES IDX 5 14 1 15 2 16 3 17 97 18 4 19 96 20 98 21 88 22 89 23 90 24
REMARK SMILES IDX 91 25 95 26 92 27 94 28 93 29 18 30 19 31 20 32 21 33 22 34
REMARK SMILES IDX 23 35 24 36 25 37 26 38 87 39 27 40 86 41 28 42 29 43 30 44
REMARK SMILES IDX 80 45 31 46 85 47 79 48 81 49 32 50 84 51 78 52 77 53 33 55
REMARK SMILES IDX 65 56 45 57 64 58 46 59 49 60 63 61 82 62 47 63 48 64 62 66
REMARK SMILES IDX 83 67 50 68 34 69 35 70 43 71 36 72 42 73 44 74 41 75 37 76
REMARK SMILES IDX 38 77 39 78 40 79 66 80 67 81 75 82 68 83 74 84 76 85 73 86
REMARK SMILES IDX 69 87 70 88 71 89 72 90 51 91 52 92 60 93 53 94 59 95 61 96
REMARK SMILES IDX 58 97 54 98 55 99 56 100 57 101
REMARK H PARENT 6 12 81 54 49 65
REMARK Flexibility Score: inf
ROOT
ATOM      1  C   UNL A   1      37.506  24.054  26.132  1.00  0.00     0.188 C 
ENDROOT
BRANCH   1   2
ATOM      2  O   UNL A   1      36.455  23.244  26.652  1.00  0.00    -0.376 OA
BRANCH   2   3
ATOM      3  C   UNL A   1      34.957  23.600  26.597  1.00  0.00     0.202 C 
BRANCH   3   4
ATOM      4  C   UNL A   1      33.183  22.442  27.131  1.00  0.00     0.261 C 
BRANCH   4   5
ATOM      5  O   UNL A   1      31.640  22.670  26.395  1.00  0.00    -0.463 OA
BRANCH   5   6
ATOM      6  C   UNL A   1      30.814  23.747  26.437  1.00  0.00     0.310 C 
ATOM      7  O   UNL A   1      29.872  23.747  27.222  1.00  0.00    -0.252 OA
BRANCH   6   8
ATOM      8  C   UNL A   1      30.999  24.876  25.321  1.00  0.00     0.116 C 
BRANCH   8   9
ATOM      9  C   UNL A   1      32.193  24.876  24.325  1.00  0.00     0.116 C 
BRANCH   9  10
ATOM     10  C   UNL A   1      32.053  24.665  22.842  1.00  0.00     0.225 C 
ATOM     11  N   UNL A   1      32.550  23.571  22.225  1.00  0.00    -0.326 N 
ATOM     12  H   UNL A   1      32.547  23.611  21.241  1.00  0.00     0.169 HD
ATOM     13  O   UNL A   1      31.537  25.539  22.137  1.00  0.00    -0.275 OA
BRANCH  11  14
ATOM     14  C   UNL A   1      33.065  22.395  22.763  1.00  0.00     0.042 A 
ATOM     15  C   UNL A   1      34.510  17.908  24.603  1.00  0.00     0.045 C 
ATOM     16  C   UNL A   1      33.952  19.296  24.395  1.00  0.00    -0.037 A 
ATOM     17  C   UNL A   1      32.371  19.469  23.571  1.00  0.00     0.007 A 
ATOM     18  C   UNL A   1      35.103  20.656  24.454  1.00  0.00     0.022 A 
ATOM     19  C   UNL A   1      31.928  20.998  22.755  1.00  0.00     0.026 A 
ATOM     20  C   UNL A   1      34.650  22.223  23.656  1.00  0.00     0.042 A 
ATOM     21  Br  UNL A   1      36.892  20.278  25.016  1.00  0.00    -0.050 Br
ENDBRANCH  11  14
ENDBRANCH   9  10
ENDBRANCH   8   9
BRANCH   8  22
ATOM     22  C   UNL A   1      30.867  26.386  25.851  1.00  0.00     0.031 C 
ATOM     23  C   UNL A   1      32.100  26.886  26.634  1.00  0.00     0.013 C 
BRANCH  22  24
ATOM     24  C   UNL A   1      30.375  27.377  24.821  1.00  0.00    -0.044 A 
ATOM     25  C   UNL A   1      31.023  28.559  24.478  1.00  0.00     0.004 A 
ATOM     26  C   UNL A   1      29.193  27.059  24.143  1.00  0.00     0.004 A 
ATOM     27  C   UNL A   1      30.522  29.351  23.439  1.00  0.00     0.000 A 
ATOM     28  C   UNL A   1      28.702  27.820  23.092  1.00  0.00     0.000 A 
ATOM     29  C   UNL A   1      29.380  28.969  22.730  1.00  0.00     0.000 A 
ENDBRANCH  22  24
ENDBRANCH   8  22
ENDBRANCH   6   8
ENDBRANCH   5   6
ENDBRANCH   4   5
ENDBRANCH   3   4
ENDBRANCH   2   3
ENDBRANCH   1   2
BRANCH   1  30
ATOM     30  C   UNL A   1      38.946  23.538  26.092  1.00  0.00     0.188 C 
BRANCH  30  31
ATOM     31  O   UNL A   1      39.291  22.495  26.962  1.00  0.00    -0.376 OA
BRANCH  31  32
ATOM     32  C   UNL A   1      40.055  21.394  26.520  1.00  0.00     0.202 C 
BRANCH  32  33
ATOM     33  C   UNL A   1      41.537  21.380  26.077  1.00  0.00     0.261 C 
BRANCH  33  34
ATOM     34  O   UNL A   1      42.257  22.584  25.803  1.00  0.00    -0.460 OA
BRANCH  34  35
ATOM     35  C   UNL A   1      43.381  22.858  26.514  1.00  0.00     0.338 C 
ATOM     36  O   UNL A   1      44.477  22.359  26.341  1.00  0.00    -0.246 OA
BRANCH  35  37
ATOM     37  C   UNL A   1      43.098  24.057  27.363  1.00  0.00     0.060 A 
ATOM     38  C   UNL A   1      43.792  25.257  27.113  1.00  0.00     0.016 A 
ATOM     39  C   UNL A   1      42.055  24.048  28.294  1.00  0.00     0.016 A 
ATOM     40  C   UNL A   1      43.470  26.427  27.813  1.00  0.00     0.010 A 
ATOM     41  C   UNL A   1      41.767  25.205  29.030  1.00  0.00     0.010 A 
ATOM     42  C   UNL A   1      42.502  26.388  28.824  1.00  0.00    -0.014 A 
BRANCH  42  43
ATOM     43  C   UNL A   1      42.514  27.423  29.894  1.00  0.00     0.031 A 
ATOM     44  C   UNL A   1      43.412  27.151  31.075  1.00  0.00     0.074 A 
ATOM     45  C   UNL A   1      41.773  28.545  29.850  1.00  0.00     0.049 A 
ATOM     46  N   UNL A   1      43.553  27.811  32.194  1.00  0.00    -0.248 NA
ATOM     47  C   UNL A   1      44.263  25.953  30.975  1.00  0.00     0.031 C 
ATOM     48  C   UNL A   1      40.919  28.960  28.740  1.00  0.00     0.029 A 
ATOM     49  N   UNL A   1      41.614  29.542  30.785  1.00  0.00    -0.354 N 
ATOM     50  C   UNL A   1      44.498  27.102  32.931  1.00  0.00     0.074 A 
ATOM     51  C   UNL A   1      44.867  25.946  32.148  1.00  0.00     0.031 C 
ATOM     52  C   UNL A   1      40.314  30.118  29.065  1.00  0.00     0.029 A 
ATOM     53  C   UNL A   1      40.700  30.505  30.423  1.00  0.00     0.049 A 
ATOM     54  H   UNL A   1      42.109  29.565  31.636  1.00  0.00     0.167 HD
ATOM     55  C   UNL A   1      45.012  27.388  34.151  1.00  0.00     0.034 A 
ATOM     56  C   UNL A   1      40.212  31.553  31.123  1.00  0.00     0.034 A 
ATOM     57  C   UNL A   1      44.608  28.527  34.934  1.00  0.00     0.049 A 
ATOM     58  C   UNL A   1      40.712  31.790  32.535  1.00  0.00     0.074 A 
ATOM     59  C   UNL A   1      45.061  28.917  36.179  1.00  0.00     0.029 A 
ATOM     60  N   UNL A   1      43.636  29.444  34.556  1.00  0.00    -0.354 N 
ATOM     61  N   UNL A   1      41.610  31.117  33.221  1.00  0.00    -0.248 NA
ATOM     62  C   UNL A   1      40.135  32.928  33.263  1.00  0.00     0.031 C 
ATOM     63  C   UNL A   1      44.298  30.011  36.596  1.00  0.00     0.029 A 
ATOM     64  C   UNL A   1      43.445  30.373  35.564  1.00  0.00     0.049 A 
ATOM     65  H   UNL A   1      43.154  29.435  33.697  1.00  0.00     0.167 HD
ATOM     66  C   UNL A   1      41.734  31.780  34.442  1.00  0.00     0.074 A 
ATOM     67  C   UNL A   1      40.826  32.908  34.394  1.00  0.00     0.031 C 
ATOM     68  C   UNL A   1      42.531  31.491  35.504  1.00  0.00     0.034 A 
BRANCH  55  69
ATOM     69  C   UNL A   1      46.004  26.409  34.730  1.00  0.00     0.023 A 
ATOM     70  C   UNL A   1      45.605  25.346  35.561  1.00  0.00     0.031 A 
ATOM     71  C   UNL A   1      47.379  26.569  34.484  1.00  0.00     0.131 A 
ATOM     72  C   UNL A   1      46.572  24.539  36.178  1.00  0.00     0.055 A 
ATOM     73  C   UNL A   1      48.331  25.703  35.027  1.00  0.00     0.041 A 
ATOM     74  F   UNL A   1      47.825  27.584  33.728  1.00  0.00    -0.206 F 
ATOM     75  C   UNL A   1      47.930  24.691  35.893  1.00  0.00     0.022 A 
BRANCH  72  76
ATOM     76  S   UNL A   1      46.041  23.401  37.488  1.00  0.00     0.124 S 
ATOM     77  O   UNL A   1      45.016  24.190  38.167  1.00  0.00    -0.237 OA
ATOM     78  O   UNL A   1      45.564  22.250  36.731  1.00  0.00    -0.237 OA
ATOM     79  O   UNL A   1      47.260  23.178  38.263  1.00  0.00    -0.744 OA
ENDBRANCH  72  76
ENDBRANCH  55  69
BRANCH  56  80
ATOM     80  C   UNL A   1      39.163  32.445  30.538  1.00  0.00     0.023 A 
ATOM     81  C   UNL A   1      37.822  32.035  30.451  1.00  0.00     0.031 A 
ATOM     82  C   UNL A   1      39.501  33.694  29.983  1.00  0.00     0.131 A 
ATOM     83  C   UNL A   1      36.881  32.840  29.786  1.00  0.00     0.055 A 
ATOM     84  C   UNL A   1      38.548  34.519  29.380  1.00  0.00     0.041 A 
ATOM     85  F   UNL A   1      40.770  34.131  30.017  1.00  0.00    -0.206 F 
ATOM     86  C   UNL A   1      37.231  34.087  29.268  1.00  0.00     0.022 A 
BRANCH  83  87
ATOM     87  S   UNL A   1      35.212  32.183  29.511  1.00  0.00     0.124 S 
ATOM     88  O   UNL A   1      35.490  30.781  29.222  1.00  0.00    -0.237 OA
ATOM     89  O   UNL A   1      34.560  32.458  30.787  1.00  0.00    -0.237 OA
ATOM     90  O   UNL A   1      34.719  32.967  28.380  1.00  0.00    -0.744 OA
ENDBRANCH  83  87
ENDBRANCH  56  80
BRANCH  68  91
ATOM     91  C   UNL A   1      42.507  32.444  36.677  1.00  0.00     0.023 A 
ATOM     92  C   UNL A   1      41.773  32.175  37.845  1.00  0.00     0.031 A 
ATOM     93  C   UNL A   1      43.245  33.641  36.625  1.00  0.00     0.131 A 
ATOM     94  C   UNL A   1      41.744  33.117  38.885  1.00  0.00     0.055 A 
ATOM     95  C   UNL A   1      43.273  34.538  37.694  1.00  0.00     0.041 A 
ATOM     96  F   UNL A   1      43.963  33.956  35.535  1.00  0.00    -0.206 F 
ATOM     97  C   UNL A   1      42.508  34.284  38.827  1.00  0.00     0.022 A 
BRANCH  94  98
ATOM     98  S   UNL A   1      40.602  32.850  40.268  1.00  0.00     0.124 S 
ATOM     99  O   UNL A   1      39.341  32.603  39.578  1.00  0.00    -0.237 OA
ATOM    100  O   UNL A   1      41.194  31.700  40.945  1.00  0.00    -0.237 OA
ATOM    101  O   UNL A   1      40.666  34.107  41.013  1.00  0.00    -0.744 OA
ENDBRANCH  94  98
ENDBRANCH  68  91
ENDBRANCH  42  43
ENDBRANCH  35  37
ENDBRANCH  34  35
ENDBRANCH  33  34
ENDBRANCH  32  33
ENDBRANCH  31  32
ENDBRANCH  30  31
ENDBRANCH   1  30
TORSDOF 25
ENDMDL
