MODEL 1
REMARK VINA RESULT:     -10.5      0.000      0.000
REMARK SMILES COc1cc(OC)cc(-c2ccc([C@@H](C)C(=O)OCCOCCOCCOC(=O)c3ccc(-c4c5nc(c(-c6cc(S(=O)(=O)[O-])ccc6F)c6ccc([nH]6)c(-c6cc(S(=O)(=O)[O-])ccc6F)c6nc(c(-c7cc(S(=O)(=O)[O-])ccc7F)c7ccc4[nH]7)C=C6)C=C5)cc3)cc2F)c1
REMARK SMILES IDX 22 1 21 2 20 3 19 4 18 5 16 6 17 7 14 8 15 9 13 10 10 11
REMARK SMILES IDX 11 12 94 13 12 14 93 15 95 16 9 17 3 18 4 19 96 20 5 21 8 22
REMARK SMILES IDX 2 23 1 24 6 25 7 26 23 27 24 28 25 29 26 30 27 31 28 32
REMARK SMILES IDX 29 33 30 34 31 35 92 36 32 37 91 38 33 39 34 40 35 41 85 42
REMARK SMILES IDX 36 43 90 44 84 45 86 46 37 47 89 48 83 49 82 50 38 52 70 53
REMARK SMILES IDX 50 54 69 55 51 56 54 57 68 58 87 59 52 60 53 61 67 63 88 64
REMARK SMILES IDX 55 65 39 66 40 67 48 68 41 69 47 70 49 71 46 72 42 73 43 74
REMARK SMILES IDX 44 75 45 76 71 77 72 78 80 79 73 80 79 81 81 82 78 83 74 84
REMARK SMILES IDX 75 85 76 86 77 87 56 88 57 89 65 90 58 91 64 92 66 93 63 94
REMARK SMILES IDX 59 95 60 96 61 97 62 98
REMARK H PARENT 86 51 54 62
REMARK Flexibility Score: inf
ROOT
ATOM      1  C   UNL A   1      31.954  32.749  27.100  1.00  0.00     0.188 C 
ENDROOT
BRANCH   1   2
ATOM      2  O   UNL A   1      31.858  31.342  26.902  1.00  0.00    -0.376 OA
BRANCH   2   3
ATOM      3  C   UNL A   1      33.034  30.545  26.976  1.00  0.00     0.202 C 
BRANCH   3   4
ATOM      4  C   UNL A   1      33.158  29.324  26.049  1.00  0.00     0.261 C 
BRANCH   4   5
ATOM      5  O   UNL A   1      32.941  29.583  24.642  1.00  0.00    -0.463 OA
BRANCH   5   6
ATOM      6  C   UNL A   1      31.788  29.101  24.109  1.00  0.00     0.313 C 
ATOM      7  O   UNL A   1      30.676  29.507  24.443  1.00  0.00    -0.252 OA
BRANCH   6   8
ATOM      8  C   UNL A   1      31.935  28.013  23.038  1.00  0.00     0.126 C 
ATOM      9  C   UNL A   1      30.615  27.905  22.276  1.00  0.00     0.025 C 
BRANCH   8  10
ATOM     10  C   UNL A   1      32.459  26.618  23.386  1.00  0.00    -0.031 A 
ATOM     11  C   UNL A   1      33.472  23.985  23.918  1.00  0.00     0.018 A 
ATOM     12  C   UNL A   1      33.129  24.871  24.957  1.00  0.00     0.012 A 
ATOM     13  C   UNL A   1      33.299  24.450  22.610  1.00  0.00     0.131 A 
ATOM     14  C   UNL A   1      32.620  26.159  24.700  1.00  0.00     0.005 A 
ATOM     15  C   UNL A   1      32.795  25.731  22.344  1.00  0.00     0.044 A 
ATOM     16  F   UNL A   1      33.589  23.658  21.567  1.00  0.00    -0.206 F 
BRANCH  11  17
ATOM     17  C   UNL A   1      33.876  22.593  24.206  1.00  0.00    -0.008 A 
ATOM     18  C   UNL A   1      33.424  20.206  24.443  1.00  0.00     0.123 A 
ATOM     19  C   UNL A   1      34.734  20.005  24.886  1.00  0.00     0.092 A 
ATOM     20  C   UNL A   1      32.991  21.498  24.114  1.00  0.00     0.055 A 
ATOM     21  C   UNL A   1      35.624  21.069  24.990  1.00  0.00     0.123 A 
ATOM     22  C   UNL A   1      35.195  22.349  24.637  1.00  0.00     0.055 A 
BRANCH  18  23
ATOM     23  O   UNL A   1      32.660  19.070  24.438  1.00  0.00    -0.497 OA
ATOM     24  C   UNL A   1      32.650  18.300  25.632  1.00  0.00     0.278 C 
ENDBRANCH  18  23
BRANCH  21  25
ATOM     25  O   UNL A   1      36.873  20.745  25.444  1.00  0.00    -0.497 OA
ATOM     26  C   UNL A   1      37.539  19.697  24.749  1.00  0.00     0.278 C 
ENDBRANCH  21  25
ENDBRANCH  11  17
ENDBRANCH   8  10
ENDBRANCH   6   8
ENDBRANCH   5   6
ENDBRANCH   4   5
ENDBRANCH   3   4
ENDBRANCH   2   3
ENDBRANCH   1   2
BRANCH   1  27
ATOM     27  C   UNL A   1      33.083  33.296  27.984  1.00  0.00     0.188 C 
BRANCH  27  28
ATOM     28  O   UNL A   1      32.691  34.325  28.865  1.00  0.00    -0.376 OA
BRANCH  28  29
ATOM     29  C   UNL A   1      33.706  34.932  29.638  1.00  0.00     0.202 C 
BRANCH  29  30
ATOM     30  C   UNL A   1      33.800  34.518  31.114  1.00  0.00     0.261 C 
BRANCH  30  31
ATOM     31  O   UNL A   1      34.080  33.132  31.381  1.00  0.00    -0.460 OA
BRANCH  31  32
ATOM     32  C   UNL A   1      34.895  32.839  32.422  1.00  0.00     0.338 C 
ATOM     33  O   UNL A   1      34.607  32.896  33.608  1.00  0.00    -0.246 OA
BRANCH  32  34
ATOM     34  C   UNL A   1      36.122  32.215  31.863  1.00  0.00     0.060 A 
ATOM     35  C   UNL A   1      36.416  30.875  32.155  1.00  0.00     0.016 A 
ATOM     36  C   UNL A   1      36.957  32.942  31.011  1.00  0.00     0.016 A 
ATOM     37  C   UNL A   1      37.540  30.258  31.591  1.00  0.00     0.010 A 
ATOM     38  C   UNL A   1      38.095  32.330  30.470  1.00  0.00     0.010 A 
ATOM     39  C   UNL A   1      38.401  30.989  30.761  1.00  0.00    -0.014 A 
BRANCH  39  40
ATOM     40  C   UNL A   1      39.692  30.411  30.296  1.00  0.00     0.031 A 
ATOM     41  C   UNL A   1      40.920  31.282  30.302  1.00  0.00     0.074 A 
ATOM     42  C   UNL A   1      39.773  29.145  29.845  1.00  0.00     0.049 A 
ATOM     43  N   UNL A   1      42.111  31.047  29.818  1.00  0.00    -0.248 NA
ATOM     44  C   UNL A   1      40.775  32.600  30.937  1.00  0.00     0.031 C 
ATOM     45  C   UNL A   1      38.676  28.180  29.836  1.00  0.00     0.029 A 
ATOM     46  N   UNL A   1      40.827  28.459  29.288  1.00  0.00    -0.354 N 
ATOM     47  C   UNL A   1      42.858  32.191  30.075  1.00  0.00     0.074 A 
ATOM     48  C   UNL A   1      41.972  33.129  30.735  1.00  0.00     0.031 C 
ATOM     49  C   UNL A   1      39.108  27.034  29.282  1.00  0.00     0.029 A 
ATOM     50  C   UNL A   1      40.494  27.199  28.846  1.00  0.00     0.049 A 
ATOM     51  H   UNL A   1      41.735  28.833  29.213  1.00  0.00     0.167 HD
ATOM     52  C   UNL A   1      44.161  32.438  29.789  1.00  0.00     0.034 A 
ATOM     53  C   UNL A   1      41.209  26.299  28.134  1.00  0.00     0.034 A 
ATOM     54  C   UNL A   1      45.028  31.499  29.119  1.00  0.00     0.049 A 
ATOM     55  C   UNL A   1      42.625  26.640  27.724  1.00  0.00     0.074 A 
ATOM     56  C   UNL A   1      46.370  31.641  28.805  1.00  0.00     0.029 A 
ATOM     57  N   UNL A   1      44.640  30.255  28.639  1.00  0.00    -0.354 N 
ATOM     58  N   UNL A   1      43.325  27.722  27.981  1.00  0.00    -0.248 NA
ATOM     59  C   UNL A   1      43.347  25.639  26.926  1.00  0.00     0.031 C 
ATOM     60  C   UNL A   1      46.767  30.527  28.059  1.00  0.00     0.029 A 
ATOM     61  C   UNL A   1      45.702  29.642  27.988  1.00  0.00     0.049 A 
ATOM     62  H   UNL A   1      43.743  29.864  28.745  1.00  0.00     0.167 HD
ATOM     63  C   UNL A   1      44.575  27.515  27.401  1.00  0.00     0.074 A 
ATOM     64  C   UNL A   1      44.539  26.200  26.797  1.00  0.00     0.031 C 
ATOM     65  C   UNL A   1      45.657  28.336  27.373  1.00  0.00     0.034 A 
BRANCH  52  66
ATOM     66  C   UNL A   1      44.708  33.799  30.145  1.00  0.00     0.023 A 
ATOM     67  C   UNL A   1      45.233  34.081  31.418  1.00  0.00     0.031 A 
ATOM     68  C   UNL A   1      44.690  34.838  29.196  1.00  0.00     0.131 A 
ATOM     69  C   UNL A   1      45.655  35.383  31.727  1.00  0.00     0.055 A 
ATOM     70  C   UNL A   1      45.189  36.109  29.484  1.00  0.00     0.041 A 
ATOM     71  F   UNL A   1      44.177  34.636  27.972  1.00  0.00    -0.206 F 
ATOM     72  C   UNL A   1      45.663  36.391  30.761  1.00  0.00     0.022 A 
BRANCH  69  73
ATOM     73  S   UNL A   1      46.056  35.776  33.452  1.00  0.00     0.124 S 
ATOM     74  O   UNL A   1      44.834  35.365  34.140  1.00  0.00    -0.237 OA
ATOM     75  O   UNL A   1      47.235  34.954  33.696  1.00  0.00    -0.237 OA
ATOM     76  O   UNL A   1      46.293  37.218  33.428  1.00  0.00    -0.744 OA
ENDBRANCH  69  73
ENDBRANCH  52  66
BRANCH  53  77
ATOM     77  C   UNL A   1      40.591  25.012  27.696  1.00  0.00     0.023 A 
ATOM     78  C   UNL A   1      41.251  23.786  27.883  1.00  0.00     0.031 A 
ATOM     79  C   UNL A   1      39.358  24.996  27.017  1.00  0.00     0.131 A 
ATOM     80  C   UNL A   1      40.701  22.606  27.356  1.00  0.00     0.055 A 
ATOM     81  C   UNL A   1      38.785  23.811  26.551  1.00  0.00     0.041 A 
ATOM     82  F   UNL A   1      38.688  26.138  26.797  1.00  0.00    -0.206 F 
ATOM     83  C   UNL A   1      39.464  22.607  26.707  1.00  0.00     0.022 A 
BRANCH  80  84
ATOM     84  S   UNL A   1      41.677  21.079  27.438  1.00  0.00     0.124 S 
ATOM     85  O   UNL A   1      40.854  20.248  28.311  1.00  0.00    -0.237 OA
ATOM     86  O   UNL A   1      41.731  20.677  26.036  1.00  0.00    -0.237 OA
ATOM     87  O   UNL A   1      42.949  21.517  28.008  1.00  0.00    -0.744 OA
ENDBRANCH  80  84
ENDBRANCH  53  77
BRANCH  65  88
ATOM     88  C   UNL A   1      46.908  27.819  26.699  1.00  0.00     0.023 A 
ATOM     89  C   UNL A   1      47.120  27.961  25.316  1.00  0.00     0.031 A 
ATOM     90  C   UNL A   1      47.904  27.174  27.454  1.00  0.00     0.131 A 
ATOM     91  C   UNL A   1      48.274  27.422  24.725  1.00  0.00     0.055 A 
ATOM     92  C   UNL A   1      49.081  26.700  26.871  1.00  0.00     0.041 A 
ATOM     93  F   UNL A   1      47.756  27.004  28.778  1.00  0.00    -0.206 F 
ATOM     94  C   UNL A   1      49.265  26.812  25.497  1.00  0.00     0.022 A 
BRANCH  91  95
ATOM     95  S   UNL A   1      48.421  27.445  22.917  1.00  0.00     0.124 S 
ATOM     96  O   UNL A   1      47.281  28.271  22.531  1.00  0.00    -0.237 OA
ATOM     97  O   UNL A   1      49.738  28.043  22.717  1.00  0.00    -0.237 OA
ATOM     98  O   UNL A   1      48.319  26.036  22.546  1.00  0.00    -0.744 OA
ENDBRANCH  91  95
ENDBRANCH  65  88
ENDBRANCH  39  40
ENDBRANCH  32  34
ENDBRANCH  31  32
ENDBRANCH  30  31
ENDBRANCH  29  30
ENDBRANCH  28  29
ENDBRANCH  27  28
ENDBRANCH   1  27
TORSDOF 24
ENDMDL
MODEL 2
REMARK VINA RESULT:     -10.1      2.596      3.578
REMARK SMILES COc1cc(OC)cc(-c2ccc([C@@H](C)C(=O)OCCOCCOCCOC(=O)c3ccc(-c4c5nc(c(-c6cc(S(=O)(=O)[O-])ccc6F)c6ccc([nH]6)c(-c6cc(S(=O)(=O)[O-])ccc6F)c6nc(c(-c7cc(S(=O)(=O)[O-])ccc7F)c7ccc4[nH]7)C=C6)C=C5)cc3)cc2F)c1
REMARK SMILES IDX 22 1 21 2 20 3 19 4 18 5 16 6 17 7 14 8 15 9 13 10 10 11
REMARK SMILES IDX 11 12 94 13 12 14 93 15 95 16 9 17 3 18 4 19 96 20 5 21 8 22
REMARK SMILES IDX 2 23 1 24 6 25 7 26 23 27 24 28 25 29 26 30 27 31 28 32
REMARK SMILES IDX 29 33 30 34 31 35 92 36 32 37 91 38 33 39 34 40 35 41 85 42
REMARK SMILES IDX 36 43 90 44 84 45 86 46 37 47 89 48 83 49 82 50 38 52 70 53
REMARK SMILES IDX 50 54 69 55 51 56 54 57 68 58 87 59 52 60 53 61 67 63 88 64
REMARK SMILES IDX 55 65 39 66 40 67 48 68 41 69 47 70 49 71 46 72 42 73 43 74
REMARK SMILES IDX 44 75 45 76 71 77 72 78 80 79 73 80 79 81 81 82 78 83 74 84
REMARK SMILES IDX 75 85 76 86 77 87 56 88 57 89 65 90 58 91 64 92 66 93 63 94
REMARK SMILES IDX 59 95 60 96 61 97 62 98
REMARK H PARENT 86 51 54 62
REMARK Flexibility Score: inf
ROOT
ATOM      1  C   UNL A   1      31.888  32.793  26.928  1.00  0.00     0.188 C 
ENDROOT
BRANCH   1   2
ATOM      2  O   UNL A   1      31.874  31.375  26.807  1.00  0.00    -0.376 OA
BRANCH   2   3
ATOM      3  C   UNL A   1      33.095  30.653  26.919  1.00  0.00     0.202 C 
BRANCH   3   4
ATOM      4  C   UNL A   1      33.294  29.399  26.051  1.00  0.00     0.261 C 
BRANCH   4   5
ATOM      5  O   UNL A   1      33.046  29.572  24.637  1.00  0.00    -0.463 OA
BRANCH   5   6
ATOM      6  C   UNL A   1      31.931  28.978  24.140  1.00  0.00     0.313 C 
ATOM      7  O   UNL A   1      30.795  29.283  24.496  1.00  0.00    -0.252 OA
BRANCH   6   8
ATOM      8  C   UNL A   1      32.154  27.891  23.080  1.00  0.00     0.126 C 
ATOM      9  C   UNL A   1      30.829  27.640  22.361  1.00  0.00     0.025 C 
BRANCH   8  10
ATOM     10  C   UNL A   1      32.823  26.561  23.431  1.00  0.00    -0.031 A 
ATOM     11  C   UNL A   1      34.086  24.038  23.966  1.00  0.00     0.018 A 
ATOM     12  C   UNL A   1      33.891  24.999  24.977  1.00  0.00     0.012 A 
ATOM     13  C   UNL A   1      33.637  24.372  22.685  1.00  0.00     0.131 A 
ATOM     14  C   UNL A   1      33.260  26.233  24.720  1.00  0.00     0.005 A 
ATOM     15  C   UNL A   1      33.010  25.598  22.419  1.00  0.00     0.044 A 
ATOM     16  F   UNL A   1      33.773  23.502  21.673  1.00  0.00    -0.206 F 
BRANCH  11  17
ATOM     17  C   UNL A   1      34.625  22.700  24.282  1.00  0.00    -0.008 A 
ATOM     18  C   UNL A   1      34.381  20.344  24.872  1.00  0.00     0.123 A 
ATOM     19  C   UNL A   1      35.769  20.230  24.981  1.00  0.00     0.092 A 
ATOM     20  C   UNL A   1      33.809  21.577  24.534  1.00  0.00     0.055 A 
ATOM     21  C   UNL A   1      36.597  21.323  24.742  1.00  0.00     0.123 A 
ATOM     22  C   UNL A   1      36.022  22.542  24.382  1.00  0.00     0.055 A 
BRANCH  18  23
ATOM     23  O   UNL A   1      33.704  19.195  25.181  1.00  0.00    -0.497 OA
ATOM     24  C   UNL A   1      33.782  18.133  24.240  1.00  0.00     0.278 C 
ENDBRANCH  18  23
BRANCH  21  25
ATOM     25  O   UNL A   1      37.936  21.086  24.888  1.00  0.00    -0.497 OA
ATOM     26  C   UNL A   1      38.606  21.865  25.873  1.00  0.00     0.278 C 
ENDBRANCH  21  25
ENDBRANCH  11  17
ENDBRANCH   8  10
ENDBRANCH   6   8
ENDBRANCH   5   6
ENDBRANCH   4   5
ENDBRANCH   3   4
ENDBRANCH   2   3
ENDBRANCH   1   2
BRANCH   1  27
ATOM     27  C   UNL A   1      32.982  33.453  27.777  1.00  0.00     0.188 C 
BRANCH  27  28
ATOM     28  O   UNL A   1      32.549  34.558  28.537  1.00  0.00    -0.376 OA
BRANCH  28  29
ATOM     29  C   UNL A   1      33.515  35.207  29.338  1.00  0.00     0.202 C 
BRANCH  29  30
ATOM     30  C   UNL A   1      33.555  34.828  30.826  1.00  0.00     0.261 C 
BRANCH  30  31
ATOM     31  O   UNL A   1      33.936  33.475  31.139  1.00  0.00    -0.460 OA
BRANCH  31  32
ATOM     32  C   UNL A   1      34.605  33.256  32.296  1.00  0.00     0.338 C 
ATOM     33  O   UNL A   1      34.111  33.105  33.403  1.00  0.00    -0.246 OA
BRANCH  32  34
ATOM     34  C   UNL A   1      36.026  33.003  31.945  1.00  0.00     0.060 A 
ATOM     35  C   UNL A   1      36.612  31.769  32.265  1.00  0.00     0.016 A 
ATOM     36  C   UNL A   1      36.765  33.967  31.256  1.00  0.00     0.016 A 
ATOM     37  C   UNL A   1      37.934  31.497  31.892  1.00  0.00     0.010 A 
ATOM     38  C   UNL A   1      38.096  33.702  30.908  1.00  0.00     0.010 A 
ATOM     39  C   UNL A   1      38.694  32.470  31.230  1.00  0.00    -0.014 A 
BRANCH  39  40
ATOM     40  C   UNL A   1      40.148  32.272  30.982  1.00  0.00     0.031 A 
ATOM     41  C   UNL A   1      41.122  33.274  31.544  1.00  0.00     0.074 A 
ATOM     42  C   UNL A   1      40.602  31.239  30.247  1.00  0.00     0.049 A 
ATOM     43  N   UNL A   1      42.409  33.387  31.344  1.00  0.00    -0.248 NA
ATOM     44  C   UNL A   1      40.559  34.288  32.447  1.00  0.00     0.031 C 
ATOM     45  C   UNL A   1      39.775  30.170  29.692  1.00  0.00     0.029 A 
ATOM     46  N   UNL A   1      41.874  30.932  29.824  1.00  0.00    -0.354 N 
ATOM     47  C   UNL A   1      42.812  34.493  32.085  1.00  0.00     0.074 A 
ATOM     48  C   UNL A   1      41.622  35.029  32.715  1.00  0.00     0.031 C 
ATOM     49  C   UNL A   1      40.557  29.337  28.984  1.00  0.00     0.029 A 
ATOM     50  C   UNL A   1      41.930  29.840  28.988  1.00  0.00     0.049 A 
ATOM     51  H   UNL A   1      42.670  31.445  30.093  1.00  0.00     0.167 HD
ATOM     52  C   UNL A   1      44.057  35.013  32.228  1.00  0.00     0.034 A 
ATOM     53  C   UNL A   1      42.958  29.329  28.275  1.00  0.00     0.034 A 
ATOM     54  C   UNL A   1      45.231  34.476  31.584  1.00  0.00     0.049 A 
ATOM     55  C   UNL A   1      44.315  29.994  28.358  1.00  0.00     0.074 A 
ATOM     56  C   UNL A   1      46.542  34.912  31.682  1.00  0.00     0.029 A 
ATOM     57  N   UNL A   1      45.238  33.401  30.703  1.00  0.00    -0.354 N 
ATOM     58  N   UNL A   1      44.687  31.033  29.071  1.00  0.00    -0.248 NA
ATOM     59  C   UNL A   1      45.391  29.416  27.540  1.00  0.00     0.031 C 
ATOM     60  C   UNL A   1      47.322  34.163  30.797  1.00  0.00     0.029 A 
ATOM     61  C   UNL A   1      46.521  33.194  30.215  1.00  0.00     0.049 A 
ATOM     62  H   UNL A   1      44.449  32.865  30.462  1.00  0.00     0.167 HD
ATOM     63  C   UNL A   1      46.043  31.212  28.805  1.00  0.00     0.074 A 
ATOM     64  C   UNL A   1      46.428  30.164  27.884  1.00  0.00     0.031 C 
ATOM     65  C   UNL A   1      46.896  32.156  29.283  1.00  0.00     0.034 A 
BRANCH  52  66
ATOM     66  C   UNL A   1      44.200  36.261  33.067  1.00  0.00     0.023 A 
ATOM     67  C   UNL A   1      43.913  37.538  32.555  1.00  0.00     0.031 A 
ATOM     68  C   UNL A   1      44.647  36.171  34.397  1.00  0.00     0.131 A 
ATOM     69  C   UNL A   1      44.139  38.674  33.346  1.00  0.00     0.055 A 
ATOM     70  C   UNL A   1      44.790  37.299  35.205  1.00  0.00     0.041 A 
ATOM     71  F   UNL A   1      44.963  34.981  34.933  1.00  0.00    -0.206 F 
ATOM     72  C   UNL A   1      44.549  38.563  34.675  1.00  0.00     0.022 A 
BRANCH  69  73
ATOM     73  S   UNL A   1      44.031  40.308  32.564  1.00  0.00     0.124 S 
ATOM     74  O   UNL A   1      45.144  41.012  33.196  1.00  0.00    -0.237 OA
ATOM     75  O   UNL A   1      44.196  39.991  31.150  1.00  0.00    -0.237 OA
ATOM     76  O   UNL A   1      42.703  40.783  32.947  1.00  0.00    -0.744 OA
ENDBRANCH  69  73
ENDBRANCH  52  66
BRANCH  53  77
ATOM     77  C   UNL A   1      42.748  28.166  27.363  1.00  0.00     0.023 A 
ATOM     78  C   UNL A   1      43.064  26.858  27.764  1.00  0.00     0.031 A 
ATOM     79  C   UNL A   1      42.293  28.355  26.044  1.00  0.00     0.131 A 
ATOM     80  C   UNL A   1      42.969  25.799  26.846  1.00  0.00     0.055 A 
ATOM     81  C   UNL A   1      42.138  27.290  25.154  1.00  0.00     0.041 A 
ATOM     82  F   UNL A   1      41.988  29.584  25.600  1.00  0.00    -0.206 F 
ATOM     83  C   UNL A   1      42.490  26.004  25.550  1.00  0.00     0.022 A 
BRANCH  80  84
ATOM     84  S   UNL A   1      43.578  24.163  27.337  1.00  0.00     0.124 S 
ATOM     85  O   UNL A   1      42.975  23.305  26.322  1.00  0.00    -0.237 OA
ATOM     86  O   UNL A   1      45.024  24.338  27.251  1.00  0.00    -0.237 OA
ATOM     87  O   UNL A   1      43.053  23.995  28.690  1.00  0.00    -0.744 OA
ENDBRANCH  80  84
ENDBRANCH  53  77
BRANCH  65  88
ATOM     88  C   UNL A   1      48.342  32.074  28.849  1.00  0.00     0.023 A 
ATOM     89  C   UNL A   1      48.826  32.787  27.737  1.00  0.00     0.031 A 
ATOM     90  C   UNL A   1      49.251  31.269  29.559  1.00  0.00     0.131 A 
ATOM     91  C   UNL A   1      50.164  32.642  27.340  1.00  0.00     0.055 A 
ATOM     92  C   UNL A   1      50.597  31.182  29.200  1.00  0.00     0.041 A 
ATOM     93  F   UNL A   1      48.847  30.561  30.626  1.00  0.00    -0.206 F 
ATOM     94  C   UNL A   1      51.058  31.862  28.077  1.00  0.00     0.022 A 
BRANCH  91  95
ATOM     95  S   UNL A   1      50.704  33.416  25.790  1.00  0.00     0.124 S 
ATOM     96  O   UNL A   1      49.509  34.148  25.385  1.00  0.00    -0.237 OA
ATOM     97  O   UNL A   1      51.835  34.230  26.223  1.00  0.00    -0.237 OA
ATOM     98  O   UNL A   1      51.051  32.278  24.941  1.00  0.00    -0.744 OA
ENDBRANCH  91  95
ENDBRANCH  65  88
ENDBRANCH  39  40
ENDBRANCH  32  34
ENDBRANCH  31  32
ENDBRANCH  30  31
ENDBRANCH  29  30
ENDBRANCH  28  29
ENDBRANCH  27  28
ENDBRANCH   1  27
TORSDOF 24
ENDMDL
MODEL 3
REMARK VINA RESULT:      -9.9      3.914      4.982
REMARK SMILES COc1cc(OC)cc(-c2ccc([C@@H](C)C(=O)OCCOCCOCCOC(=O)c3ccc(-c4c5nc(c(-c6cc(S(=O)(=O)[O-])ccc6F)c6ccc([nH]6)c(-c6cc(S(=O)(=O)[O-])ccc6F)c6nc(c(-c7cc(S(=O)(=O)[O-])ccc7F)c7ccc4[nH]7)C=C6)C=C5)cc3)cc2F)c1
REMARK SMILES IDX 22 1 21 2 20 3 19 4 18 5 16 6 17 7 14 8 15 9 13 10 10 11
REMARK SMILES IDX 11 12 94 13 12 14 93 15 95 16 9 17 3 18 4 19 96 20 5 21 8 22
REMARK SMILES IDX 2 23 1 24 6 25 7 26 23 27 24 28 25 29 26 30 27 31 28 32
REMARK SMILES IDX 29 33 30 34 31 35 92 36 32 37 91 38 33 39 34 40 35 41 85 42
REMARK SMILES IDX 36 43 90 44 84 45 86 46 37 47 89 48 83 49 82 50 38 52 70 53
REMARK SMILES IDX 50 54 69 55 51 56 54 57 68 58 87 59 52 60 53 61 67 63 88 64
REMARK SMILES IDX 55 65 39 66 40 67 48 68 41 69 47 70 49 71 46 72 42 73 43 74
REMARK SMILES IDX 44 75 45 76 71 77 72 78 80 79 73 80 79 81 81 82 78 83 74 84
REMARK SMILES IDX 75 85 76 86 77 87 56 88 57 89 65 90 58 91 64 92 66 93 63 94
REMARK SMILES IDX 59 95 60 96 61 97 62 98
REMARK H PARENT 86 51 54 62
REMARK Flexibility Score: inf
ROOT
ATOM      1  C   UNL A   1      31.653  32.380  26.888  1.00  0.00     0.188 C 
ENDROOT
BRANCH   1   2
ATOM      2  O   UNL A   1      31.987  31.094  26.376  1.00  0.00    -0.376 OA
BRANCH   2   3
ATOM      3  C   UNL A   1      31.795  29.946  27.194  1.00  0.00     0.202 C 
BRANCH   3   4
ATOM      4  C   UNL A   1      32.190  28.567  26.636  1.00  0.00     0.261 C 
BRANCH   4   5
ATOM      5  O   UNL A   1      33.251  28.573  25.652  1.00  0.00    -0.463 OA
BRANCH   5   6
ATOM      6  C   UNL A   1      32.880  28.363  24.362  1.00  0.00     0.313 C 
ATOM      7  O   UNL A   1      31.869  28.858  23.867  1.00  0.00    -0.252 OA
BRANCH   6   8
ATOM      8  C   UNL A   1      33.806  27.471  23.524  1.00  0.00     0.126 C 
ATOM      9  C   UNL A   1      33.561  27.775  22.046  1.00  0.00     0.025 C 
BRANCH   8  10
ATOM     10  C   UNL A   1      33.873  25.960  23.747  1.00  0.00    -0.031 A 
ATOM     11  C   UNL A   1      33.993  23.143  24.290  1.00  0.00     0.018 A 
ATOM     12  C   UNL A   1      33.782  23.638  22.990  1.00  0.00     0.012 A 
ATOM     13  C   UNL A   1      34.139  24.089  25.310  1.00  0.00     0.131 A 
ATOM     14  C   UNL A   1      33.734  25.020  22.717  1.00  0.00     0.005 A 
ATOM     15  C   UNL A   1      34.092  25.466  25.049  1.00  0.00     0.044 A 
ATOM     16  F   UNL A   1      34.360  23.694  26.572  1.00  0.00    -0.206 F 
BRANCH  11  17
ATOM     17  C   UNL A   1      34.175  21.697  24.534  1.00  0.00    -0.008 A 
ATOM     18  C   UNL A   1      35.547  19.703  24.850  1.00  0.00     0.123 A 
ATOM     19  C   UNL A   1      34.392  18.917  24.887  1.00  0.00     0.092 A 
ATOM     20  C   UNL A   1      35.441  21.088  24.663  1.00  0.00     0.055 A 
ATOM     21  C   UNL A   1      33.132  19.493  24.758  1.00  0.00     0.123 A 
ATOM     22  C   UNL A   1      33.031  20.875  24.597  1.00  0.00     0.055 A 
BRANCH  18  23
ATOM     23  O   UNL A   1      36.709  18.986  24.945  1.00  0.00    -0.497 OA
ATOM     24  C   UNL A   1      37.921  19.729  24.954  1.00  0.00     0.278 C 
ENDBRANCH  18  23
BRANCH  21  25
ATOM     25  O   UNL A   1      32.082  18.618  24.803  1.00  0.00    -0.497 OA
ATOM     26  C   UNL A   1      32.363  17.329  25.336  1.00  0.00     0.278 C 
ENDBRANCH  21  25
ENDBRANCH  11  17
ENDBRANCH   8  10
ENDBRANCH   6   8
ENDBRANCH   5   6
ENDBRANCH   4   5
ENDBRANCH   3   4
ENDBRANCH   2   3
ENDBRANCH   1   2
BRANCH   1  27
ATOM     27  C   UNL A   1      32.733  33.187  27.620  1.00  0.00     0.188 C 
BRANCH  27  28
ATOM     28  O   UNL A   1      32.277  34.392  28.193  1.00  0.00    -0.376 OA
BRANCH  28  29
ATOM     29  C   UNL A   1      33.240  35.209  28.827  1.00  0.00     0.202 C 
BRANCH  29  30
ATOM     30  C   UNL A   1      33.655  34.818  30.253  1.00  0.00     0.261 C 
BRANCH  30  31
ATOM     31  O   UNL A   1      34.878  34.070  30.388  1.00  0.00    -0.460 OA
BRANCH  31  32
ATOM     32  C   UNL A   1      35.726  34.045  29.333  1.00  0.00     0.338 C 
ATOM     33  O   UNL A   1      35.700  34.785  28.361  1.00  0.00    -0.246 OA
BRANCH  32  34
ATOM     34  C   UNL A   1      36.831  33.113  29.676  1.00  0.00     0.060 A 
ATOM     35  C   UNL A   1      36.548  31.917  30.353  1.00  0.00     0.016 A 
ATOM     36  C   UNL A   1      38.142  33.398  29.285  1.00  0.00     0.016 A 
ATOM     37  C   UNL A   1      37.572  31.004  30.634  1.00  0.00     0.010 A 
ATOM     38  C   UNL A   1      39.168  32.496  29.592  1.00  0.00     0.010 A 
ATOM     39  C   UNL A   1      38.895  31.297  30.276  1.00  0.00    -0.014 A 
BRANCH  39  40
ATOM     40  C   UNL A   1      40.020  30.430  30.720  1.00  0.00     0.031 A 
ATOM     41  C   UNL A   1      40.798  30.826  31.947  1.00  0.00     0.074 A 
ATOM     42  C   UNL A   1      40.370  29.326  30.033  1.00  0.00     0.049 A 
ATOM     43  N   UNL A   1      41.894  30.311  32.440  1.00  0.00    -0.248 NA
ATOM     44  C   UNL A   1      40.266  31.961  32.713  1.00  0.00     0.031 C 
ATOM     45  C   UNL A   1      39.670  28.802  28.863  1.00  0.00     0.029 A 
ATOM     46  N   UNL A   1      41.421  28.457  30.213  1.00  0.00    -0.354 N 
ATOM     47  C   UNL A   1      42.194  31.067  33.569  1.00  0.00     0.074 A 
ATOM     48  C   UNL A   1      41.175  32.092  33.667  1.00  0.00     0.031 C 
ATOM     49  C   UNL A   1      40.320  27.714  28.417  1.00  0.00     0.029 A 
ATOM     50  C   UNL A   1      41.514  27.494  29.233  1.00  0.00     0.049 A 
ATOM     51  H   UNL A   1      42.047  28.516  30.970  1.00  0.00     0.167 HD
ATOM     52  C   UNL A   1      43.221  30.919  34.442  1.00  0.00     0.034 A 
ATOM     53  C   UNL A   1      42.471  26.570  28.996  1.00  0.00     0.034 A 
ATOM     54  C   UNL A   1      44.237  29.901  34.324  1.00  0.00     0.049 A 
ATOM     55  C   UNL A   1      43.671  26.498  29.916  1.00  0.00     0.074 A 
ATOM     56  C   UNL A   1      45.306  29.650  35.168  1.00  0.00     0.029 A 
ATOM     57  N   UNL A   1      44.328  28.979  33.289  1.00  0.00    -0.354 N 
ATOM     58  N   UNL A   1      43.939  27.211  30.986  1.00  0.00    -0.248 NA
ATOM     59  C   UNL A   1      44.697  25.495  29.595  1.00  0.00     0.031 C 
ATOM     60  C   UNL A   1      46.088  28.641  34.599  1.00  0.00     0.029 A 
ATOM     61  C   UNL A   1      45.460  28.193  33.449  1.00  0.00     0.049 A 
ATOM     62  H   UNL A   1      43.682  28.895  32.551  1.00  0.00     0.167 HD
ATOM     63  C   UNL A   1      45.147  26.723  31.478  1.00  0.00     0.074 A 
ATOM     64  C   UNL A   1      45.547  25.643  30.600  1.00  0.00     0.031 C 
ATOM     65  C   UNL A   1      45.862  27.127  32.560  1.00  0.00     0.034 A 
BRANCH  52  66
ATOM     66  C   UNL A   1      43.332  31.922  35.566  1.00  0.00     0.023 A 
ATOM     67  C   UNL A   1      42.542  31.831  36.724  1.00  0.00     0.031 A 
ATOM     68  C   UNL A   1      44.234  32.997  35.468  1.00  0.00     0.131 A 
ATOM     69  C   UNL A   1      42.621  32.831  37.705  1.00  0.00     0.055 A 
ATOM     70  C   UNL A   1      44.368  33.942  36.485  1.00  0.00     0.041 A 
ATOM     71  F   UNL A   1      44.997  33.151  34.373  1.00  0.00    -0.206 F 
ATOM     72  C   UNL A   1      43.548  33.871  37.607  1.00  0.00     0.022 A 
BRANCH  69  73
ATOM     73  S   UNL A   1      41.392  32.835  39.039  1.00  0.00     0.124 S 
ATOM     74  O   UNL A   1      40.206  32.334  38.350  1.00  0.00    -0.237 OA
ATOM     75  O   UNL A   1      41.990  31.936  40.020  1.00  0.00    -0.237 OA
ATOM     76  O   UNL A   1      41.325  34.240  39.438  1.00  0.00    -0.744 OA
ENDBRANCH  69  73
ENDBRANCH  52  66
BRANCH  53  77
ATOM     77  C   UNL A   1      42.387  25.676  27.803  1.00  0.00     0.023 A 
ATOM     78  C   UNL A   1      41.872  24.373  27.903  1.00  0.00     0.031 A 
ATOM     79  C   UNL A   1      42.889  26.088  26.554  1.00  0.00     0.131 A 
ATOM     80  C   UNL A   1      41.914  23.514  26.793  1.00  0.00     0.055 A 
ATOM     81  C   UNL A   1      42.870  25.252  25.436  1.00  0.00     0.041 A 
ATOM     82  F   UNL A   1      43.407  27.317  26.401  1.00  0.00    -0.206 F 
ATOM     83  C   UNL A   1      42.393  23.950  25.555  1.00  0.00     0.022 A 
BRANCH  80  84
ATOM     84  S   UNL A   1      41.430  21.780  27.015  1.00  0.00     0.124 S 
ATOM     85  O   UNL A   1      42.623  21.217  27.639  1.00  0.00    -0.237 OA
ATOM     86  O   UNL A   1      40.255  21.900  27.872  1.00  0.00    -0.237 OA
ATOM     87  O   UNL A   1      41.162  21.323  25.653  1.00  0.00    -0.744 OA
ENDBRANCH  80  84
ENDBRANCH  53  77
BRANCH  65  88
ATOM     88  C   UNL A   1      47.132  26.371  32.880  1.00  0.00     0.023 A 
ATOM     89  C   UNL A   1      47.128  25.216  33.683  1.00  0.00     0.031 A 
ATOM     90  C   UNL A   1      48.367  26.812  32.370  1.00  0.00     0.131 A 
ATOM     91  C   UNL A   1      48.337  24.574  33.994  1.00  0.00     0.055 A 
ATOM     92  C   UNL A   1      49.557  26.130  32.627  1.00  0.00     0.041 A 
ATOM     93  F   UNL A   1      48.435  27.911  31.601  1.00  0.00    -0.206 F 
ATOM     94  C   UNL A   1      49.549  25.011  33.454  1.00  0.00     0.022 A 
BRANCH  91  95
ATOM     95  S   UNL A   1      48.320  23.212  35.192  1.00  0.00     0.124 S 
ATOM     96  O   UNL A   1      49.135  22.207  34.519  1.00  0.00    -0.237 OA
ATOM     97  O   UNL A   1      48.914  23.827  36.375  1.00  0.00    -0.237 OA
ATOM     98  O   UNL A   1      46.902  22.880  35.314  1.00  0.00    -0.744 OA
ENDBRANCH  91  95
ENDBRANCH  65  88
ENDBRANCH  39  40
ENDBRANCH  32  34
ENDBRANCH  31  32
ENDBRANCH  30  31
ENDBRANCH  29  30
ENDBRANCH  28  29
ENDBRANCH  27  28
ENDBRANCH   1  27
TORSDOF 24
ENDMDL
