MODEL 1
REMARK VINA RESULT:     -10.9      0.000      0.000
REMARK SMILES O=C(Nc1cccc(C(=O)OCCOCCOCCOC(=O)c2ccc(-c3c4nc(c(-c5cc(S(=O)(=O)[O-])ccc5F)c5ccc([nH]5)c(-c5cc(S(=O)(=O)[O-])ccc5F)c5nc(c(-c6cc(S(=O)(=O)[O-])ccc6F)c6ccc3[nH]6)C=C5)C=C4)cc2)c1)Nc1cc(Cl)c(Cl)cc1Cl
REMARK SMILES IDX 16 1 15 2 14 3 13 4 12 5 11 6 9 7 10 8 8 9 4 10 5 11 86 12
REMARK SMILES IDX 6 13 7 14 3 15 1 16 2 17 87 18 88 21 89 22 95 23 90 24 94 25
REMARK SMILES IDX 96 26 91 27 92 28 93 29 17 30 18 31 19 32 20 33 21 34 22 35
REMARK SMILES IDX 23 36 24 37 85 38 25 39 84 40 26 41 27 42 28 43 78 44 29 45
REMARK SMILES IDX 83 46 77 47 79 48 30 49 82 50 76 51 75 52 31 54 63 55 43 56
REMARK SMILES IDX 62 57 44 58 47 59 61 60 80 61 45 62 46 63 60 65 81 66 48 67
REMARK SMILES IDX 32 68 33 69 41 70 34 71 40 72 42 73 39 74 35 75 36 76 37 77
REMARK SMILES IDX 38 78 64 79 65 80 73 81 66 82 72 83 74 84 71 85 67 86 68 87
REMARK SMILES IDX 69 88 70 89 49 90 50 91 58 92 51 93 57 94 59 95 56 96 52 97
REMARK SMILES IDX 53 98 54 99 55 100
REMARK H PARENT 3 19 87 20 79 53 47 64
REMARK Flexibility Score: inf
ROOT
ATOM      1  C   UNL A   1      42.710  21.956  26.941  1.00  0.00     0.188 C 
ENDROOT
BRANCH   1   2
ATOM      2  C   UNL A   1      42.615  20.625  26.166  1.00  0.00     0.188 C 
BRANCH   2   3
ATOM      3  O   UNL A   1      41.645  19.653  26.546  1.00  0.00    -0.376 OA
BRANCH   3   4
ATOM      4  C   UNL A   1      40.307  19.771  26.084  1.00  0.00     0.202 C 
BRANCH   4   5
ATOM      5  C   UNL A   1      39.653  21.155  26.125  1.00  0.00     0.261 C 
BRANCH   5   6
ATOM      6  O   UNL A   1      38.364  21.196  25.492  1.00  0.00    -0.460 OA
BRANCH   6   7
ATOM      7  C   UNL A   1      37.686  22.363  25.617  1.00  0.00     0.338 C 
ATOM      8  O   UNL A   1      38.136  23.446  25.951  1.00  0.00    -0.246 OA
BRANCH   7   9
ATOM      9  C   UNL A   1      36.292  22.180  25.154  1.00  0.00     0.062 A 
ATOM     10  C   UNL A   1      34.407  22.843  23.783  1.00  0.00     0.043 A 
ATOM     11  C   UNL A   1      33.657  21.800  24.338  1.00  0.00     0.026 A 
ATOM     12  C   UNL A   1      35.707  23.069  24.247  1.00  0.00     0.041 A 
ATOM     13  C   UNL A   1      34.233  20.926  25.265  1.00  0.00     0.003 A 
ATOM     14  C   UNL A   1      35.561  21.097  25.651  1.00  0.00     0.016 A 
BRANCH  10  15
ATOM     15  N   UNL A   1      33.799  23.610  22.768  1.00  0.00    -0.308 N 
ATOM     16  O   UNL A   1      32.753  25.350  21.805  1.00  0.00    -0.248 OA
ATOM     17  C   UNL A   1      33.390  24.923  22.763  1.00  0.00     0.323 C 
ATOM     18  N   UNL A   1      33.872  25.689  23.787  1.00  0.00    -0.306 N 
ATOM     19  H   UNL A   1      33.642  23.127  21.925  1.00  0.00     0.171 HD
ATOM     20  H   UNL A   1      34.655  25.318  24.255  1.00  0.00     0.171 HD
BRANCH  18  21
ATOM     21  C   UNL A   1      33.418  26.931  24.274  1.00  0.00     0.063 A 
ATOM     22  C   UNL A   1      32.742  26.864  25.506  1.00  0.00     0.049 A 
ATOM     23  C   UNL A   1      33.509  28.176  23.629  1.00  0.00     0.066 A 
ATOM     24  C   UNL A   1      32.225  28.011  26.116  1.00  0.00     0.061 A 
ATOM     25  C   UNL A   1      33.008  29.328  24.252  1.00  0.00     0.044 A 
ATOM     26  Cl  UNL A   1      34.044  28.395  22.000  1.00  0.00    -0.082 Cl
ATOM     27  Cl  UNL A   1      31.406  27.821  27.624  1.00  0.00    -0.083 Cl
ATOM     28  C   UNL A   1      32.375  29.250  25.494  1.00  0.00     0.061 A 
ATOM     29  Cl  UNL A   1      31.770  30.713  26.185  1.00  0.00    -0.083 Cl
ENDBRANCH  18  21
ENDBRANCH  10  15
ENDBRANCH   7   9
ENDBRANCH   6   7
ENDBRANCH   5   6
ENDBRANCH   4   5
ENDBRANCH   3   4
ENDBRANCH   2   3
ENDBRANCH   1   2
BRANCH   1  30
ATOM     30  O   UNL A   1      42.772  23.098  26.106  1.00  0.00    -0.376 OA
BRANCH  30  31
ATOM     31  C   UNL A   1      43.454  22.944  24.872  1.00  0.00     0.202 C 
BRANCH  31  32
ATOM     32  C   UNL A   1      44.618  23.909  24.610  1.00  0.00     0.261 C 
BRANCH  32  33
ATOM     33  O   UNL A   1      45.053  24.696  25.730  1.00  0.00    -0.460 OA
BRANCH  33  34
ATOM     34  C   UNL A   1      45.103  26.039  25.564  1.00  0.00     0.338 C 
ATOM     35  O   UNL A   1      45.598  26.637  24.626  1.00  0.00    -0.246 OA
BRANCH  34  36
ATOM     36  C   UNL A   1      44.291  26.656  26.639  1.00  0.00     0.060 A 
ATOM     37  C   UNL A   1      44.382  28.037  26.856  1.00  0.00     0.016 A 
ATOM     38  C   UNL A   1      43.435  25.875  27.422  1.00  0.00     0.016 A 
ATOM     39  C   UNL A   1      43.632  28.634  27.874  1.00  0.00     0.010 A 
ATOM     40  C   UNL A   1      42.700  26.475  28.451  1.00  0.00     0.010 A 
ATOM     41  C   UNL A   1      42.811  27.853  28.700  1.00  0.00    -0.014 A 
BRANCH  41  42
ATOM     42  C   UNL A   1      42.202  28.438  29.925  1.00  0.00     0.031 A 
ATOM     43  C   UNL A   1      40.836  29.062  29.818  1.00  0.00     0.074 A 
ATOM     44  C   UNL A   1      42.841  28.416  31.110  1.00  0.00     0.049 A 
ATOM     45  N   UNL A   1      40.132  29.688  30.727  1.00  0.00    -0.248 NA
ATOM     46  C   UNL A   1      40.177  28.963  28.507  1.00  0.00     0.031 C 
ATOM     47  C   UNL A   1      44.148  27.809  31.356  1.00  0.00     0.029 A 
ATOM     48  N   UNL A   1      42.476  28.932  32.331  1.00  0.00    -0.354 N 
ATOM     49  C   UNL A   1      38.946  30.055  30.099  1.00  0.00     0.074 A 
ATOM     50  C   UNL A   1      39.043  29.613  28.724  1.00  0.00     0.031 C 
ATOM     51  C   UNL A   1      44.482  28.001  32.645  1.00  0.00     0.029 A 
ATOM     52  C   UNL A   1      43.434  28.776  33.308  1.00  0.00     0.049 A 
ATOM     53  H   UNL A   1      41.611  29.372  32.493  1.00  0.00     0.167 HD
ATOM     54  C   UNL A   1      37.871  30.696  30.621  1.00  0.00     0.034 A 
ATOM     55  C   UNL A   1      43.472  29.233  34.578  1.00  0.00     0.034 A 
ATOM     56  C   UNL A   1      37.791  31.157  31.984  1.00  0.00     0.049 A 
ATOM     57  C   UNL A   1      42.302  30.035  35.108  1.00  0.00     0.074 A 
ATOM     58  C   UNL A   1      36.750  31.820  32.611  1.00  0.00     0.029 A 
ATOM     59  N   UNL A   1      38.797  31.017  32.931  1.00  0.00    -0.354 N 
ATOM     60  N   UNL A   1      41.184  30.367  34.505  1.00  0.00    -0.248 NA
ATOM     61  C   UNL A   1      42.402  30.517  36.493  1.00  0.00     0.031 C 
ATOM     62  C   UNL A   1      37.150  32.137  33.912  1.00  0.00     0.029 A 
ATOM     63  C   UNL A   1      38.411  31.606  34.126  1.00  0.00     0.049 A 
ATOM     64  H   UNL A   1      39.657  30.565  32.777  1.00  0.00     0.167 HD
ATOM     65  C   UNL A   1      40.435  31.065  35.452  1.00  0.00     0.074 A 
ATOM     66  C   UNL A   1      41.222  31.094  36.665  1.00  0.00     0.031 C 
ATOM     67  C   UNL A   1      39.206  31.628  35.330  1.00  0.00     0.034 A 
BRANCH  54  68
ATOM     68  C   UNL A   1      36.716  30.975  29.692  1.00  0.00     0.023 A 
ATOM     69  C   UNL A   1      36.138  32.253  29.599  1.00  0.00     0.031 A 
ATOM     70  C   UNL A   1      36.171  29.945  28.905  1.00  0.00     0.131 A 
ATOM     71  C   UNL A   1      35.016  32.456  28.783  1.00  0.00     0.055 A 
ATOM     72  C   UNL A   1      35.099  30.169  28.040  1.00  0.00     0.041 A 
ATOM     73  F   UNL A   1      36.667  28.700  28.972  1.00  0.00    -0.206 F 
ATOM     74  C   UNL A   1      34.507  31.428  27.984  1.00  0.00     0.022 A 
BRANCH  71  75
ATOM     75  S   UNL A   1      34.155  34.049  28.871  1.00  0.00     0.124 S 
ATOM     76  O   UNL A   1      33.865  34.148  30.300  1.00  0.00    -0.237 OA
ATOM     77  O   UNL A   1      35.154  34.977  28.357  1.00  0.00    -0.237 OA
ATOM     78  O   UNL A   1      32.985  33.855  28.017  1.00  0.00    -0.744 OA
ENDBRANCH  71  75
ENDBRANCH  54  68
BRANCH  55  79
ATOM     79  C   UNL A   1      44.669  29.001  35.440  1.00  0.00     0.023 A 
ATOM     80  C   UNL A   1      44.695  27.964  36.386  1.00  0.00     0.031 A 
ATOM     81  C   UNL A   1      45.770  29.876  35.393  1.00  0.00     0.131 A 
ATOM     82  C   UNL A   1      45.769  27.863  37.287  1.00  0.00     0.055 A 
ATOM     83  C   UNL A   1      46.862  29.735  36.253  1.00  0.00     0.041 A 
ATOM     84  F   UNL A   1      45.795  30.889  34.514  1.00  0.00    -0.206 F 
ATOM     85  C   UNL A   1      46.858  28.733  37.217  1.00  0.00     0.022 A 
BRANCH  82  86
ATOM     86  S   UNL A   1      45.667  26.640  38.624  1.00  0.00     0.124 S 
ATOM     87  O   UNL A   1      45.582  27.497  39.802  1.00  0.00    -0.237 OA
ATOM     88  O   UNL A   1      44.456  25.908  38.273  1.00  0.00    -0.237 OA
ATOM     89  O   UNL A   1      46.911  25.885  38.490  1.00  0.00    -0.744 OA
ENDBRANCH  82  86
ENDBRANCH  55  79
BRANCH  67  90
ATOM     90  C   UNL A   1      38.613  32.270  36.563  1.00  0.00     0.023 A 
ATOM     91  C   UNL A   1      37.776  31.559  37.442  1.00  0.00     0.031 A 
ATOM     92  C   UNL A   1      38.889  33.617  36.858  1.00  0.00     0.131 A 
ATOM     93  C   UNL A   1      37.203  32.214  38.543  1.00  0.00     0.055 A 
ATOM     94  C   UNL A   1      38.363  34.246  37.987  1.00  0.00     0.041 A 
ATOM     95  F   UNL A   1      39.681  34.343  36.053  1.00  0.00    -0.206 F 
ATOM     96  C   UNL A   1      37.504  33.547  38.830  1.00  0.00     0.022 A 
BRANCH  93  97
ATOM     97  S   UNL A   1      35.989  31.321  39.555  1.00  0.00     0.124 S 
ATOM     98  O   UNL A   1      34.813  32.177  39.442  1.00  0.00    -0.237 OA
ATOM     99  O   UNL A   1      35.907  30.031  38.876  1.00  0.00    -0.237 OA
ATOM    100  O   UNL A   1      36.605  31.285  40.879  1.00  0.00    -0.744 OA
ENDBRANCH  93  97
ENDBRANCH  67  90
ENDBRANCH  41  42
ENDBRANCH  34  36
ENDBRANCH  33  34
ENDBRANCH  32  33
ENDBRANCH  31  32
ENDBRANCH  30  31
ENDBRANCH   1  30
TORSDOF 22
ENDMDL
MODEL 2
REMARK VINA RESULT:     -10.8      5.258     10.733
REMARK SMILES O=C(Nc1cccc(C(=O)OCCOCCOCCOC(=O)c2ccc(-c3c4nc(c(-c5cc(S(=O)(=O)[O-])ccc5F)c5ccc([nH]5)c(-c5cc(S(=O)(=O)[O-])ccc5F)c5nc(c(-c6cc(S(=O)(=O)[O-])ccc6F)c6ccc3[nH]6)C=C5)C=C4)cc2)c1)Nc1cc(Cl)c(Cl)cc1Cl
REMARK SMILES IDX 16 1 15 2 14 3 13 4 12 5 11 6 9 7 10 8 8 9 4 10 5 11 86 12
REMARK SMILES IDX 6 13 7 14 3 15 1 16 2 17 87 18 88 21 89 22 95 23 90 24 94 25
REMARK SMILES IDX 96 26 91 27 92 28 93 29 17 30 18 31 19 32 20 33 21 34 22 35
REMARK SMILES IDX 23 36 24 37 85 38 25 39 84 40 26 41 27 42 28 43 78 44 29 45
REMARK SMILES IDX 83 46 77 47 79 48 30 49 82 50 76 51 75 52 31 54 63 55 43 56
REMARK SMILES IDX 62 57 44 58 47 59 61 60 80 61 45 62 46 63 60 65 81 66 48 67
REMARK SMILES IDX 32 68 33 69 41 70 34 71 40 72 42 73 39 74 35 75 36 76 37 77
REMARK SMILES IDX 38 78 64 79 65 80 73 81 66 82 72 83 74 84 71 85 67 86 68 87
REMARK SMILES IDX 69 88 70 89 49 90 50 91 58 92 51 93 57 94 59 95 56 96 52 97
REMARK SMILES IDX 53 98 54 99 55 100
REMARK H PARENT 3 19 87 20 79 53 47 64
REMARK Flexibility Score: inf
ROOT
ATOM      1  C   UNL A   1      44.554  19.898  24.789  1.00  0.00     0.188 C 
ENDROOT
BRANCH   1   2
ATOM      2  C   UNL A   1      45.553  21.062  24.958  1.00  0.00     0.188 C 
BRANCH   2   3
ATOM      3  O   UNL A   1      45.534  22.150  24.038  1.00  0.00    -0.376 OA
BRANCH   3   4
ATOM      4  C   UNL A   1      45.975  23.435  24.454  1.00  0.00     0.202 C 
BRANCH   4   5
ATOM      5  C   UNL A   1      44.927  24.412  24.995  1.00  0.00     0.261 C 
BRANCH   5   6
ATOM      6  O   UNL A   1      45.495  25.504  25.737  1.00  0.00    -0.460 OA
BRANCH   6   7
ATOM      7  C   UNL A   1      45.472  26.710  25.118  1.00  0.00     0.338 C 
ATOM      8  O   UNL A   1      46.201  27.091  24.217  1.00  0.00    -0.246 OA
BRANCH   7   9
ATOM      9  C   UNL A   1      44.320  27.499  25.607  1.00  0.00     0.062 A 
ATOM     10  C   UNL A   1      43.357  29.147  27.100  1.00  0.00     0.043 A 
ATOM     11  C   UNL A   1      42.110  28.939  26.500  1.00  0.00     0.026 A 
ATOM     12  C   UNL A   1      44.447  28.371  26.692  1.00  0.00     0.041 A 
ATOM     13  C   UNL A   1      41.976  28.047  25.431  1.00  0.00     0.003 A 
ATOM     14  C   UNL A   1      43.088  27.349  24.963  1.00  0.00     0.016 A 
BRANCH  10  15
ATOM     15  N   UNL A   1      43.441  30.146  28.091  1.00  0.00    -0.308 N 
ATOM     16  O   UNL A   1      44.111  32.039  29.100  1.00  0.00    -0.248 OA
ATOM     17  C   UNL A   1      44.044  31.382  28.066  1.00  0.00     0.323 C 
ATOM     18  N   UNL A   1      44.389  31.838  26.825  1.00  0.00    -0.306 N 
ATOM     19  H   UNL A   1      42.995  29.923  28.939  1.00  0.00     0.171 HD
ATOM     20  H   UNL A   1      43.943  31.385  26.073  1.00  0.00     0.171 HD
BRANCH  18  21
ATOM     21  C   UNL A   1      45.288  32.860  26.459  1.00  0.00     0.063 A 
ATOM     22  C   UNL A   1      46.623  32.629  26.839  1.00  0.00     0.049 A 
ATOM     23  C   UNL A   1      44.971  34.080  25.838  1.00  0.00     0.066 A 
ATOM     24  C   UNL A   1      47.631  33.554  26.553  1.00  0.00     0.061 A 
ATOM     25  C   UNL A   1      45.988  34.997  25.534  1.00  0.00     0.044 A 
ATOM     26  Cl  UNL A   1      43.363  34.649  25.564  1.00  0.00    -0.082 Cl
ATOM     27  Cl  UNL A   1      49.236  33.180  27.068  1.00  0.00    -0.083 Cl
ATOM     28  C   UNL A   1      47.314  34.735  25.882  1.00  0.00     0.061 A 
ATOM     29  Cl  UNL A   1      48.503  35.924  25.488  1.00  0.00    -0.083 Cl
ENDBRANCH  18  21
ENDBRANCH  10  15
ENDBRANCH   7   9
ENDBRANCH   6   7
ENDBRANCH   5   6
ENDBRANCH   4   5
ENDBRANCH   3   4
ENDBRANCH   2   3
ENDBRANCH   1   2
BRANCH   1  30
ATOM     30  O   UNL A   1      43.249  20.196  25.254  1.00  0.00    -0.376 OA
BRANCH  30  31
ATOM     31  C   UNL A   1      42.647  19.236  26.107  1.00  0.00     0.202 C 
BRANCH  31  32
ATOM     32  C   UNL A   1      41.113  19.190  26.107  1.00  0.00     0.261 C 
BRANCH  32  33
ATOM     33  O   UNL A   1      40.450  20.148  26.946  1.00  0.00    -0.460 OA
BRANCH  33  34
ATOM     34  C   UNL A   1      39.921  21.240  26.345  1.00  0.00     0.338 C 
ATOM     35  O   UNL A   1      38.990  21.258  25.562  1.00  0.00    -0.246 OA
BRANCH  34  36
ATOM     36  C   UNL A   1      40.559  22.437  26.942  1.00  0.00     0.060 A 
ATOM     37  C   UNL A   1      41.292  22.300  28.128  1.00  0.00     0.016 A 
ATOM     38  C   UNL A   1      40.445  23.686  26.326  1.00  0.00     0.016 A 
ATOM     39  C   UNL A   1      41.892  23.421  28.712  1.00  0.00     0.010 A 
ATOM     40  C   UNL A   1      41.031  24.808  26.922  1.00  0.00     0.010 A 
ATOM     41  C   UNL A   1      41.738  24.688  28.131  1.00  0.00    -0.014 A 
BRANCH  41  42
ATOM     42  C   UNL A   1      42.165  25.909  28.866  1.00  0.00     0.031 A 
ATOM     43  C   UNL A   1      43.615  26.042  29.253  1.00  0.00     0.074 A 
ATOM     44  C   UNL A   1      41.292  26.883  29.184  1.00  0.00     0.049 A 
ATOM     45  N   UNL A   1      44.209  26.977  29.949  1.00  0.00    -0.248 NA
ATOM     46  C   UNL A   1      44.512  24.972  28.789  1.00  0.00     0.031 C 
ATOM     47  C   UNL A   1      39.872  26.894  28.834  1.00  0.00     0.029 A 
ATOM     48  N   UNL A   1      41.473  28.050  29.887  1.00  0.00    -0.354 N 
ATOM     49  C   UNL A   1      45.550  26.612  30.004  1.00  0.00     0.074 A 
ATOM     50  C   UNL A   1      45.673  25.352  29.302  1.00  0.00     0.031 C 
ATOM     51  C   UNL A   1      39.308  28.007  29.337  1.00  0.00     0.029 A 
ATOM     52  C   UNL A   1      40.314  28.770  30.077  1.00  0.00     0.049 A 
ATOM     53  H   UNL A   1      42.349  28.346  30.223  1.00  0.00     0.167 HD
ATOM     54  C   UNL A   1      46.587  27.269  30.580  1.00  0.00     0.034 A 
ATOM     55  C   UNL A   1      40.088  29.894  30.790  1.00  0.00     0.034 A 
ATOM     56  C   UNL A   1      46.454  28.511  31.300  1.00  0.00     0.049 A 
ATOM     57  C   UNL A   1      41.244  30.555  31.510  1.00  0.00     0.074 A 
ATOM     58  C   UNL A   1      47.441  29.255  31.925  1.00  0.00     0.029 A 
ATOM     59  N   UNL A   1      45.259  29.186  31.506  1.00  0.00    -0.354 N 
ATOM     60  N   UNL A   1      42.509  30.202  31.547  1.00  0.00    -0.248 NA
ATOM     61  C   UNL A   1      40.939  31.769  32.281  1.00  0.00     0.031 C 
ATOM     62  C   UNL A   1      46.834  30.343  32.561  1.00  0.00     0.029 A 
ATOM     63  C   UNL A   1      45.480  30.322  32.271  1.00  0.00     0.049 A 
ATOM     64  H   UNL A   1      44.384  28.901  31.159  1.00  0.00     0.167 HD
ATOM     65  C   UNL A   1      43.152  31.173  32.313  1.00  0.00     0.074 A 
ATOM     66  C   UNL A   1      42.140  32.129  32.707  1.00  0.00     0.031 C 
ATOM     67  C   UNL A   1      44.461  31.268  32.658  1.00  0.00     0.034 A 
BRANCH  54  68
ATOM     68  C   UNL A   1      47.947  26.625  30.491  1.00  0.00     0.023 A 
ATOM     69  C   UNL A   1      48.434  25.788  31.511  1.00  0.00     0.031 A 
ATOM     70  C   UNL A   1      48.778  26.865  29.382  1.00  0.00     0.131 A 
ATOM     71  C   UNL A   1      49.735  25.270  31.430  1.00  0.00     0.055 A 
ATOM     72  C   UNL A   1      50.044  26.288  29.273  1.00  0.00     0.041 A 
ATOM     73  F   UNL A   1      48.374  27.674  28.391  1.00  0.00    -0.206 F 
ATOM     74  C   UNL A   1      50.534  25.495  30.306  1.00  0.00     0.022 A 
BRANCH  71  75
ATOM     75  S   UNL A   1      50.413  24.398  32.868  1.00  0.00     0.124 S 
ATOM     76  O   UNL A   1      51.595  25.202  33.169  1.00  0.00    -0.237 OA
ATOM     77  O   UNL A   1      49.322  24.482  33.831  1.00  0.00    -0.237 OA
ATOM     78  O   UNL A   1      50.693  23.058  32.356  1.00  0.00    -0.744 OA
ENDBRANCH  71  75
ENDBRANCH  54  68
BRANCH  55  79
ATOM     79  C   UNL A   1      38.711  30.457  30.917  1.00  0.00     0.023 A 
ATOM     80  C   UNL A   1      38.247  31.450  30.039  1.00  0.00     0.031 A 
ATOM     81  C   UNL A   1      37.872  30.073  31.979  1.00  0.00     0.131 A 
ATOM     82  C   UNL A   1      37.008  32.069  30.273  1.00  0.00     0.055 A 
ATOM     83  C   UNL A   1      36.614  30.651  32.172  1.00  0.00     0.041 A 
ATOM     84  F   UNL A   1      38.267  29.134  32.852  1.00  0.00    -0.206 F 
ATOM     85  C   UNL A   1      36.183  31.667  31.326  1.00  0.00     0.022 A 
BRANCH  82  86
ATOM     86  S   UNL A   1      36.537  33.487  29.243  1.00  0.00     0.124 S 
ATOM     87  O   UNL A   1      37.789  34.233  29.176  1.00  0.00    -0.237 OA
ATOM     88  O   UNL A   1      36.112  32.835  28.009  1.00  0.00    -0.237 OA
ATOM     89  O   UNL A   1      35.470  34.125  30.009  1.00  0.00    -0.744 OA
ENDBRANCH  82  86
ENDBRANCH  55  79
BRANCH  67  90
ATOM     90  C   UNL A   1      44.882  32.483  33.452  1.00  0.00     0.023 A 
ATOM     91  C   UNL A   1      45.264  33.683  32.828  1.00  0.00     0.031 A 
ATOM     92  C   UNL A   1      44.904  32.432  34.857  1.00  0.00     0.131 A 
ATOM     93  C   UNL A   1      45.702  34.767  33.606  1.00  0.00     0.055 A 
ATOM     94  C   UNL A   1      45.284  33.532  35.627  1.00  0.00     0.041 A 
ATOM     95  F   UNL A   1      44.549  31.312  35.505  1.00  0.00    -0.206 F 
ATOM     96  C   UNL A   1      45.699  34.704  35.002  1.00  0.00     0.022 A 
BRANCH  93  97
ATOM     97  S   UNL A   1      46.357  36.236  32.767  1.00  0.00     0.124 S 
ATOM     98  O   UNL A   1      46.872  35.672  31.524  1.00  0.00    -0.237 OA
ATOM     99  O   UNL A   1      45.171  37.078  32.641  1.00  0.00    -0.237 OA
ATOM    100  O   UNL A   1      47.374  36.734  33.690  1.00  0.00    -0.744 OA
ENDBRANCH  93  97
ENDBRANCH  67  90
ENDBRANCH  41  42
ENDBRANCH  34  36
ENDBRANCH  33  34
ENDBRANCH  32  33
ENDBRANCH  31  32
ENDBRANCH  30  31
ENDBRANCH   1  30
TORSDOF 22
ENDMDL
MODEL 3
REMARK VINA RESULT:     -10.6      6.135      8.922
REMARK SMILES O=C(Nc1cccc(C(=O)OCCOCCOCCOC(=O)c2ccc(-c3c4nc(c(-c5cc(S(=O)(=O)[O-])ccc5F)c5ccc([nH]5)c(-c5cc(S(=O)(=O)[O-])ccc5F)c5nc(c(-c6cc(S(=O)(=O)[O-])ccc6F)c6ccc3[nH]6)C=C5)C=C4)cc2)c1)Nc1cc(Cl)c(Cl)cc1Cl
REMARK SMILES IDX 16 1 15 2 14 3 13 4 12 5 11 6 9 7 10 8 8 9 4 10 5 11 86 12
REMARK SMILES IDX 6 13 7 14 3 15 1 16 2 17 87 18 88 21 89 22 95 23 90 24 94 25
REMARK SMILES IDX 96 26 91 27 92 28 93 29 17 30 18 31 19 32 20 33 21 34 22 35
REMARK SMILES IDX 23 36 24 37 85 38 25 39 84 40 26 41 27 42 28 43 78 44 29 45
REMARK SMILES IDX 83 46 77 47 79 48 30 49 82 50 76 51 75 52 31 54 63 55 43 56
REMARK SMILES IDX 62 57 44 58 47 59 61 60 80 61 45 62 46 63 60 65 81 66 48 67
REMARK SMILES IDX 32 68 33 69 41 70 34 71 40 72 42 73 39 74 35 75 36 76 37 77
REMARK SMILES IDX 38 78 64 79 65 80 73 81 66 82 72 83 74 84 71 85 67 86 68 87
REMARK SMILES IDX 69 88 70 89 49 90 50 91 58 92 51 93 57 94 59 95 56 96 52 97
REMARK SMILES IDX 53 98 54 99 55 100
REMARK H PARENT 3 19 87 20 79 53 47 64
REMARK Flexibility Score: inf
ROOT
ATOM      1  C   UNL A   1      44.969  21.055  25.126  1.00  0.00     0.188 C 
ENDROOT
BRANCH   1   2
ATOM      2  C   UNL A   1      44.899  19.791  24.244  1.00  0.00     0.188 C 
BRANCH   2   3
ATOM      3  O   UNL A   1      44.248  18.622  24.733  1.00  0.00    -0.376 OA
BRANCH   3   4
ATOM      4  C   UNL A   1      43.453  18.695  25.908  1.00  0.00     0.202 C 
BRANCH   4   5
ATOM      5  C   UNL A   1      41.974  19.060  25.751  1.00  0.00     0.261 C 
BRANCH   5   6
ATOM      6  O   UNL A   1      41.693  20.440  26.037  1.00  0.00    -0.460 OA
BRANCH   6   7
ATOM      7  C   UNL A   1      40.961  20.671  27.155  1.00  0.00     0.338 C 
ATOM      8  O   UNL A   1      40.783  19.909  28.091  1.00  0.00    -0.246 OA
BRANCH   7   9
ATOM      9  C   UNL A   1      40.485  22.072  27.157  1.00  0.00     0.062 A 
ATOM     10  C   UNL A   1      40.752  24.403  27.766  1.00  0.00     0.043 A 
ATOM     11  C   UNL A   1      39.529  24.687  27.148  1.00  0.00     0.026 A 
ATOM     12  C   UNL A   1      41.192  23.076  27.825  1.00  0.00     0.041 A 
ATOM     13  C   UNL A   1      38.808  23.678  26.503  1.00  0.00     0.003 A 
ATOM     14  C   UNL A   1      39.301  22.375  26.480  1.00  0.00     0.016 A 
BRANCH  10  15
ATOM     15  N   UNL A   1      41.480  25.488  28.293  1.00  0.00    -0.308 N 
ATOM     16  O   UNL A   1      41.864  27.527  29.157  1.00  0.00    -0.248 OA
ATOM     17  C   UNL A   1      41.050  26.648  28.894  1.00  0.00     0.323 C 
ATOM     18  N   UNL A   1      39.741  26.650  29.287  1.00  0.00    -0.306 N 
ATOM     19  H   UNL A   1      42.458  25.402  28.219  1.00  0.00     0.171 HD
ATOM     20  H   UNL A   1      39.322  25.761  29.353  1.00  0.00     0.171 HD
BRANCH  18  21
ATOM     21  C   UNL A   1      38.899  27.733  29.612  1.00  0.00     0.063 A 
ATOM     22  C   UNL A   1      38.259  28.328  28.509  1.00  0.00     0.049 A 
ATOM     23  C   UNL A   1      38.707  28.301  30.883  1.00  0.00     0.066 A 
ATOM     24  C   UNL A   1      37.398  29.418  28.668  1.00  0.00     0.061 A 
ATOM     25  C   UNL A   1      37.827  29.381  31.042  1.00  0.00     0.044 A 
ATOM     26  Cl  UNL A   1      39.624  27.886  32.287  1.00  0.00    -0.082 Cl
ATOM     27  Cl  UNL A   1      36.667  30.081  27.251  1.00  0.00    -0.083 Cl
ATOM     28  C   UNL A   1      37.169  29.935  29.943  1.00  0.00     0.061 A 
ATOM     29  Cl  UNL A   1      36.116  31.275  30.223  1.00  0.00    -0.083 Cl
ENDBRANCH  18  21
ENDBRANCH  10  15
ENDBRANCH   7   9
ENDBRANCH   6   7
ENDBRANCH   5   6
ENDBRANCH   4   5
ENDBRANCH   3   4
ENDBRANCH   2   3
ENDBRANCH   1   2
BRANCH   1  30
ATOM     30  O   UNL A   1      45.798  22.074  24.596  1.00  0.00    -0.376 OA
BRANCH  30  31
ATOM     31  C   UNL A   1      45.166  23.306  24.285  1.00  0.00     0.202 C 
BRANCH  31  32
ATOM     32  C   UNL A   1      45.033  24.314  25.435  1.00  0.00     0.261 C 
BRANCH  32  33
ATOM     33  O   UNL A   1      44.693  25.659  25.064  1.00  0.00    -0.460 OA
BRANCH  33  34
ATOM     34  C   UNL A   1      43.445  26.088  25.361  1.00  0.00     0.338 C 
ATOM     35  O   UNL A   1      42.415  25.444  25.276  1.00  0.00    -0.246 OA
BRANCH  34  36
ATOM     36  C   UNL A   1      43.565  27.430  25.977  1.00  0.00     0.060 A 
ATOM     37  C   UNL A   1      44.680  27.718  26.774  1.00  0.00     0.016 A 
ATOM     38  C   UNL A   1      42.585  28.404  25.760  1.00  0.00     0.016 A 
ATOM     39  C   UNL A   1      44.804  28.976  27.374  1.00  0.00     0.010 A 
ATOM     40  C   UNL A   1      42.704  29.655  26.376  1.00  0.00     0.010 A 
ATOM     41  C   UNL A   1      43.801  29.942  27.206  1.00  0.00    -0.014 A 
BRANCH  41  42
ATOM     42  C   UNL A   1      43.807  31.183  28.027  1.00  0.00     0.031 A 
ATOM     43  C   UNL A   1      44.871  32.214  27.757  1.00  0.00     0.074 A 
ATOM     44  C   UNL A   1      42.890  31.398  28.988  1.00  0.00     0.049 A 
ATOM     45  N   UNL A   1      45.118  33.338  28.380  1.00  0.00    -0.248 NA
ATOM     46  C   UNL A   1      45.777  31.936  26.632  1.00  0.00     0.031 C 
ATOM     47  C   UNL A   1      41.786  30.499  29.321  1.00  0.00     0.029 A 
ATOM     48  N   UNL A   1      42.750  32.442  29.872  1.00  0.00    -0.354 N 
ATOM     49  C   UNL A   1      46.205  33.904  27.721  1.00  0.00     0.074 A 
ATOM     50  C   UNL A   1      46.590  32.980  26.674  1.00  0.00     0.031 C 
ATOM     51  C   UNL A   1      41.091  31.023  30.347  1.00  0.00     0.029 A 
ATOM     52  C   UNL A   1      41.720  32.274  30.770  1.00  0.00     0.049 A 
ATOM     53  H   UNL A   1      43.332  33.235  29.864  1.00  0.00     0.167 HD
ATOM     54  C   UNL A   1      46.823  35.087  27.959  1.00  0.00     0.034 A 
ATOM     55  C   UNL A   1      41.349  33.027  31.828  1.00  0.00     0.034 A 
ATOM     56  C   UNL A   1      46.451  35.991  29.019  1.00  0.00     0.049 A 
ATOM     57  C   UNL A   1      42.118  34.294  32.136  1.00  0.00     0.074 A 
ATOM     58  C   UNL A   1      47.015  37.212  29.349  1.00  0.00     0.029 A 
ATOM     59  N   UNL A   1      45.430  35.767  29.932  1.00  0.00    -0.354 N 
ATOM     60  N   UNL A   1      43.139  34.820  31.499  1.00  0.00    -0.248 NA
ATOM     61  C   UNL A   1      41.679  35.069  33.306  1.00  0.00     0.031 C 
ATOM     62  C   UNL A   1      46.379  37.694  30.497  1.00  0.00     0.029 A 
ATOM     63  C   UNL A   1      45.367  36.813  30.841  1.00  0.00     0.049 A 
ATOM     64  H   UNL A   1      44.837  34.982  29.934  1.00  0.00     0.167 HD
ATOM     65  C   UNL A   1      43.437  36.005  32.171  1.00  0.00     0.074 A 
ATOM     66  C   UNL A   1      42.482  36.121  33.252  1.00  0.00     0.031 C 
ATOM     67  C   UNL A   1      44.409  36.917  31.916  1.00  0.00     0.034 A 
BRANCH  54  68
ATOM     68  C   UNL A   1      47.996  35.443  27.081  1.00  0.00     0.023 A 
ATOM     69  C   UNL A   1      49.312  35.095  27.434  1.00  0.00     0.031 A 
ATOM     70  C   UNL A   1      47.799  36.157  25.886  1.00  0.00     0.131 A 
ATOM     71  C   UNL A   1      50.384  35.511  26.632  1.00  0.00     0.055 A 
ATOM     72  C   UNL A   1      48.865  36.506  25.055  1.00  0.00     0.041 A 
ATOM     73  F   UNL A   1      46.568  36.536  25.512  1.00  0.00    -0.206 F 
ATOM     74  C   UNL A   1      50.168  36.194  25.432  1.00  0.00     0.022 A 
BRANCH  71  75
ATOM     75  S   UNL A   1      52.073  35.255  27.239  1.00  0.00     0.124 S 
ATOM     76  O   UNL A   1      52.474  34.058  26.502  1.00  0.00    -0.237 OA
ATOM     77  O   UNL A   1      52.739  36.493  26.855  1.00  0.00    -0.237 OA
ATOM     78  O   UNL A   1      51.895  35.062  28.677  1.00  0.00    -0.744 OA
ENDBRANCH  71  75
ENDBRANCH  54  68
BRANCH  55  79
ATOM     79  C   UNL A   1      40.230  32.599  32.719  1.00  0.00     0.023 A 
ATOM     80  C   UNL A   1      40.477  31.909  33.916  1.00  0.00     0.031 A 
ATOM     81  C   UNL A   1      38.890  32.793  32.335  1.00  0.00     0.131 A 
ATOM     82  C   UNL A   1      39.404  31.385  34.657  1.00  0.00     0.055 A 
ATOM     83  C   UNL A   1      37.826  32.320  33.107  1.00  0.00     0.041 A 
ATOM     84  F   UNL A   1      38.596  33.440  31.197  1.00  0.00    -0.206 F 
ATOM     85  C   UNL A   1      38.080  31.598  34.267  1.00  0.00     0.022 A 
BRANCH  82  86
ATOM     86  S   UNL A   1      39.770  30.324  36.084  1.00  0.00     0.124 S 
ATOM     87  O   UNL A   1      40.638  31.186  36.879  1.00  0.00    -0.237 OA
ATOM     88  O   UNL A   1      38.439  30.078  36.626  1.00  0.00    -0.237 OA
ATOM     89  O   UNL A   1      40.423  29.162  35.485  1.00  0.00    -0.744 OA
ENDBRANCH  82  86
ENDBRANCH  55  79
BRANCH  67  90
ATOM     90  C   UNL A   1      44.447  38.151  32.786  1.00  0.00     0.023 A 
ATOM     91  C   UNL A   1      43.632  39.268  32.529  1.00  0.00     0.031 A 
ATOM     92  C   UNL A   1      45.318  38.209  33.889  1.00  0.00     0.131 A 
ATOM     93  C   UNL A   1      43.743  40.414  33.332  1.00  0.00     0.055 A 
ATOM     94  C   UNL A   1      45.381  39.330  34.718  1.00  0.00     0.041 A 
ATOM     95  F   UNL A   1      46.118  37.173  34.181  1.00  0.00    -0.206 F 
ATOM     96  C   UNL A   1      44.600  40.446  34.434  1.00  0.00     0.022 A 
BRANCH  93  97
ATOM     97  S   UNL A   1      42.810  41.900  32.867  1.00  0.00     0.124 S 
ATOM     98  O   UNL A   1      43.868  42.895  32.738  1.00  0.00    -0.237 OA
ATOM     99  O   UNL A   1      42.167  41.488  31.622  1.00  0.00    -0.237 OA
ATOM    100  O   UNL A   1      41.902  42.102  33.994  1.00  0.00    -0.744 OA
ENDBRANCH  93  97
ENDBRANCH  67  90
ENDBRANCH  41  42
ENDBRANCH  34  36
ENDBRANCH  33  34
ENDBRANCH  32  33
ENDBRANCH  31  32
ENDBRANCH  30  31
ENDBRANCH   1  30
TORSDOF 22
ENDMDL
