MODEL 1
REMARK VINA RESULT:      -9.5      0.000      0.000
REMARK SMILES CCSc1ccc(-c2cc(Cl)cc3c2O[C@H](C(F)(F)F)C(C(=O)OCCOCCOCCOC(=O)c2ccc(-c4c5nc(c(-c6cc(S(=O)(=O)[O-])ccc6F)c6ccc([nH]6)c(-c6cc(S(=O)(=O)[O-])ccc6F)c6nc(c(-c7cc(S(=O)(=O)[O-])ccc7F)c7ccc4[nH]7)C=C6)C=C5)cc2)=C3)cc1
REMARK SMILES IDX 28 1 27 2 26 3 25 4 24 5 22 6 23 7 21 8 8 9 9 10 14 11 10 12
REMARK SMILES IDX 13 13 15 14 11 15 12 16 99 17 16 18 7 19 4 20 5 21 101 22
REMARK SMILES IDX 6 23 100 24 3 25 2 26 1 27 17 28 18 29 19 30 20 31 29 32
REMARK SMILES IDX 30 33 31 34 32 35 33 36 34 37 35 38 36 39 37 40 98 41 38 42
REMARK SMILES IDX 97 43 39 44 40 45 41 46 91 47 42 48 96 49 90 50 92 51 43 52
REMARK SMILES IDX 95 53 89 54 88 55 44 57 76 58 56 59 75 60 57 61 60 62 74 63
REMARK SMILES IDX 93 64 58 65 59 66 73 68 94 69 61 70 45 71 46 72 54 73 47 74
REMARK SMILES IDX 53 75 55 76 52 77 48 78 49 79 50 80 51 81 77 82 78 83 86 84
REMARK SMILES IDX 79 85 85 86 87 87 84 88 80 89 81 90 82 91 83 92 62 93 63 94
REMARK SMILES IDX 71 95 64 96 70 97 72 98 69 99 65 100 66 101 67 102 68 103
REMARK H PARENT 92 56 60 67
REMARK Flexibility Score: inf
ROOT
ATOM      1  C   UNL A   1      42.967  19.905  25.847  1.00  0.00     0.188 C 
ENDROOT
BRANCH   1   2
ATOM      2  O   UNL A   1      42.503  19.710  27.174  1.00  0.00    -0.376 OA
BRANCH   2   3
ATOM      3  C   UNL A   1      41.098  19.834  27.377  1.00  0.00     0.202 C 
BRANCH   3   4
ATOM      4  C   UNL A   1      40.284  20.076  26.102  1.00  0.00     0.261 C 
BRANCH   4   5
ATOM      5  O   UNL A   1      39.454  21.253  26.243  1.00  0.00    -0.460 OA
BRANCH   5   6
ATOM      6  C   UNL A   1      38.386  21.293  25.416  1.00  0.00     0.338 C 
ATOM      7  O   UNL A   1      37.815  20.305  24.968  1.00  0.00    -0.246 OA
BRANCH   6   8
ATOM      8  C   UNL A   1      37.880  22.677  25.222  1.00  0.00     0.087 C 
ATOM      9  C   UNL A   1      34.028  23.965  25.957  1.00  0.00     0.026 A 
ATOM     10  C   UNL A   1      33.203  22.825  25.840  1.00  0.00     0.033 A 
ATOM     11  C   UNL A   1      35.353  23.787  25.566  1.00  0.00     0.135 A 
ATOM     12  C   UNL A   1      33.612  21.656  25.199  1.00  0.00     0.042 A 
ATOM     13  C   UNL A   1      35.688  22.703  24.728  1.00  0.00     0.019 A 
ATOM     14  O   UNL A   1      36.416  24.528  26.065  1.00  0.00    -0.475 OA
ATOM     15  Cl  UNL A   1      32.583  20.282  25.134  1.00  0.00    -0.084 Cl
ATOM     16  C   UNL A   1      34.834  21.621  24.562  1.00  0.00     0.032 A 
ATOM     17  C   UNL A   1      37.051  22.686  24.163  1.00  0.00     0.027 C 
ATOM     18  C   UNL A   1      37.554  23.611  26.389  1.00  0.00     0.316 C 
BRANCH   9  19
ATOM     19  C   UNL A   1      33.292  25.248  26.109  1.00  0.00    -0.015 A 
ATOM     20  C   UNL A   1      31.796  27.470  25.134  1.00  0.00     0.007 A 
ATOM     21  C   UNL A   1      31.150  26.369  25.697  1.00  0.00     0.015 A 
ATOM     22  C   UNL A   1      33.191  27.505  25.151  1.00  0.00     0.015 A 
ATOM     23  C   UNL A   1      31.892  25.283  26.199  1.00  0.00     0.010 A 
ATOM     24  C   UNL A   1      33.929  26.419  25.651  1.00  0.00     0.010 A 
BRANCH  20  25
ATOM     25  S   UNL A   1      30.911  28.636  24.112  1.00  0.00    -0.126 SA
BRANCH  25  26
ATOM     26  C   UNL A   1      30.224  27.610  22.785  1.00  0.00     0.071 C 
ATOM     27  C   UNL A   1      31.283  26.796  22.069  1.00  0.00     0.016 C 
ENDBRANCH  25  26
ENDBRANCH  20  25
ENDBRANCH   9  19
BRANCH  18  28
ATOM     28  C   UNL A   1      38.808  24.387  26.796  1.00  0.00     0.430 C 
ATOM     29  F   UNL A   1      38.518  25.583  27.355  1.00  0.00    -0.167 F 
ATOM     30  F   UNL A   1      39.569  23.692  27.669  1.00  0.00    -0.167 F 
ATOM     31  F   UNL A   1      39.591  24.636  25.713  1.00  0.00    -0.167 F 
ENDBRANCH  18  28
ENDBRANCH   6   8
ENDBRANCH   5   6
ENDBRANCH   4   5
ENDBRANCH   3   4
ENDBRANCH   2   3
ENDBRANCH   1   2
BRANCH   1  32
ATOM     32  C   UNL A   1      43.645  18.673  25.206  1.00  0.00     0.188 C 
BRANCH  32  33
ATOM     33  O   UNL A   1      44.951  18.791  24.655  1.00  0.00    -0.376 OA
BRANCH  33  34
ATOM     34  C   UNL A   1      45.856  19.743  25.207  1.00  0.00     0.202 C 
BRANCH  34  35
ATOM     35  C   UNL A   1      46.200  20.979  24.373  1.00  0.00     0.261 C 
BRANCH  35  36
ATOM     36  O   UNL A   1      45.963  22.223  25.057  1.00  0.00    -0.460 OA
BRANCH  36  37
ATOM     37  C   UNL A   1      44.810  22.851  24.716  1.00  0.00     0.338 C 
ATOM     38  O   UNL A   1      44.148  22.664  23.708  1.00  0.00    -0.246 OA
BRANCH  37  39
ATOM     39  C   UNL A   1      44.332  23.701  25.826  1.00  0.00     0.060 A 
ATOM     40  C   UNL A   1      44.524  25.080  25.708  1.00  0.00     0.016 A 
ATOM     41  C   UNL A   1      43.804  23.163  27.003  1.00  0.00     0.016 A 
ATOM     42  C   UNL A   1      44.219  25.916  26.780  1.00  0.00     0.010 A 
ATOM     43  C   UNL A   1      43.507  24.010  28.084  1.00  0.00     0.010 A 
ATOM     44  C   UNL A   1      43.728  25.393  27.987  1.00  0.00    -0.014 A 
BRANCH  44  45
ATOM     45  C   UNL A   1      43.627  26.297  29.169  1.00  0.00     0.031 A 
ATOM     46  C   UNL A   1      44.865  26.574  29.968  1.00  0.00     0.074 A 
ATOM     47  C   UNL A   1      42.475  26.909  29.499  1.00  0.00     0.049 A 
ATOM     48  N   UNL A   1      45.037  27.389  30.976  1.00  0.00    -0.248 NA
ATOM     49  C   UNL A   1      46.057  25.805  29.592  1.00  0.00     0.031 C 
ATOM     50  C   UNL A   1      41.209  26.691  28.820  1.00  0.00     0.029 A 
ATOM     51  N   UNL A   1      42.187  27.872  30.437  1.00  0.00    -0.354 N 
ATOM     52  C   UNL A   1      46.344  27.187  31.399  1.00  0.00     0.074 A 
ATOM     53  C   UNL A   1      46.925  26.201  30.509  1.00  0.00     0.031 C 
ATOM     54  C   UNL A   1      40.313  27.589  29.263  1.00  0.00     0.029 A 
ATOM     55  C   UNL A   1      40.912  28.391  30.325  1.00  0.00     0.049 A 
ATOM     56  H   UNL A   1      42.829  28.165  31.124  1.00  0.00     0.167 HD
ATOM     57  C   UNL A   1      46.983  27.736  32.463  1.00  0.00     0.034 A 
ATOM     58  C   UNL A   1      40.305  29.396  30.997  1.00  0.00     0.034 A 
ATOM     59  C   UNL A   1      46.370  28.675  33.370  1.00  0.00     0.049 A 
ATOM     60  C   UNL A   1      41.060  30.042  32.138  1.00  0.00     0.074 A 
ATOM     61  C   UNL A   1      46.903  29.246  34.513  1.00  0.00     0.029 A 
ATOM     62  N   UNL A   1      45.075  29.170  33.251  1.00  0.00    -0.354 N 
ATOM     63  N   UNL A   1      42.290  29.822  32.549  1.00  0.00    -0.248 NA
ATOM     64  C   UNL A   1      40.332  31.036  32.939  1.00  0.00     0.031 C 
ATOM     65  C   UNL A   1      45.913  30.026  35.121  1.00  0.00     0.029 A 
ATOM     66  C   UNL A   1      44.785  30.014  34.315  1.00  0.00     0.049 A 
ATOM     67  H   UNL A   1      44.455  28.953  32.520  1.00  0.00     0.167 HD
ATOM     68  C   UNL A   1      42.472  30.638  33.663  1.00  0.00     0.074 A 
ATOM     69  C   UNL A   1      41.247  31.395  33.827  1.00  0.00     0.031 C 
ATOM     70  C   UNL A   1      43.545  30.736  34.490  1.00  0.00     0.034 A 
BRANCH  57  71
ATOM     71  C   UNL A   1      48.367  27.209  32.756  1.00  0.00     0.023 A 
ATOM     72  C   UNL A   1      48.574  26.063  33.542  1.00  0.00     0.031 A 
ATOM     73  C   UNL A   1      49.496  27.937  32.341  1.00  0.00     0.131 A 
ATOM     74  C   UNL A   1      49.867  25.742  33.979  1.00  0.00     0.055 A 
ATOM     75  C   UNL A   1      50.791  27.555  32.699  1.00  0.00     0.041 A 
ATOM     76  F   UNL A   1      49.361  29.056  31.613  1.00  0.00    -0.206 F 
ATOM     77  C   UNL A   1      50.981  26.466  33.544  1.00  0.00     0.022 A 
BRANCH  74  78
ATOM     78  S   UNL A   1      50.051  24.502  35.291  1.00  0.00     0.124 S 
ATOM     79  O   UNL A   1      50.401  23.310  34.522  1.00  0.00    -0.237 OA
ATOM     80  O   UNL A   1      51.116  25.069  36.112  1.00  0.00    -0.237 OA
ATOM     81  O   UNL A   1      48.731  24.466  35.917  1.00  0.00    -0.744 OA
ENDBRANCH  74  78
ENDBRANCH  57  71
BRANCH  58  82
ATOM     82  C   UNL A   1      38.923  29.854  30.637  1.00  0.00     0.023 A 
ATOM     83  C   UNL A   1      38.706  31.116  30.050  1.00  0.00     0.031 A 
ATOM     84  C   UNL A   1      37.788  29.063  30.888  1.00  0.00     0.131 A 
ATOM     85  C   UNL A   1      37.406  31.549  29.741  1.00  0.00     0.055 A 
ATOM     86  C   UNL A   1      36.499  29.473  30.530  1.00  0.00     0.041 A 
ATOM     87  F   UNL A   1      37.913  27.862  31.474  1.00  0.00    -0.206 F 
ATOM     88  C   UNL A   1      36.302  30.725  29.959  1.00  0.00     0.022 A 
BRANCH  85  89
ATOM     89  S   UNL A   1      37.166  33.235  29.109  1.00  0.00     0.124 S 
ATOM     90  O   UNL A   1      36.340  33.003  27.930  1.00  0.00    -0.237 OA
ATOM     91  O   UNL A   1      36.513  33.896  30.235  1.00  0.00    -0.237 OA
ATOM     92  O   UNL A   1      38.528  33.691  28.833  1.00  0.00    -0.744 OA
ENDBRANCH  85  89
ENDBRANCH  58  82
BRANCH  70  93
ATOM     93  C   UNL A   1      43.430  31.683  35.663  1.00  0.00     0.023 A 
ATOM     94  C   UNL A   1      43.819  33.032  35.563  1.00  0.00     0.031 A 
ATOM     95  C   UNL A   1      42.910  31.238  36.890  1.00  0.00     0.131 A 
ATOM     96  C   UNL A   1      43.726  33.875  36.681  1.00  0.00     0.055 A 
ATOM     97  C   UNL A   1      42.767  32.096  37.983  1.00  0.00     0.041 A 
ATOM     98  F   UNL A   1      42.521  29.962  37.047  1.00  0.00    -0.206 F 
ATOM     99  C   UNL A   1      43.186  33.419  37.886  1.00  0.00     0.022 A 
BRANCH  96 100
ATOM    100  S   UNL A   1      44.390  35.560  36.565  1.00  0.00     0.124 S 
ATOM    101  O   UNL A   1      43.367  36.238  35.777  1.00  0.00    -0.237 OA
ATOM    102  O   UNL A   1      44.483  35.957  37.967  1.00  0.00    -0.237 OA
ATOM    103  O   UNL A   1      45.674  35.379  35.890  1.00  0.00    -0.744 OA
ENDBRANCH  96 100
ENDBRANCH  70  93
ENDBRANCH  44  45
ENDBRANCH  37  39
ENDBRANCH  36  37
ENDBRANCH  35  36
ENDBRANCH  34  35
ENDBRANCH  33  34
ENDBRANCH  32  33
ENDBRANCH   1  32
TORSDOF 24
ENDMDL
MODEL 2
REMARK VINA RESULT:      -9.1      4.243     10.085
REMARK SMILES CCSc1ccc(-c2cc(Cl)cc3c2O[C@H](C(F)(F)F)C(C(=O)OCCOCCOCCOC(=O)c2ccc(-c4c5nc(c(-c6cc(S(=O)(=O)[O-])ccc6F)c6ccc([nH]6)c(-c6cc(S(=O)(=O)[O-])ccc6F)c6nc(c(-c7cc(S(=O)(=O)[O-])ccc7F)c7ccc4[nH]7)C=C6)C=C5)cc2)=C3)cc1
REMARK SMILES IDX 28 1 27 2 26 3 25 4 24 5 22 6 23 7 21 8 8 9 9 10 14 11 10 12
REMARK SMILES IDX 13 13 15 14 11 15 12 16 99 17 16 18 7 19 4 20 5 21 101 22
REMARK SMILES IDX 6 23 100 24 3 25 2 26 1 27 17 28 18 29 19 30 20 31 29 32
REMARK SMILES IDX 30 33 31 34 32 35 33 36 34 37 35 38 36 39 37 40 98 41 38 42
REMARK SMILES IDX 97 43 39 44 40 45 41 46 91 47 42 48 96 49 90 50 92 51 43 52
REMARK SMILES IDX 95 53 89 54 88 55 44 57 76 58 56 59 75 60 57 61 60 62 74 63
REMARK SMILES IDX 93 64 58 65 59 66 73 68 94 69 61 70 45 71 46 72 54 73 47 74
REMARK SMILES IDX 53 75 55 76 52 77 48 78 49 79 50 80 51 81 77 82 78 83 86 84
REMARK SMILES IDX 79 85 85 86 87 87 84 88 80 89 81 90 82 91 83 92 62 93 63 94
REMARK SMILES IDX 71 95 64 96 70 97 72 98 69 99 65 100 66 101 67 102 68 103
REMARK H PARENT 92 56 60 67
REMARK Flexibility Score: inf
ROOT
ATOM      1  C   UNL A   1      34.307  31.620  27.618  1.00  0.00     0.188 C 
ENDROOT
BRANCH   1   2
ATOM      2  O   UNL A   1      33.589  30.658  26.861  1.00  0.00    -0.376 OA
BRANCH   2   3
ATOM      3  C   UNL A   1      32.171  30.793  26.848  1.00  0.00     0.202 C 
BRANCH   3   4
ATOM      4  C   UNL A   1      31.447  29.869  25.862  1.00  0.00     0.261 C 
BRANCH   4   5
ATOM      5  O   UNL A   1      32.344  28.845  25.372  1.00  0.00    -0.460 OA
BRANCH   5   6
ATOM      6  C   UNL A   1      31.877  27.583  25.489  1.00  0.00     0.338 C 
ATOM      7  O   UNL A   1      30.731  27.292  25.813  1.00  0.00    -0.246 OA
BRANCH   6   8
ATOM      8  C   UNL A   1      32.869  26.574  25.034  1.00  0.00     0.087 C 
ATOM      9  C   UNL A   1      32.194  22.519  24.663  1.00  0.00     0.026 A 
ATOM     10  C   UNL A   1      31.144  22.211  25.556  1.00  0.00     0.033 A 
ATOM     11  C   UNL A   1      32.705  23.811  24.762  1.00  0.00     0.135 A 
ATOM     12  C   UNL A   1      30.766  23.055  26.601  1.00  0.00     0.042 A 
ATOM     13  C   UNL A   1      32.482  24.554  25.941  1.00  0.00     0.019 A 
ATOM     14  O   UNL A   1      33.309  24.490  23.713  1.00  0.00    -0.475 OA
ATOM     15  Cl  UNL A   1      29.447  22.651  27.623  1.00  0.00    -0.084 Cl
ATOM     16  C   UNL A   1      31.495  24.198  26.850  1.00  0.00     0.032 A 
ATOM     17  C   UNL A   1      33.227  25.819  26.088  1.00  0.00     0.027 C 
ATOM     18  C   UNL A   1      32.792  25.894  23.666  1.00  0.00     0.316 C 
BRANCH   9  19
ATOM     19  C   UNL A   1      32.837  21.335  24.034  1.00  0.00    -0.015 A 
ATOM     20  C   UNL A   1      33.458  18.559  23.846  1.00  0.00     0.007 A 
ATOM     21  C   UNL A   1      32.413  19.107  23.100  1.00  0.00     0.015 A 
ATOM     22  C   UNL A   1      34.256  19.416  24.606  1.00  0.00     0.015 A 
ATOM     23  C   UNL A   1      32.124  20.483  23.177  1.00  0.00     0.010 A 
ATOM     24  C   UNL A   1      33.963  20.789  24.683  1.00  0.00     0.010 A 
BRANCH  20  25
ATOM     25  S   UNL A   1      33.576  16.798  24.114  1.00  0.00    -0.126 SA
BRANCH  25  26
ATOM     26  C   UNL A   1      32.416  16.492  25.473  1.00  0.00     0.071 C 
ATOM     27  C   UNL A   1      32.341  15.028  25.858  1.00  0.00     0.016 C 
ENDBRANCH  25  26
ENDBRANCH  20  25
ENDBRANCH   9  19
BRANCH  18  28
ATOM     28  C   UNL A   1      33.536  26.736  22.627  1.00  0.00     0.430 C 
ATOM     29  F   UNL A   1      34.346  25.992  21.843  1.00  0.00    -0.167 F 
ATOM     30  F   UNL A   1      32.685  27.413  21.826  1.00  0.00    -0.167 F 
ATOM     31  F   UNL A   1      34.318  27.667  23.235  1.00  0.00    -0.167 F 
ENDBRANCH  18  28
ENDBRANCH   6   8
ENDBRANCH   5   6
ENDBRANCH   4   5
ENDBRANCH   3   4
ENDBRANCH   2   3
ENDBRANCH   1   2
BRANCH   1  32
ATOM     32  C   UNL A   1      35.167  31.039  28.762  1.00  0.00     0.188 C 
BRANCH  32  33
ATOM     33  O   UNL A   1      35.647  31.896  29.792  1.00  0.00    -0.376 OA
BRANCH  33  34
ATOM     34  C   UNL A   1      36.301  31.328  30.922  1.00  0.00     0.202 C 
BRANCH  34  35
ATOM     35  C   UNL A   1      37.822  31.467  31.020  1.00  0.00     0.261 C 
BRANCH  35  36
ATOM     36  O   UNL A   1      38.473  31.625  29.746  1.00  0.00    -0.460 OA
BRANCH  36  37
ATOM     37  C   UNL A   1      38.833  30.466  29.140  1.00  0.00     0.338 C 
ATOM     38  O   UNL A   1      38.369  30.007  28.110  1.00  0.00    -0.246 OA
BRANCH  37  39
ATOM     39  C   UNL A   1      40.017  29.879  29.801  1.00  0.00     0.060 A 
ATOM     40  C   UNL A   1      41.171  30.663  29.867  1.00  0.00     0.016 A 
ATOM     41  C   UNL A   1      40.039  28.556  30.254  1.00  0.00     0.016 A 
ATOM     42  C   UNL A   1      42.356  30.115  30.354  1.00  0.00     0.010 A 
ATOM     43  C   UNL A   1      41.239  28.006  30.736  1.00  0.00     0.010 A 
ATOM     44  C   UNL A   1      42.411  28.776  30.774  1.00  0.00    -0.014 A 
BRANCH  44  45
ATOM     45  C   UNL A   1      43.743  28.178  31.078  1.00  0.00     0.031 A 
ATOM     46  C   UNL A   1      44.581  27.679  29.939  1.00  0.00     0.074 A 
ATOM     47  C   UNL A   1      44.232  28.128  32.330  1.00  0.00     0.049 A 
ATOM     48  N   UNL A   1      45.799  27.203  29.951  1.00  0.00    -0.248 NA
ATOM     49  C   UNL A   1      43.943  27.694  28.617  1.00  0.00     0.031 C 
ATOM     50  C   UNL A   1      43.499  28.550  33.511  1.00  0.00     0.029 A 
ATOM     51  N   UNL A   1      45.464  27.762  32.818  1.00  0.00    -0.354 N 
ATOM     52  C   UNL A   1      46.056  26.802  28.646  1.00  0.00     0.074 A 
ATOM     53  C   UNL A   1      44.877  27.131  27.868  1.00  0.00     0.031 C 
ATOM     54  C   UNL A   1      44.331  28.553  34.567  1.00  0.00     0.029 A 
ATOM     55  C   UNL A   1      45.636  28.047  34.159  1.00  0.00     0.049 A 
ATOM     56  H   UNL A   1      46.159  27.338  32.264  1.00  0.00     0.167 HD
ATOM     57  C   UNL A   1      47.153  26.173  28.155  1.00  0.00     0.034 A 
ATOM     58  C   UNL A   1      46.721  27.917  34.957  1.00  0.00     0.034 A 
ATOM     59  C   UNL A   1      48.294  25.805  28.957  1.00  0.00     0.049 A 
ATOM     60  C   UNL A   1      47.958  27.272  34.372  1.00  0.00     0.074 A 
ATOM     61  C   UNL A   1      49.430  25.112  28.576  1.00  0.00     0.029 A 
ATOM     62  N   UNL A   1      48.439  26.083  30.313  1.00  0.00    -0.354 N 
ATOM     63  N   UNL A   1      48.179  26.870  33.138  1.00  0.00    -0.248 NA
ATOM     64  C   UNL A   1      49.075  27.018  35.292  1.00  0.00     0.031 C 
ATOM     65  C   UNL A   1      50.225  24.909  29.711  1.00  0.00     0.029 A 
ATOM     66  C   UNL A   1      49.630  25.549  30.786  1.00  0.00     0.049 A 
ATOM     67  H   UNL A   1      47.791  26.585  30.857  1.00  0.00     0.167 HD
ATOM     68  C   UNL A   1      49.452  26.303  33.145  1.00  0.00     0.074 A 
ATOM     69  C   UNL A   1      49.971  26.464  34.489  1.00  0.00     0.031 C 
ATOM     70  C   UNL A   1      50.121  25.684  32.139  1.00  0.00     0.034 A 
BRANCH  57  71
ATOM     71  C   UNL A   1      47.080  25.733  26.713  1.00  0.00     0.023 A 
ATOM     72  C   UNL A   1      46.253  24.673  26.301  1.00  0.00     0.031 A 
ATOM     73  C   UNL A   1      47.943  26.304  25.761  1.00  0.00     0.131 A 
ATOM     74  C   UNL A   1      46.387  24.148  25.007  1.00  0.00     0.055 A 
ATOM     75  C   UNL A   1      48.000  25.839  24.445  1.00  0.00     0.041 A 
ATOM     76  F   UNL A   1      48.777  27.299  26.102  1.00  0.00    -0.206 F 
ATOM     77  C   UNL A   1      47.236  24.739  24.068  1.00  0.00     0.022 A 
BRANCH  74  78
ATOM     78  S   UNL A   1      45.596  22.557  24.637  1.00  0.00     0.124 S 
ATOM     79  O   UNL A   1      46.752  21.668  24.545  1.00  0.00    -0.237 OA
ATOM     80  O   UNL A   1      44.729  22.361  25.793  1.00  0.00    -0.237 OA
ATOM     81  O   UNL A   1      44.907  22.803  23.371  1.00  0.00    -0.744 OA
ENDBRANCH  74  78
ENDBRANCH  57  71
BRANCH  58  82
ATOM     82  C   UNL A   1      46.702  28.383  36.383  1.00  0.00     0.023 A 
ATOM     83  C   UNL A   1      46.366  27.503  37.430  1.00  0.00     0.031 A 
ATOM     84  C   UNL A   1      46.991  29.713  36.734  1.00  0.00     0.131 A 
ATOM     85  C   UNL A   1      46.324  27.955  38.760  1.00  0.00     0.055 A 
ATOM     86  C   UNL A   1      47.001  30.148  38.063  1.00  0.00     0.041 A 
ATOM     87  F   UNL A   1      47.288  30.617  35.787  1.00  0.00    -0.206 F 
ATOM     88  C   UNL A   1      46.660  29.268  39.085  1.00  0.00     0.022 A 
BRANCH  85  89
ATOM     89  S   UNL A   1      45.758  26.817  40.058  1.00  0.00     0.124 S 
ATOM     90  O   UNL A   1      46.132  25.519  39.508  1.00  0.00    -0.237 OA
ATOM     91  O   UNL A   1      46.518  27.271  41.218  1.00  0.00    -0.237 OA
ATOM     92  O   UNL A   1      44.319  27.069  40.126  1.00  0.00    -0.744 OA
ENDBRANCH  85  89
ENDBRANCH  58  82
BRANCH  70  93
ATOM     93  C   UNL A   1      51.484  25.113  32.463  1.00  0.00     0.023 A 
ATOM     94  C   UNL A   1      51.669  23.739  32.706  1.00  0.00     0.031 A 
ATOM     95  C   UNL A   1      52.613  25.948  32.511  1.00  0.00     0.131 A 
ATOM     96  C   UNL A   1      52.943  23.249  33.032  1.00  0.00     0.055 A 
ATOM     97  C   UNL A   1      53.888  25.447  32.781  1.00  0.00     0.041 A 
ATOM     98  F   UNL A   1      52.499  27.268  32.287  1.00  0.00    -0.206 F 
ATOM     99  C   UNL A   1      54.057  24.092  33.054  1.00  0.00     0.022 A 
BRANCH  96 100
ATOM    100  S   UNL A   1      53.118  21.505  33.502  1.00  0.00     0.124 S 
ATOM    101  O   UNL A   1      52.763  20.819  32.265  1.00  0.00    -0.237 OA
ATOM    102  O   UNL A   1      54.521  21.426  33.897  1.00  0.00    -0.237 OA
ATOM    103  O   UNL A   1      52.160  21.346  34.595  1.00  0.00    -0.744 OA
ENDBRANCH  96 100
ENDBRANCH  70  93
ENDBRANCH  44  45
ENDBRANCH  37  39
ENDBRANCH  36  37
ENDBRANCH  35  36
ENDBRANCH  34  35
ENDBRANCH  33  34
ENDBRANCH  32  33
ENDBRANCH   1  32
TORSDOF 24
ENDMDL
MODEL 3
REMARK VINA RESULT:      -9.0      2.195      2.497
REMARK SMILES CCSc1ccc(-c2cc(Cl)cc3c2O[C@H](C(F)(F)F)C(C(=O)OCCOCCOCCOC(=O)c2ccc(-c4c5nc(c(-c6cc(S(=O)(=O)[O-])ccc6F)c6ccc([nH]6)c(-c6cc(S(=O)(=O)[O-])ccc6F)c6nc(c(-c7cc(S(=O)(=O)[O-])ccc7F)c7ccc4[nH]7)C=C6)C=C5)cc2)=C3)cc1
REMARK SMILES IDX 28 1 27 2 26 3 25 4 24 5 22 6 23 7 21 8 8 9 9 10 14 11 10 12
REMARK SMILES IDX 13 13 15 14 11 15 12 16 99 17 16 18 7 19 4 20 5 21 101 22
REMARK SMILES IDX 6 23 100 24 3 25 2 26 1 27 17 28 18 29 19 30 20 31 29 32
REMARK SMILES IDX 30 33 31 34 32 35 33 36 34 37 35 38 36 39 37 40 98 41 38 42
REMARK SMILES IDX 97 43 39 44 40 45 41 46 91 47 42 48 96 49 90 50 92 51 43 52
REMARK SMILES IDX 95 53 89 54 88 55 44 57 76 58 56 59 75 60 57 61 60 62 74 63
REMARK SMILES IDX 93 64 58 65 59 66 73 68 94 69 61 70 45 71 46 72 54 73 47 74
REMARK SMILES IDX 53 75 55 76 52 77 48 78 49 79 50 80 51 81 77 82 78 83 86 84
REMARK SMILES IDX 79 85 85 86 87 87 84 88 80 89 81 90 82 91 83 92 62 93 63 94
REMARK SMILES IDX 71 95 64 96 70 97 72 98 69 99 65 100 66 101 67 102 68 103
REMARK H PARENT 92 56 60 67
REMARK Flexibility Score: inf
ROOT
ATOM      1  C   UNL A   1      42.952  20.147  25.688  1.00  0.00     0.188 C 
ENDROOT
BRANCH   1   2
ATOM      2  O   UNL A   1      42.182  20.384  26.855  1.00  0.00    -0.376 OA
BRANCH   2   3
ATOM      3  C   UNL A   1      40.961  19.658  26.966  1.00  0.00     0.202 C 
BRANCH   3   4
ATOM      4  C   UNL A   1      39.939  19.949  25.860  1.00  0.00     0.261 C 
BRANCH   4   5
ATOM      5  O   UNL A   1      39.080  21.050  26.238  1.00  0.00    -0.460 OA
BRANCH   5   6
ATOM      6  C   UNL A   1      38.048  21.275  25.396  1.00  0.00     0.338 C 
ATOM      7  O   UNL A   1      37.296  20.405  24.969  1.00  0.00    -0.246 OA
BRANCH   6   8
ATOM      8  C   UNL A   1      37.827  22.724  25.154  1.00  0.00     0.087 C 
ATOM      9  C   UNL A   1      34.219  24.704  25.474  1.00  0.00     0.026 A 
ATOM     10  C   UNL A   1      33.217  23.732  25.263  1.00  0.00     0.033 A 
ATOM     11  C   UNL A   1      35.524  24.282  25.228  1.00  0.00     0.135 A 
ATOM     12  C   UNL A   1      33.471  22.498  24.665  1.00  0.00     0.042 A 
ATOM     13  C   UNL A   1      35.742  23.142  24.426  1.00  0.00     0.019 A 
ATOM     14  O   UNL A   1      36.644  24.824  25.842  1.00  0.00    -0.475 OA
ATOM     15  Cl  UNL A   1      32.221  21.334  24.483  1.00  0.00    -0.084 Cl
ATOM     16  C   UNL A   1      34.728  22.231  24.164  1.00  0.00     0.032 A 
ATOM     17  C   UNL A   1      37.132  22.868  24.012  1.00  0.00     0.027 C 
ATOM     18  C   UNL A   1      37.553  23.720  26.283  1.00  0.00     0.316 C 
BRANCH   9  19
ATOM     19  C   UNL A   1      33.718  26.102  25.551  1.00  0.00    -0.015 A 
ATOM     20  C   UNL A   1      31.923  28.216  24.892  1.00  0.00     0.007 A 
ATOM     21  C   UNL A   1      31.758  27.483  26.067  1.00  0.00     0.015 A 
ATOM     22  C   UNL A   1      33.043  27.960  24.098  1.00  0.00     0.015 A 
ATOM     23  C   UNL A   1      32.660  26.454  26.402  1.00  0.00     0.010 A 
ATOM     24  C   UNL A   1      33.940  26.932  24.434  1.00  0.00     0.010 A 
BRANCH  20  25
ATOM     25  S   UNL A   1      30.593  29.201  24.224  1.00  0.00    -0.126 SA
BRANCH  25  26
ATOM     26  C   UNL A   1      29.669  28.032  23.191  1.00  0.00     0.071 C 
ATOM     27  C   UNL A   1      28.344  28.593  22.717  1.00  0.00     0.016 C 
ENDBRANCH  25  26
ENDBRANCH  20  25
ENDBRANCH   9  19
BRANCH  18  28
ATOM     28  C   UNL A   1      38.878  24.260  26.827  1.00  0.00     0.430 C 
ATOM     29  F   UNL A   1      39.737  24.608  25.843  1.00  0.00    -0.167 F 
ATOM     30  F   UNL A   1      38.694  25.338  27.620  1.00  0.00    -0.167 F 
ATOM     31  F   UNL A   1      39.504  23.322  27.586  1.00  0.00    -0.167 F 
ENDBRANCH  18  28
ENDBRANCH   6   8
ENDBRANCH   5   6
ENDBRANCH   4   5
ENDBRANCH   3   4
ENDBRANCH   2   3
ENDBRANCH   1   2
BRANCH   1  32
ATOM     32  C   UNL A   1      43.487  18.705  25.540  1.00  0.00     0.188 C 
BRANCH  32  33
ATOM     33  O   UNL A   1      44.837  18.487  25.150  1.00  0.00    -0.376 OA
BRANCH  33  34
ATOM     34  C   UNL A   1      45.817  19.475  25.452  1.00  0.00     0.202 C 
BRANCH  34  35
ATOM     35  C   UNL A   1      46.301  20.382  24.319  1.00  0.00     0.261 C 
BRANCH  35  36
ATOM     36  O   UNL A   1      46.399  21.770  24.690  1.00  0.00    -0.460 OA
BRANCH  36  37
ATOM     37  C   UNL A   1      45.313  22.522  24.385  1.00  0.00     0.338 C 
ATOM     38  O   UNL A   1      44.632  22.442  23.376  1.00  0.00    -0.246 OA
BRANCH  37  39
ATOM     39  C   UNL A   1      44.925  23.367  25.533  1.00  0.00     0.060 A 
ATOM     40  C   UNL A   1      44.865  24.747  25.323  1.00  0.00     0.016 A 
ATOM     41  C   UNL A   1      44.727  22.842  26.813  1.00  0.00     0.016 A 
ATOM     42  C   UNL A   1      44.640  25.603  26.399  1.00  0.00     0.010 A 
ATOM     43  C   UNL A   1      44.510  23.710  27.896  1.00  0.00     0.010 A 
ATOM     44  C   UNL A   1      44.481  25.099  27.700  1.00  0.00    -0.014 A 
BRANCH  44  45
ATOM     45  C   UNL A   1      44.463  26.061  28.840  1.00  0.00     0.031 A 
ATOM     46  C   UNL A   1      45.771  26.528  29.405  1.00  0.00     0.074 A 
ATOM     47  C   UNL A   1      43.314  26.558  29.333  1.00  0.00     0.049 A 
ATOM     48  N   UNL A   1      46.003  27.421  30.331  1.00  0.00    -0.248 NA
ATOM     49  C   UNL A   1      46.971  25.878  28.867  1.00  0.00     0.031 C 
ATOM     50  C   UNL A   1      41.991  26.154  28.889  1.00  0.00     0.029 A 
ATOM     51  N   UNL A   1      43.066  27.541  30.262  1.00  0.00    -0.354 N 
ATOM     52  C   UNL A   1      47.377  27.397  30.536  1.00  0.00     0.074 A 
ATOM     53  C   UNL A   1      47.921  26.428  29.605  1.00  0.00     0.031 C 
ATOM     54  C   UNL A   1      41.075  26.971  29.437  1.00  0.00     0.029 A 
ATOM     55  C   UNL A   1      41.736  27.902  30.344  1.00  0.00     0.049 A 
ATOM     56  H   UNL A   1      43.770  27.948  30.816  1.00  0.00     0.167 HD
ATOM     57  C   UNL A   1      48.108  28.083  31.451  1.00  0.00     0.034 A 
ATOM     58  C   UNL A   1      41.128  28.873  31.064  1.00  0.00     0.034 A 
ATOM     59  C   UNL A   1      47.539  29.003  32.406  1.00  0.00     0.049 A 
ATOM     60  C   UNL A   1      41.972  29.674  32.031  1.00  0.00     0.074 A 
ATOM     61  C   UNL A   1      48.178  29.703  33.415  1.00  0.00     0.029 A 
ATOM     62  N   UNL A   1      46.191  29.339  32.486  1.00  0.00    -0.354 N 
ATOM     63  N   UNL A   1      43.271  29.622  32.237  1.00  0.00    -0.248 NA
ATOM     64  C   UNL A   1      41.268  30.628  32.899  1.00  0.00     0.031 C 
ATOM     65  C   UNL A   1      47.211  30.403  34.146  1.00  0.00     0.029 A 
ATOM     66  C   UNL A   1      45.977  30.211  33.544  1.00  0.00     0.049 A 
ATOM     67  H   UNL A   1      45.492  29.005  31.880  1.00  0.00     0.167 HD
ATOM     68  C   UNL A   1      43.530  30.524  33.266  1.00  0.00     0.074 A 
ATOM     69  C   UNL A   1      42.265  31.145  33.602  1.00  0.00     0.031 C 
ATOM     70  C   UNL A   1      44.703  30.796  33.894  1.00  0.00     0.034 A 
BRANCH  57  71
ATOM     71  C   UNL A   1      49.575  27.737  31.528  1.00  0.00     0.023 A 
ATOM     72  C   UNL A   1      50.547  28.461  30.815  1.00  0.00     0.031 A 
ATOM     73  C   UNL A   1      49.989  26.593  32.231  1.00  0.00     0.131 A 
ATOM     74  C   UNL A   1      51.858  27.969  30.731  1.00  0.00     0.055 A 
ATOM     75  C   UNL A   1      51.318  26.164  32.223  1.00  0.00     0.041 A 
ATOM     76  F   UNL A   1      49.103  25.845  32.906  1.00  0.00    -0.206 F 
ATOM     77  C   UNL A   1      52.257  26.840  31.449  1.00  0.00     0.022 A 
BRANCH  74  78
ATOM     78  S   UNL A   1      52.976  28.703  29.503  1.00  0.00     0.124 S 
ATOM     79  O   UNL A   1      53.799  29.573  30.339  1.00  0.00    -0.237 OA
ATOM     80  O   UNL A   1      53.643  27.530  28.948  1.00  0.00    -0.237 OA
ATOM     81  O   UNL A   1      52.073  29.401  28.590  1.00  0.00    -0.744 OA
ENDBRANCH  74  78
ENDBRANCH  57  71
BRANCH  58  82
ATOM     82  C   UNL A   1      39.659  29.147  30.923  1.00  0.00     0.023 A 
ATOM     83  C   UNL A   1      39.192  30.211  30.128  1.00  0.00     0.031 A 
ATOM     84  C   UNL A   1      38.691  28.376  31.591  1.00  0.00     0.131 A 
ATOM     85  C   UNL A   1      37.816  30.478  30.023  1.00  0.00     0.055 A 
ATOM     86  C   UNL A   1      37.320  28.609  31.443  1.00  0.00     0.041 A 
ATOM     87  F   UNL A   1      39.062  27.365  32.393  1.00  0.00    -0.206 F 
ATOM     88  C   UNL A   1      36.876  29.669  30.660  1.00  0.00     0.022 A 
BRANCH  85  89
ATOM     89  S   UNL A   1      37.272  31.940  29.094  1.00  0.00     0.124 S 
ATOM     90  O   UNL A   1      36.961  31.371  27.787  1.00  0.00    -0.237 OA
ATOM     91  O   UNL A   1      36.134  32.401  29.884  1.00  0.00    -0.237 OA
ATOM     92  O   UNL A   1      38.440  32.818  29.126  1.00  0.00    -0.744 OA
ENDBRANCH  85  89
ENDBRANCH  58  82
BRANCH  70  93
ATOM     93  C   UNL A   1      44.665  31.799  35.027  1.00  0.00     0.023 A 
ATOM     94  C   UNL A   1      44.329  31.416  36.339  1.00  0.00     0.031 A 
ATOM     95  C   UNL A   1      44.985  33.147  34.796  1.00  0.00     0.131 A 
ATOM     96  C   UNL A   1      44.275  32.378  37.359  1.00  0.00     0.055 A 
ATOM     97  C   UNL A   1      44.985  34.090  35.826  1.00  0.00     0.041 A 
ATOM     98  F   UNL A   1      45.315  33.572  33.565  1.00  0.00    -0.206 F 
ATOM     99  C   UNL A   1      44.619  33.710  37.114  1.00  0.00     0.022 A 
BRANCH  96 100
ATOM    100  S   UNL A   1      43.679  31.883  39.000  1.00  0.00     0.124 S 
ATOM    101  O   UNL A   1      44.440  30.664  39.246  1.00  0.00    -0.237 OA
ATOM    102  O   UNL A   1      44.034  33.035  39.823  1.00  0.00    -0.237 OA
ATOM    103  O   UNL A   1      42.244  31.688  38.799  1.00  0.00    -0.744 OA
ENDBRANCH  96 100
ENDBRANCH  70  93
ENDBRANCH  44  45
ENDBRANCH  37  39
ENDBRANCH  36  37
ENDBRANCH  35  36
ENDBRANCH  34  35
ENDBRANCH  33  34
ENDBRANCH  32  33
ENDBRANCH   1  32
TORSDOF 24
ENDMDL
