MODEL 1
REMARK VINA RESULT:     -11.2      0.000      0.000
REMARK SMILES Cc1cc([N+](=O)[O-])ccc1-c1ccc(/C=C/C(=O)Nc2ccc(O)c(C(=O)OCCOCCOCCOC(=O)c3ccc(-c4c5nc(c(-c6cc(S(=O)(=O)[O-])ccc6F)c6ccc([nH]6)c(-c6cc(S(=O)(=O)[O-])ccc6F)c6nc(c(-c7cc(S(=O)(=O)[O-])ccc7F)c7ccc4[nH]7)C=C6)C=C5)cc3)c2)o1
REMARK SMILES IDX 32 1 31 2 30 3 29 4 28 5 26 6 27 7 25 8 20 9 21 10 103 11
REMARK SMILES IDX 22 12 23 13 19 14 17 15 18 16 16 18 15 19 14 20 11 21 12 22
REMARK SMILES IDX 104 23 13 24 10 25 1 26 2 27 3 28 4 29 9 30 8 31 5 32 6 33
REMARK SMILES IDX 7 34 24 35 33 37 34 38 35 39 36 40 37 41 38 42 39 43 40 44
REMARK SMILES IDX 41 45 102 46 42 47 101 48 43 49 44 50 45 51 95 52 46 53
REMARK SMILES IDX 100 54 94 55 96 56 47 57 99 58 93 59 92 60 48 62 80 63 60 64
REMARK SMILES IDX 79 65 61 66 64 67 78 68 97 69 62 70 63 71 77 73 98 74 65 75
REMARK SMILES IDX 49 76 50 77 58 78 51 79 57 80 59 81 56 82 52 83 53 84 54 85
REMARK SMILES IDX 55 86 81 87 82 88 90 89 83 90 89 91 91 92 88 93 84 94 85 95
REMARK SMILES IDX 86 96 87 97 66 98 67 99 75 100 68 101 74 102 76 103 73 104
REMARK SMILES IDX 69 105 70 106 71 107 72 108
REMARK H PARENT 19 17 24 36 96 61 64 72
REMARK Flexibility Score: inf
ROOT
ATOM      1  C   UNL A   1      39.221  21.535  26.075  1.00  0.00     0.188 C 
ENDROOT
BRANCH   1   2
ATOM      2  O   UNL A   1      38.163  22.503  26.049  1.00  0.00    -0.376 OA
BRANCH   2   3
ATOM      3  C   UNL A   1      36.975  22.356  25.266  1.00  0.00     0.202 C 
BRANCH   3   4
ATOM      4  C   UNL A   1      35.635  22.806  25.939  1.00  0.00     0.261 C 
BRANCH   4   5
ATOM      5  O   UNL A   1      34.707  21.715  26.269  1.00  0.00    -0.460 OA
BRANCH   5   6
ATOM      6  C   UNL A   1      34.136  21.084  25.206  1.00  0.00     0.342 C 
ATOM      7  O   UNL A   1      34.524  20.014  24.750  1.00  0.00    -0.246 OA
BRANCH   6   8
ATOM      8  C   UNL A   1      33.089  21.852  24.453  1.00  0.00     0.103 A 
ATOM      9  C   UNL A   1      32.504  23.486  22.675  1.00  0.00     0.042 A 
ATOM     10  C   UNL A   1      31.287  23.722  23.298  1.00  0.00     0.030 A 
ATOM     11  C   UNL A   1      33.374  22.559  23.273  1.00  0.00     0.045 A 
ATOM     12  C   UNL A   1      30.961  23.018  24.467  1.00  0.00     0.049 A 
ATOM     13  C   UNL A   1      31.856  22.104  25.043  1.00  0.00     0.130 A 
BRANCH   9  14
ATOM     14  N   UNL A   1      32.892  24.089  21.453  1.00  0.00    -0.322 N 
ATOM     15  C   UNL A   1      32.858  25.410  21.058  1.00  0.00     0.248 C 
ATOM     16  O   UNL A   1      32.953  25.756  19.886  1.00  0.00    -0.270 OA
ATOM     17  H   UNL A   1      33.241  23.465  20.776  1.00  0.00     0.170 HD
BRANCH  15  18
ATOM     18  C   UNL A   1      32.902  26.406  22.143  1.00  0.00     0.075 C 
ATOM     19  C   UNL A   1      33.913  26.240  23.006  1.00  0.00     0.053 C 
BRANCH  19  20
ATOM     20  C   UNL A   1      33.777  26.716  24.330  1.00  0.00     0.127 A 
ATOM     21  C   UNL A   1      33.874  28.013  26.108  1.00  0.00     0.135 A 
ATOM     22  C   UNL A   1      33.404  26.801  26.554  1.00  0.00     0.051 A 
ATOM     23  O   UNL A   1      34.062  27.989  24.759  1.00  0.00    -0.457 OA
ATOM     24  C   UNL A   1      33.360  25.967  25.422  1.00  0.00     0.051 A 
BRANCH  21  25
ATOM     25  C   UNL A   1      34.244  29.235  26.794  1.00  0.00     0.021 A 
ATOM     26  C   UNL A   1      31.904  30.219  26.439  1.00  0.00     0.045 C 
ATOM     27  C   UNL A   1      33.332  30.305  26.921  1.00  0.00    -0.033 A 
ATOM     28  C   UNL A   1      33.770  31.517  27.483  1.00  0.00     0.089 A 
ATOM     29  C   UNL A   1      35.089  31.645  27.939  1.00  0.00     0.269 A 
ATOM     30  C   UNL A   1      35.553  29.370  27.282  1.00  0.00     0.019 A 
ATOM     31  C   UNL A   1      35.980  30.571  27.853  1.00  0.00     0.086 A 
BRANCH  29  32
ATOM     32  N   UNL A   1      35.544  32.924  28.497  1.00  0.00     0.062 N 
ATOM     33  O   UNL A   1      36.750  33.200  28.414  1.00  0.00    -0.258 OA
ATOM     34  O   UNL A   1      34.697  33.654  29.035  1.00  0.00    -0.258 OA
ENDBRANCH  29  32
ENDBRANCH  21  25
ENDBRANCH  19  20
ENDBRANCH  15  18
ENDBRANCH   9  14
BRANCH  13  35
ATOM     35  O   UNL A   1      31.462  21.513  26.212  1.00  0.00    -0.507 OA
ATOM     36  H   UNL A   1      31.901  20.744  26.519  1.00  0.00     0.293 HD
ENDBRANCH  13  35
ENDBRANCH   6   8
ENDBRANCH   5   6
ENDBRANCH   4   5
ENDBRANCH   3   4
ENDBRANCH   2   3
ENDBRANCH   1   2
BRANCH   1  37
ATOM     37  C   UNL A   1      40.335  21.542  27.130  1.00  0.00     0.188 C 
BRANCH  37  38
ATOM     38  O   UNL A   1      40.739  20.219  27.471  1.00  0.00    -0.376 OA
BRANCH  38  39
ATOM     39  C   UNL A   1      42.118  19.932  27.268  1.00  0.00     0.202 C 
BRANCH  39  40
ATOM     40  C   UNL A   1      42.606  20.306  25.857  1.00  0.00     0.261 C 
BRANCH  40  41
ATOM     41  O   UNL A   1      43.749  21.186  25.945  1.00  0.00    -0.460 OA
BRANCH  41  42
ATOM     42  C   UNL A   1      43.532  22.460  25.517  1.00  0.00     0.338 C 
ATOM     43  O   UNL A   1      43.124  22.746  24.388  1.00  0.00    -0.246 OA
BRANCH  42  44
ATOM     44  C   UNL A   1      43.842  23.450  26.588  1.00  0.00     0.060 A 
ATOM     45  C   UNL A   1      43.549  23.252  27.950  1.00  0.00     0.016 A 
ATOM     46  C   UNL A   1      44.294  24.692  26.206  1.00  0.00     0.016 A 
ATOM     47  C   UNL A   1      43.608  24.332  28.885  1.00  0.00     0.010 A 
ATOM     48  C   UNL A   1      44.209  25.736  27.108  1.00  0.00     0.010 A 
ATOM     49  C   UNL A   1      43.887  25.622  28.447  1.00  0.00    -0.014 A 
BRANCH  49  50
ATOM     50  C   UNL A   1      43.749  26.962  29.085  1.00  0.00     0.031 A 
ATOM     51  C   UNL A   1      42.496  27.784  29.075  1.00  0.00     0.074 A 
ATOM     52  C   UNL A   1      44.615  27.227  30.081  1.00  0.00     0.049 A 
ATOM     53  N   UNL A   1      41.790  28.092  30.122  1.00  0.00    -0.248 NA
ATOM     54  C   UNL A   1      41.943  28.312  27.825  1.00  0.00     0.031 C 
ATOM     55  C   UNL A   1      44.579  28.303  31.059  1.00  0.00     0.029 A 
ATOM     56  N   UNL A   1      45.912  26.741  30.155  1.00  0.00    -0.354 N 
ATOM     57  C   UNL A   1      40.739  28.905  29.729  1.00  0.00     0.074 A 
ATOM     58  C   UNL A   1      40.832  28.918  28.262  1.00  0.00     0.031 C 
ATOM     59  C   UNL A   1      45.848  28.669  31.305  1.00  0.00     0.029 A 
ATOM     60  C   UNL A   1      46.704  27.877  30.434  1.00  0.00     0.049 A 
ATOM     61  H   UNL A   1      46.213  25.812  30.038  1.00  0.00     0.167 HD
ATOM     62  C   UNL A   1      40.497  30.096  30.359  1.00  0.00     0.034 A 
ATOM     63  C   UNL A   1      47.483  28.317  29.400  1.00  0.00     0.034 A 
ATOM     64  C   UNL A   1      41.686  30.885  30.595  1.00  0.00     0.049 A 
ATOM     65  C   UNL A   1      46.908  29.587  28.766  1.00  0.00     0.074 A 
ATOM     66  C   UNL A   1      42.457  31.284  31.667  1.00  0.00     0.029 A 
ATOM     67  N   UNL A   1      42.364  31.303  29.474  1.00  0.00    -0.354 N 
ATOM     68  N   UNL A   1      45.908  30.273  29.265  1.00  0.00    -0.248 NA
ATOM     69  C   UNL A   1      47.358  30.156  27.497  1.00  0.00     0.031 C 
ATOM     70  C   UNL A   1      43.684  31.821  31.140  1.00  0.00     0.029 A 
ATOM     71  C   UNL A   1      43.614  31.791  29.757  1.00  0.00     0.049 A 
ATOM     72  H   UNL A   1      41.991  31.257  28.564  1.00  0.00     0.167 HD
ATOM     73  C   UNL A   1      45.545  31.277  28.410  1.00  0.00     0.074 A 
ATOM     74  C   UNL A   1      46.494  31.171  27.316  1.00  0.00     0.031 C 
ATOM     75  C   UNL A   1      44.473  32.100  28.624  1.00  0.00     0.034 A 
BRANCH  62  76
ATOM     76  C   UNL A   1      39.085  30.433  30.766  1.00  0.00     0.023 A 
ATOM     77  C   UNL A   1      38.737  31.723  31.217  1.00  0.00     0.031 A 
ATOM     78  C   UNL A   1      38.045  29.475  30.763  1.00  0.00     0.131 A 
ATOM     79  C   UNL A   1      37.428  32.002  31.674  1.00  0.00     0.055 A 
ATOM     80  C   UNL A   1      36.755  29.747  31.234  1.00  0.00     0.041 A 
ATOM     81  F   UNL A   1      38.236  28.243  30.269  1.00  0.00    -0.206 F 
ATOM     82  C   UNL A   1      36.442  31.015  31.699  1.00  0.00     0.022 A 
BRANCH  79  83
ATOM     83  S   UNL A   1      37.011  33.675  32.251  1.00  0.00     0.124 S 
ATOM     84  O   UNL A   1      35.559  33.700  32.116  1.00  0.00    -0.237 OA
ATOM     85  O   UNL A   1      37.534  33.669  33.613  1.00  0.00    -0.237 OA
ATOM     86  O   UNL A   1      37.730  34.547  31.322  1.00  0.00    -0.744 OA
ENDBRANCH  79  83
ENDBRANCH  62  76
BRANCH  63  87
ATOM     87  C   UNL A   1      48.171  27.130  28.748  1.00  0.00     0.023 A 
ATOM     88  C   UNL A   1      47.786  26.867  27.400  1.00  0.00     0.031 A 
ATOM     89  C   UNL A   1      49.383  26.570  29.168  1.00  0.00     0.131 A 
ATOM     90  C   UNL A   1      48.702  26.338  26.478  1.00  0.00     0.055 A 
ATOM     91  C   UNL A   1      50.227  25.885  28.271  1.00  0.00     0.041 A 
ATOM     92  F   UNL A   1      49.861  26.796  30.398  1.00  0.00    -0.206 F 
ATOM     93  C   UNL A   1      49.923  25.830  26.909  1.00  0.00     0.022 A 
BRANCH  90  94
ATOM     94  S   UNL A   1      48.449  26.679  24.701  1.00  0.00     0.124 S 
ATOM     95  O   UNL A   1      49.729  26.281  24.128  1.00  0.00    -0.237 OA
ATOM     96  O   UNL A   1      47.303  25.836  24.362  1.00  0.00    -0.237 OA
ATOM     97  O   UNL A   1      48.155  28.111  24.668  1.00  0.00    -0.744 OA
ENDBRANCH  90  94
ENDBRANCH  63  87
BRANCH  75  98
ATOM     98  C   UNL A   1      44.130  33.250  27.704  1.00  0.00     0.023 A 
ATOM     99  C   UNL A   1      44.052  34.558  28.201  1.00  0.00     0.031 A 
ATOM    100  C   UNL A   1      43.782  33.080  26.343  1.00  0.00     0.131 A 
ATOM    101  C   UNL A   1      43.714  35.627  27.357  1.00  0.00     0.055 A 
ATOM    102  C   UNL A   1      43.343  34.131  25.534  1.00  0.00     0.041 A 
ATOM    103  F   UNL A   1      43.908  31.897  25.721  1.00  0.00    -0.206 F 
ATOM    104  C   UNL A   1      43.318  35.421  26.037  1.00  0.00     0.022 A 
BRANCH 101 105
ATOM    105  S   UNL A   1      43.911  37.308  27.994  1.00  0.00     0.124 S 
ATOM    106  O   UNL A   1      44.602  37.089  29.260  1.00  0.00    -0.237 OA
ATOM    107  O   UNL A   1      44.706  37.925  26.936  1.00  0.00    -0.237 OA
ATOM    108  O   UNL A   1      42.540  37.798  28.107  1.00  0.00    -0.744 OA
ENDBRANCH 101 105
ENDBRANCH  75  98
ENDBRANCH  49  50
ENDBRANCH  42  44
ENDBRANCH  41  42
ENDBRANCH  40  41
ENDBRANCH  39  40
ENDBRANCH  38  39
ENDBRANCH  37  38
ENDBRANCH   1  37
TORSDOF 26
ENDMDL
MODEL 2
REMARK VINA RESULT:      -9.3      1.646      2.075
REMARK SMILES Cc1cc([N+](=O)[O-])ccc1-c1ccc(/C=C/C(=O)Nc2ccc(O)c(C(=O)OCCOCCOCCOC(=O)c3ccc(-c4c5nc(c(-c6cc(S(=O)(=O)[O-])ccc6F)c6ccc([nH]6)c(-c6cc(S(=O)(=O)[O-])ccc6F)c6nc(c(-c7cc(S(=O)(=O)[O-])ccc7F)c7ccc4[nH]7)C=C6)C=C5)cc3)c2)o1
REMARK SMILES IDX 32 1 31 2 30 3 29 4 28 5 26 6 27 7 25 8 20 9 21 10 103 11
REMARK SMILES IDX 22 12 23 13 19 14 17 15 18 16 16 18 15 19 14 20 11 21 12 22
REMARK SMILES IDX 104 23 13 24 10 25 1 26 2 27 3 28 4 29 9 30 8 31 5 32 6 33
REMARK SMILES IDX 7 34 24 35 33 37 34 38 35 39 36 40 37 41 38 42 39 43 40 44
REMARK SMILES IDX 41 45 102 46 42 47 101 48 43 49 44 50 45 51 95 52 46 53
REMARK SMILES IDX 100 54 94 55 96 56 47 57 99 58 93 59 92 60 48 62 80 63 60 64
REMARK SMILES IDX 79 65 61 66 64 67 78 68 97 69 62 70 63 71 77 73 98 74 65 75
REMARK SMILES IDX 49 76 50 77 58 78 51 79 57 80 59 81 56 82 52 83 53 84 54 85
REMARK SMILES IDX 55 86 81 87 82 88 90 89 83 90 89 91 91 92 88 93 84 94 85 95
REMARK SMILES IDX 86 96 87 97 66 98 67 99 75 100 68 101 74 102 76 103 73 104
REMARK SMILES IDX 69 105 70 106 71 107 72 108
REMARK H PARENT 19 17 24 36 96 61 64 72
REMARK Flexibility Score: inf
ROOT
ATOM      1  C   UNL A   1      39.582  23.417  27.019  1.00  0.00     0.188 C 
ENDROOT
BRANCH   1   2
ATOM      2  O   UNL A   1      38.587  24.320  26.517  1.00  0.00    -0.376 OA
BRANCH   2   3
ATOM      3  C   UNL A   1      37.512  23.917  25.663  1.00  0.00     0.202 C 
BRANCH   3   4
ATOM      4  C   UNL A   1      37.264  22.377  25.533  1.00  0.00     0.261 C 
BRANCH   4   5
ATOM      5  O   UNL A   1      36.152  21.855  26.341  1.00  0.00    -0.460 OA
BRANCH   5   6
ATOM      6  C   UNL A   1      34.997  22.574  26.288  1.00  0.00     0.342 C 
ATOM      7  O   UNL A   1      34.581  23.277  27.203  1.00  0.00    -0.246 OA
BRANCH   6   8
ATOM      8  C   UNL A   1      34.107  22.329  25.106  1.00  0.00     0.103 A 
ATOM      9  C   UNL A   1      33.223  23.075  22.906  1.00  0.00     0.042 A 
ATOM     10  C   UNL A   1      32.122  22.249  23.072  1.00  0.00     0.030 A 
ATOM     11  C   UNL A   1      34.185  23.095  23.930  1.00  0.00     0.045 A 
ATOM     12  C   UNL A   1      32.022  21.454  24.225  1.00  0.00     0.049 A 
ATOM     13  C   UNL A   1      32.996  21.503  25.233  1.00  0.00     0.130 A 
BRANCH   9  14
ATOM     14  N   UNL A   1      33.452  23.858  21.746  1.00  0.00    -0.322 N 
ATOM     15  C   UNL A   1      32.863  25.034  21.332  1.00  0.00     0.248 C 
ATOM     16  O   UNL A   1      32.948  25.450  20.182  1.00  0.00    -0.270 OA
ATOM     17  H   UNL A   1      34.141  23.504  21.138  1.00  0.00     0.170 HD
BRANCH  15  18
ATOM     18  C   UNL A   1      32.290  25.875  22.397  1.00  0.00     0.075 C 
ATOM     19  C   UNL A   1      33.091  26.867  22.810  1.00  0.00     0.053 C 
BRANCH  19  20
ATOM     20  C   UNL A   1      32.946  27.370  24.123  1.00  0.00     0.127 A 
ATOM     21  C   UNL A   1      32.935  28.735  25.852  1.00  0.00     0.135 A 
ATOM     22  C   UNL A   1      32.660  27.487  26.359  1.00  0.00     0.051 A 
ATOM     23  O   UNL A   1      33.067  28.685  24.498  1.00  0.00    -0.457 OA
ATOM     24  C   UNL A   1      32.684  26.613  25.257  1.00  0.00     0.051 A 
BRANCH  21  25
ATOM     25  C   UNL A   1      33.158  30.022  26.481  1.00  0.00     0.021 A 
ATOM     26  C   UNL A   1      35.530  29.345  27.177  1.00  0.00     0.045 C 
ATOM     27  C   UNL A   1      34.369  30.309  27.148  1.00  0.00    -0.033 A 
ATOM     28  C   UNL A   1      34.495  31.520  27.850  1.00  0.00     0.089 A 
ATOM     29  C   UNL A   1      33.441  32.443  27.856  1.00  0.00     0.269 A 
ATOM     30  C   UNL A   1      32.122  30.969  26.473  1.00  0.00     0.019 A 
ATOM     31  C   UNL A   1      32.258  32.179  27.158  1.00  0.00     0.086 A 
BRANCH  29  32
ATOM     32  N   UNL A   1      33.573  33.692  28.615  1.00  0.00     0.062 N 
ATOM     33  O   UNL A   1      34.709  34.045  28.964  1.00  0.00    -0.258 OA
ATOM     34  O   UNL A   1      32.536  34.320  28.879  1.00  0.00    -0.258 OA
ENDBRANCH  29  32
ENDBRANCH  21  25
ENDBRANCH  19  20
ENDBRANCH  15  18
ENDBRANCH   9  14
BRANCH  13  35
ATOM     35  O   UNL A   1      32.775  20.728  26.338  1.00  0.00    -0.507 OA
ATOM     36  H   UNL A   1      33.451  20.621  26.978  1.00  0.00     0.293 HD
ENDBRANCH  13  35
ENDBRANCH   6   8
ENDBRANCH   5   6
ENDBRANCH   4   5
ENDBRANCH   3   4
ENDBRANCH   2   3
ENDBRANCH   1   2
BRANCH   1  37
ATOM     37  C   UNL A   1      41.070  23.781  27.112  1.00  0.00     0.188 C 
BRANCH  37  38
ATOM     38  O   UNL A   1      41.899  22.679  26.756  1.00  0.00    -0.376 OA
BRANCH  38  39
ATOM     39  C   UNL A   1      42.591  22.813  25.519  1.00  0.00     0.202 C 
BRANCH  39  40
ATOM     40  C   UNL A   1      43.615  21.690  25.281  1.00  0.00     0.261 C 
BRANCH  40  41
ATOM     41  O   UNL A   1      44.832  21.967  26.010  1.00  0.00    -0.460 OA
BRANCH  41  42
ATOM     42  C   UNL A   1      45.566  23.010  25.535  1.00  0.00     0.338 C 
ATOM     43  O   UNL A   1      45.925  23.119  24.359  1.00  0.00    -0.246 OA
BRANCH  42  44
ATOM     44  C   UNL A   1      45.866  23.995  26.614  1.00  0.00     0.060 A 
ATOM     45  C   UNL A   1      45.677  23.741  27.985  1.00  0.00     0.016 A 
ATOM     46  C   UNL A   1      46.194  25.278  26.241  1.00  0.00     0.016 A 
ATOM     47  C   UNL A   1      45.711  24.799  28.945  1.00  0.00     0.010 A 
ATOM     48  C   UNL A   1      46.085  26.290  27.177  1.00  0.00     0.010 A 
ATOM     49  C   UNL A   1      45.860  26.118  28.529  1.00  0.00    -0.014 A 
BRANCH  49  50
ATOM     50  C   UNL A   1      45.659  27.426  29.214  1.00  0.00     0.031 A 
ATOM     51  C   UNL A   1      44.324  28.061  29.459  1.00  0.00     0.074 A 
ATOM     52  C   UNL A   1      46.653  27.815  30.035  1.00  0.00     0.049 A 
ATOM     53  N   UNL A   1      43.794  28.269  30.628  1.00  0.00    -0.248 NA
ATOM     54  C   UNL A   1      43.475  28.502  28.350  1.00  0.00     0.031 C 
ATOM     55  C   UNL A   1      46.652  28.878  31.027  1.00  0.00     0.029 A 
ATOM     56  N   UNL A   1      47.995  27.519  29.851  1.00  0.00    -0.354 N 
ATOM     57  C   UNL A   1      42.583  28.923  30.460  1.00  0.00     0.074 A 
ATOM     58  C   UNL A   1      42.394  28.945  29.002  1.00  0.00     0.031 C 
ATOM     59  C   UNL A   1      47.881  29.421  31.039  1.00  0.00     0.029 A 
ATOM     60  C   UNL A   1      48.659  28.756  30.004  1.00  0.00     0.049 A 
ATOM     61  H   UNL A   1      48.396  26.642  29.657  1.00  0.00     0.167 HD
ATOM     62  C   UNL A   1      42.301  30.069  31.152  1.00  0.00     0.034 A 
ATOM     63  C   UNL A   1      49.158  29.300  28.852  1.00  0.00     0.034 A 
ATOM     64  C   UNL A   1      43.390  31.020  31.180  1.00  0.00     0.049 A 
ATOM     65  C   UNL A   1      48.300  30.473  28.369  1.00  0.00     0.074 A 
ATOM     66  C   UNL A   1      44.288  31.529  32.096  1.00  0.00     0.029 A 
ATOM     67  N   UNL A   1      43.778  31.527  29.961  1.00  0.00    -0.354 N 
ATOM     68  N   UNL A   1      47.326  31.011  29.064  1.00  0.00    -0.248 NA
ATOM     69  C   UNL A   1      48.417  31.097  27.051  1.00  0.00     0.031 C 
ATOM     70  C   UNL A   1      45.304  32.233  31.360  1.00  0.00     0.029 A 
ATOM     71  C   UNL A   1      44.978  32.189  30.015  1.00  0.00     0.049 A 
ATOM     72  H   UNL A   1      43.249  31.425  29.136  1.00  0.00     0.167 HD
ATOM     73  C   UNL A   1      46.671  31.951  28.316  1.00  0.00     0.074 A 
ATOM     74  C   UNL A   1      47.400  31.978  27.061  1.00  0.00     0.031 C 
ATOM     75  C   UNL A   1      45.554  32.614  28.747  1.00  0.00     0.034 A 
BRANCH  62  76
ATOM     76  C   UNL A   1      40.959  30.203  31.826  1.00  0.00     0.023 A 
ATOM     77  C   UNL A   1      39.848  30.751  31.152  1.00  0.00     0.031 A 
ATOM     78  C   UNL A   1      40.747  29.833  33.175  1.00  0.00     0.131 A 
ATOM     79  C   UNL A   1      38.619  30.946  31.823  1.00  0.00     0.055 A 
ATOM     80  C   UNL A   1      39.535  30.046  33.842  1.00  0.00     0.041 A 
ATOM     81  F   UNL A   1      41.703  29.219  33.886  1.00  0.00    -0.206 F 
ATOM     82  C   UNL A   1      38.464  30.611  33.168  1.00  0.00     0.022 A 
BRANCH  79  83
ATOM     83  S   UNL A   1      37.205  31.656  30.927  1.00  0.00     0.124 S 
ATOM     84  O   UNL A   1      36.377  32.176  32.009  1.00  0.00    -0.237 OA
ATOM     85  O   UNL A   1      37.849  32.646  30.071  1.00  0.00    -0.237 OA
ATOM     86  O   UNL A   1      36.639  30.508  30.217  1.00  0.00    -0.744 OA
ENDBRANCH  79  83
ENDBRANCH  62  76
BRANCH  63  87
ATOM     87  C   UNL A   1      49.868  28.221  28.053  1.00  0.00     0.023 A 
ATOM     88  C   UNL A   1      49.191  27.787  26.876  1.00  0.00     0.031 A 
ATOM     89  C   UNL A   1      51.237  27.938  28.121  1.00  0.00     0.131 A 
ATOM     90  C   UNL A   1      49.906  27.374  25.742  1.00  0.00     0.055 A 
ATOM     91  C   UNL A   1      51.924  27.361  27.035  1.00  0.00     0.041 A 
ATOM     92  F   UNL A   1      51.978  28.344  29.161  1.00  0.00    -0.206 F 
ATOM     93  C   UNL A   1      51.276  27.145  25.817  1.00  0.00     0.022 A 
BRANCH  90  94
ATOM     94  S   UNL A   1      49.110  27.523  24.105  1.00  0.00     0.124 S 
ATOM     95  O   UNL A   1      49.052  26.134  23.665  1.00  0.00    -0.237 OA
ATOM     96  O   UNL A   1      47.828  28.153  24.415  1.00  0.00    -0.237 OA
ATOM     97  O   UNL A   1      50.023  28.389  23.360  1.00  0.00    -0.744 OA
ENDBRANCH  90  94
ENDBRANCH  63  87
BRANCH  75  98
ATOM     98  C   UNL A   1      44.884  33.700  27.937  1.00  0.00     0.023 A 
ATOM     99  C   UNL A   1      44.921  35.033  28.368  1.00  0.00     0.031 A 
ATOM    100  C   UNL A   1      44.119  33.443  26.774  1.00  0.00     0.131 A 
ATOM    101  C   UNL A   1      44.284  36.043  27.631  1.00  0.00     0.055 A 
ATOM    102  C   UNL A   1      43.399  34.435  26.105  1.00  0.00     0.041 A 
ATOM    103  F   UNL A   1      44.082  32.229  26.204  1.00  0.00    -0.206 F 
ATOM    104  C   UNL A   1      43.488  35.752  26.525  1.00  0.00     0.022 A 
BRANCH 101 105
ATOM    105  S   UNL A   1      44.612  37.762  28.087  1.00  0.00     0.124 S 
ATOM    106  O   UNL A   1      46.012  37.722  28.494  1.00  0.00    -0.237 OA
ATOM    107  O   UNL A   1      44.336  38.451  26.828  1.00  0.00    -0.237 OA
ATOM    108  O   UNL A   1      43.656  38.023  29.161  1.00  0.00    -0.744 OA
ENDBRANCH 101 105
ENDBRANCH  75  98
ENDBRANCH  49  50
ENDBRANCH  42  44
ENDBRANCH  41  42
ENDBRANCH  40  41
ENDBRANCH  39  40
ENDBRANCH  38  39
ENDBRANCH  37  38
ENDBRANCH   1  37
TORSDOF 26
ENDMDL
MODEL 3
REMARK VINA RESULT:      -9.2      3.952      9.547
REMARK SMILES Cc1cc([N+](=O)[O-])ccc1-c1ccc(/C=C/C(=O)Nc2ccc(O)c(C(=O)OCCOCCOCCOC(=O)c3ccc(-c4c5nc(c(-c6cc(S(=O)(=O)[O-])ccc6F)c6ccc([nH]6)c(-c6cc(S(=O)(=O)[O-])ccc6F)c6nc(c(-c7cc(S(=O)(=O)[O-])ccc7F)c7ccc4[nH]7)C=C6)C=C5)cc3)c2)o1
REMARK SMILES IDX 32 1 31 2 30 3 29 4 28 5 26 6 27 7 25 8 20 9 21 10 103 11
REMARK SMILES IDX 22 12 23 13 19 14 17 15 18 16 16 18 15 19 14 20 11 21 12 22
REMARK SMILES IDX 104 23 13 24 10 25 1 26 2 27 3 28 4 29 9 30 8 31 5 32 6 33
REMARK SMILES IDX 7 34 24 35 33 37 34 38 35 39 36 40 37 41 38 42 39 43 40 44
REMARK SMILES IDX 41 45 102 46 42 47 101 48 43 49 44 50 45 51 95 52 46 53
REMARK SMILES IDX 100 54 94 55 96 56 47 57 99 58 93 59 92 60 48 62 80 63 60 64
REMARK SMILES IDX 79 65 61 66 64 67 78 68 97 69 62 70 63 71 77 73 98 74 65 75
REMARK SMILES IDX 49 76 50 77 58 78 51 79 57 80 59 81 56 82 52 83 53 84 54 85
REMARK SMILES IDX 55 86 81 87 82 88 90 89 83 90 89 91 91 92 88 93 84 94 85 95
REMARK SMILES IDX 86 96 87 97 66 98 67 99 75 100 68 101 74 102 76 103 73 104
REMARK SMILES IDX 69 105 70 106 71 107 72 108
REMARK H PARENT 19 17 24 36 96 61 64 72
REMARK Flexibility Score: inf
ROOT
ATOM      1  C   UNL A   1      39.267  23.225  26.804  1.00  0.00     0.188 C 
ENDROOT
BRANCH   1   2
ATOM      2  O   UNL A   1      38.284  24.096  26.228  1.00  0.00    -0.376 OA
BRANCH   2   3
ATOM      3  C   UNL A   1      37.273  23.656  25.317  1.00  0.00     0.202 C 
BRANCH   3   4
ATOM      4  C   UNL A   1      36.983  22.118  25.287  1.00  0.00     0.261 C 
BRANCH   4   5
ATOM      5  O   UNL A   1      35.878  21.676  26.150  1.00  0.00    -0.460 OA
BRANCH   5   6
ATOM      6  C   UNL A   1      34.705  22.348  25.996  1.00  0.00     0.342 C 
ATOM      7  O   UNL A   1      34.182  23.030  26.871  1.00  0.00    -0.246 OA
BRANCH   6   8
ATOM      8  C   UNL A   1      33.933  22.074  24.739  1.00  0.00     0.103 A 
ATOM      9  C   UNL A   1      33.139  22.835  22.511  1.00  0.00     0.042 A 
ATOM     10  C   UNL A   1      32.120  21.895  22.557  1.00  0.00     0.030 A 
ATOM     11  C   UNL A   1      34.017  22.900  23.606  1.00  0.00     0.045 A 
ATOM     12  C   UNL A   1      32.020  21.039  23.664  1.00  0.00     0.049 A 
ATOM     13  C   UNL A   1      32.907  21.135  24.746  1.00  0.00     0.130 A 
BRANCH   9  14
ATOM     14  N   UNL A   1      33.370  23.692  21.405  1.00  0.00    -0.322 N 
ATOM     15  C   UNL A   1      32.878  24.951  21.134  1.00  0.00     0.248 C 
ATOM     16  O   UNL A   1      32.929  25.458  20.019  1.00  0.00    -0.270 OA
ATOM     17  H   UNL A   1      33.978  23.330  20.720  1.00  0.00     0.170 HD
BRANCH  15  18
ATOM     18  C   UNL A   1      32.465  25.746  22.304  1.00  0.00     0.075 C 
ATOM     19  C   UNL A   1      33.428  26.530  22.808  1.00  0.00     0.053 C 
BRANCH  19  20
ATOM     20  C   UNL A   1      33.380  26.891  24.173  1.00  0.00     0.127 A 
ATOM     21  C   UNL A   1      33.620  28.021  26.050  1.00  0.00     0.135 A 
ATOM     22  C   UNL A   1      33.128  26.790  26.415  1.00  0.00     0.051 A 
ATOM     23  O   UNL A   1      33.735  28.110  24.696  1.00  0.00    -0.457 OA
ATOM     24  C   UNL A   1      32.992  26.062  25.218  1.00  0.00     0.051 A 
BRANCH  21  25
ATOM     25  C   UNL A   1      34.071  29.164  26.818  1.00  0.00     0.021 A 
ATOM     26  C   UNL A   1      31.855  30.389  26.420  1.00  0.00     0.045 C 
ATOM     27  C   UNL A   1      33.260  30.310  26.966  1.00  0.00    -0.033 A 
ATOM     28  C   UNL A   1      33.785  31.443  27.612  1.00  0.00     0.089 A 
ATOM     29  C   UNL A   1      35.087  31.417  28.130  1.00  0.00     0.269 A 
ATOM     30  C   UNL A   1      35.363  29.145  27.367  1.00  0.00     0.019 A 
ATOM     31  C   UNL A   1      35.875  30.267  28.022  1.00  0.00     0.086 A 
BRANCH  29  32
ATOM     32  N   UNL A   1      35.635  32.615  28.778  1.00  0.00     0.062 N 
ATOM     33  O   UNL A   1      35.270  32.871  29.934  1.00  0.00    -0.258 OA
ATOM     34  O   UNL A   1      36.425  33.314  28.125  1.00  0.00    -0.258 OA
ENDBRANCH  29  32
ENDBRANCH  21  25
ENDBRANCH  19  20
ENDBRANCH  15  18
ENDBRANCH   9  14
BRANCH  13  35
ATOM     35  O   UNL A   1      32.687  20.290  25.797  1.00  0.00    -0.507 OA
ATOM     36  H   UNL A   1      33.284  19.587  25.966  1.00  0.00     0.293 HD
ENDBRANCH  13  35
ENDBRANCH   6   8
ENDBRANCH   5   6
ENDBRANCH   4   5
ENDBRANCH   3   4
ENDBRANCH   2   3
ENDBRANCH   1   2
BRANCH   1  37
ATOM     37  C   UNL A   1      40.770  23.535  26.793  1.00  0.00     0.188 C 
BRANCH  37  38
ATOM     38  O   UNL A   1      41.548  22.349  26.914  1.00  0.00    -0.376 OA
BRANCH  38  39
ATOM     39  C   UNL A   1      42.125  21.873  25.702  1.00  0.00     0.202 C 
BRANCH  39  40
ATOM     40  C   UNL A   1      43.291  20.898  25.936  1.00  0.00     0.261 C 
BRANCH  40  41
ATOM     41  O   UNL A   1      44.545  21.617  25.943  1.00  0.00    -0.460 OA
BRANCH  41  42
ATOM     42  C   UNL A   1      44.953  22.078  24.729  1.00  0.00     0.338 C 
ATOM     43  O   UNL A   1      44.729  21.498  23.662  1.00  0.00    -0.246 OA
BRANCH  42  44
ATOM     44  C   UNL A   1      45.690  23.367  24.861  1.00  0.00     0.060 A 
ATOM     45  C   UNL A   1      46.605  23.851  23.907  1.00  0.00     0.016 A 
ATOM     46  C   UNL A   1      45.592  24.047  26.054  1.00  0.00     0.016 A 
ATOM     47  C   UNL A   1      47.483  24.937  24.208  1.00  0.00     0.010 A 
ATOM     48  C   UNL A   1      46.545  25.001  26.354  1.00  0.00     0.010 A 
ATOM     49  C   UNL A   1      47.499  25.492  25.483  1.00  0.00    -0.014 A 
BRANCH  49  50
ATOM     50  C   UNL A   1      48.449  26.403  26.181  1.00  0.00     0.031 A 
ATOM     51  C   UNL A   1      49.936  26.215  26.218  1.00  0.00     0.074 A 
ATOM     52  C   UNL A   1      48.013  27.661  26.383  1.00  0.00     0.049 A 
ATOM     53  N   UNL A   1      50.808  27.012  25.678  1.00  0.00    -0.248 NA
ATOM     54  C   UNL A   1      50.541  25.059  26.885  1.00  0.00     0.031 C 
ATOM     55  C   UNL A   1      48.771  28.835  26.784  1.00  0.00     0.029 A 
ATOM     56  N   UNL A   1      46.691  28.017  26.599  1.00  0.00    -0.354 N 
ATOM     57  C   UNL A   1      52.081  26.544  25.965  1.00  0.00     0.074 A 
ATOM     58  C   UNL A   1      51.840  25.258  26.636  1.00  0.00     0.031 C 
ATOM     59  C   UNL A   1      47.976  29.580  27.570  1.00  0.00     0.029 A 
ATOM     60  C   UNL A   1      46.727  28.853  27.736  1.00  0.00     0.049 A 
ATOM     61  H   UNL A   1      45.902  27.746  26.077  1.00  0.00     0.167 HD
ATOM     62  C   UNL A   1      53.031  27.371  26.502  1.00  0.00     0.034 A 
ATOM     63  C   UNL A   1      46.223  28.305  28.884  1.00  0.00     0.034 A 
ATOM     64  C   UNL A   1      52.541  28.201  27.580  1.00  0.00     0.049 A 
ATOM     65  C   UNL A   1      47.340  27.907  29.852  1.00  0.00     0.074 A 
ATOM     66  C   UNL A   1      52.268  29.534  27.808  1.00  0.00     0.029 A 
ATOM     67  N   UNL A   1      52.097  27.535  28.699  1.00  0.00    -0.354 N 
ATOM     68  N   UNL A   1      48.603  28.222  29.691  1.00  0.00    -0.248 NA
ATOM     69  C   UNL A   1      47.149  27.077  31.040  1.00  0.00     0.031 C 
ATOM     70  C   UNL A   1      51.514  29.617  29.031  1.00  0.00     0.029 A 
ATOM     71  C   UNL A   1      51.391  28.341  29.555  1.00  0.00     0.049 A 
ATOM     72  H   UNL A   1      52.267  26.579  28.866  1.00  0.00     0.167 HD
ATOM     73  C   UNL A   1      49.370  27.619  30.651  1.00  0.00     0.074 A 
ATOM     74  C   UNL A   1      48.409  26.918  31.484  1.00  0.00     0.031 C 
ATOM     75  C   UNL A   1      50.736  27.693  30.681  1.00  0.00     0.034 A 
BRANCH  62  76
ATOM     76  C   UNL A   1      54.418  27.368  25.914  1.00  0.00     0.023 A 
ATOM     77  C   UNL A   1      55.281  26.262  26.068  1.00  0.00     0.031 A 
ATOM     78  C   UNL A   1      54.950  28.478  25.217  1.00  0.00     0.131 A 
ATOM     79  C   UNL A   1      56.608  26.307  25.582  1.00  0.00     0.055 A 
ATOM     80  C   UNL A   1      56.270  28.527  24.755  1.00  0.00     0.041 A 
ATOM     81  F   UNL A   1      54.193  29.547  24.931  1.00  0.00    -0.206 F 
ATOM     82  C   UNL A   1      57.110  27.440  24.941  1.00  0.00     0.022 A 
BRANCH  79  83
ATOM     83  S   UNL A   1      57.696  24.866  25.797  1.00  0.00     0.124 S 
ATOM     84  O   UNL A   1      58.998  25.396  25.408  1.00  0.00    -0.237 OA
ATOM     85  O   UNL A   1      57.520  24.557  27.212  1.00  0.00    -0.237 OA
ATOM     86  O   UNL A   1      57.137  23.874  24.878  1.00  0.00    -0.744 OA
ENDBRANCH  79  83
ENDBRANCH  62  76
BRANCH  63  87
ATOM     87  C   UNL A   1      44.910  27.606  28.573  1.00  0.00     0.023 A 
ATOM     88  C   UNL A   1      44.921  26.190  28.732  1.00  0.00     0.031 A 
ATOM     89  C   UNL A   1      43.653  28.220  28.564  1.00  0.00     0.131 A 
ATOM     90  C   UNL A   1      43.772  25.502  29.149  1.00  0.00     0.055 A 
ATOM     91  C   UNL A   1      42.475  27.489  28.816  1.00  0.00     0.041 A 
ATOM     92  F   UNL A   1      43.532  29.551  28.470  1.00  0.00    -0.206 F 
ATOM     93  C   UNL A   1      42.538  26.142  29.181  1.00  0.00     0.022 A 
BRANCH  90  94
ATOM     94  S   UNL A   1      43.975  23.904  30.013  1.00  0.00     0.124 S 
ATOM     95  O   UNL A   1      45.140  23.339  29.341  1.00  0.00    -0.237 OA
ATOM     96  O   UNL A   1      44.167  24.303  31.406  1.00  0.00    -0.237 OA
ATOM     97  O   UNL A   1      42.706  23.221  29.768  1.00  0.00    -0.744 OA
ENDBRANCH  90  94
ENDBRANCH  63  87
BRANCH  75  98
ATOM     98  C   UNL A   1      51.563  27.080  31.789  1.00  0.00     0.023 A 
ATOM     99  C   UNL A   1      51.516  25.699  32.028  1.00  0.00     0.031 A 
ATOM    100  C   UNL A   1      52.342  27.842  32.691  1.00  0.00     0.131 A 
ATOM    101  C   UNL A   1      52.266  25.126  33.067  1.00  0.00     0.055 A 
ATOM    102  C   UNL A   1      53.000  27.281  33.788  1.00  0.00     0.041 A 
ATOM    103  F   UNL A   1      52.546  29.156  32.516  1.00  0.00    -0.206 F 
ATOM    104  C   UNL A   1      52.975  25.908  33.976  1.00  0.00     0.022 A 
BRANCH 101 105
ATOM    105  S   UNL A   1      52.383  23.323  33.136  1.00  0.00     0.124 S 
ATOM    106  O   UNL A   1      53.729  23.072  32.635  1.00  0.00    -0.237 OA
ATOM    107  O   UNL A   1      52.180  23.075  34.561  1.00  0.00    -0.237 OA
ATOM    108  O   UNL A   1      51.299  22.873  32.266  1.00  0.00    -0.744 OA
ENDBRANCH 101 105
ENDBRANCH  75  98
ENDBRANCH  49  50
ENDBRANCH  42  44
ENDBRANCH  41  42
ENDBRANCH  40  41
ENDBRANCH  39  40
ENDBRANCH  38  39
ENDBRANCH  37  38
ENDBRANCH   1  37
TORSDOF 26
ENDMDL
