MODEL 1
REMARK VINA RESULT:      -9.9      0.000      0.000
REMARK SMILES CC(C)C[C@@H](CNc1ccc(C(N)=O)cc1)C(=O)OCCOCCOCCOC(=O)c1ccc(-c2c3nc(c(-c4cc(S(=O)(=O)[O-])ccc4F)c4ccc([nH]4)c(-c4cc(S(=O)(=O)[O-])ccc4F)c4nc(c(-c5cc(S(=O)(=O)[O-])ccc5F)c5ccc2[nH]5)C=C4)C=C3)cc1
REMARK SMILES IDX 23 1 22 2 21 3 20 4 19 5 17 6 18 7 5 8 4 9 2 10 1 11 3 12
REMARK SMILES IDX 6 13 7 14 8 16 9 17 16 18 10 19 15 20 11 21 12 22 13 23
REMARK SMILES IDX 14 24 24 27 25 28 26 29 27 30 28 31 29 32 30 33 31 34 32 35
REMARK SMILES IDX 93 36 33 37 92 38 34 39 35 40 36 41 86 42 37 43 91 44 85 45
REMARK SMILES IDX 87 46 38 47 90 48 84 49 83 50 39 52 71 53 51 54 70 55 52 56
REMARK SMILES IDX 55 57 69 58 88 59 53 60 54 61 68 63 89 64 56 65 40 66 41 67
REMARK SMILES IDX 49 68 42 69 48 70 50 71 47 72 43 73 44 74 45 75 46 76 72 77
REMARK SMILES IDX 73 78 81 79 74 80 80 81 82 82 79 83 75 84 76 85 77 86 78 87
REMARK SMILES IDX 57 88 58 89 66 90 59 91 65 92 67 93 64 94 60 95 61 96 62 97
REMARK SMILES IDX 63 98
REMARK H PARENT 7 15 13 25 13 26 87 51 55 62
REMARK Flexibility Score: inf
ROOT
ATOM      1  C   UNL A   1      34.411  26.497  25.752  1.00  0.00     0.188 C 
ENDROOT
BRANCH   1   2
ATOM      2  O   UNL A   1      33.352  27.430  25.906  1.00  0.00    -0.376 OA
BRANCH   2   3
ATOM      3  C   UNL A   1      33.461  28.652  25.184  1.00  0.00     0.202 C 
BRANCH   3   4
ATOM      4  C   UNL A   1      32.714  28.762  23.845  1.00  0.00     0.261 C 
BRANCH   4   5
ATOM      5  O   UNL A   1      32.828  27.626  22.951  1.00  0.00    -0.463 OA
BRANCH   5   6
ATOM      6  C   UNL A   1      31.643  27.036  22.625  1.00  0.00     0.310 C 
ATOM      7  O   UNL A   1      31.452  26.413  21.583  1.00  0.00    -0.252 OA
BRANCH   6   8
ATOM      8  C   UNL A   1      30.530  27.194  23.651  1.00  0.00     0.118 C 
BRANCH   8   9
ATOM      9  C   UNL A   1      29.126  27.631  23.174  1.00  0.00     0.020 C 
BRANCH   9  10
ATOM     10  C   UNL A   1      28.939  29.174  23.093  1.00  0.00    -0.017 C 
ATOM     11  C   UNL A   1      29.656  29.793  21.888  1.00  0.00     0.007 C 
ATOM     12  C   UNL A   1      27.458  29.559  23.044  1.00  0.00     0.007 C 
ENDBRANCH   9  10
ENDBRANCH   8   9
BRANCH   8  13
ATOM     13  C   UNL A   1      30.531  25.900  24.473  1.00  0.00     0.128 C 
BRANCH  13  14
ATOM     14  N   UNL A   1      30.335  24.733  23.616  1.00  0.00    -0.384 N 
ATOM     15  H   UNL A   1      29.810  24.814  22.788  1.00  0.00     0.160 HD
BRANCH  14  16
ATOM     16  C   UNL A   1      30.889  23.511  23.968  1.00  0.00     0.034 A 
ATOM     17  C   UNL A   1      31.637  22.791  23.032  1.00  0.00     0.026 A 
ATOM     18  C   UNL A   1      30.788  22.999  25.263  1.00  0.00     0.026 A 
ATOM     19  C   UNL A   1      32.251  21.577  23.371  1.00  0.00     0.016 A 
ATOM     20  C   UNL A   1      31.384  21.784  25.608  1.00  0.00     0.016 A 
ATOM     21  C   UNL A   1      32.113  21.057  24.662  1.00  0.00     0.039 A 
BRANCH  21  22
ATOM     22  C   UNL A   1      32.679  19.745  25.089  1.00  0.00     0.248 C 
ATOM     23  N   UNL A   1      32.941  19.543  26.415  1.00  0.00    -0.366 N 
ATOM     24  O   UNL A   1      32.930  18.856  24.283  1.00  0.00    -0.270 OA
ATOM     25  H   UNL A   1      32.743  20.251  27.069  1.00  0.00     0.159 HD
ATOM     26  H   UNL A   1      33.328  18.689  26.716  1.00  0.00     0.159 HD
ENDBRANCH  21  22
ENDBRANCH  14  16
ENDBRANCH  13  14
ENDBRANCH   8  13
ENDBRANCH   6   8
ENDBRANCH   5   6
ENDBRANCH   4   5
ENDBRANCH   3   4
ENDBRANCH   2   3
ENDBRANCH   1   2
BRANCH   1  27
ATOM     27  C   UNL A   1      34.006  25.038  25.540  1.00  0.00     0.188 C 
BRANCH  27  28
ATOM     28  O   UNL A   1      35.041  24.073  25.652  1.00  0.00    -0.376 OA
BRANCH  28  29
ATOM     29  C   UNL A   1      34.652  22.762  26.065  1.00  0.00     0.202 C 
BRANCH  29  30
ATOM     30  C   UNL A   1      35.763  21.689  26.151  1.00  0.00     0.261 C 
BRANCH  30  31
ATOM     31  O   UNL A   1      36.876  21.815  25.233  1.00  0.00    -0.460 OA
BRANCH  31  32
ATOM     32  C   UNL A   1      38.079  21.315  25.610  1.00  0.00     0.338 C 
ATOM     33  O   UNL A   1      38.510  20.210  25.320  1.00  0.00    -0.246 OA
BRANCH  32  34
ATOM     34  C   UNL A   1      38.913  22.425  26.170  1.00  0.00     0.060 A 
ATOM     35  C   UNL A   1      38.497  23.745  25.934  1.00  0.00     0.016 A 
ATOM     36  C   UNL A   1      40.018  22.198  26.998  1.00  0.00     0.016 A 
ATOM     37  C   UNL A   1      39.183  24.829  26.503  1.00  0.00     0.010 A 
ATOM     38  C   UNL A   1      40.719  23.286  27.548  1.00  0.00     0.010 A 
ATOM     39  C   UNL A   1      40.319  24.612  27.295  1.00  0.00    -0.014 A 
BRANCH  39  40
ATOM     40  C   UNL A   1      41.174  25.757  27.731  1.00  0.00     0.031 A 
ATOM     41  C   UNL A   1      40.541  26.863  28.539  1.00  0.00     0.074 A 
ATOM     42  C   UNL A   1      42.486  25.832  27.429  1.00  0.00     0.049 A 
ATOM     43  N   UNL A   1      41.049  27.999  28.941  1.00  0.00    -0.248 NA
ATOM     44  C   UNL A   1      39.144  26.651  28.950  1.00  0.00     0.031 C 
ATOM     45  C   UNL A   1      43.251  24.814  26.712  1.00  0.00     0.029 A 
ATOM     46  N   UNL A   1      43.409  26.826  27.677  1.00  0.00    -0.354 N 
ATOM     47  C   UNL A   1      40.034  28.646  29.637  1.00  0.00     0.074 A 
ATOM     48  C   UNL A   1      38.875  27.780  29.589  1.00  0.00     0.031 C 
ATOM     49  C   UNL A   1      44.516  25.245  26.558  1.00  0.00     0.029 A 
ATOM     50  C   UNL A   1      44.647  26.589  27.118  1.00  0.00     0.049 A 
ATOM     51  H   UNL A   1      43.202  27.631  28.204  1.00  0.00     0.167 HD
ATOM     52  C   UNL A   1      40.061  29.852  30.259  1.00  0.00     0.034 A 
ATOM     53  C   UNL A   1      45.742  27.379  27.029  1.00  0.00     0.034 A 
ATOM     54  C   UNL A   1      41.215  30.716  30.303  1.00  0.00     0.049 A 
ATOM     55  C   UNL A   1      45.709  28.770  27.634  1.00  0.00     0.074 A 
ATOM     56  C   UNL A   1      41.345  31.941  30.939  1.00  0.00     0.029 A 
ATOM     57  N   UNL A   1      42.426  30.468  29.675  1.00  0.00    -0.354 N 
ATOM     58  N   UNL A   1      44.746  29.358  28.308  1.00  0.00    -0.248 NA
ATOM     59  C   UNL A   1      46.909  29.603  27.464  1.00  0.00     0.031 C 
ATOM     60  C   UNL A   1      42.600  32.471  30.623  1.00  0.00     0.029 A 
ATOM     61  C   UNL A   1      43.289  31.539  29.866  1.00  0.00     0.049 A 
ATOM     62  H   UNL A   1      42.643  29.652  29.169  1.00  0.00     0.167 HD
ATOM     63  C   UNL A   1      45.241  30.613  28.662  1.00  0.00     0.074 A 
ATOM     64  C   UNL A   1      46.592  30.689  28.152  1.00  0.00     0.031 C 
ATOM     65  C   UNL A   1      44.633  31.616  29.346  1.00  0.00     0.034 A 
BRANCH  52  66
ATOM     66  C   UNL A   1      38.786  30.344  30.896  1.00  0.00     0.023 A 
ATOM     67  C   UNL A   1      37.788  31.003  30.158  1.00  0.00     0.031 A 
ATOM     68  C   UNL A   1      38.557  30.124  32.267  1.00  0.00     0.131 A 
ATOM     69  C   UNL A   1      36.626  31.453  30.803  1.00  0.00     0.055 A 
ATOM     70  C   UNL A   1      37.369  30.510  32.887  1.00  0.00     0.041 A 
ATOM     71  F   UNL A   1      39.486  29.520  33.025  1.00  0.00    -0.206 F 
ATOM     72  C   UNL A   1      36.398  31.187  32.156  1.00  0.00     0.022 A 
BRANCH  69  73
ATOM     73  S   UNL A   1      35.460  32.484  29.874  1.00  0.00     0.124 S 
ATOM     74  O   UNL A   1      36.346  33.499  29.309  1.00  0.00    -0.237 OA
ATOM     75  O   UNL A   1      34.887  31.537  28.924  1.00  0.00    -0.237 OA
ATOM     76  O   UNL A   1      34.539  32.972  30.899  1.00  0.00    -0.744 OA
ENDBRANCH  69  73
ENDBRANCH  52  66
BRANCH  53  77
ATOM     77  C   UNL A   1      46.955  26.936  26.271  1.00  0.00     0.023 A 
ATOM     78  C   UNL A   1      48.001  26.243  26.904  1.00  0.00     0.031 A 
ATOM     79  C   UNL A   1      47.138  27.306  24.925  1.00  0.00     0.131 A 
ATOM     80  C   UNL A   1      49.204  26.005  26.216  1.00  0.00     0.055 A 
ATOM     81  C   UNL A   1      48.307  27.002  24.225  1.00  0.00     0.041 A 
ATOM     82  F   UNL A   1      46.183  27.987  24.273  1.00  0.00    -0.206 F 
ATOM     83  C   UNL A   1      49.357  26.365  24.876  1.00  0.00     0.022 A 
BRANCH  80  84
ATOM     84  S   UNL A   1      50.620  25.343  27.142  1.00  0.00     0.124 S 
ATOM     85  O   UNL A   1      51.022  26.502  27.931  1.00  0.00    -0.237 OA
ATOM     86  O   UNL A   1      50.010  24.243  27.881  1.00  0.00    -0.237 OA
ATOM     87  O   UNL A   1      51.557  24.947  26.093  1.00  0.00    -0.744 OA
ENDBRANCH  80  84
ENDBRANCH  53  77
BRANCH  65  88
ATOM     88  C   UNL A   1      45.439  32.866  29.619  1.00  0.00     0.023 A 
ATOM     89  C   UNL A   1      45.408  33.973  28.751  1.00  0.00     0.031 A 
ATOM     90  C   UNL A   1      46.252  32.951  30.765  1.00  0.00     0.131 A 
ATOM     91  C   UNL A   1      46.213  35.092  29.013  1.00  0.00     0.055 A 
ATOM     92  C   UNL A   1      47.000  34.094  31.054  1.00  0.00     0.041 A 
ATOM     93  F   UNL A   1      46.325  31.927  31.629  1.00  0.00    -0.206 F 
ATOM     94  C   UNL A   1      46.995  35.168  30.169  1.00  0.00     0.022 A 
BRANCH  91  95
ATOM     95  S   UNL A   1      46.296  36.418  27.777  1.00  0.00     0.124 S 
ATOM     96  O   UNL A   1      45.824  37.571  28.537  1.00  0.00    -0.237 OA
ATOM     97  O   UNL A   1      47.711  36.425  27.421  1.00  0.00    -0.237 OA
ATOM     98  O   UNL A   1      45.395  35.960  26.721  1.00  0.00    -0.744 OA
ENDBRANCH  91  95
ENDBRANCH  65  88
ENDBRANCH  39  40
ENDBRANCH  32  34
ENDBRANCH  31  32
ENDBRANCH  30  31
ENDBRANCH  29  30
ENDBRANCH  28  29
ENDBRANCH  27  28
ENDBRANCH   1  27
TORSDOF 26
ENDMDL
MODEL 2
REMARK VINA RESULT:      -9.5      2.206      4.268
REMARK SMILES CC(C)C[C@@H](CNc1ccc(C(N)=O)cc1)C(=O)OCCOCCOCCOC(=O)c1ccc(-c2c3nc(c(-c4cc(S(=O)(=O)[O-])ccc4F)c4ccc([nH]4)c(-c4cc(S(=O)(=O)[O-])ccc4F)c4nc(c(-c5cc(S(=O)(=O)[O-])ccc5F)c5ccc2[nH]5)C=C4)C=C3)cc1
REMARK SMILES IDX 23 1 22 2 21 3 20 4 19 5 17 6 18 7 5 8 4 9 2 10 1 11 3 12
REMARK SMILES IDX 6 13 7 14 8 16 9 17 16 18 10 19 15 20 11 21 12 22 13 23
REMARK SMILES IDX 14 24 24 27 25 28 26 29 27 30 28 31 29 32 30 33 31 34 32 35
REMARK SMILES IDX 93 36 33 37 92 38 34 39 35 40 36 41 86 42 37 43 91 44 85 45
REMARK SMILES IDX 87 46 38 47 90 48 84 49 83 50 39 52 71 53 51 54 70 55 52 56
REMARK SMILES IDX 55 57 69 58 88 59 53 60 54 61 68 63 89 64 56 65 40 66 41 67
REMARK SMILES IDX 49 68 42 69 48 70 50 71 47 72 43 73 44 74 45 75 46 76 72 77
REMARK SMILES IDX 73 78 81 79 74 80 80 81 82 82 79 83 75 84 76 85 77 86 78 87
REMARK SMILES IDX 57 88 58 89 66 90 59 91 65 92 67 93 64 94 60 95 61 96 62 97
REMARK SMILES IDX 63 98
REMARK H PARENT 7 15 13 25 13 26 87 51 55 62
REMARK Flexibility Score: inf
ROOT
ATOM      1  C   UNL A   1      33.429  23.231  26.661  1.00  0.00     0.188 C 
ENDROOT
BRANCH   1   2
ATOM      2  O   UNL A   1      32.095  22.936  27.049  1.00  0.00    -0.376 OA
BRANCH   2   3
ATOM      3  C   UNL A   1      31.124  23.957  26.840  1.00  0.00     0.202 C 
BRANCH   3   4
ATOM      4  C   UNL A   1      31.138  24.692  25.490  1.00  0.00     0.261 C 
BRANCH   4   5
ATOM      5  O   UNL A   1      30.713  26.078  25.510  1.00  0.00    -0.463 OA
BRANCH   5   6
ATOM      6  C   UNL A   1      31.408  26.900  24.673  1.00  0.00     0.310 C 
ATOM      7  O   UNL A   1      30.995  27.990  24.284  1.00  0.00    -0.252 OA
BRANCH   6   8
ATOM      8  C   UNL A   1      32.768  26.381  24.227  1.00  0.00     0.118 C 
BRANCH   8   9
ATOM      9  C   UNL A   1      33.132  26.424  22.726  1.00  0.00     0.020 C 
BRANCH   9  10
ATOM     10  C   UNL A   1      32.443  25.317  21.876  1.00  0.00    -0.017 C 
ATOM     11  C   UNL A   1      32.642  25.519  20.370  1.00  0.00     0.007 C 
ATOM     12  C   UNL A   1      32.939  23.921  22.262  1.00  0.00     0.007 C 
ENDBRANCH   9  10
ENDBRANCH   8   9
BRANCH   8  13
ATOM     13  C   UNL A   1      33.796  27.064  25.135  1.00  0.00     0.128 C 
BRANCH  13  14
ATOM     14  N   UNL A   1      33.157  27.625  26.323  1.00  0.00    -0.384 N 
ATOM     15  H   UNL A   1      32.465  27.112  26.797  1.00  0.00     0.160 HD
BRANCH  14  16
ATOM     16  C   UNL A   1      33.525  28.880  26.785  1.00  0.00     0.034 A 
ATOM     17  C   UNL A   1      32.614  29.939  26.726  1.00  0.00     0.026 A 
ATOM     18  C   UNL A   1      34.765  29.113  27.383  1.00  0.00     0.026 A 
ATOM     19  C   UNL A   1      32.938  31.206  27.230  1.00  0.00     0.016 A 
ATOM     20  C   UNL A   1      35.104  30.375  27.876  1.00  0.00     0.016 A 
ATOM     21  C   UNL A   1      34.196  31.436  27.795  1.00  0.00     0.039 A 
BRANCH  21  22
ATOM     22  C   UNL A   1      34.646  32.766  28.297  1.00  0.00     0.248 C 
ATOM     23  N   UNL A   1      34.472  33.063  29.620  1.00  0.00    -0.366 N 
ATOM     24  O   UNL A   1      35.149  33.601  27.554  1.00  0.00    -0.270 OA
ATOM     25  H   UNL A   1      34.069  32.399  30.224  1.00  0.00     0.159 HD
ATOM     26  H   UNL A   1      34.749  33.941  29.968  1.00  0.00     0.159 HD
ENDBRANCH  21  22
ENDBRANCH  14  16
ENDBRANCH  13  14
ENDBRANCH   8  13
ENDBRANCH   6   8
ENDBRANCH   5   6
ENDBRANCH   4   5
ENDBRANCH   3   4
ENDBRANCH   2   3
ENDBRANCH   1   2
BRANCH   1  27
ATOM     27  C   UNL A   1      34.462  22.129  26.890  1.00  0.00     0.188 C 
BRANCH  27  28
ATOM     28  O   UNL A   1      34.565  21.139  25.879  1.00  0.00    -0.376 OA
BRANCH  28  29
ATOM     29  C   UNL A   1      35.283  21.503  24.699  1.00  0.00     0.202 C 
BRANCH  29  30
ATOM     30  C   UNL A   1      36.824  21.365  24.737  1.00  0.00     0.261 C 
BRANCH  30  31
ATOM     31  O   UNL A   1      37.503  21.864  25.914  1.00  0.00    -0.460 OA
BRANCH  31  32
ATOM     32  C   UNL A   1      38.767  21.437  26.157  1.00  0.00     0.338 C 
ATOM     33  O   UNL A   1      39.221  20.348  25.843  1.00  0.00    -0.246 OA
BRANCH  32  34
ATOM     34  C   UNL A   1      39.600  22.604  26.589  1.00  0.00     0.060 A 
ATOM     35  C   UNL A   1      39.276  23.871  26.077  1.00  0.00     0.016 A 
ATOM     36  C   UNL A   1      40.608  22.499  27.553  1.00  0.00     0.016 A 
ATOM     37  C   UNL A   1      39.959  25.018  26.509  1.00  0.00     0.010 A 
ATOM     38  C   UNL A   1      41.308  23.646  27.966  1.00  0.00     0.010 A 
ATOM     39  C   UNL A   1      41.002  24.914  27.438  1.00  0.00    -0.014 A 
BRANCH  39  40
ATOM     40  C   UNL A   1      41.869  26.092  27.746  1.00  0.00     0.031 A 
ATOM     41  C   UNL A   1      41.284  27.228  28.548  1.00  0.00     0.074 A 
ATOM     42  C   UNL A   1      43.150  26.171  27.332  1.00  0.00     0.049 A 
ATOM     43  N   UNL A   1      41.803  28.391  28.849  1.00  0.00    -0.248 NA
ATOM     44  C   UNL A   1      39.930  27.017  29.082  1.00  0.00     0.031 C 
ATOM     45  C   UNL A   1      43.872  25.128  26.605  1.00  0.00     0.029 A 
ATOM     46  N   UNL A   1      44.072  27.189  27.454  1.00  0.00    -0.354 N 
ATOM     47  C   UNL A   1      40.836  29.057  29.595  1.00  0.00     0.074 A 
ATOM     48  C   UNL A   1      39.693  28.173  29.686  1.00  0.00     0.031 C 
ATOM     49  C   UNL A   1      45.112  25.569  26.326  1.00  0.00     0.029 A 
ATOM     50  C   UNL A   1      45.264  26.942  26.807  1.00  0.00     0.049 A 
ATOM     51  H   UNL A   1      43.894  28.017  27.956  1.00  0.00     0.167 HD
ATOM     52  C   UNL A   1      40.892  30.293  30.152  1.00  0.00     0.034 A 
ATOM     53  C   UNL A   1      46.334  27.741  26.589  1.00  0.00     0.034 A 
ATOM     54  C   UNL A   1      42.029  31.175  30.058  1.00  0.00     0.049 A 
ATOM     55  C   UNL A   1      46.324  29.160  27.125  1.00  0.00     0.074 A 
ATOM     56  C   UNL A   1      42.188  32.432  30.620  1.00  0.00     0.029 A 
ATOM     57  N   UNL A   1      43.190  30.913  29.345  1.00  0.00    -0.354 N 
ATOM     58  N   UNL A   1      45.409  29.768  27.847  1.00  0.00    -0.248 NA
ATOM     59  C   UNL A   1      47.491  30.001  26.816  1.00  0.00     0.031 C 
ATOM     60  C   UNL A   1      43.403  32.963  30.175  1.00  0.00     0.029 A 
ATOM     61  C   UNL A   1      44.045  32.004  29.411  1.00  0.00     0.049 A 
ATOM     62  H   UNL A   1      43.379  30.075  28.864  1.00  0.00     0.167 HD
ATOM     63  C   UNL A   1      45.909  31.047  28.096  1.00  0.00     0.074 A 
ATOM     64  C   UNL A   1      47.212  31.115  27.473  1.00  0.00     0.031 C 
ATOM     65  C   UNL A   1      45.341  32.074  28.779  1.00  0.00     0.034 A 
BRANCH  52  66
ATOM     66  C   UNL A   1      39.664  30.799  30.868  1.00  0.00     0.023 A 
ATOM     67  C   UNL A   1      39.619  30.940  32.265  1.00  0.00     0.031 A 
ATOM     68  C   UNL A   1      38.526  31.170  30.129  1.00  0.00     0.131 A 
ATOM     69  C   UNL A   1      38.447  31.402  32.882  1.00  0.00     0.055 A 
ATOM     70  C   UNL A   1      37.388  31.696  30.742  1.00  0.00     0.041 A 
ATOM     71  F   UNL A   1      38.506  31.034  28.794  1.00  0.00    -0.206 F 
ATOM     72  C   UNL A   1      37.341  31.806  32.128  1.00  0.00     0.022 A 
BRANCH  69  73
ATOM     73  S   UNL A   1      38.345  31.369  34.692  1.00  0.00     0.124 S 
ATOM     74  O   UNL A   1      37.118  32.124  34.933  1.00  0.00    -0.237 OA
ATOM     75  O   UNL A   1      38.282  29.940  34.980  1.00  0.00    -0.237 OA
ATOM     76  O   UNL A   1      39.573  32.037  35.118  1.00  0.00    -0.744 OA
ENDBRANCH  69  73
ENDBRANCH  52  66
BRANCH  53  77
ATOM     77  C   UNL A   1      47.488  27.278  25.756  1.00  0.00     0.023 A 
ATOM     78  C   UNL A   1      48.622  26.689  26.340  1.00  0.00     0.031 A 
ATOM     79  C   UNL A   1      47.522  27.528  24.371  1.00  0.00     0.131 A 
ATOM     80  C   UNL A   1      49.764  26.435  25.559  1.00  0.00     0.055 A 
ATOM     81  C   UNL A   1      48.633  27.207  23.587  1.00  0.00     0.041 A 
ATOM     82  F   UNL A   1      46.478  28.107  23.759  1.00  0.00    -0.206 F 
ATOM     83  C   UNL A   1      49.770  26.675  24.184  1.00  0.00     0.022 A 
BRANCH  80  84
ATOM     84  S   UNL A   1      51.292  25.920  26.394  1.00  0.00     0.124 S 
ATOM     85  O   UNL A   1      51.616  27.107  27.176  1.00  0.00    -0.237 OA
ATOM     86  O   UNL A   1      50.846  24.755  27.150  1.00  0.00    -0.237 OA
ATOM     87  O   UNL A   1      52.204  25.633  25.289  1.00  0.00    -0.744 OA
ENDBRANCH  80  84
ENDBRANCH  53  77
BRANCH  65  88
ATOM     88  C   UNL A   1      46.143  33.348  28.922  1.00  0.00     0.023 A 
ATOM     89  C   UNL A   1      45.989  34.426  28.032  1.00  0.00     0.031 A 
ATOM     90  C   UNL A   1      47.078  33.485  29.965  1.00  0.00     0.131 A 
ATOM     91  C   UNL A   1      46.792  35.568  28.168  1.00  0.00     0.055 A 
ATOM     92  C   UNL A   1      47.828  34.650  30.135  1.00  0.00     0.041 A 
ATOM     93  F   UNL A   1      47.271  32.490  30.845  1.00  0.00    -0.206 F 
ATOM     94  C   UNL A   1      47.697  35.696  29.225  1.00  0.00     0.022 A 
BRANCH  91  95
ATOM     95  S   UNL A   1      46.705  36.856  26.892  1.00  0.00     0.124 S 
ATOM     96  O   UNL A   1      47.646  37.850  27.400  1.00  0.00    -0.237 OA
ATOM     97  O   UNL A   1      47.122  36.137  25.693  1.00  0.00    -0.237 OA
ATOM     98  O   UNL A   1      45.301  37.264  26.911  1.00  0.00    -0.744 OA
ENDBRANCH  91  95
ENDBRANCH  65  88
ENDBRANCH  39  40
ENDBRANCH  32  34
ENDBRANCH  31  32
ENDBRANCH  30  31
ENDBRANCH  29  30
ENDBRANCH  28  29
ENDBRANCH  27  28
ENDBRANCH   1  27
TORSDOF 26
ENDMDL
MODEL 3
REMARK VINA RESULT:      -9.3      2.356      4.389
REMARK SMILES CC(C)C[C@@H](CNc1ccc(C(N)=O)cc1)C(=O)OCCOCCOCCOC(=O)c1ccc(-c2c3nc(c(-c4cc(S(=O)(=O)[O-])ccc4F)c4ccc([nH]4)c(-c4cc(S(=O)(=O)[O-])ccc4F)c4nc(c(-c5cc(S(=O)(=O)[O-])ccc5F)c5ccc2[nH]5)C=C4)C=C3)cc1
REMARK SMILES IDX 23 1 22 2 21 3 20 4 19 5 17 6 18 7 5 8 4 9 2 10 1 11 3 12
REMARK SMILES IDX 6 13 7 14 8 16 9 17 16 18 10 19 15 20 11 21 12 22 13 23
REMARK SMILES IDX 14 24 24 27 25 28 26 29 27 30 28 31 29 32 30 33 31 34 32 35
REMARK SMILES IDX 93 36 33 37 92 38 34 39 35 40 36 41 86 42 37 43 91 44 85 45
REMARK SMILES IDX 87 46 38 47 90 48 84 49 83 50 39 52 71 53 51 54 70 55 52 56
REMARK SMILES IDX 55 57 69 58 88 59 53 60 54 61 68 63 89 64 56 65 40 66 41 67
REMARK SMILES IDX 49 68 42 69 48 70 50 71 47 72 43 73 44 74 45 75 46 76 72 77
REMARK SMILES IDX 73 78 81 79 74 80 80 81 82 82 79 83 75 84 76 85 77 86 78 87
REMARK SMILES IDX 57 88 58 89 66 90 59 91 65 92 67 93 64 94 60 95 61 96 62 97
REMARK SMILES IDX 63 98
REMARK H PARENT 7 15 13 25 13 26 87 51 55 62
REMARK Flexibility Score: inf
ROOT
ATOM      1  C   UNL A   1      33.014  23.062  26.938  1.00  0.00     0.188 C 
ENDROOT
BRANCH   1   2
ATOM      2  O   UNL A   1      31.773  22.724  27.541  1.00  0.00    -0.376 OA
BRANCH   2   3
ATOM      3  C   UNL A   1      30.594  23.172  26.880  1.00  0.00     0.202 C 
BRANCH   3   4
ATOM      4  C   UNL A   1      30.764  24.054  25.633  1.00  0.00     0.261 C 
BRANCH   4   5
ATOM      5  O   UNL A   1      30.551  25.476  25.819  1.00  0.00    -0.463 OA
BRANCH   5   6
ATOM      6  C   UNL A   1      31.294  26.275  25.001  1.00  0.00     0.310 C 
ATOM      7  O   UNL A   1      30.848  27.256  24.412  1.00  0.00    -0.252 OA
BRANCH   6   8
ATOM      8  C   UNL A   1      32.755  25.875  24.848  1.00  0.00     0.118 C 
BRANCH   8   9
ATOM      9  C   UNL A   1      33.401  25.917  23.444  1.00  0.00     0.020 C 
BRANCH   9  10
ATOM     10  C   UNL A   1      32.688  25.017  22.394  1.00  0.00    -0.017 C 
ATOM     11  C   UNL A   1      32.651  25.654  21.000  1.00  0.00     0.007 C 
ATOM     12  C   UNL A   1      33.346  23.639  22.295  1.00  0.00     0.007 C 
ENDBRANCH   9  10
ENDBRANCH   8   9
BRANCH   8  13
ATOM     13  C   UNL A   1      33.521  26.675  25.908  1.00  0.00     0.128 C 
BRANCH  13  14
ATOM     14  N   UNL A   1      32.635  27.596  26.614  1.00  0.00    -0.384 N 
ATOM     15  H   UNL A   1      31.718  27.319  26.840  1.00  0.00     0.160 HD
BRANCH  14  16
ATOM     16  C   UNL A   1      33.082  28.859  26.968  1.00  0.00     0.034 A 
ATOM     17  C   UNL A   1      34.396  29.033  27.416  1.00  0.00     0.026 A 
ATOM     18  C   UNL A   1      32.284  29.995  26.821  1.00  0.00     0.026 A 
ATOM     19  C   UNL A   1      34.894  30.304  27.734  1.00  0.00     0.016 A 
ATOM     20  C   UNL A   1      32.765  31.265  27.147  1.00  0.00     0.016 A 
ATOM     21  C   UNL A   1      34.072  31.430  27.616  1.00  0.00     0.039 A 
BRANCH  21  22
ATOM     22  C   UNL A   1      34.499  32.809  27.991  1.00  0.00     0.248 C 
ATOM     23  N   UNL A   1      35.745  33.234  27.622  1.00  0.00    -0.366 N 
ATOM     24  O   UNL A   1      33.772  33.559  28.632  1.00  0.00    -0.270 OA
ATOM     25  H   UNL A   1      36.335  32.638  27.107  1.00  0.00     0.159 HD
ATOM     26  H   UNL A   1      36.051  34.135  27.872  1.00  0.00     0.159 HD
ENDBRANCH  21  22
ENDBRANCH  14  16
ENDBRANCH  13  14
ENDBRANCH   8  13
ENDBRANCH   6   8
ENDBRANCH   5   6
ENDBRANCH   4   5
ENDBRANCH   3   4
ENDBRANCH   2   3
ENDBRANCH   1   2
BRANCH   1  27
ATOM     27  C   UNL A   1      34.166  22.082  27.157  1.00  0.00     0.188 C 
BRANCH  27  28
ATOM     28  O   UNL A   1      34.443  21.186  26.093  1.00  0.00    -0.376 OA
BRANCH  28  29
ATOM     29  C   UNL A   1      34.877  21.769  24.862  1.00  0.00     0.202 C 
BRANCH  29  30
ATOM     30  C   UNL A   1      36.399  21.973  24.675  1.00  0.00     0.261 C 
BRANCH  30  31
ATOM     31  O   UNL A   1      37.174  22.293  25.855  1.00  0.00    -0.460 OA
BRANCH  31  32
ATOM     32  C   UNL A   1      38.443  21.821  25.939  1.00  0.00     0.338 C 
ATOM     33  O   UNL A   1      38.856  20.800  25.413  1.00  0.00    -0.246 OA
BRANCH  32  34
ATOM     34  C   UNL A   1      39.321  22.889  26.512  1.00  0.00     0.060 A 
ATOM     35  C   UNL A   1      39.057  24.222  26.157  1.00  0.00     0.016 A 
ATOM     36  C   UNL A   1      40.316  22.624  27.459  1.00  0.00     0.016 A 
ATOM     37  C   UNL A   1      39.785  25.277  26.727  1.00  0.00     0.010 A 
ATOM     38  C   UNL A   1      41.062  23.681  28.011  1.00  0.00     0.010 A 
ATOM     39  C   UNL A   1      40.815  25.016  27.640  1.00  0.00    -0.014 A 
BRANCH  39  40
ATOM     40  C   UNL A   1      41.729  26.109  28.090  1.00  0.00     0.031 A 
ATOM     41  C   UNL A   1      41.187  27.163  29.024  1.00  0.00     0.074 A 
ATOM     42  C   UNL A   1      43.016  26.181  27.693  1.00  0.00     0.049 A 
ATOM     43  N   UNL A   1      41.754  28.256  29.466  1.00  0.00    -0.248 NA
ATOM     44  C   UNL A   1      39.822  26.948  29.525  1.00  0.00     0.031 C 
ATOM     45  C   UNL A   1      43.698  25.204  26.846  1.00  0.00     0.029 A 
ATOM     46  N   UNL A   1      43.980  27.135  27.940  1.00  0.00    -0.354 N 
ATOM     47  C   UNL A   1      40.811  28.869  30.285  1.00  0.00     0.074 A 
ATOM     48  C   UNL A   1      39.630  28.031  30.265  1.00  0.00     0.031 C 
ATOM     49  C   UNL A   1      44.958  25.620  26.625  1.00  0.00     0.029 A 
ATOM     50  C   UNL A   1      45.165  26.917  27.271  1.00  0.00     0.049 A 
ATOM     51  H   UNL A   1      43.834  27.903  28.539  1.00  0.00     0.167 HD
ATOM     52  C   UNL A   1      40.916  30.024  30.989  1.00  0.00     0.034 A 
ATOM     53  C   UNL A   1      46.270  27.690  27.154  1.00  0.00     0.034 A 
ATOM     54  C   UNL A   1      42.091  30.861  31.006  1.00  0.00     0.049 A 
ATOM     55  C   UNL A   1      46.317  29.032  27.859  1.00  0.00     0.074 A 
ATOM     56  C   UNL A   1      42.300  32.031  31.717  1.00  0.00     0.029 A 
ATOM     57  N   UNL A   1      43.244  30.637  30.269  1.00  0.00    -0.354 N 
ATOM     58  N   UNL A   1      45.424  29.587  28.648  1.00  0.00    -0.248 NA
ATOM     59  C   UNL A   1      47.521  29.852  27.657  1.00  0.00     0.031 C 
ATOM     60  C   UNL A   1      43.540  32.559  31.343  1.00  0.00     0.029 A 
ATOM     61  C   UNL A   1      44.145  31.673  30.469  1.00  0.00     0.049 A 
ATOM     62  H   UNL A   1      43.401  29.856  29.689  1.00  0.00     0.167 HD
ATOM     63  C   UNL A   1      45.976  30.802  29.052  1.00  0.00     0.074 A 
ATOM     64  C   UNL A   1      47.286  30.889  28.445  1.00  0.00     0.031 C 
ATOM     65  C   UNL A   1      45.448  31.763  29.853  1.00  0.00     0.034 A 
BRANCH  52  66
ATOM     66  C   UNL A   1      39.705  30.492  31.758  1.00  0.00     0.023 A 
ATOM     67  C   UNL A   1      38.972  31.628  31.377  1.00  0.00     0.031 A 
ATOM     68  C   UNL A   1      39.265  29.767  32.881  1.00  0.00     0.131 A 
ATOM     69  C   UNL A   1      37.862  32.028  32.136  1.00  0.00     0.055 A 
ATOM     70  C   UNL A   1      38.119  30.129  33.589  1.00  0.00     0.041 A 
ATOM     71  F   UNL A   1      39.942  28.687  33.303  1.00  0.00    -0.206 F 
ATOM     72  C   UNL A   1      37.415  31.271  33.222  1.00  0.00     0.022 A 
BRANCH  69  73
ATOM     73  S   UNL A   1      37.068  33.612  31.749  1.00  0.00     0.124 S 
ATOM     74  O   UNL A   1      36.557  33.366  30.403  1.00  0.00    -0.237 OA
ATOM     75  O   UNL A   1      36.065  33.728  32.801  1.00  0.00    -0.237 OA
ATOM     76  O   UNL A   1      38.166  34.574  31.825  1.00  0.00    -0.744 OA
ENDBRANCH  69  73
ENDBRANCH  52  66
BRANCH  53  77
ATOM     77  C   UNL A   1      47.409  27.281  26.273  1.00  0.00     0.023 A 
ATOM     78  C   UNL A   1      47.529  27.764  24.959  1.00  0.00     0.031 A 
ATOM     79  C   UNL A   1      48.331  26.304  26.696  1.00  0.00     0.131 A 
ATOM     80  C   UNL A   1      48.498  27.223  24.096  1.00  0.00     0.055 A 
ATOM     81  C   UNL A   1      49.338  25.823  25.856  1.00  0.00     0.041 A 
ATOM     82  F   UNL A   1      48.256  25.789  27.933  1.00  0.00    -0.206 F 
ATOM     83  C   UNL A   1      49.414  26.268  24.541  1.00  0.00     0.022 A 
BRANCH  80  84
ATOM     84  S   UNL A   1      48.453  27.683  22.340  1.00  0.00     0.124 S 
ATOM     85  O   UNL A   1      47.141  28.313  22.234  1.00  0.00    -0.237 OA
ATOM     86  O   UNL A   1      49.603  28.573  22.230  1.00  0.00    -0.237 OA
ATOM     87  O   UNL A   1      48.587  26.402  21.649  1.00  0.00    -0.744 OA
ENDBRANCH  80  84
ENDBRANCH  53  77
BRANCH  65  88
ATOM     88  C   UNL A   1      46.303  32.973  30.153  1.00  0.00     0.023 A 
ATOM     89  C   UNL A   1      46.258  34.130  29.353  1.00  0.00     0.031 A 
ATOM     90  C   UNL A   1      47.178  32.970  31.255  1.00  0.00     0.131 A 
ATOM     91  C   UNL A   1      47.109  35.210  29.634  1.00  0.00     0.055 A 
ATOM     92  C   UNL A   1      47.974  34.073  31.568  1.00  0.00     0.041 A 
ATOM     93  F   UNL A   1      47.266  31.895  32.054  1.00  0.00    -0.206 F 
ATOM     94  C   UNL A   1      47.952  35.197  30.748  1.00  0.00     0.022 A 
BRANCH  91  95
ATOM     95  S   UNL A   1      47.164  36.603  28.473  1.00  0.00     0.124 S 
ATOM     96  O   UNL A   1      47.870  36.021  27.335  1.00  0.00    -0.237 OA
ATOM     97  O   UNL A   1      45.750  36.894  28.265  1.00  0.00    -0.237 OA
ATOM     98  O   UNL A   1      47.906  37.630  29.203  1.00  0.00    -0.744 OA
ENDBRANCH  91  95
ENDBRANCH  65  88
ENDBRANCH  39  40
ENDBRANCH  32  34
ENDBRANCH  31  32
ENDBRANCH  30  31
ENDBRANCH  29  30
ENDBRANCH  28  29
ENDBRANCH  27  28
ENDBRANCH   1  27
TORSDOF 26
ENDMDL
