MODEL 1
REMARK VINA RESULT:      -8.2      0.000      0.000
REMARK SMILES Cc1ccc(-n2c(C)c(C[NH2+]Cc3ccc(F)cc3)c(C(=O)OCCOCCOCCOC(=O)c3ccc(-c4c5nc(c(-c6cc(S(=O)(=O)[O-])ccc6F)c6ccc([nH]6)c(-c6cc(S(=O)(=O)[O-])ccc6F)c6nc(c(-c7cc(S(=O)(=O)[O-])ccc7F)c7ccc4[nH]7)C=C6)C=C5)cc3)c2C)cc1
REMARK SMILES IDX 27 1 26 2 25 3 24 4 23 5 21 6 22 7 20 8 6 9 7 10 98 11 8 12
REMARK SMILES IDX 9 13 99 14 5 15 1 16 2 17 3 18 101 19 4 20 100 21 10 22
REMARK SMILES IDX 11 23 12 26 13 27 14 28 19 29 15 30 18 31 16 32 17 33 28 34
REMARK SMILES IDX 29 35 30 36 31 37 32 38 33 39 34 40 35 41 36 42 97 43 37 44
REMARK SMILES IDX 96 45 38 46 39 47 40 48 90 49 41 50 95 51 89 52 91 53 42 54
REMARK SMILES IDX 94 55 88 56 87 57 43 59 75 60 55 61 74 62 56 63 59 64 73 65
REMARK SMILES IDX 92 66 57 67 58 68 72 70 93 71 60 72 44 73 45 74 53 75 46 76
REMARK SMILES IDX 52 77 54 78 51 79 47 80 48 81 49 82 50 83 76 84 77 85 85 86
REMARK SMILES IDX 78 87 84 88 86 89 83 90 79 91 80 92 81 93 82 94 61 95 62 96
REMARK SMILES IDX 70 97 63 98 69 99 71 100 68 101 64 102 65 103 66 104 67 105
REMARK H PARENT 11 24 11 25 91 58 59 69
REMARK Flexibility Score: inf
ROOT
ATOM      1  C   UNL A   1      39.096  27.998  31.210  1.00  0.00     0.188 C 
ENDROOT
BRANCH   1   2
ATOM      2  O   UNL A   1      40.110  28.223  30.201  1.00  0.00    -0.376 OA
BRANCH   2   3
ATOM      3  C   UNL A   1      41.528  28.020  30.347  1.00  0.00     0.202 C 
BRANCH   3   4
ATOM      4  C   UNL A   1      42.461  26.814  29.576  1.00  0.00     0.261 C 
BRANCH   4   5
ATOM      5  O   UNL A   1      44.184  26.443  29.672  1.00  0.00    -0.460 OA
BRANCH   5   6
ATOM      6  C   UNL A   1      45.159  25.363  29.284  1.00  0.00     0.340 C 
ATOM      7  O   UNL A   1      46.332  25.262  29.607  1.00  0.00    -0.246 OA
BRANCH   6   8
ATOM      8  C   UNL A   1      44.832  24.272  28.377  1.00  0.00     0.090 A 
ATOM      9  N   UNL A   1      43.280  22.982  27.482  1.00  0.00    -0.317 N 
ATOM     10  C   UNL A   1      44.056  23.379  26.410  1.00  0.00     0.030 A 
ATOM     11  C   UNL A   1      43.864  23.346  28.685  1.00  0.00     0.035 A 
ATOM     12  C   UNL A   1      43.742  23.043  24.988  1.00  0.00     0.065 C 
ATOM     13  C   UNL A   1      45.013  24.276  26.889  1.00  0.00     0.042 A 
ATOM     14  C   UNL A   1      43.272  23.030  30.017  1.00  0.00     0.066 C 
BRANCH   9  15
ATOM     15  C   UNL A   1      41.935  22.572  27.419  1.00  0.00     0.046 A 
ATOM     16  C   UNL A   1      38.259  21.536  25.546  1.00  0.00     0.044 C 
ATOM     17  C   UNL A   1      39.501  21.862  26.317  1.00  0.00    -0.051 A 
ATOM     18  C   UNL A   1      39.748  23.193  26.699  1.00  0.00     0.005 A 
ATOM     19  C   UNL A   1      40.452  20.869  26.584  1.00  0.00     0.005 A 
ATOM     20  C   UNL A   1      40.971  23.557  27.249  1.00  0.00     0.027 A 
ATOM     21  C   UNL A   1      41.676  21.221  27.140  1.00  0.00     0.027 A 
ENDBRANCH   9  15
BRANCH  13  22
ATOM     22  C   UNL A   1      45.821  25.230  25.951  1.00  0.00     0.300 C 
BRANCH  22  23
ATOM     23  N   UNL A   1      45.770  26.606  26.462  1.00  0.00    -0.339 N 
ATOM     24  H   UNL A   1      46.725  26.964  26.435  1.00  0.00     0.346 HD
ATOM     25  H   UNL A   1      45.330  26.498  27.375  1.00  0.00     0.346 HD
BRANCH  23  26
ATOM     26  C   UNL A   1      44.921  27.613  25.798  1.00  0.00     0.297 C 
BRANCH  26  27
ATOM     27  C   UNL A   1      43.448  27.815  26.133  1.00  0.00     0.006 A 
ATOM     28  C   UNL A   1      42.977  29.073  26.589  1.00  0.00     0.012 A 
ATOM     29  C   UNL A   1      42.482  26.829  25.879  1.00  0.00     0.012 A 
ATOM     30  C   UNL A   1      41.621  29.294  26.877  1.00  0.00     0.040 A 
ATOM     31  C   UNL A   1      41.119  27.057  26.143  1.00  0.00     0.040 A 
ATOM     32  C   UNL A   1      40.703  28.278  26.659  1.00  0.00     0.123 A 
ATOM     33  F   UNL A   1      39.414  28.475  26.968  1.00  0.00    -0.207 F 
ENDBRANCH  26  27
ENDBRANCH  23  26
ENDBRANCH  22  23
ENDBRANCH  13  22
ENDBRANCH   6   8
ENDBRANCH   5   6
ENDBRANCH   4   5
ENDBRANCH   3   4
ENDBRANCH   2   3
ENDBRANCH   1   2
BRANCH   1  34
ATOM     34  C   UNL A   1      37.920  28.936  31.501  1.00  0.00     0.188 C 
BRANCH  34  35
ATOM     35  O   UNL A   1      36.962  28.924  30.457  1.00  0.00    -0.376 OA
BRANCH  35  36
ATOM     36  C   UNL A   1      37.118  29.940  29.481  1.00  0.00     0.202 C 
BRANCH  36  37
ATOM     37  C   UNL A   1      36.253  31.201  29.703  1.00  0.00     0.261 C 
BRANCH  37  38
ATOM     38  O   UNL A   1      36.967  32.289  30.346  1.00  0.00    -0.460 OA
BRANCH  38  39
ATOM     39  C   UNL A   1      37.870  32.995  29.577  1.00  0.00     0.338 C 
ATOM     40  O   UNL A   1      37.568  33.569  28.541  1.00  0.00    -0.246 OA
BRANCH  39  41
ATOM     41  C   UNL A   1      39.222  33.014  30.220  1.00  0.00     0.060 A 
ATOM     42  C   UNL A   1      40.350  33.798  29.944  1.00  0.00     0.016 A 
ATOM     43  C   UNL A   1      39.439  32.006  31.076  1.00  0.00     0.016 A 
ATOM     44  C   UNL A   1      41.708  33.427  30.403  1.00  0.00     0.010 A 
ATOM     45  C   UNL A   1      40.751  31.573  31.198  1.00  0.00     0.010 A 
ATOM     46  C   UNL A   1      42.007  32.205  31.002  1.00  0.00    -0.014 A 
BRANCH  46  47
ATOM     47  C   UNL A   1      43.542  31.568  31.399  1.00  0.00     0.031 A 
ATOM     48  C   UNL A   1      44.713  30.608  30.526  1.00  0.00     0.074 A 
ATOM     49  C   UNL A   1      43.950  31.736  32.677  1.00  0.00     0.049 A 
ATOM     50  N   UNL A   1      45.414  29.611  31.033  1.00  0.00    -0.248 NA
ATOM     51  C   UNL A   1      45.068  30.626  29.049  1.00  0.00     0.031 C 
ATOM     52  C   UNL A   1      45.242  31.391  33.264  1.00  0.00     0.029 A 
ATOM     53  N   UNL A   1      43.189  32.154  33.766  1.00  0.00    -0.354 N 
ATOM     54  C   UNL A   1      46.291  29.097  30.050  1.00  0.00     0.074 A 
ATOM     55  C   UNL A   1      45.893  29.633  28.820  1.00  0.00     0.031 C 
ATOM     56  C   UNL A   1      45.100  31.308  34.596  1.00  0.00     0.029 A 
ATOM     57  C   UNL A   1      43.694  31.494  34.895  1.00  0.00     0.049 A 
ATOM     58  H   UNL A   1      42.439  32.792  33.747  1.00  0.00     0.167 HD
ATOM     59  C   UNL A   1      47.431  28.395  30.299  1.00  0.00     0.034 A 
ATOM     60  C   UNL A   1      42.897  30.666  35.619  1.00  0.00     0.034 A 
ATOM     61  C   UNL A   1      47.507  28.132  31.709  1.00  0.00     0.049 A 
ATOM     62  C   UNL A   1      43.414  29.229  35.618  1.00  0.00     0.074 A 
ATOM     63  C   UNL A   1      48.133  28.777  32.757  1.00  0.00     0.029 A 
ATOM     64  N   UNL A   1      46.527  27.324  32.252  1.00  0.00    -0.354 N 
ATOM     65  N   UNL A   1      44.410  28.791  34.891  1.00  0.00    -0.248 NA
ATOM     66  C   UNL A   1      42.850  28.169  36.449  1.00  0.00     0.031 C 
ATOM     67  C   UNL A   1      47.454  28.399  33.946  1.00  0.00     0.029 A 
ATOM     68  C   UNL A   1      46.466  27.487  33.616  1.00  0.00     0.049 A 
ATOM     69  H   UNL A   1      45.953  26.716  31.734  1.00  0.00     0.167 HD
ATOM     70  C   UNL A   1      44.583  27.440  35.081  1.00  0.00     0.074 A 
ATOM     71  C   UNL A   1      43.602  27.110  36.098  1.00  0.00     0.031 C 
ATOM     72  C   UNL A   1      45.498  26.707  34.370  1.00  0.00     0.034 A 
BRANCH  59  73
ATOM     73  C   UNL A   1      48.593  28.287  29.302  1.00  0.00     0.023 A 
ATOM     74  C   UNL A   1      48.730  27.105  28.548  1.00  0.00     0.031 A 
ATOM     75  C   UNL A   1      49.631  29.229  29.095  1.00  0.00     0.131 A 
ATOM     76  C   UNL A   1      49.888  26.847  27.780  1.00  0.00     0.055 A 
ATOM     77  C   UNL A   1      50.828  28.933  28.420  1.00  0.00     0.041 A 
ATOM     78  F   UNL A   1      49.511  30.512  29.467  1.00  0.00    -0.206 F 
ATOM     79  C   UNL A   1      50.968  27.723  27.767  1.00  0.00     0.022 A 
BRANCH  76  80
ATOM     80  S   UNL A   1      49.948  25.359  26.746  1.00  0.00     0.124 S 
ATOM     81  O   UNL A   1      51.350  24.967  26.849  1.00  0.00    -0.237 OA
ATOM     82  O   UNL A   1      48.981  24.489  27.406  1.00  0.00    -0.237 OA
ATOM     83  O   UNL A   1      49.538  25.843  25.427  1.00  0.00    -0.744 OA
ENDBRANCH  76  80
ENDBRANCH  59  73
BRANCH  60  84
ATOM     84  C   UNL A   1      41.465  31.125  35.617  1.00  0.00     0.023 A 
ATOM     85  C   UNL A   1      41.131  32.394  36.155  1.00  0.00     0.031 A 
ATOM     86  C   UNL A   1      40.552  30.570  34.726  1.00  0.00     0.131 A 
ATOM     87  C   UNL A   1      39.972  33.079  35.730  1.00  0.00     0.055 A 
ATOM     88  C   UNL A   1      39.357  31.224  34.377  1.00  0.00     0.041 A 
ATOM     89  F   UNL A   1      40.909  29.500  34.006  1.00  0.00    -0.206 F 
ATOM     90  C   UNL A   1      39.069  32.490  34.855  1.00  0.00     0.022 A 
BRANCH  87  91
ATOM     91  S   UNL A   1      39.743  34.849  36.070  1.00  0.00     0.124 S 
ATOM     92  O   UNL A   1      38.947  35.280  34.926  1.00  0.00    -0.237 OA
ATOM     93  O   UNL A   1      39.063  34.864  37.361  1.00  0.00    -0.237 OA
ATOM     94  O   UNL A   1      41.119  35.347  36.108  1.00  0.00    -0.744 OA
ENDBRANCH  87  91
ENDBRANCH  60  84
BRANCH  72  95
ATOM     95  C   UNL A   1      45.607  25.186  34.298  1.00  0.00     0.023 A 
ATOM     96  C   UNL A   1      46.414  24.429  35.152  1.00  0.00     0.031 A 
ATOM     97  C   UNL A   1      44.807  24.427  33.396  1.00  0.00     0.131 A 
ATOM     98  C   UNL A   1      46.466  23.025  35.054  1.00  0.00     0.055 A 
ATOM     99  C   UNL A   1      44.776  23.028  33.379  1.00  0.00     0.041 A 
ATOM    100  F   UNL A   1      44.013  25.004  32.483  1.00  0.00    -0.206 F 
ATOM    101  C   UNL A   1      45.627  22.315  34.200  1.00  0.00     0.022 A 
BRANCH  98 102
ATOM    102  S   UNL A   1      47.752  22.157  35.985  1.00  0.00     0.124 S 
ATOM    103  O   UNL A   1      46.986  21.102  36.641  1.00  0.00    -0.237 OA
ATOM    104  O   UNL A   1      48.658  21.720  34.927  1.00  0.00    -0.237 OA
ATOM    105  O   UNL A   1      48.284  23.183  36.879  1.00  0.00    -0.744 OA
ENDBRANCH  98 102
ENDBRANCH  72  95
ENDBRANCH  46  47
ENDBRANCH  39  41
ENDBRANCH  38  39
ENDBRANCH  37  38
ENDBRANCH  36  37
ENDBRANCH  35  36
ENDBRANCH  34  35
ENDBRANCH   1  34
TORSDOF 25
ENDMDL
MODEL 2
REMARK VINA RESULT:      -8.2      5.373      8.910
REMARK SMILES Cc1ccc(-n2c(C)c(C[NH2+]Cc3ccc(F)cc3)c(C(=O)OCCOCCOCCOC(=O)c3ccc(-c4c5nc(c(-c6cc(S(=O)(=O)[O-])ccc6F)c6ccc([nH]6)c(-c6cc(S(=O)(=O)[O-])ccc6F)c6nc(c(-c7cc(S(=O)(=O)[O-])ccc7F)c7ccc4[nH]7)C=C6)C=C5)cc3)c2C)cc1
REMARK SMILES IDX 27 1 26 2 25 3 24 4 23 5 21 6 22 7 20 8 6 9 7 10 98 11 8 12
REMARK SMILES IDX 9 13 99 14 5 15 1 16 2 17 3 18 101 19 4 20 100 21 10 22
REMARK SMILES IDX 11 23 12 26 13 27 14 28 19 29 15 30 18 31 16 32 17 33 28 34
REMARK SMILES IDX 29 35 30 36 31 37 32 38 33 39 34 40 35 41 36 42 97 43 37 44
REMARK SMILES IDX 96 45 38 46 39 47 40 48 90 49 41 50 95 51 89 52 91 53 42 54
REMARK SMILES IDX 94 55 88 56 87 57 43 59 75 60 55 61 74 62 56 63 59 64 73 65
REMARK SMILES IDX 92 66 57 67 58 68 72 70 93 71 60 72 44 73 45 74 53 75 46 76
REMARK SMILES IDX 52 77 54 78 51 79 47 80 48 81 49 82 50 83 76 84 77 85 85 86
REMARK SMILES IDX 78 87 84 88 86 89 83 90 79 91 80 92 81 93 82 94 61 95 62 96
REMARK SMILES IDX 70 97 63 98 69 99 71 100 68 101 64 102 65 103 66 104 67 105
REMARK H PARENT 11 24 11 25 91 58 59 69
REMARK Flexibility Score: inf
ROOT
ATOM      1  C   UNL A   1      40.176  24.766  27.296  1.00  0.00     0.188 C 
ENDROOT
BRANCH   1   2
ATOM      2  O   UNL A   1      39.097  23.974  26.745  1.00  0.00    -0.376 OA
BRANCH   2   3
ATOM      3  C   UNL A   1      39.177  22.610  26.291  1.00  0.00     0.202 C 
BRANCH   3   4
ATOM      4  C   UNL A   1      37.919  21.711  25.563  1.00  0.00     0.261 C 
BRANCH   4   5
ATOM      5  O   UNL A   1      36.179  21.702  25.859  1.00  0.00    -0.460 OA
BRANCH   5   6
ATOM      6  C   UNL A   1      34.915  21.098  25.308  1.00  0.00     0.340 C 
ATOM      7  O   UNL A   1      34.776  20.009  24.773  1.00  0.00    -0.246 OA
BRANCH   6   8
ATOM      8  C   UNL A   1      33.635  21.792  25.286  1.00  0.00     0.090 A 
ATOM      9  N   UNL A   1      32.510  23.659  25.638  1.00  0.00    -0.317 N 
ATOM     10  C   UNL A   1      32.074  23.223  24.402  1.00  0.00     0.030 A 
ATOM     11  C   UNL A   1      33.289  22.696  26.261  1.00  0.00     0.035 A 
ATOM     12  C   UNL A   1      31.134  23.996  23.533  1.00  0.00     0.065 C 
ATOM     13  C   UNL A   1      32.811  22.086  24.068  1.00  0.00     0.042 A 
ATOM     14  C   UNL A   1      33.882  22.868  27.619  1.00  0.00     0.066 C 
BRANCH   9  15
ATOM     15  C   UNL A   1      32.485  24.988  26.101  1.00  0.00     0.046 A 
ATOM     16  C   UNL A   1      31.836  29.185  25.866  1.00  0.00     0.044 C 
ATOM     17  C   UNL A   1      32.087  27.723  26.075  1.00  0.00    -0.051 A 
ATOM     18  C   UNL A   1      33.343  27.184  25.744  1.00  0.00     0.005 A 
ATOM     19  C   UNL A   1      31.058  26.882  26.515  1.00  0.00     0.005 A 
ATOM     20  C   UNL A   1      33.547  25.810  25.750  1.00  0.00     0.027 A 
ATOM     21  C   UNL A   1      31.254  25.506  26.531  1.00  0.00     0.027 A 
ENDBRANCH   9  15
BRANCH  13  22
ATOM     22  C   UNL A   1      32.889  21.526  22.610  1.00  0.00     0.300 C 
BRANCH  22  23
ATOM     23  N   UNL A   1      31.832  20.530  22.393  1.00  0.00    -0.339 N 
ATOM     24  H   UNL A   1      31.248  20.883  21.635  1.00  0.00     0.346 HD
ATOM     25  H   UNL A   1      31.406  20.440  23.315  1.00  0.00     0.346 HD
BRANCH  23  26
ATOM     26  C   UNL A   1      32.182  19.140  22.048  1.00  0.00     0.297 C 
BRANCH  26  27
ATOM     27  C   UNL A   1      32.638  18.112  23.078  1.00  0.00     0.006 A 
ATOM     28  C   UNL A   1      33.669  17.189  22.770  1.00  0.00     0.012 A 
ATOM     29  C   UNL A   1      32.167  18.122  24.400  1.00  0.00     0.012 A 
ATOM     30  C   UNL A   1      34.127  16.252  23.710  1.00  0.00     0.040 A 
ATOM     31  C   UNL A   1      32.643  17.201  25.350  1.00  0.00     0.040 A 
ATOM     32  C   UNL A   1      33.601  16.261  24.992  1.00  0.00     0.123 A 
ATOM     33  F   UNL A   1      34.011  15.343  25.880  1.00  0.00    -0.207 F 
ENDBRANCH  26  27
ENDBRANCH  23  26
ENDBRANCH  22  23
ENDBRANCH  13  22
ENDBRANCH   6   8
ENDBRANCH   5   6
ENDBRANCH   4   5
ENDBRANCH   3   4
ENDBRANCH   2   3
ENDBRANCH   1   2
BRANCH   1  34
ATOM     34  C   UNL A   1      40.318  26.285  27.147  1.00  0.00     0.188 C 
BRANCH  34  35
ATOM     35  O   UNL A   1      41.568  26.649  26.589  1.00  0.00    -0.376 OA
BRANCH  35  36
ATOM     36  C   UNL A   1      41.673  27.997  26.165  1.00  0.00     0.202 C 
BRANCH  36  37
ATOM     37  C   UNL A   1      43.098  28.592  26.213  1.00  0.00     0.261 C 
BRANCH  37  38
ATOM     38  O   UNL A   1      44.147  27.595  26.110  1.00  0.00    -0.460 OA
BRANCH  38  39
ATOM     39  C   UNL A   1      45.449  28.051  26.052  1.00  0.00     0.338 C 
ATOM     40  O   UNL A   1      45.821  28.929  25.288  1.00  0.00    -0.246 OA
BRANCH  39  41
ATOM     41  C   UNL A   1      46.299  27.379  27.086  1.00  0.00     0.060 A 
ATOM     42  C   UNL A   1      46.259  26.070  27.586  1.00  0.00     0.016 A 
ATOM     43  C   UNL A   1      47.107  28.209  27.758  1.00  0.00     0.016 A 
ATOM     44  C   UNL A   1      46.901  25.688  28.864  1.00  0.00     0.010 A 
ATOM     45  C   UNL A   1      47.406  27.853  29.065  1.00  0.00     0.010 A 
ATOM     46  C   UNL A   1      47.456  26.610  29.749  1.00  0.00    -0.014 A 
BRANCH  46  47
ATOM     47  C   UNL A   1      48.046  26.338  31.329  1.00  0.00     0.031 A 
ATOM     48  C   UNL A   1      49.303  25.319  31.990  1.00  0.00     0.074 A 
ATOM     49  C   UNL A   1      47.377  26.948  32.333  1.00  0.00     0.049 A 
ATOM     50  N   UNL A   1      49.218  24.631  33.114  1.00  0.00    -0.248 NA
ATOM     51  C   UNL A   1      50.641  24.924  31.388  1.00  0.00     0.031 C 
ATOM     52  C   UNL A   1      47.715  26.978  33.754  1.00  0.00     0.029 A 
ATOM     53  N   UNL A   1      46.137  27.579  32.271  1.00  0.00    -0.354 N 
ATOM     54  C   UNL A   1      50.437  23.959  33.354  1.00  0.00     0.074 A 
ATOM     55  C   UNL A   1      51.187  24.027  32.174  1.00  0.00     0.031 C 
ATOM     56  C   UNL A   1      46.612  27.295  34.451  1.00  0.00     0.029 A 
ATOM     57  C   UNL A   1      45.513  27.376  33.510  1.00  0.00     0.049 A 
ATOM     58  H   UNL A   1      45.769  28.074  31.504  1.00  0.00     0.167 HD
ATOM     59  C   UNL A   1      50.874  23.526  34.569  1.00  0.00     0.034 A 
ATOM     60  C   UNL A   1      44.327  26.717  33.581  1.00  0.00     0.034 A 
ATOM     61  C   UNL A   1      49.826  23.727  35.530  1.00  0.00     0.049 A 
ATOM     62  C   UNL A   1      44.435  25.432  34.400  1.00  0.00     0.074 A 
ATOM     63  C   UNL A   1      49.545  24.743  36.421  1.00  0.00     0.029 A 
ATOM     64  N   UNL A   1      48.662  23.006  35.350  1.00  0.00    -0.354 N 
ATOM     65  N   UNL A   1      45.552  24.926  34.857  1.00  0.00    -0.248 NA
ATOM     66  C   UNL A   1      43.284  24.619  34.779  1.00  0.00     0.031 C 
ATOM     67  C   UNL A   1      48.157  24.668  36.718  1.00  0.00     0.029 A 
ATOM     68  C   UNL A   1      47.625  23.576  36.053  1.00  0.00     0.049 A 
ATOM     69  H   UNL A   1      48.585  22.196  34.796  1.00  0.00     0.167 HD
ATOM     70  C   UNL A   1      45.309  23.737  35.504  1.00  0.00     0.074 A 
ATOM     71  C   UNL A   1      43.864  23.613  35.458  1.00  0.00     0.031 C 
ATOM     72  C   UNL A   1      46.316  22.948  35.998  1.00  0.00     0.034 A 
BRANCH  59  73
ATOM     73  C   UNL A   1      52.352  23.269  34.894  1.00  0.00     0.023 A 
ATOM     74  C   UNL A   1      53.153  24.351  35.308  1.00  0.00     0.031 A 
ATOM     75  C   UNL A   1      53.058  22.049  34.747  1.00  0.00     0.131 A 
ATOM     76  C   UNL A   1      54.558  24.236  35.411  1.00  0.00     0.055 A 
ATOM     77  C   UNL A   1      54.461  21.957  34.745  1.00  0.00     0.041 A 
ATOM     78  F   UNL A   1      52.429  20.867  34.677  1.00  0.00    -0.206 F 
ATOM     79  C   UNL A   1      55.224  23.065  35.065  1.00  0.00     0.022 A 
BRANCH  76  80
ATOM     80  S   UNL A   1      55.513  25.635  36.057  1.00  0.00     0.124 S 
ATOM     81  O   UNL A   1      56.810  25.447  35.414  1.00  0.00    -0.237 OA
ATOM     82  O   UNL A   1      54.725  26.777  35.607  1.00  0.00    -0.237 OA
ATOM     83  O   UNL A   1      55.504  25.415  37.503  1.00  0.00    -0.744 OA
ENDBRANCH  76  80
ENDBRANCH  59  73
BRANCH  60  84
ATOM     84  C   UNL A   1      43.480  26.958  32.362  1.00  0.00     0.023 A 
ATOM     85  C   UNL A   1      42.783  28.185  32.220  1.00  0.00     0.031 A 
ATOM     86  C   UNL A   1      43.708  26.235  31.195  1.00  0.00     0.131 A 
ATOM     87  C   UNL A   1      42.426  28.672  30.944  1.00  0.00     0.055 A 
ATOM     88  C   UNL A   1      43.270  26.689  29.938  1.00  0.00     0.041 A 
ATOM     89  F   UNL A   1      44.556  25.201  31.222  1.00  0.00    -0.206 F 
ATOM     90  C   UNL A   1      42.649  27.919  29.798  1.00  0.00     0.022 A 
BRANCH  87  91
ATOM     91  S   UNL A   1      41.926  30.401  30.699  1.00  0.00     0.124 S 
ATOM     92  O   UNL A   1      41.574  30.419  29.283  1.00  0.00    -0.237 OA
ATOM     93  O   UNL A   1      40.818  30.573  31.633  1.00  0.00    -0.237 OA
ATOM     94  O   UNL A   1      43.139  31.138  31.059  1.00  0.00    -0.744 OA
ENDBRANCH  87  91
ENDBRANCH  60  84
BRANCH  72  95
ATOM     95  C   UNL A   1      46.201  21.509  36.493  1.00  0.00     0.023 A 
ATOM     96  C   UNL A   1      46.315  21.144  37.838  1.00  0.00     0.031 A 
ATOM     97  C   UNL A   1      45.876  20.442  35.606  1.00  0.00     0.131 A 
ATOM     98  C   UNL A   1      46.185  19.802  38.245  1.00  0.00     0.055 A 
ATOM     99  C   UNL A   1      45.635  19.130  36.029  1.00  0.00     0.041 A 
ATOM    100  F   UNL A   1      45.775  20.617  34.281  1.00  0.00    -0.206 F 
ATOM    101  C   UNL A   1      45.809  18.797  37.358  1.00  0.00     0.022 A 
BRANCH  98 102
ATOM    102  S   UNL A   1      46.643  19.382  39.944  1.00  0.00     0.124 S 
ATOM    103  O   UNL A   1      45.448  18.687  40.414  1.00  0.00    -0.237 OA
ATOM    104  O   UNL A   1      47.827  18.552  39.749  1.00  0.00    -0.237 OA
ATOM    105  O   UNL A   1      46.887  20.681  40.567  1.00  0.00    -0.744 OA
ENDBRANCH  98 102
ENDBRANCH  72  95
ENDBRANCH  46  47
ENDBRANCH  39  41
ENDBRANCH  38  39
ENDBRANCH  37  38
ENDBRANCH  36  37
ENDBRANCH  35  36
ENDBRANCH  34  35
ENDBRANCH   1  34
TORSDOF 25
ENDMDL
MODEL 3
REMARK VINA RESULT:      -8.2      5.067      9.588
REMARK SMILES Cc1ccc(-n2c(C)c(C[NH2+]Cc3ccc(F)cc3)c(C(=O)OCCOCCOCCOC(=O)c3ccc(-c4c5nc(c(-c6cc(S(=O)(=O)[O-])ccc6F)c6ccc([nH]6)c(-c6cc(S(=O)(=O)[O-])ccc6F)c6nc(c(-c7cc(S(=O)(=O)[O-])ccc7F)c7ccc4[nH]7)C=C6)C=C5)cc3)c2C)cc1
REMARK SMILES IDX 27 1 26 2 25 3 24 4 23 5 21 6 22 7 20 8 6 9 7 10 98 11 8 12
REMARK SMILES IDX 9 13 99 14 5 15 1 16 2 17 3 18 101 19 4 20 100 21 10 22
REMARK SMILES IDX 11 23 12 26 13 27 14 28 19 29 15 30 18 31 16 32 17 33 28 34
REMARK SMILES IDX 29 35 30 36 31 37 32 38 33 39 34 40 35 41 36 42 97 43 37 44
REMARK SMILES IDX 96 45 38 46 39 47 40 48 90 49 41 50 95 51 89 52 91 53 42 54
REMARK SMILES IDX 94 55 88 56 87 57 43 59 75 60 55 61 74 62 56 63 59 64 73 65
REMARK SMILES IDX 92 66 57 67 58 68 72 70 93 71 60 72 44 73 45 74 53 75 46 76
REMARK SMILES IDX 52 77 54 78 51 79 47 80 48 81 49 82 50 83 76 84 77 85 85 86
REMARK SMILES IDX 78 87 84 88 86 89 83 90 79 91 80 92 81 93 82 94 61 95 62 96
REMARK SMILES IDX 70 97 63 98 69 99 71 100 68 101 64 102 65 103 66 104 67 105
REMARK H PARENT 11 24 11 25 91 58 59 69
REMARK Flexibility Score: inf
ROOT
ATOM      1  C   UNL A   1      34.037  31.017  27.187  1.00  0.00     0.188 C 
ENDROOT
BRANCH   1   2
ATOM      2  O   UNL A   1      32.896  30.165  27.452  1.00  0.00    -0.376 OA
BRANCH   2   3
ATOM      3  C   UNL A   1      32.838  28.735  27.299  1.00  0.00     0.202 C 
BRANCH   3   4
ATOM      4  C   UNL A   1      31.425  27.774  27.307  1.00  0.00     0.261 C 
BRANCH   4   5
ATOM      5  O   UNL A   1      31.170  26.084  26.866  1.00  0.00    -0.460 OA
BRANCH   5   6
ATOM      6  C   UNL A   1      31.367  25.149  25.703  1.00  0.00     0.340 C 
ATOM      7  O   UNL A   1      30.560  24.850  24.836  1.00  0.00    -0.246 OA
BRANCH   6   8
ATOM      8  C   UNL A   1      32.590  24.390  25.478  1.00  0.00     0.090 A 
ATOM      9  N   UNL A   1      33.535  22.430  25.110  1.00  0.00    -0.317 N 
ATOM     10  C   UNL A   1      34.122  23.273  24.186  1.00  0.00     0.030 A 
ATOM     11  C   UNL A   1      32.771  23.141  26.021  1.00  0.00     0.035 A 
ATOM     12  C   UNL A   1      35.084  22.815  23.138  1.00  0.00     0.065 C 
ATOM     13  C   UNL A   1      33.505  24.520  24.299  1.00  0.00     0.042 A 
ATOM     14  C   UNL A   1      32.036  22.506  27.153  1.00  0.00     0.066 C 
BRANCH   9  15
ATOM     15  C   UNL A   1      33.418  21.032  24.994  1.00  0.00     0.046 A 
ATOM     16  C   UNL A   1      33.859  17.223  23.151  1.00  0.00     0.044 C 
ATOM     17  C   UNL A   1      33.663  18.502  23.906  1.00  0.00    -0.051 A 
ATOM     18  C   UNL A   1      32.501  19.263  23.684  1.00  0.00     0.005 A 
ATOM     19  C   UNL A   1      34.662  18.983  24.761  1.00  0.00     0.005 A 
ATOM     20  C   UNL A   1      32.375  20.537  24.224  1.00  0.00     0.027 A 
ATOM     21  C   UNL A   1      34.543  20.253  25.312  1.00  0.00     0.027 A 
ENDBRANCH   9  15
BRANCH  13  22
ATOM     22  C   UNL A   1      33.613  25.619  23.192  1.00  0.00     0.300 C 
BRANCH  22  23
ATOM     23  N   UNL A   1      32.273  26.074  22.799  1.00  0.00    -0.339 N 
ATOM     24  H   UNL A   1      31.647  25.842  23.571  1.00  0.00     0.346 HD
ATOM     25  H   UNL A   1      32.120  25.604  21.908  1.00  0.00     0.346 HD
BRANCH  23  26
ATOM     26  C   UNL A   1      32.037  27.493  22.474  1.00  0.00     0.297 C 
BRANCH  26  27
ATOM     27  C   UNL A   1      30.665  28.152  22.553  1.00  0.00     0.006 A 
ATOM     28  C   UNL A   1      29.590  27.507  23.217  1.00  0.00     0.012 A 
ATOM     29  C   UNL A   1      30.439  29.463  22.105  1.00  0.00     0.012 A 
ATOM     30  C   UNL A   1      28.325  28.104  23.329  1.00  0.00     0.040 A 
ATOM     31  C   UNL A   1      29.179  30.073  22.239  1.00  0.00     0.040 A 
ATOM     32  C   UNL A   1      28.128  29.382  22.829  1.00  0.00     0.123 A 
ATOM     33  F   UNL A   1      26.911  29.939  22.903  1.00  0.00    -0.207 F 
ENDBRANCH  26  27
ENDBRANCH  23  26
ENDBRANCH  22  23
ENDBRANCH  13  22
ENDBRANCH   6   8
ENDBRANCH   5   6
ENDBRANCH   4   5
ENDBRANCH   3   4
ENDBRANCH   2   3
ENDBRANCH   1   2
BRANCH   1  34
ATOM     34  C   UNL A   1      35.310  31.072  28.039  1.00  0.00     0.188 C 
BRANCH  34  35
ATOM     35  O   UNL A   1      35.645  29.804  28.574  1.00  0.00    -0.376 OA
BRANCH  35  36
ATOM     36  C   UNL A   1      36.998  29.416  28.410  1.00  0.00     0.202 C 
BRANCH  36  37
ATOM     37  C   UNL A   1      38.025  30.567  28.490  1.00  0.00     0.261 C 
BRANCH  37  38
ATOM     38  O   UNL A   1      38.504  30.826  29.835  1.00  0.00    -0.460 OA
BRANCH  38  39
ATOM     39  C   UNL A   1      39.827  31.195  29.975  1.00  0.00     0.338 C 
ATOM     40  O   UNL A   1      40.192  32.352  30.120  1.00  0.00    -0.246 OA
BRANCH  39  41
ATOM     41  C   UNL A   1      40.719  29.992  29.996  1.00  0.00     0.060 A 
ATOM     42  C   UNL A   1      40.790  28.927  30.905  1.00  0.00     0.016 A 
ATOM     43  C   UNL A   1      41.719  30.032  29.105  1.00  0.00     0.016 A 
ATOM     44  C   UNL A   1      41.970  28.038  30.998  1.00  0.00     0.010 A 
ATOM     45  C   UNL A   1      42.885  29.370  29.457  1.00  0.00     0.010 A 
ATOM     46  C   UNL A   1      43.162  28.272  30.315  1.00  0.00    -0.014 A 
BRANCH  46  47
ATOM     47  C   UNL A   1      44.652  27.453  30.475  1.00  0.00     0.031 A 
ATOM     48  C   UNL A   1      46.235  27.926  31.046  1.00  0.00     0.074 A 
ATOM     49  C   UNL A   1      44.700  26.193  29.988  1.00  0.00     0.049 A 
ATOM     50  N   UNL A   1      47.383  27.573  30.497  1.00  0.00    -0.248 NA
ATOM     51  C   UNL A   1      46.611  28.892  32.157  1.00  0.00     0.031 C 
ATOM     52  C   UNL A   1      45.796  25.231  30.079  1.00  0.00     0.029 A 
ATOM     53  N   UNL A   1      43.767  25.559  29.171  1.00  0.00    -0.354 N 
ATOM     54  C   UNL A   1      48.454  28.103  31.251  1.00  0.00     0.074 A 
ATOM     55  C   UNL A   1      47.913  29.048  32.131  1.00  0.00     0.031 C 
ATOM     56  C   UNL A   1      45.629  24.298  29.129  1.00  0.00     0.029 A 
ATOM     57  C   UNL A   1      44.480  24.688  28.335  1.00  0.00     0.049 A 
ATOM     58  H   UNL A   1      42.792  25.696  29.178  1.00  0.00     0.167 HD
ATOM     59  C   UNL A   1      49.726  27.620  31.263  1.00  0.00     0.034 A 
ATOM     60  C   UNL A   1      44.435  24.840  26.986  1.00  0.00     0.034 A 
ATOM     61  C   UNL A   1      49.833  26.588  30.269  1.00  0.00     0.049 A 
ATOM     62  C   UNL A   1      45.811  25.145  26.398  1.00  0.00     0.074 A 
ATOM     63  C   UNL A   1      49.719  25.213  30.321  1.00  0.00     0.029 A 
ATOM     64  N   UNL A   1      49.661  26.964  28.951  1.00  0.00    -0.354 N 
ATOM     65  N   UNL A   1      46.889  25.388  27.099  1.00  0.00    -0.248 NA
ATOM     66  C   UNL A   1      46.083  25.189  24.965  1.00  0.00     0.031 C 
ATOM     67  C   UNL A   1      49.396  24.771  29.010  1.00  0.00     0.029 A 
ATOM     68  C   UNL A   1      49.374  25.870  28.169  1.00  0.00     0.049 A 
ATOM     69  H   UNL A   1      49.735  27.887  28.619  1.00  0.00     0.167 HD
ATOM     70  C   UNL A   1      47.945  25.680  26.268  1.00  0.00     0.074 A 
ATOM     71  C   UNL A   1      47.391  25.502  24.939  1.00  0.00     0.031 C 
ATOM     72  C   UNL A   1      49.172  26.066  26.743  1.00  0.00     0.034 A 
BRANCH  59  73
ATOM     73  C   UNL A   1      50.714  27.863  32.413  1.00  0.00     0.023 A 
ATOM     74  C   UNL A   1      50.740  26.953  33.487  1.00  0.00     0.031 A 
ATOM     75  C   UNL A   1      51.579  28.974  32.574  1.00  0.00     0.131 A 
ATOM     76  C   UNL A   1      51.458  27.227  34.674  1.00  0.00     0.055 A 
ATOM     77  C   UNL A   1      52.207  29.301  33.789  1.00  0.00     0.041 A 
ATOM     78  F   UNL A   1      51.927  29.760  31.545  1.00  0.00    -0.206 F 
ATOM     79  C   UNL A   1      52.135  28.428  34.858  1.00  0.00     0.022 A 
BRANCH  76  80
ATOM     80  S   UNL A   1      51.538  25.962  35.969  1.00  0.00     0.124 S 
ATOM     81  O   UNL A   1      52.059  26.715  37.105  1.00  0.00    -0.237 OA
ATOM     82  O   UNL A   1      50.148  25.528  36.060  1.00  0.00    -0.237 OA
ATOM     83  O   UNL A   1      52.457  24.966  35.417  1.00  0.00    -0.744 OA
ENDBRANCH  76  80
ENDBRANCH  59  73
BRANCH  60  84
ATOM     84  C   UNL A   1      43.105  25.371  26.528  1.00  0.00     0.023 A 
ATOM     85  C   UNL A   1      41.958  24.539  26.580  1.00  0.00     0.031 A 
ATOM     86  C   UNL A   1      42.874  26.743  26.486  1.00  0.00     0.131 A 
ATOM     87  C   UNL A   1      40.663  25.094  26.672  1.00  0.00     0.055 A 
ATOM     88  C   UNL A   1      41.575  27.282  26.490  1.00  0.00     0.041 A 
ATOM     89  F   UNL A   1      43.897  27.584  26.675  1.00  0.00    -0.206 F 
ATOM     90  C   UNL A   1      40.462  26.467  26.607  1.00  0.00     0.022 A 
BRANCH  87  91
ATOM     91  S   UNL A   1      39.235  24.082  27.160  1.00  0.00     0.124 S 
ATOM     92  O   UNL A   1      38.806  24.735  28.393  1.00  0.00    -0.237 OA
ATOM     93  O   UNL A   1      38.325  24.205  26.026  1.00  0.00    -0.237 OA
ATOM     94  O   UNL A   1      39.825  22.753  27.320  1.00  0.00    -0.744 OA
ENDBRANCH  87  91
ENDBRANCH  60  84
BRANCH  72  95
ATOM     95  C   UNL A   1      50.327  26.659  25.940  1.00  0.00     0.023 A 
ATOM     96  C   UNL A   1      51.505  25.962  25.652  1.00  0.00     0.031 A 
ATOM     97  C   UNL A   1      50.234  27.952  25.350  1.00  0.00     0.131 A 
ATOM     98  C   UNL A   1      52.535  26.552  24.893  1.00  0.00     0.055 A 
ATOM     99  C   UNL A   1      51.209  28.489  24.503  1.00  0.00     0.041 A 
ATOM    100  F   UNL A   1      49.188  28.764  25.565  1.00  0.00    -0.206 F 
ATOM    101  C   UNL A   1      52.382  27.794  24.284  1.00  0.00     0.022 A 
BRANCH  98 102
ATOM    102  S   UNL A   1      54.131  25.702  24.826  1.00  0.00     0.124 S 
ATOM    103  O   UNL A   1      53.729  24.335  24.508  1.00  0.00    -0.237 OA
ATOM    104  O   UNL A   1      54.821  26.425  23.764  1.00  0.00    -0.237 OA
ATOM    105  O   UNL A   1      54.679  25.889  26.168  1.00  0.00    -0.744 OA
ENDBRANCH  98 102
ENDBRANCH  72  95
ENDBRANCH  46  47
ENDBRANCH  39  41
ENDBRANCH  38  39
ENDBRANCH  37  38
ENDBRANCH  36  37
ENDBRANCH  35  36
ENDBRANCH  34  35
ENDBRANCH   1  34
TORSDOF 25
ENDMDL
