MODEL 1
REMARK VINA RESULT:     -10.8      0.000      0.000
REMARK SMILES N#Cc1ccc(C(F)(F)F)nc1N1CCOC[C@H]1C(=O)OCCOCCOCCOC(=O)c1ccc(-c2c3nc(c(-c4cc(S(=O)(=O)[O-])ccc4F)c4ccc([nH]4)c(-c4cc(S(=O)(=O)[O-])ccc4F)c4nc(c(-c5cc(S(=O)(=O)[O-])ccc5F)c5ccc2[nH]5)C=C4)C=C3)cc1
REMARK SMILES IDX 26 1 25 2 24 3 23 4 22 5 21 6 19 7 20 8 18 9 13 10 14 11
REMARK SMILES IDX 15 12 17 13 16 14 12 15 3 16 4 17 5 18 11 19 6 20 2 21 1 22
REMARK SMILES IDX 7 23 8 24 9 25 10 26 27 27 28 28 29 29 30 30 31 31 32 32
REMARK SMILES IDX 33 33 34 34 95 35 35 36 94 37 36 38 37 39 38 40 88 41 39 42
REMARK SMILES IDX 93 43 87 44 89 45 40 46 92 47 86 48 85 49 41 51 73 52 53 53
REMARK SMILES IDX 72 54 54 55 57 56 71 57 90 58 55 59 56 60 70 62 91 63 58 64
REMARK SMILES IDX 42 65 43 66 51 67 44 68 50 69 52 70 49 71 45 72 46 73 47 74
REMARK SMILES IDX 48 75 74 76 75 77 83 78 76 79 82 80 84 81 81 82 77 83 78 84
REMARK SMILES IDX 79 85 80 86 59 87 60 88 68 89 61 90 67 91 69 92 66 93 62 94
REMARK SMILES IDX 63 95 64 96 65 97
REMARK H PARENT 89 50 57 61
REMARK Flexibility Score: inf
ROOT
ATOM      1  C   UNL A   1      34.609  21.783  25.937  1.00  0.00     0.188 C 
ENDROOT
BRANCH   1   2
ATOM      2  C   UNL A   1      33.328  21.560  26.771  1.00  0.00     0.188 C 
BRANCH   2   3
ATOM      3  O   UNL A   1      32.184  22.354  26.501  1.00  0.00    -0.376 OA
BRANCH   3   4
ATOM      4  C   UNL A   1      32.349  23.539  25.739  1.00  0.00     0.202 C 
BRANCH   4   5
ATOM      5  C   UNL A   1      32.087  24.910  26.396  1.00  0.00     0.261 C 
BRANCH   5   6
ATOM      6  O   UNL A   1      33.117  25.922  26.236  1.00  0.00    -0.462 OA
BRANCH   6   7
ATOM      7  C   UNL A   1      33.509  26.246  24.968  1.00  0.00     0.331 C 
ATOM      8  O   UNL A   1      34.382  25.614  24.372  1.00  0.00    -0.250 OA
BRANCH   7   9
ATOM      9  C   UNL A   1      32.845  27.510  24.317  1.00  0.00     0.220 C 
ATOM     10  N   UNL A   1      31.666  28.187  24.978  1.00  0.00    -0.338 N 
ATOM     11  C   UNL A   1      31.962  28.730  26.317  1.00  0.00     0.147 C 
ATOM     12  C   UNL A   1      33.283  29.528  26.330  1.00  0.00     0.181 C 
ATOM     13  C   UNL A   1      34.016  28.509  24.309  1.00  0.00     0.197 C 
ATOM     14  O   UNL A   1      34.370  28.873  25.662  1.00  0.00    -0.377 OA
BRANCH  10  15
ATOM     15  C   UNL A   1      30.512  28.615  24.298  1.00  0.00     0.148 A 
ATOM     16  C   UNL A   1      29.674  27.725  23.592  1.00  0.00     0.095 A 
ATOM     17  C   UNL A   1      28.725  28.192  22.670  1.00  0.00     0.025 A 
ATOM     18  C   UNL A   1      28.542  29.539  22.490  1.00  0.00     0.035 A 
ATOM     19  N   UNL A   1      30.254  29.960  24.178  1.00  0.00    -0.225 NA
ATOM     20  C   UNL A   1      29.268  30.412  23.285  1.00  0.00     0.146 A 
BRANCH  16  21
ATOM     21  C   UNL A   1      29.669  26.306  23.764  1.00  0.00     0.103 C 
ATOM     22  N   UNL A   1      29.687  25.149  23.801  1.00  0.00    -0.192 NA
ENDBRANCH  16  21
BRANCH  20  23
ATOM     23  C   UNL A   1      28.847  31.892  23.117  1.00  0.00     0.433 C 
ATOM     24  F   UNL A   1      29.370  32.700  24.076  1.00  0.00    -0.165 F 
ATOM     25  F   UNL A   1      29.171  32.421  21.915  1.00  0.00    -0.165 F 
ATOM     26  F   UNL A   1      27.492  32.075  23.208  1.00  0.00    -0.165 F 
ENDBRANCH  20  23
ENDBRANCH  10  15
ENDBRANCH   7   9
ENDBRANCH   6   7
ENDBRANCH   5   6
ENDBRANCH   4   5
ENDBRANCH   3   4
ENDBRANCH   2   3
ENDBRANCH   1   2
BRANCH   1  27
ATOM     27  O   UNL A   1      34.886  20.795  24.978  1.00  0.00    -0.376 OA
BRANCH  27  28
ATOM     28  C   UNL A   1      36.151  20.170  25.034  1.00  0.00     0.202 C 
BRANCH  28  29
ATOM     29  C   UNL A   1      37.458  20.842  24.552  1.00  0.00     0.261 C 
BRANCH  29  30
ATOM     30  O   UNL A   1      37.992  21.943  25.310  1.00  0.00    -0.460 OA
BRANCH  30  31
ATOM     31  C   UNL A   1      39.118  21.688  26.025  1.00  0.00     0.338 C 
ATOM     32  O   UNL A   1      39.759  20.651  25.988  1.00  0.00    -0.246 OA
BRANCH  31  33
ATOM     33  C   UNL A   1      39.542  22.912  26.760  1.00  0.00     0.060 A 
ATOM     34  C   UNL A   1      39.009  24.170  26.435  1.00  0.00     0.016 A 
ATOM     35  C   UNL A   1      40.585  22.838  27.674  1.00  0.00     0.016 A 
ATOM     36  C   UNL A   1      39.552  25.345  26.951  1.00  0.00     0.010 A 
ATOM     37  C   UNL A   1      41.117  24.019  28.213  1.00  0.00     0.010 A 
ATOM     38  C   UNL A   1      40.635  25.285  27.824  1.00  0.00    -0.014 A 
BRANCH  38  39
ATOM     39  C   UNL A   1      41.335  26.530  28.239  1.00  0.00     0.031 A 
ATOM     40  C   UNL A   1      40.575  27.595  28.983  1.00  0.00     0.074 A 
ATOM     41  C   UNL A   1      42.643  26.709  27.975  1.00  0.00     0.049 A 
ATOM     42  N   UNL A   1      40.914  28.831  29.247  1.00  0.00    -0.248 NA
ATOM     43  C   UNL A   1      39.247  27.215  29.485  1.00  0.00     0.031 C 
ATOM     44  C   UNL A   1      43.531  25.714  27.371  1.00  0.00     0.029 A 
ATOM     45  N   UNL A   1      43.452  27.802  28.170  1.00  0.00    -0.354 N 
ATOM     46  C   UNL A   1      39.826  29.391  29.909  1.00  0.00     0.074 A 
ATOM     47  C   UNL A   1      38.807  28.363  29.978  1.00  0.00     0.031 C 
ATOM     48  C   UNL A   1      44.757  26.244  27.243  1.00  0.00     0.029 A 
ATOM     49  C   UNL A   1      44.722  27.639  27.668  1.00  0.00     0.049 A 
ATOM     50  H   UNL A   1      43.152  28.622  28.624  1.00  0.00     0.167 HD
ATOM     51  C   UNL A   1      39.694  30.647  30.408  1.00  0.00     0.034 A 
ATOM     52  C   UNL A   1      45.726  28.526  27.514  1.00  0.00     0.034 A 
ATOM     53  C   UNL A   1      40.729  31.652  30.331  1.00  0.00     0.049 A 
ATOM     54  C   UNL A   1      45.508  29.955  27.942  1.00  0.00     0.074 A 
ATOM     55  C   UNL A   1      40.702  32.955  30.798  1.00  0.00     0.029 A 
ATOM     56  N   UNL A   1      41.975  31.471  29.742  1.00  0.00    -0.354 N 
ATOM     57  N   UNL A   1      44.456  30.499  28.511  1.00  0.00    -0.248 NA
ATOM     58  C   UNL A   1      46.614  30.891  27.704  1.00  0.00     0.031 C 
ATOM     59  C   UNL A   1      41.889  33.586  30.409  1.00  0.00     0.029 A 
ATOM     60  C   UNL A   1      42.704  32.651  29.795  1.00  0.00     0.049 A 
ATOM     61  H   UNL A   1      42.294  30.628  29.345  1.00  0.00     0.167 HD
ATOM     62  C   UNL A   1      44.793  31.832  28.735  1.00  0.00     0.074 A 
ATOM     63  C   UNL A   1      46.147  32.004  28.250  1.00  0.00     0.031 C 
ATOM     64  C   UNL A   1      44.052  32.820  29.301  1.00  0.00     0.034 A 
BRANCH  51  65
ATOM     65  C   UNL A   1      38.359  31.019  31.015  1.00  0.00     0.023 A 
ATOM     66  C   UNL A   1      37.315  31.562  30.246  1.00  0.00     0.031 A 
ATOM     67  C   UNL A   1      38.142  30.868  32.397  1.00  0.00     0.131 A 
ATOM     68  C   UNL A   1      36.146  32.019  30.874  1.00  0.00     0.055 A 
ATOM     69  C   UNL A   1      36.937  31.231  33.001  1.00  0.00     0.041 A 
ATOM     70  F   UNL A   1      39.107  30.380  33.192  1.00  0.00    -0.206 F 
ATOM     71  C   UNL A   1      35.937  31.829  32.241  1.00  0.00     0.022 A 
BRANCH  68  72
ATOM     72  S   UNL A   1      34.986  33.027  29.911  1.00  0.00     0.124 S 
ATOM     73  O   UNL A   1      34.129  33.576  30.960  1.00  0.00    -0.237 OA
ATOM     74  O   UNL A   1      35.869  33.978  29.246  1.00  0.00    -0.237 OA
ATOM     75  O   UNL A   1      34.336  32.058  29.032  1.00  0.00    -0.744 OA
ENDBRANCH  68  72
ENDBRANCH  51  65
BRANCH  52  76
ATOM     76  C   UNL A   1      47.011  28.108  26.883  1.00  0.00     0.023 A 
ATOM     77  C   UNL A   1      47.168  28.145  25.490  1.00  0.00     0.031 A 
ATOM     78  C   UNL A   1      48.084  27.623  27.655  1.00  0.00     0.131 A 
ATOM     79  C   UNL A   1      48.349  27.662  24.906  1.00  0.00     0.055 A 
ATOM     80  C   UNL A   1      49.283  27.210  27.074  1.00  0.00     0.041 A 
ATOM     81  F   UNL A   1      47.984  27.555  28.992  1.00  0.00    -0.206 F 
ATOM     82  C   UNL A   1      49.415  27.214  25.689  1.00  0.00     0.022 A 
BRANCH  79  83
ATOM     83  S   UNL A   1      48.425  27.527  23.101  1.00  0.00     0.124 S 
ATOM     84  O   UNL A   1      48.431  26.081  22.913  1.00  0.00    -0.237 OA
ATOM     85  O   UNL A   1      47.209  28.222  22.692  1.00  0.00    -0.237 OA
ATOM     86  O   UNL A   1      49.674  28.206  22.762  1.00  0.00    -0.744 OA
ENDBRANCH  79  83
ENDBRANCH  52  76
BRANCH  64  87
ATOM     87  C   UNL A   1      44.717  34.166  29.482  1.00  0.00     0.023 A 
ATOM     88  C   UNL A   1      44.637  35.176  28.508  1.00  0.00     0.031 A 
ATOM     89  C   UNL A   1      45.455  34.435  30.649  1.00  0.00     0.131 A 
ATOM     90  C   UNL A   1      45.334  36.381  28.690  1.00  0.00     0.055 A 
ATOM     91  C   UNL A   1      46.082  35.663  30.859  1.00  0.00     0.041 A 
ATOM     92  F   UNL A   1      45.577  33.505  31.612  1.00  0.00    -0.206 F 
ATOM     93  C   UNL A   1      46.036  36.640  29.870  1.00  0.00     0.022 A 
BRANCH  90  94
ATOM     94  S   UNL A   1      45.409  37.560  27.315  1.00  0.00     0.124 S 
ATOM     95  O   UNL A   1      44.004  37.680  26.941  1.00  0.00    -0.237 OA
ATOM     96  O   UNL A   1      46.004  38.736  27.942  1.00  0.00    -0.237 OA
ATOM     97  O   UNL A   1      46.258  36.887  26.332  1.00  0.00    -0.744 OA
ENDBRANCH  90  94
ENDBRANCH  64  87
ENDBRANCH  38  39
ENDBRANCH  31  33
ENDBRANCH  30  31
ENDBRANCH  29  30
ENDBRANCH  28  29
ENDBRANCH  27  28
ENDBRANCH   1  27
TORSDOF 23
ENDMDL
MODEL 2
REMARK VINA RESULT:     -10.2     10.124     15.216
REMARK SMILES N#Cc1ccc(C(F)(F)F)nc1N1CCOC[C@H]1C(=O)OCCOCCOCCOC(=O)c1ccc(-c2c3nc(c(-c4cc(S(=O)(=O)[O-])ccc4F)c4ccc([nH]4)c(-c4cc(S(=O)(=O)[O-])ccc4F)c4nc(c(-c5cc(S(=O)(=O)[O-])ccc5F)c5ccc2[nH]5)C=C4)C=C3)cc1
REMARK SMILES IDX 26 1 25 2 24 3 23 4 22 5 21 6 19 7 20 8 18 9 13 10 14 11
REMARK SMILES IDX 15 12 17 13 16 14 12 15 3 16 4 17 5 18 11 19 6 20 2 21 1 22
REMARK SMILES IDX 7 23 8 24 9 25 10 26 27 27 28 28 29 29 30 30 31 31 32 32
REMARK SMILES IDX 33 33 34 34 95 35 35 36 94 37 36 38 37 39 38 40 88 41 39 42
REMARK SMILES IDX 93 43 87 44 89 45 40 46 92 47 86 48 85 49 41 51 73 52 53 53
REMARK SMILES IDX 72 54 54 55 57 56 71 57 90 58 55 59 56 60 70 62 91 63 58 64
REMARK SMILES IDX 42 65 43 66 51 67 44 68 50 69 52 70 49 71 45 72 46 73 47 74
REMARK SMILES IDX 48 75 74 76 75 77 83 78 76 79 82 80 84 81 81 82 77 83 78 84
REMARK SMILES IDX 79 85 80 86 59 87 60 88 68 89 61 90 67 91 69 92 66 93 62 94
REMARK SMILES IDX 63 95 64 96 65 97
REMARK H PARENT 89 50 57 61
REMARK Flexibility Score: inf
ROOT
ATOM      1  C   UNL A   1      48.268  22.269  38.936  1.00  0.00     0.188 C 
ENDROOT
BRANCH   1   2
ATOM      2  C   UNL A   1      47.967  20.848  39.461  1.00  0.00     0.188 C 
BRANCH   2   3
ATOM      3  O   UNL A   1      46.627  20.382  39.455  1.00  0.00    -0.376 OA
BRANCH   3   4
ATOM      4  C   UNL A   1      46.146  19.693  40.597  1.00  0.00     0.202 C 
BRANCH   4   5
ATOM      5  C   UNL A   1      45.171  20.401  41.560  1.00  0.00     0.261 C 
BRANCH   5   6
ATOM      6  O   UNL A   1      43.948  19.692  41.895  1.00  0.00    -0.462 OA
BRANCH   6   7
ATOM      7  C   UNL A   1      43.801  19.229  43.171  1.00  0.00     0.331 C 
ATOM      8  O   UNL A   1      43.858  19.976  44.149  1.00  0.00    -0.250 OA
BRANCH   7   9
ATOM      9  C   UNL A   1      43.621  17.681  43.352  1.00  0.00     0.220 C 
ATOM     10  N   UNL A   1      44.035  16.724  42.257  1.00  0.00    -0.338 N 
ATOM     11  C   UNL A   1      45.474  16.766  41.939  1.00  0.00     0.147 C 
ATOM     12  C   UNL A   1      46.342  16.735  43.215  1.00  0.00     0.181 C 
ATOM     13  C   UNL A   1      44.510  17.404  44.577  1.00  0.00     0.197 C 
ATOM     14  O   UNL A   1      45.899  17.627  44.246  1.00  0.00    -0.377 OA
BRANCH  10  15
ATOM     15  C   UNL A   1      43.262  15.632  41.822  1.00  0.00     0.148 A 
ATOM     16  C   UNL A   1      42.852  15.481  40.479  1.00  0.00     0.095 A 
ATOM     17  C   UNL A   1      41.836  14.583  40.123  1.00  0.00     0.025 A 
ATOM     18  C   UNL A   1      41.267  13.772  41.072  1.00  0.00     0.035 A 
ATOM     19  N   UNL A   1      42.752  14.750  42.745  1.00  0.00    -0.225 NA
ATOM     20  C   UNL A   1      41.768  13.822  42.363  1.00  0.00     0.146 A 
BRANCH  16  21
ATOM     21  C   UNL A   1      43.434  16.170  39.370  1.00  0.00     0.103 C 
ATOM     22  N   UNL A   1      43.946  16.794  38.540  1.00  0.00    -0.192 NA
ENDBRANCH  16  21
BRANCH  20  23
ATOM     23  C   UNL A   1      41.172  12.741  43.298  1.00  0.00     0.433 C 
ATOM     24  F   UNL A   1      42.102  12.182  44.116  1.00  0.00    -0.165 F 
ATOM     25  F   UNL A   1      40.157  13.185  44.074  1.00  0.00    -0.165 F 
ATOM     26  F   UNL A   1      40.630  11.685  42.613  1.00  0.00    -0.165 F 
ENDBRANCH  20  23
ENDBRANCH  10  15
ENDBRANCH   7   9
ENDBRANCH   6   7
ENDBRANCH   5   6
ENDBRANCH   4   5
ENDBRANCH   3   4
ENDBRANCH   2   3
ENDBRANCH   1   2
BRANCH   1  27
ATOM     27  O   UNL A   1      48.617  23.214  39.915  1.00  0.00    -0.376 OA
BRANCH  27  28
ATOM     28  C   UNL A   1      48.499  24.579  39.574  1.00  0.00     0.202 C 
BRANCH  28  29
ATOM     29  C   UNL A   1      48.350  25.086  38.120  1.00  0.00     0.261 C 
BRANCH  29  30
ATOM     30  O   UNL A   1      47.031  25.350  37.610  1.00  0.00    -0.460 OA
BRANCH  30  31
ATOM     31  C   UNL A   1      46.841  25.111  36.286  1.00  0.00     0.338 C 
ATOM     32  O   UNL A   1      47.400  24.242  35.639  1.00  0.00    -0.246 OA
BRANCH  31  33
ATOM     33  C   UNL A   1      45.744  25.974  35.765  1.00  0.00     0.060 A 
ATOM     34  C   UNL A   1      44.423  25.503  35.701  1.00  0.00     0.016 A 
ATOM     35  C   UNL A   1      46.050  27.202  35.194  1.00  0.00     0.016 A 
ATOM     36  C   UNL A   1      43.433  26.204  35.016  1.00  0.00     0.010 A 
ATOM     37  C   UNL A   1      45.048  27.921  34.524  1.00  0.00     0.010 A 
ATOM     38  C   UNL A   1      43.742  27.409  34.391  1.00  0.00    -0.014 A 
BRANCH  38  39
ATOM     39  C   UNL A   1      42.746  28.075  33.509  1.00  0.00     0.031 A 
ATOM     40  C   UNL A   1      41.763  29.048  34.103  1.00  0.00     0.074 A 
ATOM     41  C   UNL A   1      42.723  27.832  32.184  1.00  0.00     0.049 A 
ATOM     42  N   UNL A   1      40.686  29.571  33.575  1.00  0.00    -0.248 NA
ATOM     43  C   UNL A   1      42.029  29.479  35.483  1.00  0.00     0.031 C 
ATOM     44  C   UNL A   1      43.690  27.008  31.457  1.00  0.00     0.029 A 
ATOM     45  N   UNL A   1      41.843  28.247  31.216  1.00  0.00    -0.354 N 
ATOM     46  C   UNL A   1      40.119  30.359  34.572  1.00  0.00     0.074 A 
ATOM     47  C   UNL A   1      40.961  30.220  35.743  1.00  0.00     0.031 C 
ATOM     48  C   UNL A   1      43.347  26.976  30.159  1.00  0.00     0.029 A 
ATOM     49  C   UNL A   1      42.092  27.698  29.980  1.00  0.00     0.049 A 
ATOM     50  H   UNL A   1      41.106  28.875  31.389  1.00  0.00     0.167 HD
ATOM     51  C   UNL A   1      38.999  31.124  34.511  1.00  0.00     0.034 A 
ATOM     52  C   UNL A   1      41.364  27.724  28.845  1.00  0.00     0.034 A 
ATOM     53  C   UNL A   1      38.179  31.251  33.328  1.00  0.00     0.049 A 
ATOM     54  C   UNL A   1      40.047  28.460  28.839  1.00  0.00     0.074 A 
ATOM     55  C   UNL A   1      37.023  31.992  33.155  1.00  0.00     0.029 A 
ATOM     56  N   UNL A   1      38.422  30.613  32.117  1.00  0.00    -0.354 N 
ATOM     57  N   UNL A   1      39.481  29.153  29.801  1.00  0.00    -0.248 NA
ATOM     58  C   UNL A   1      39.270  28.412  27.595  1.00  0.00     0.031 C 
ATOM     59  C   UNL A   1      36.519  31.730  31.877  1.00  0.00     0.029 A 
ATOM     60  C   UNL A   1      37.414  30.911  31.210  1.00  0.00     0.049 A 
ATOM     61  H   UNL A   1      39.197  30.035  31.929  1.00  0.00     0.167 HD
ATOM     62  C   UNL A   1      38.301  29.658  29.261  1.00  0.00     0.074 A 
ATOM     63  C   UNL A   1      38.244  29.197  27.888  1.00  0.00     0.031 C 
ATOM     64  C   UNL A   1      37.357  30.440  29.844  1.00  0.00     0.034 A 
BRANCH  51  65
ATOM     65  C   UNL A   1      38.561  31.822  35.780  1.00  0.00     0.023 A 
ATOM     66  C   UNL A   1      38.054  31.115  36.883  1.00  0.00     0.031 A 
ATOM     67  C   UNL A   1      38.613  33.226  35.870  1.00  0.00     0.131 A 
ATOM     68  C   UNL A   1      37.534  31.814  37.985  1.00  0.00     0.055 A 
ATOM     69  C   UNL A   1      38.187  33.910  37.010  1.00  0.00     0.041 A 
ATOM     70  F   UNL A   1      39.063  33.962  34.842  1.00  0.00    -0.206 F 
ATOM     71  C   UNL A   1      37.625  33.204  38.069  1.00  0.00     0.022 A 
BRANCH  68  72
ATOM     72  S   UNL A   1      36.573  30.892  39.216  1.00  0.00     0.124 S 
ATOM     73  O   UNL A   1      36.189  29.700  38.460  1.00  0.00    -0.237 OA
ATOM     74  O   UNL A   1      37.542  30.685  40.285  1.00  0.00    -0.237 OA
ATOM     75  O   UNL A   1      35.470  31.795  39.537  1.00  0.00    -0.744 OA
ENDBRANCH  68  72
ENDBRANCH  51  65
BRANCH  52  76
ATOM     76  C   UNL A   1      41.832  26.994  27.631  1.00  0.00     0.023 A 
ATOM     77  C   UNL A   1      41.694  25.601  27.539  1.00  0.00     0.031 A 
ATOM     78  C   UNL A   1      42.464  27.666  26.569  1.00  0.00     0.131 A 
ATOM     79  C   UNL A   1      42.223  24.918  26.434  1.00  0.00     0.055 A 
ATOM     80  C   UNL A   1      42.924  26.989  25.439  1.00  0.00     0.041 A 
ATOM     81  F   UNL A   1      42.633  28.997  26.609  1.00  0.00    -0.206 F 
ATOM     82  C   UNL A   1      42.818  25.604  25.373  1.00  0.00     0.022 A 
BRANCH  79  83
ATOM     83  S   UNL A   1      42.215  23.106  26.456  1.00  0.00     0.124 S 
ATOM     84  O   UNL A   1      43.151  22.820  27.537  1.00  0.00    -0.237 OA
ATOM     85  O   UNL A   1      40.812  22.811  26.727  1.00  0.00    -0.237 OA
ATOM     86  O   UNL A   1      42.679  22.747  25.117  1.00  0.00    -0.744 OA
ENDBRANCH  79  83
ENDBRANCH  52  76
BRANCH  64  87
ATOM     87  C   UNL A   1      36.207  30.901  28.977  1.00  0.00     0.023 A 
ATOM     88  C   UNL A   1      35.261  30.003  28.453  1.00  0.00     0.031 A 
ATOM     89  C   UNL A   1      36.066  32.264  28.660  1.00  0.00     0.131 A 
ATOM     90  C   UNL A   1      34.255  30.470  27.591  1.00  0.00     0.055 A 
ATOM     91  C   UNL A   1      35.019  32.733  27.866  1.00  0.00     0.041 A 
ATOM     92  F   UNL A   1      36.945  33.169  29.123  1.00  0.00    -0.206 F 
ATOM     93  C   UNL A   1      34.114  31.832  27.314  1.00  0.00     0.022 A 
BRANCH  90  94
ATOM     94  S   UNL A   1      33.204  29.260  26.743  1.00  0.00     0.124 S 
ATOM     95  O   UNL A   1      34.034  28.061  26.777  1.00  0.00    -0.237 OA
ATOM     96  O   UNL A   1      32.013  29.235  27.585  1.00  0.00    -0.237 OA
ATOM     97  O   UNL A   1      33.012  29.844  25.415  1.00  0.00    -0.744 OA
ENDBRANCH  90  94
ENDBRANCH  64  87
ENDBRANCH  38  39
ENDBRANCH  31  33
ENDBRANCH  30  31
ENDBRANCH  29  30
ENDBRANCH  28  29
ENDBRANCH  27  28
ENDBRANCH   1  27
TORSDOF 23
ENDMDL
MODEL 3
REMARK VINA RESULT:     -10.1      1.847      7.703
REMARK SMILES N#Cc1ccc(C(F)(F)F)nc1N1CCOC[C@H]1C(=O)OCCOCCOCCOC(=O)c1ccc(-c2c3nc(c(-c4cc(S(=O)(=O)[O-])ccc4F)c4ccc([nH]4)c(-c4cc(S(=O)(=O)[O-])ccc4F)c4nc(c(-c5cc(S(=O)(=O)[O-])ccc5F)c5ccc2[nH]5)C=C4)C=C3)cc1
REMARK SMILES IDX 26 1 25 2 24 3 23 4 22 5 21 6 19 7 20 8 18 9 13 10 14 11
REMARK SMILES IDX 15 12 17 13 16 14 12 15 3 16 4 17 5 18 11 19 6 20 2 21 1 22
REMARK SMILES IDX 7 23 8 24 9 25 10 26 27 27 28 28 29 29 30 30 31 31 32 32
REMARK SMILES IDX 33 33 34 34 95 35 35 36 94 37 36 38 37 39 38 40 88 41 39 42
REMARK SMILES IDX 93 43 87 44 89 45 40 46 92 47 86 48 85 49 41 51 73 52 53 53
REMARK SMILES IDX 72 54 54 55 57 56 71 57 90 58 55 59 56 60 70 62 91 63 58 64
REMARK SMILES IDX 42 65 43 66 51 67 44 68 50 69 52 70 49 71 45 72 46 73 47 74
REMARK SMILES IDX 48 75 74 76 75 77 83 78 76 79 82 80 84 81 81 82 77 83 78 84
REMARK SMILES IDX 79 85 80 86 59 87 60 88 68 89 61 90 67 91 69 92 66 93 62 94
REMARK SMILES IDX 63 95 64 96 65 97
REMARK H PARENT 89 50 57 61
REMARK Flexibility Score: inf
ROOT
ATOM      1  C   UNL A   1      36.464  21.701  24.687  1.00  0.00     0.188 C 
ENDROOT
BRANCH   1   2
ATOM      2  C   UNL A   1      36.253  22.838  25.711  1.00  0.00     0.188 C 
BRANCH   2   3
ATOM      3  O   UNL A   1      34.930  23.251  26.018  1.00  0.00    -0.376 OA
BRANCH   3   4
ATOM      4  C   UNL A   1      34.179  22.478  26.939  1.00  0.00     0.202 C 
BRANCH   4   5
ATOM      5  C   UNL A   1      32.707  22.136  26.625  1.00  0.00     0.261 C 
BRANCH   5   6
ATOM      6  O   UNL A   1      32.027  22.983  25.660  1.00  0.00    -0.462 OA
BRANCH   6   7
ATOM      7  C   UNL A   1      31.602  24.214  26.071  1.00  0.00     0.331 C 
ATOM      8  O   UNL A   1      31.397  24.473  27.258  1.00  0.00    -0.250 OA
BRANCH   7   9
ATOM      9  C   UNL A   1      31.318  25.279  24.955  1.00  0.00     0.220 C 
ATOM     10  N   UNL A   1      32.283  26.418  24.713  1.00  0.00    -0.338 N 
ATOM     11  C   UNL A   1      33.630  25.983  24.297  1.00  0.00     0.147 C 
ATOM     12  C   UNL A   1      33.566  24.915  23.185  1.00  0.00     0.181 C 
ATOM     13  C   UNL A   1      31.297  24.406  23.688  1.00  0.00     0.197 C 
ATOM     14  O   UNL A   1      32.614  23.871  23.429  1.00  0.00    -0.377 OA
BRANCH  10  15
ATOM     15  C   UNL A   1      31.899  27.757  24.521  1.00  0.00     0.148 A 
ATOM     16  C   UNL A   1      32.334  28.800  25.369  1.00  0.00     0.095 A 
ATOM     17  C   UNL A   1      31.705  30.053  25.365  1.00  0.00     0.025 A 
ATOM     18  C   UNL A   1      30.694  30.317  24.476  1.00  0.00     0.035 A 
ATOM     19  N   UNL A   1      30.951  28.063  23.573  1.00  0.00    -0.225 NA
ATOM     20  C   UNL A   1      30.364  29.339  23.551  1.00  0.00     0.146 A 
BRANCH  16  21
ATOM     21  C   UNL A   1      33.447  28.710  26.260  1.00  0.00     0.103 C 
ATOM     22  N   UNL A   1      34.374  28.547  26.936  1.00  0.00    -0.192 NA
ENDBRANCH  16  21
BRANCH  20  23
ATOM     23  C   UNL A   1      29.339  29.815  22.492  1.00  0.00     0.433 C 
ATOM     24  F   UNL A   1      29.910  30.080  21.288  1.00  0.00    -0.165 F 
ATOM     25  F   UNL A   1      28.324  28.946  22.281  1.00  0.00    -0.165 F 
ATOM     26  F   UNL A   1      28.711  30.981  22.844  1.00  0.00    -0.165 F 
ENDBRANCH  20  23
ENDBRANCH  10  15
ENDBRANCH   7   9
ENDBRANCH   6   7
ENDBRANCH   5   6
ENDBRANCH   4   5
ENDBRANCH   3   4
ENDBRANCH   2   3
ENDBRANCH   1   2
BRANCH   1  27
ATOM     27  O   UNL A   1      36.369  20.398  25.203  1.00  0.00    -0.376 OA
BRANCH  27  28
ATOM     28  C   UNL A   1      37.199  19.409  24.632  1.00  0.00     0.202 C 
BRANCH  28  29
ATOM     29  C   UNL A   1      38.692  19.231  24.998  1.00  0.00     0.261 C 
BRANCH  29  30
ATOM     30  O   UNL A   1      39.141  19.650  26.299  1.00  0.00    -0.460 OA
BRANCH  30  31
ATOM     31  C   UNL A   1      40.463  19.943  26.411  1.00  0.00     0.338 C 
ATOM     32  O   UNL A   1      41.380  19.208  26.086  1.00  0.00    -0.246 OA
BRANCH  31  33
ATOM     33  C   UNL A   1      40.635  21.354  26.859  1.00  0.00     0.060 A 
ATOM     34  C   UNL A   1      39.900  22.394  26.268  1.00  0.00     0.016 A 
ATOM     35  C   UNL A   1      41.640  21.668  27.764  1.00  0.00     0.016 A 
ATOM     36  C   UNL A   1      40.206  23.731  26.513  1.00  0.00     0.010 A 
ATOM     37  C   UNL A   1      41.933  23.015  28.031  1.00  0.00     0.010 A 
ATOM     38  C   UNL A   1      41.250  24.058  27.375  1.00  0.00    -0.014 A 
BRANCH  38  39
ATOM     39  C   UNL A   1      41.702  25.469  27.506  1.00  0.00     0.031 A 
ATOM     40  C   UNL A   1      43.078  25.854  27.033  1.00  0.00     0.074 A 
ATOM     41  C   UNL A   1      40.890  26.410  28.025  1.00  0.00     0.049 A 
ATOM     42  N   UNL A   1      43.753  26.955  27.242  1.00  0.00    -0.248 NA
ATOM     43  C   UNL A   1      43.790  24.855  26.224  1.00  0.00     0.031 C 
ATOM     44  C   UNL A   1      39.492  26.205  28.411  1.00  0.00     0.029 A 
ATOM     45  N   UNL A   1      41.130  27.727  28.329  1.00  0.00    -0.354 N 
ATOM     46  C   UNL A   1      44.988  26.766  26.629  1.00  0.00     0.074 A 
ATOM     47  C   UNL A   1      44.972  25.431  26.064  1.00  0.00     0.031 C 
ATOM     48  C   UNL A   1      39.003  27.354  28.903  1.00  0.00     0.029 A 
ATOM     49  C   UNL A   1      40.071  28.346  28.951  1.00  0.00     0.049 A 
ATOM     50  H   UNL A   1      41.977  28.183  28.122  1.00  0.00     0.167 HD
ATOM     51  C   UNL A   1      46.034  27.629  26.548  1.00  0.00     0.034 A 
ATOM     52  C   UNL A   1      39.987  29.553  29.547  1.00  0.00     0.034 A 
ATOM     53  C   UNL A   1      46.021  28.957  27.114  1.00  0.00     0.049 A 
ATOM     54  C   UNL A   1      41.206  30.440  29.574  1.00  0.00     0.074 A 
ATOM     55  C   UNL A   1      47.023  29.912  27.097  1.00  0.00     0.029 A 
ATOM     56  N   UNL A   1      44.955  29.519  27.809  1.00  0.00    -0.354 N 
ATOM     57  N   UNL A   1      42.393  30.235  29.048  1.00  0.00    -0.248 NA
ATOM     58  C   UNL A   1      41.075  31.720  30.280  1.00  0.00     0.031 C 
ATOM     59  C   UNL A   1      46.601  31.007  27.857  1.00  0.00     0.029 A 
ATOM     60  C   UNL A   1      45.295  30.787  28.260  1.00  0.00     0.049 A 
ATOM     61  H   UNL A   1      44.086  29.081  27.958  1.00  0.00     0.167 HD
ATOM     62  C   UNL A   1      43.134  31.381  29.326  1.00  0.00     0.074 A 
ATOM     63  C   UNL A   1      42.258  32.274  30.055  1.00  0.00     0.031 C 
ATOM     64  C   UNL A   1      44.419  31.671  28.997  1.00  0.00     0.034 A 
BRANCH  51  65
ATOM     65  C   UNL A   1      47.299  27.130  25.884  1.00  0.00     0.023 A 
ATOM     66  C   UNL A   1      48.257  26.372  26.579  1.00  0.00     0.031 A 
ATOM     67  C   UNL A   1      47.571  27.457  24.543  1.00  0.00     0.131 A 
ATOM     68  C   UNL A   1      49.476  26.049  25.963  1.00  0.00     0.055 A 
ATOM     69  C   UNL A   1      48.742  27.045  23.904  1.00  0.00     0.041 A 
ATOM     70  F   UNL A   1      46.709  28.200  23.831  1.00  0.00    -0.206 F 
ATOM     71  C   UNL A   1      49.713  26.353  24.621  1.00  0.00     0.022 A 
BRANCH  68  72
ATOM     72  S   UNL A   1      50.816  25.391  26.994  1.00  0.00     0.124 S 
ATOM     73  O   UNL A   1      50.095  24.454  27.853  1.00  0.00    -0.237 OA
ATOM     74  O   UNL A   1      51.710  24.796  26.009  1.00  0.00    -0.237 OA
ATOM     75  O   UNL A   1      51.336  26.574  27.676  1.00  0.00    -0.744 OA
ENDBRANCH  68  72
ENDBRANCH  51  65
BRANCH  52  76
ATOM     76  C   UNL A   1      38.721  29.981  30.210  1.00  0.00     0.023 A 
ATOM     77  C   UNL A   1      37.801  30.797  29.535  1.00  0.00     0.031 A 
ATOM     78  C   UNL A   1      38.432  29.622  31.540  1.00  0.00     0.131 A 
ATOM     79  C   UNL A   1      36.661  31.266  30.203  1.00  0.00     0.055 A 
ATOM     80  C   UNL A   1      37.261  30.034  32.176  1.00  0.00     0.041 A 
ATOM     81  F   UNL A   1      39.283  28.852  32.238  1.00  0.00    -0.206 F 
ATOM     82  C   UNL A   1      36.373  30.874  31.512  1.00  0.00     0.022 A 
BRANCH  79  83
ATOM     83  S   UNL A   1      35.614  32.487  29.368  1.00  0.00     0.124 S 
ATOM     84  O   UNL A   1      36.452  33.679  29.420  1.00  0.00    -0.237 OA
ATOM     85  O   UNL A   1      35.436  31.885  28.051  1.00  0.00    -0.237 OA
ATOM     86  O   UNL A   1      34.413  32.531  30.200  1.00  0.00    -0.744 OA
ENDBRANCH  79  83
ENDBRANCH  52  76
BRANCH  64  87
ATOM     87  C   UNL A   1      44.937  33.041  29.372  1.00  0.00     0.023 A 
ATOM     88  C   UNL A   1      44.754  34.161  28.543  1.00  0.00     0.031 A 
ATOM     89  C   UNL A   1      45.640  33.222  30.577  1.00  0.00     0.131 A 
ATOM     90  C   UNL A   1      45.320  35.396  28.900  1.00  0.00     0.055 A 
ATOM     91  C   UNL A   1      46.133  34.469  30.964  1.00  0.00     0.041 A 
ATOM     92  F   UNL A   1      45.856  32.187  31.406  1.00  0.00    -0.206 F 
ATOM     93  C   UNL A   1      45.987  35.562  30.116  1.00  0.00     0.022 A 
BRANCH  90  94
ATOM     94  S   UNL A   1      45.274  36.754  27.700  1.00  0.00     0.124 S 
ATOM     95  O   UNL A   1      44.339  36.246  26.702  1.00  0.00    -0.237 OA
ATOM     96  O   UNL A   1      44.798  37.871  28.509  1.00  0.00    -0.237 OA
ATOM     97  O   UNL A   1      46.662  36.862  27.251  1.00  0.00    -0.744 OA
ENDBRANCH  90  94
ENDBRANCH  64  87
ENDBRANCH  38  39
ENDBRANCH  31  33
ENDBRANCH  30  31
ENDBRANCH  29  30
ENDBRANCH  28  29
ENDBRANCH  27  28
ENDBRANCH   1  27
TORSDOF 23
ENDMDL
