MODEL 1
REMARK VINA RESULT:      -9.6      0.000      0.000
REMARK SMILES CCS(=O)(=O)Nc1ccc(N2CC[NH+](C)CC2)cc1C(=O)OCCOCCOCCOC(=O)c1ccc(-c2c3nc(c(-c4cc(S(=O)(=O)[O-])ccc4F)c4ccc([nH]4)c(-c4cc(S(=O)(=O)[O-])ccc4F)c4nc(c(-c5cc(S(=O)(=O)[O-])ccc5F)c5ccc2[nH]5)C=C4)C=C3)cc1
REMARK SMILES IDX 26 1 25 2 24 3 23 4 22 5 20 6 21 7 19 8 7 9 8 10 9 11 18 12
REMARK SMILES IDX 10 13 6 14 3 16 4 17 5 18 2 19 1 20 11 21 12 22 17 23 13 24
REMARK SMILES IDX 16 25 14 26 15 27 27 29 28 30 29 31 30 32 31 33 32 34 33 35
REMARK SMILES IDX 34 36 35 37 96 38 36 39 95 40 37 41 38 42 39 43 89 44 40 45
REMARK SMILES IDX 94 46 88 47 90 48 41 49 93 50 87 51 86 52 42 54 74 55 54 56
REMARK SMILES IDX 73 57 55 58 58 59 72 60 91 61 56 62 57 63 71 65 92 66 59 67
REMARK SMILES IDX 43 68 44 69 52 70 45 71 51 72 53 73 50 74 46 75 47 76 48 77
REMARK SMILES IDX 49 78 75 79 76 80 84 81 77 82 83 83 85 84 82 85 78 86 79 87
REMARK SMILES IDX 80 88 81 89 60 90 61 91 69 92 62 93 68 94 70 95 67 96 63 97
REMARK SMILES IDX 64 98 65 99 66 100
REMARK H PARENT 6 15 14 28 90 53 58 64
REMARK Flexibility Score: inf
ROOT
ATOM      1  C   UNL A   1      40.019  23.007  26.616  1.00  0.00     0.188 C 
ENDROOT
BRANCH   1   2
ATOM      2  O   UNL A   1      38.692  23.085  26.112  1.00  0.00    -0.376 OA
BRANCH   2   3
ATOM      3  C   UNL A   1      37.999  21.850  26.029  1.00  0.00     0.202 C 
BRANCH   3   4
ATOM      4  C   UNL A   1      37.373  21.622  24.663  1.00  0.00     0.261 C 
BRANCH   4   5
ATOM      5  O   UNL A   1      36.058  22.176  24.476  1.00  0.00    -0.460 OA
BRANCH   5   6
ATOM      6  C   UNL A   1      35.783  23.019  23.455  1.00  0.00     0.340 C 
ATOM      7  O   UNL A   1      36.543  23.355  22.567  1.00  0.00    -0.246 OA
BRANCH   6   8
ATOM      8  C   UNL A   1      34.385  23.513  23.592  1.00  0.00     0.086 A 
ATOM      9  C   UNL A   1      33.303  22.645  23.839  1.00  0.00     0.063 A 
ATOM     10  C   UNL A   1      32.031  23.177  24.024  1.00  0.00     0.030 A 
ATOM     11  C   UNL A   1      31.839  24.564  23.939  1.00  0.00     0.028 A 
ATOM     12  C   UNL A   1      34.173  24.897  23.505  1.00  0.00     0.043 A 
ATOM     13  C   UNL A   1      32.897  25.446  23.670  1.00  0.00     0.038 A 
BRANCH   9  14
ATOM     14  N   UNL A   1      33.452  21.230  23.759  1.00  0.00    -0.283 N 
ATOM     15  H   UNL A   1      33.634  20.851  22.868  1.00  0.00     0.180 HD
BRANCH  14  16
ATOM     16  S   UNL A   1      33.348  20.159  25.015  1.00  0.00     0.232 S 
ATOM     17  O   UNL A   1      34.276  19.100  24.659  1.00  0.00    -0.207 OA
ATOM     18  O   UNL A   1      31.945  19.844  25.187  1.00  0.00    -0.207 OA
BRANCH  16  19
ATOM     19  C   UNL A   1      33.909  20.846  26.573  1.00  0.00     0.156 C 
ATOM     20  C   UNL A   1      33.148  21.981  27.204  1.00  0.00     0.023 C 
ENDBRANCH  16  19
ENDBRANCH  14  16
ENDBRANCH   9  14
BRANCH  13  21
ATOM     21  N   UNL A   1      32.691  26.801  23.598  1.00  0.00    -0.360 N 
ATOM     22  C   UNL A   1      33.771  27.796  23.682  1.00  0.00     0.178 C 
ATOM     23  C   UNL A   1      31.337  27.359  23.484  1.00  0.00     0.178 C 
ATOM     24  C   UNL A   1      33.468  28.863  24.762  1.00  0.00     0.283 C 
ATOM     25  C   UNL A   1      31.101  28.395  24.609  1.00  0.00     0.283 C 
ATOM     26  N   UNL A   1      32.121  29.464  24.613  1.00  0.00    -0.334 N 
ATOM     27  C   UNL A   1      31.872  30.414  25.701  1.00  0.00     0.332 C 
ATOM     28  H   UNL A   1      32.073  29.970  23.729  1.00  0.00     0.347 HD
ENDBRANCH  13  21
ENDBRANCH   6   8
ENDBRANCH   5   6
ENDBRANCH   4   5
ENDBRANCH   3   4
ENDBRANCH   2   3
ENDBRANCH   1   2
BRANCH   1  29
ATOM     29  C   UNL A   1      40.410  21.631  27.200  1.00  0.00     0.188 C 
BRANCH  29  30
ATOM     30  O   UNL A   1      41.636  21.013  26.840  1.00  0.00    -0.376 OA
BRANCH  30  31
ATOM     31  C   UNL A   1      41.616  19.671  26.381  1.00  0.00     0.202 C 
BRANCH  31  32
ATOM     32  C   UNL A   1      42.897  19.071  25.777  1.00  0.00     0.261 C 
BRANCH  32  33
ATOM     33  O   UNL A   1      43.371  19.712  24.579  1.00  0.00    -0.460 OA
BRANCH  33  34
ATOM     34  C   UNL A   1      44.648  20.173  24.615  1.00  0.00     0.338 C 
ATOM     35  O   UNL A   1      45.617  19.674  24.065  1.00  0.00    -0.246 OA
BRANCH  34  36
ATOM     36  C   UNL A   1      44.672  21.526  25.230  1.00  0.00     0.060 A 
ATOM     37  C   UNL A   1      44.417  22.635  24.406  1.00  0.00     0.016 A 
ATOM     38  C   UNL A   1      44.922  21.716  26.590  1.00  0.00     0.016 A 
ATOM     39  C   UNL A   1      44.425  23.929  24.931  1.00  0.00     0.010 A 
ATOM     40  C   UNL A   1      44.968  23.018  27.109  1.00  0.00     0.010 A 
ATOM     41  C   UNL A   1      44.745  24.133  26.276  1.00  0.00    -0.014 A 
BRANCH  41  42
ATOM     42  C   UNL A   1      45.099  25.498  26.748  1.00  0.00     0.031 A 
ATOM     43  C   UNL A   1      43.987  26.357  27.291  1.00  0.00     0.074 A 
ATOM     44  C   UNL A   1      46.359  25.968  26.727  1.00  0.00     0.049 A 
ATOM     45  N   UNL A   1      44.006  27.610  27.664  1.00  0.00    -0.248 NA
ATOM     46  C   UNL A   1      42.675  25.704  27.429  1.00  0.00     0.031 C 
ATOM     47  C   UNL A   1      47.539  25.218  26.303  1.00  0.00     0.029 A 
ATOM     48  N   UNL A   1      46.851  27.208  27.059  1.00  0.00    -0.354 N 
ATOM     49  C   UNL A   1      42.707  27.899  28.071  1.00  0.00     0.074 A 
ATOM     50  C   UNL A   1      41.924  26.699  27.874  1.00  0.00     0.031 C 
ATOM     51  C   UNL A   1      48.615  26.023  26.376  1.00  0.00     0.029 A 
ATOM     52  C   UNL A   1      48.194  27.357  26.804  1.00  0.00     0.049 A 
ATOM     53  H   UNL A   1      46.294  27.922  27.445  1.00  0.00     0.167 HD
ATOM     54  C   UNL A   1      42.210  29.060  28.566  1.00  0.00     0.034 A 
ATOM     55  C   UNL A   1      48.981  28.455  26.867  1.00  0.00     0.034 A 
ATOM     56  C   UNL A   1      42.990  30.259  28.738  1.00  0.00     0.049 A 
ATOM     57  C   UNL A   1      48.378  29.776  27.295  1.00  0.00     0.074 A 
ATOM     58  C   UNL A   1      42.583  31.486  29.231  1.00  0.00     0.029 A 
ATOM     59  N   UNL A   1      44.332  30.387  28.409  1.00  0.00    -0.354 N 
ATOM     60  N   UNL A   1      47.146  30.044  27.666  1.00  0.00    -0.248 NA
ATOM     61  C   UNL A   1      49.272  30.944  27.310  1.00  0.00     0.031 C 
ATOM     62  C   UNL A   1      43.656  32.377  29.126  1.00  0.00     0.029 A 
ATOM     63  C   UNL A   1      44.758  31.685  28.649  1.00  0.00     0.049 A 
ATOM     64  H   UNL A   1      44.898  29.664  28.055  1.00  0.00     0.167 HD
ATOM     65  C   UNL A   1      47.131  31.400  27.989  1.00  0.00     0.074 A 
ATOM     66  C   UNL A   1      48.475  31.893  27.776  1.00  0.00     0.031 C 
ATOM     67  C   UNL A   1      46.100  32.169  28.429  1.00  0.00     0.034 A 
BRANCH  54  68
ATOM     68  C   UNL A   1      40.737  29.094  28.887  1.00  0.00     0.023 A 
ATOM     69  C   UNL A   1      40.265  29.029  30.209  1.00  0.00     0.031 A 
ATOM     70  C   UNL A   1      39.789  29.148  27.849  1.00  0.00     0.131 A 
ATOM     71  C   UNL A   1      38.886  28.946  30.455  1.00  0.00     0.055 A 
ATOM     72  C   UNL A   1      38.417  29.148  28.106  1.00  0.00     0.041 A 
ATOM     73  F   UNL A   1      40.182  29.183  26.567  1.00  0.00    -0.206 F 
ATOM     74  C   UNL A   1      37.959  29.031  29.415  1.00  0.00     0.022 A 
BRANCH  71  75
ATOM     75  S   UNL A   1      38.329  28.577  32.141  1.00  0.00     0.124 S 
ATOM     76  O   UNL A   1      36.976  29.130  32.132  1.00  0.00    -0.237 OA
ATOM     77  O   UNL A   1      38.424  27.123  32.193  1.00  0.00    -0.237 OA
ATOM     78  O   UNL A   1      39.283  29.296  32.983  1.00  0.00    -0.744 OA
ENDBRANCH  71  75
ENDBRANCH  54  68
BRANCH  55  79
ATOM     79  C   UNL A   1      50.413  28.390  26.449  1.00  0.00     0.023 A 
ATOM     80  C   UNL A   1      50.783  28.505  25.100  1.00  0.00     0.031 A 
ATOM     81  C   UNL A   1      51.426  28.127  27.390  1.00  0.00     0.131 A 
ATOM     82  C   UNL A   1      52.123  28.312  24.723  1.00  0.00     0.055 A 
ATOM     83  C   UNL A   1      52.763  27.989  27.016  1.00  0.00     0.041 A 
ATOM     84  F   UNL A   1      51.126  27.997  28.692  1.00  0.00    -0.206 F 
ATOM     85  C   UNL A   1      53.117  28.068  25.673  1.00  0.00     0.022 A 
BRANCH  82  86
ATOM     86  S   UNL A   1      52.535  28.304  22.956  1.00  0.00     0.124 S 
ATOM     87  O   UNL A   1      53.895  27.778  22.973  1.00  0.00    -0.237 OA
ATOM     88  O   UNL A   1      51.511  27.418  22.414  1.00  0.00    -0.237 OA
ATOM     89  O   UNL A   1      52.410  29.707  22.572  1.00  0.00    -0.744 OA
ENDBRANCH  82  86
ENDBRANCH  55  79
BRANCH  67  90
ATOM     90  C   UNL A   1      46.397  33.612  28.764  1.00  0.00     0.023 A 
ATOM     91  C   UNL A   1      46.145  34.656  27.855  1.00  0.00     0.031 A 
ATOM     92  C   UNL A   1      46.928  33.946  30.023  1.00  0.00     0.131 A 
ATOM     93  C   UNL A   1      46.463  35.978  28.205  1.00  0.00     0.055 A 
ATOM     94  C   UNL A   1      47.188  35.269  30.386  1.00  0.00     0.041 A 
ATOM     95  F   UNL A   1      47.189  32.991  30.929  1.00  0.00    -0.206 F 
ATOM     96  C   UNL A   1      46.966  36.293  29.470  1.00  0.00     0.022 A 
BRANCH  93  97
ATOM     97  S   UNL A   1      46.281  37.281  26.955  1.00  0.00     0.124 S 
ATOM     98  O   UNL A   1      44.838  37.495  26.948  1.00  0.00    -0.237 OA
ATOM     99  O   UNL A   1      47.084  38.363  27.512  1.00  0.00    -0.237 OA
ATOM    100  O   UNL A   1      46.823  36.670  25.742  1.00  0.00    -0.744 OA
ENDBRANCH  93  97
ENDBRANCH  67  90
ENDBRANCH  41  42
ENDBRANCH  34  36
ENDBRANCH  33  34
ENDBRANCH  32  33
ENDBRANCH  31  32
ENDBRANCH  30  31
ENDBRANCH  29  30
ENDBRANCH   1  29
TORSDOF 24
ENDMDL
MODEL 2
REMARK VINA RESULT:      -9.2      5.890     11.961
REMARK SMILES CCS(=O)(=O)Nc1ccc(N2CC[NH+](C)CC2)cc1C(=O)OCCOCCOCCOC(=O)c1ccc(-c2c3nc(c(-c4cc(S(=O)(=O)[O-])ccc4F)c4ccc([nH]4)c(-c4cc(S(=O)(=O)[O-])ccc4F)c4nc(c(-c5cc(S(=O)(=O)[O-])ccc5F)c5ccc2[nH]5)C=C4)C=C3)cc1
REMARK SMILES IDX 26 1 25 2 24 3 23 4 22 5 20 6 21 7 19 8 7 9 8 10 9 11 18 12
REMARK SMILES IDX 10 13 6 14 3 16 4 17 5 18 2 19 1 20 11 21 12 22 17 23 13 24
REMARK SMILES IDX 16 25 14 26 15 27 27 29 28 30 29 31 30 32 31 33 32 34 33 35
REMARK SMILES IDX 34 36 35 37 96 38 36 39 95 40 37 41 38 42 39 43 89 44 40 45
REMARK SMILES IDX 94 46 88 47 90 48 41 49 93 50 87 51 86 52 42 54 74 55 54 56
REMARK SMILES IDX 73 57 55 58 58 59 72 60 91 61 56 62 57 63 71 65 92 66 59 67
REMARK SMILES IDX 43 68 44 69 52 70 45 71 51 72 53 73 50 74 46 75 47 76 48 77
REMARK SMILES IDX 49 78 75 79 76 80 84 81 77 82 83 83 85 84 82 85 78 86 79 87
REMARK SMILES IDX 80 88 81 89 60 90 61 91 69 92 62 93 68 94 70 95 67 96 63 97
REMARK SMILES IDX 64 98 65 99 66 100
REMARK H PARENT 6 15 14 28 90 53 58 64
REMARK Flexibility Score: inf
ROOT
ATOM      1  C   UNL A   1      37.786  32.041  37.634  1.00  0.00     0.188 C 
ENDROOT
BRANCH   1   2
ATOM      2  O   UNL A   1      38.807  31.355  36.923  1.00  0.00    -0.376 OA
BRANCH   2   3
ATOM      3  C   UNL A   1      38.365  30.585  35.816  1.00  0.00     0.202 C 
BRANCH   3   4
ATOM      4  C   UNL A   1      39.329  30.645  34.642  1.00  0.00     0.261 C 
BRANCH   4   5
ATOM      5  O   UNL A   1      39.198  29.592  33.669  1.00  0.00    -0.460 OA
BRANCH   5   6
ATOM      6  C   UNL A   1      38.020  29.339  33.055  1.00  0.00     0.340 C 
ATOM      7  O   UNL A   1      37.365  28.317  33.136  1.00  0.00    -0.246 OA
BRANCH   6   8
ATOM      8  C   UNL A   1      37.641  30.512  32.220  1.00  0.00     0.086 A 
ATOM      9  C   UNL A   1      38.274  30.796  30.993  1.00  0.00     0.063 A 
ATOM     10  C   UNL A   1      37.826  31.867  30.228  1.00  0.00     0.030 A 
ATOM     11  C   UNL A   1      36.769  32.662  30.696  1.00  0.00     0.028 A 
ATOM     12  C   UNL A   1      36.589  31.322  32.675  1.00  0.00     0.043 A 
ATOM     13  C   UNL A   1      36.141  32.414  31.926  1.00  0.00     0.038 A 
BRANCH   9  14
ATOM     14  N   UNL A   1      39.452  30.105  30.587  1.00  0.00    -0.283 N 
ATOM     15  H   UNL A   1      40.270  30.278  31.107  1.00  0.00     0.180 HD
BRANCH  14  16
ATOM     16  S   UNL A   1      39.582  29.041  29.328  1.00  0.00     0.232 S 
ATOM     17  O   UNL A   1      40.574  29.641  28.454  1.00  0.00    -0.207 OA
ATOM     18  O   UNL A   1      38.242  28.812  28.828  1.00  0.00    -0.207 OA
BRANCH  16  19
ATOM     19  C   UNL A   1      40.219  27.440  29.822  1.00  0.00     0.156 C 
ATOM     20  C   UNL A   1      40.438  26.372  28.783  1.00  0.00     0.023 C 
ENDBRANCH  16  19
ENDBRANCH  14  16
ENDBRANCH   9  14
BRANCH  13  21
ATOM     21  N   UNL A   1      35.103  33.199  32.364  1.00  0.00    -0.360 N 
ATOM     22  C   UNL A   1      34.196  33.928  31.464  1.00  0.00     0.178 C 
ATOM     23  C   UNL A   1      34.861  33.410  33.797  1.00  0.00     0.178 C 
ATOM     24  C   UNL A   1      34.112  35.426  31.845  1.00  0.00     0.283 C 
ATOM     25  C   UNL A   1      34.816  34.927  34.104  1.00  0.00     0.283 C 
ATOM     26  N   UNL A   1      33.814  35.636  33.282  1.00  0.00    -0.334 N 
ATOM     27  C   UNL A   1      33.813  37.070  33.591  1.00  0.00     0.332 C 
ATOM     28  H   UNL A   1      32.889  35.264  33.494  1.00  0.00     0.347 HD
ENDBRANCH  13  21
ENDBRANCH   6   8
ENDBRANCH   5   6
ENDBRANCH   4   5
ENDBRANCH   3   4
ENDBRANCH   2   3
ENDBRANCH   1   2
BRANCH   1  29
ATOM     29  C   UNL A   1      38.296  33.058  38.681  1.00  0.00     0.188 C 
BRANCH  29  30
ATOM     30  O   UNL A   1      39.261  32.678  39.650  1.00  0.00    -0.376 OA
BRANCH  30  31
ATOM     31  C   UNL A   1      39.929  33.692  40.384  1.00  0.00     0.202 C 
BRANCH  31  32
ATOM     32  C   UNL A   1      41.376  34.053  40.007  1.00  0.00     0.261 C 
BRANCH  32  33
ATOM     33  O   UNL A   1      41.597  35.432  39.665  1.00  0.00    -0.460 OA
BRANCH  33  34
ATOM     34  C   UNL A   1      40.891  35.904  38.605  1.00  0.00     0.338 C 
ATOM     35  O   UNL A   1      40.105  36.839  38.613  1.00  0.00    -0.246 OA
BRANCH  34  36
ATOM     36  C   UNL A   1      41.388  35.273  37.355  1.00  0.00     0.060 A 
ATOM     37  C   UNL A   1      40.445  34.749  36.455  1.00  0.00     0.016 A 
ATOM     38  C   UNL A   1      42.749  35.203  37.051  1.00  0.00     0.016 A 
ATOM     39  C   UNL A   1      40.855  34.145  35.265  1.00  0.00     0.010 A 
ATOM     40  C   UNL A   1      43.163  34.563  35.874  1.00  0.00     0.010 A 
ATOM     41  C   UNL A   1      42.219  34.008  34.987  1.00  0.00    -0.014 A 
BRANCH  41  42
ATOM     42  C   UNL A   1      42.660  33.072  33.919  1.00  0.00     0.031 A 
ATOM     43  C   UNL A   1      42.885  33.641  32.543  1.00  0.00     0.074 A 
ATOM     44  C   UNL A   1      42.882  31.765  34.149  1.00  0.00     0.049 A 
ATOM     45  N   UNL A   1      43.164  33.029  31.422  1.00  0.00    -0.248 NA
ATOM     46  C   UNL A   1      42.777  35.104  32.424  1.00  0.00     0.031 C 
ATOM     47  C   UNL A   1      42.780  31.100  35.446  1.00  0.00     0.029 A 
ATOM     48  N   UNL A   1      43.227  30.757  33.281  1.00  0.00    -0.354 N 
ATOM     49  C   UNL A   1      43.256  34.031  30.461  1.00  0.00     0.074 A 
ATOM     50  C   UNL A   1      42.977  35.284  31.128  1.00  0.00     0.031 C 
ATOM     51  C   UNL A   1      43.030  29.787  35.282  1.00  0.00     0.029 A 
ATOM     52  C   UNL A   1      43.262  29.511  33.864  1.00  0.00     0.049 A 
ATOM     53  H   UNL A   1      43.430  30.911  32.329  1.00  0.00     0.167 HD
ATOM     54  C   UNL A   1      43.548  33.919  29.142  1.00  0.00     0.034 A 
ATOM     55  C   UNL A   1      43.418  28.288  33.310  1.00  0.00     0.034 A 
ATOM     56  C   UNL A   1      43.803  32.665  28.478  1.00  0.00     0.049 A 
ATOM     57  C   UNL A   1      43.611  28.172  31.812  1.00  0.00     0.074 A 
ATOM     58  C   UNL A   1      44.107  32.442  27.147  1.00  0.00     0.029 A 
ATOM     59  N   UNL A   1      43.767  31.421  29.092  1.00  0.00    -0.354 N 
ATOM     60  N   UNL A   1      43.684  29.123  30.909  1.00  0.00    -0.248 NA
ATOM     61  C   UNL A   1      43.740  26.815  31.261  1.00  0.00     0.031 C 
ATOM     62  C   UNL A   1      44.178  31.061  26.940  1.00  0.00     0.029 A 
ATOM     63  C   UNL A   1      44.003  30.424  28.158  1.00  0.00     0.049 A 
ATOM     64  H   UNL A   1      43.597  31.269  30.050  1.00  0.00     0.167 HD
ATOM     65  C   UNL A   1      43.900  28.479  29.692  1.00  0.00     0.074 A 
ATOM     66  C   UNL A   1      43.953  27.061  29.976  1.00  0.00     0.031 C 
ATOM     67  C   UNL A   1      44.049  29.011  28.451  1.00  0.00     0.034 A 
BRANCH  54  68
ATOM     68  C   UNL A   1      43.536  35.187  28.326  1.00  0.00     0.023 A 
ATOM     69  C   UNL A   1      44.720  35.870  27.999  1.00  0.00     0.031 A 
ATOM     70  C   UNL A   1      42.315  35.745  27.906  1.00  0.00     0.131 A 
ATOM     71  C   UNL A   1      44.654  37.107  27.340  1.00  0.00     0.055 A 
ATOM     72  C   UNL A   1      42.261  36.935  27.178  1.00  0.00     0.041 A 
ATOM     73  F   UNL A   1      41.151  35.151  28.213  1.00  0.00    -0.206 F 
ATOM     74  C   UNL A   1      43.435  37.631  26.904  1.00  0.00     0.022 A 
BRANCH  71  75
ATOM     75  S   UNL A   1      46.171  38.090  27.191  1.00  0.00     0.124 S 
ATOM     76  O   UNL A   1      46.933  37.632  28.351  1.00  0.00    -0.237 OA
ATOM     77  O   UNL A   1      46.683  37.684  25.888  1.00  0.00    -0.237 OA
ATOM     78  O   UNL A   1      45.694  39.470  27.273  1.00  0.00    -0.744 OA
ENDBRANCH  71  75
ENDBRANCH  54  68
BRANCH  55  79
ATOM     79  C   UNL A   1      43.330  27.056  34.148  1.00  0.00     0.023 A 
ATOM     80  C   UNL A   1      44.481  26.338  34.509  1.00  0.00     0.031 A 
ATOM     81  C   UNL A   1      42.081  26.532  34.528  1.00  0.00     0.131 A 
ATOM     82  C   UNL A   1      44.358  25.114  35.188  1.00  0.00     0.055 A 
ATOM     83  C   UNL A   1      41.967  25.343  35.250  1.00  0.00     0.041 A 
ATOM     84  F   UNL A   1      40.948  27.172  34.200  1.00  0.00    -0.206 F 
ATOM     85  C   UNL A   1      43.110  24.618  35.572  1.00  0.00     0.022 A 
BRANCH  82  86
ATOM     86  S   UNL A   1      45.855  24.135  35.491  1.00  0.00     0.124 S 
ATOM     87  O   UNL A   1      46.148  23.624  34.157  1.00  0.00    -0.237 OA
ATOM     88  O   UNL A   1      46.773  25.143  36.008  1.00  0.00    -0.237 OA
ATOM     89  O   UNL A   1      45.417  23.136  36.462  1.00  0.00    -0.744 OA
ENDBRANCH  82  86
ENDBRANCH  55  79
BRANCH  67  90
ATOM     90  C   UNL A   1      44.339  28.061  27.313  1.00  0.00     0.023 A 
ATOM     91  C   UNL A   1      45.634  27.577  27.056  1.00  0.00     0.031 A 
ATOM     92  C   UNL A   1      43.293  27.621  26.479  1.00  0.00     0.131 A 
ATOM     93  C   UNL A   1      45.856  26.716  25.969  1.00  0.00     0.055 A 
ATOM     94  C   UNL A   1      43.511  26.721  25.436  1.00  0.00     0.041 A 
ATOM     95  F   UNL A   1      42.037  28.052  26.677  1.00  0.00    -0.206 F 
ATOM     96  C   UNL A   1      44.801  26.271  25.169  1.00  0.00     0.022 A 
BRANCH  93  97
ATOM     97  S   UNL A   1      47.560  26.240  25.564  1.00  0.00     0.124 S 
ATOM     98  O   UNL A   1      47.386  25.537  24.298  1.00  0.00    -0.237 OA
ATOM     99  O   UNL A   1      48.236  27.531  25.489  1.00  0.00    -0.237 OA
ATOM    100  O   UNL A   1      47.958  25.399  26.692  1.00  0.00    -0.744 OA
ENDBRANCH  93  97
ENDBRANCH  67  90
ENDBRANCH  41  42
ENDBRANCH  34  36
ENDBRANCH  33  34
ENDBRANCH  32  33
ENDBRANCH  31  32
ENDBRANCH  30  31
ENDBRANCH  29  30
ENDBRANCH   1  29
TORSDOF 24
ENDMDL
MODEL 3
REMARK VINA RESULT:      -9.0      3.258      4.488
REMARK SMILES CCS(=O)(=O)Nc1ccc(N2CC[NH+](C)CC2)cc1C(=O)OCCOCCOCCOC(=O)c1ccc(-c2c3nc(c(-c4cc(S(=O)(=O)[O-])ccc4F)c4ccc([nH]4)c(-c4cc(S(=O)(=O)[O-])ccc4F)c4nc(c(-c5cc(S(=O)(=O)[O-])ccc5F)c5ccc2[nH]5)C=C4)C=C3)cc1
REMARK SMILES IDX 26 1 25 2 24 3 23 4 22 5 20 6 21 7 19 8 7 9 8 10 9 11 18 12
REMARK SMILES IDX 10 13 6 14 3 16 4 17 5 18 2 19 1 20 11 21 12 22 17 23 13 24
REMARK SMILES IDX 16 25 14 26 15 27 27 29 28 30 29 31 30 32 31 33 32 34 33 35
REMARK SMILES IDX 34 36 35 37 96 38 36 39 95 40 37 41 38 42 39 43 89 44 40 45
REMARK SMILES IDX 94 46 88 47 90 48 41 49 93 50 87 51 86 52 42 54 74 55 54 56
REMARK SMILES IDX 73 57 55 58 58 59 72 60 91 61 56 62 57 63 71 65 92 66 59 67
REMARK SMILES IDX 43 68 44 69 52 70 45 71 51 72 53 73 50 74 46 75 47 76 48 77
REMARK SMILES IDX 49 78 75 79 76 80 84 81 77 82 83 83 85 84 82 85 78 86 79 87
REMARK SMILES IDX 80 88 81 89 60 90 61 91 69 92 62 93 68 94 70 95 67 96 63 97
REMARK SMILES IDX 64 98 65 99 66 100
REMARK H PARENT 6 15 14 28 90 53 58 64
REMARK Flexibility Score: inf
ROOT
ATOM      1  C   UNL A   1      40.316  21.334  26.793  1.00  0.00     0.188 C 
ENDROOT
BRANCH   1   2
ATOM      2  O   UNL A   1      39.273  20.909  25.926  1.00  0.00    -0.376 OA
BRANCH   2   3
ATOM      3  C   UNL A   1      38.289  21.888  25.632  1.00  0.00     0.202 C 
BRANCH   3   4
ATOM      4  C   UNL A   1      37.133  21.327  24.820  1.00  0.00     0.261 C 
BRANCH   4   5
ATOM      5  O   UNL A   1      35.982  22.182  24.694  1.00  0.00    -0.460 OA
BRANCH   5   6
ATOM      6  C   UNL A   1      35.730  22.868  23.556  1.00  0.00     0.340 C 
ATOM      7  O   UNL A   1      36.529  23.135  22.678  1.00  0.00    -0.246 OA
BRANCH   6   8
ATOM      8  C   UNL A   1      34.301  23.285  23.542  1.00  0.00     0.086 A 
ATOM      9  C   UNL A   1      33.247  22.354  23.631  1.00  0.00     0.063 A 
ATOM     10  C   UNL A   1      31.935  22.814  23.682  1.00  0.00     0.030 A 
ATOM     11  C   UNL A   1      31.678  24.192  23.619  1.00  0.00     0.028 A 
ATOM     12  C   UNL A   1      34.025  24.659  23.475  1.00  0.00     0.043 A 
ATOM     13  C   UNL A   1      32.710  25.135  23.505  1.00  0.00     0.038 A 
BRANCH   9  14
ATOM     14  N   UNL A   1      33.481  20.953  23.525  1.00  0.00    -0.283 N 
ATOM     15  H   UNL A   1      33.810  20.622  22.658  1.00  0.00     0.180 HD
BRANCH  14  16
ATOM     16  S   UNL A   1      33.255  19.826  24.714  1.00  0.00     0.232 S 
ATOM     17  O   UNL A   1      31.888  19.374  24.523  1.00  0.00    -0.207 OA
ATOM     18  O   UNL A   1      33.626  20.452  25.966  1.00  0.00    -0.207 OA
BRANCH  16  19
ATOM     19  C   UNL A   1      34.311  18.389  24.532  1.00  0.00     0.156 C 
ATOM     20  C   UNL A   1      33.909  17.282  23.595  1.00  0.00     0.023 C 
ENDBRANCH  16  19
ENDBRANCH  14  16
ENDBRANCH   9  14
BRANCH  13  21
ATOM     21  N   UNL A   1      32.440  26.480  23.452  1.00  0.00    -0.360 N 
ATOM     22  C   UNL A   1      33.473  27.514  23.281  1.00  0.00     0.178 C 
ATOM     23  C   UNL A   1      31.072  26.988  23.622  1.00  0.00     0.178 C 
ATOM     24  C   UNL A   1      33.367  28.599  24.379  1.00  0.00     0.283 C 
ATOM     25  C   UNL A   1      31.043  28.047  24.751  1.00  0.00     0.283 C 
ATOM     26  N   UNL A   1      31.997  29.149  24.513  1.00  0.00    -0.334 N 
ATOM     27  C   UNL A   1      31.950  30.121  25.610  1.00  0.00     0.332 C 
ATOM     28  H   UNL A   1      31.739  29.629  23.650  1.00  0.00     0.347 HD
ENDBRANCH  13  21
ENDBRANCH   6   8
ENDBRANCH   5   6
ENDBRANCH   4   5
ENDBRANCH   3   4
ENDBRANCH   2   3
ENDBRANCH   1   2
BRANCH   1  29
ATOM     29  C   UNL A   1      41.699  21.483  26.120  1.00  0.00     0.188 C 
BRANCH  29  30
ATOM     30  O   UNL A   1      42.470  22.661  26.299  1.00  0.00    -0.376 OA
BRANCH  30  31
ATOM     31  C   UNL A   1      42.920  23.364  25.152  1.00  0.00     0.202 C 
BRANCH  31  32
ATOM     32  C   UNL A   1      44.199  22.889  24.442  1.00  0.00     0.261 C 
BRANCH  32  33
ATOM     33  O   UNL A   1      45.239  23.876  24.321  1.00  0.00    -0.460 OA
BRANCH  33  34
ATOM     34  C   UNL A   1      46.016  24.061  25.419  1.00  0.00     0.338 C 
ATOM     35  O   UNL A   1      46.992  23.401  25.738  1.00  0.00    -0.246 OA
BRANCH  34  36
ATOM     36  C   UNL A   1      45.656  25.346  26.073  1.00  0.00     0.060 A 
ATOM     37  C   UNL A   1      45.042  26.340  25.293  1.00  0.00     0.016 A 
ATOM     38  C   UNL A   1      45.897  25.578  27.429  1.00  0.00     0.016 A 
ATOM     39  C   UNL A   1      44.682  27.565  25.856  1.00  0.00     0.010 A 
ATOM     40  C   UNL A   1      45.570  26.824  27.985  1.00  0.00     0.010 A 
ATOM     41  C   UNL A   1      44.984  27.833  27.194  1.00  0.00    -0.014 A 
BRANCH  41  42
ATOM     42  C   UNL A   1      44.929  29.232  27.694  1.00  0.00     0.031 A 
ATOM     43  C   UNL A   1      43.678  29.667  28.411  1.00  0.00     0.074 A 
ATOM     44  C   UNL A   1      45.952  30.094  27.549  1.00  0.00     0.049 A 
ATOM     45  N   UNL A   1      43.333  30.851  28.846  1.00  0.00    -0.248 NA
ATOM     46  C   UNL A   1      42.682  28.614  28.668  1.00  0.00     0.031 C 
ATOM     47  C   UNL A   1      47.247  29.784  26.948  1.00  0.00     0.029 A 
ATOM     48  N   UNL A   1      46.049  31.423  27.887  1.00  0.00    -0.354 N 
ATOM     49  C   UNL A   1      42.076  30.688  29.420  1.00  0.00     0.074 A 
ATOM     50  C   UNL A   1      41.711  29.298  29.252  1.00  0.00     0.031 C 
ATOM     51  C   UNL A   1      47.999  30.900  26.935  1.00  0.00     0.029 A 
ATOM     52  C   UNL A   1      47.224  32.013  27.483  1.00  0.00     0.049 A 
ATOM     53  H   UNL A   1      45.343  31.908  28.374  1.00  0.00     0.167 HD
ATOM     54  C   UNL A   1      41.294  31.612  30.032  1.00  0.00     0.034 A 
ATOM     55  C   UNL A   1      47.608  33.309  27.510  1.00  0.00     0.034 A 
ATOM     56  C   UNL A   1      41.653  33.000  30.175  1.00  0.00     0.049 A 
ATOM     57  C   UNL A   1      46.666  34.350  28.078  1.00  0.00     0.074 A 
ATOM     58  C   UNL A   1      40.935  34.017  30.778  1.00  0.00     0.029 A 
ATOM     59  N   UNL A   1      42.824  33.570  29.695  1.00  0.00    -0.354 N 
ATOM     60  N   UNL A   1      45.474  34.190  28.607  1.00  0.00    -0.248 NA
ATOM     61  C   UNL A   1      47.122  35.748  28.049  1.00  0.00     0.031 C 
ATOM     62  C   UNL A   1      41.634  35.214  30.595  1.00  0.00     0.029 A 
ATOM     63  C   UNL A   1      42.829  34.933  29.953  1.00  0.00     0.049 A 
ATOM     64  H   UNL A   1      43.546  33.080  29.239  1.00  0.00     0.167 HD
ATOM     65  C   UNL A   1      45.057  35.460  29.001  1.00  0.00     0.074 A 
ATOM     66  C   UNL A   1      46.125  36.374  28.658  1.00  0.00     0.031 C 
ATOM     67  C   UNL A   1      43.898  35.837  29.602  1.00  0.00     0.034 A 
BRANCH  54  68
ATOM     68  C   UNL A   1      39.946  31.151  30.527  1.00  0.00     0.023 A 
ATOM     69  C   UNL A   1      38.779  31.318  29.762  1.00  0.00     0.031 A 
ATOM     70  C   UNL A   1      39.822  30.577  31.805  1.00  0.00     0.131 A 
ATOM     71  C   UNL A   1      37.532  30.982  30.309  1.00  0.00     0.055 A 
ATOM     72  C   UNL A   1      38.587  30.170  32.311  1.00  0.00     0.041 A 
ATOM     73  F   UNL A   1      40.899  30.419  32.590  1.00  0.00    -0.206 F 
ATOM     74  C   UNL A   1      37.430  30.386  31.567  1.00  0.00     0.022 A 
BRANCH  71  75
ATOM     75  S   UNL A   1      36.033  31.474  29.413  1.00  0.00     0.124 S 
ATOM     76  O   UNL A   1      35.123  31.789  30.512  1.00  0.00    -0.237 OA
ATOM     77  O   UNL A   1      36.497  32.607  28.622  1.00  0.00    -0.237 OA
ATOM     78  O   UNL A   1      35.684  30.278  28.648  1.00  0.00    -0.744 OA
ENDBRANCH  71  75
ENDBRANCH  54  68
BRANCH  55  79
ATOM     79  C   UNL A   1      48.915  33.728  26.923  1.00  0.00     0.023 A 
ATOM     80  C   UNL A   1      50.116  33.564  27.629  1.00  0.00     0.031 A 
ATOM     81  C   UNL A   1      48.968  34.379  25.676  1.00  0.00     0.131 A 
ATOM     82  C   UNL A   1      51.313  34.083  27.107  1.00  0.00     0.055 A 
ATOM     83  C   UNL A   1      50.168  34.846  25.137  1.00  0.00     0.041 A 
ATOM     84  F   UNL A   1      47.848  34.572  24.963  1.00  0.00    -0.206 F 
ATOM     85  C   UNL A   1      51.349  34.711  25.860  1.00  0.00     0.022 A 
BRANCH  82  86
ATOM     86  S   UNL A   1      52.813  33.997  28.124  1.00  0.00     0.124 S 
ATOM     87  O   UNL A   1      53.370  32.711  27.721  1.00  0.00    -0.237 OA
ATOM     88  O   UNL A   1      53.543  35.180  27.681  1.00  0.00    -0.237 OA
ATOM     89  O   UNL A   1      52.301  34.059  29.491  1.00  0.00    -0.744 OA
ENDBRANCH  82  86
ENDBRANCH  55  79
BRANCH  67  90
ATOM     90  C   UNL A   1      43.746  37.293  29.976  1.00  0.00     0.023 A 
ATOM     91  C   UNL A   1      44.100  37.777  31.249  1.00  0.00     0.031 A 
ATOM     92  C   UNL A   1      43.252  38.214  29.034  1.00  0.00     0.131 A 
ATOM     93  C   UNL A   1      43.915  39.135  31.556  1.00  0.00     0.055 A 
ATOM     94  C   UNL A   1      43.124  39.572  29.327  1.00  0.00     0.041 A 
ATOM     95  F   UNL A   1      42.897  37.808  27.805  1.00  0.00    -0.206 F 
ATOM     96  C   UNL A   1      43.446  40.038  30.599  1.00  0.00     0.022 A 
BRANCH  93  97
ATOM     97  S   UNL A   1      44.224  39.696  33.254  1.00  0.00     0.124 S 
ATOM     98  O   UNL A   1      44.600  41.091  33.048  1.00  0.00    -0.237 OA
ATOM     99  O   UNL A   1      42.935  39.472  33.898  1.00  0.00    -0.237 OA
ATOM    100  O   UNL A   1      45.305  38.824  33.712  1.00  0.00    -0.744 OA
ENDBRANCH  93  97
ENDBRANCH  67  90
ENDBRANCH  41  42
ENDBRANCH  34  36
ENDBRANCH  33  34
ENDBRANCH  32  33
ENDBRANCH  31  32
ENDBRANCH  30  31
ENDBRANCH  29  30
ENDBRANCH   1  29
TORSDOF 24
ENDMDL
