MODEL 1
REMARK VINA RESULT:     -10.4      0.000      0.000
REMARK SMILES Cn1ccnc(N[C@H]2C=C[C@H](C(=O)OCCOCCOCCOC(=O)c3ccc(-c4c5nc(c(-c6cc(S(=O)(=O)[O-])ccc6F)c6ccc([nH]6)c(-c6cc(S(=O)(=O)[O-])ccc6F)c6nc(c(-c7cc(S(=O)(=O)[O-])ccc7F)c7ccc4[nH]7)C=C6)C=C5)cc3)C2)c1=O
REMARK SMILES IDX 19 1 18 2 17 3 16 4 15 5 14 6 12 7 13 8 11 9 8 10 9 11 89 12
REMARK SMILES IDX 10 13 7 14 6 16 1 17 2 18 3 19 90 20 4 21 91 22 5 23 20 24
REMARK SMILES IDX 21 25 22 26 23 27 24 28 25 29 26 30 27 31 88 32 28 33 87 34
REMARK SMILES IDX 29 35 30 36 31 37 81 38 32 39 86 40 80 41 82 42 33 43 85 44
REMARK SMILES IDX 79 45 78 46 34 48 66 49 46 50 65 51 47 52 50 53 64 54 83 55
REMARK SMILES IDX 48 56 49 57 63 59 84 60 51 61 35 62 36 63 44 64 37 65 43 66
REMARK SMILES IDX 45 67 42 68 38 69 39 70 40 71 41 72 67 73 68 74 76 75 69 76
REMARK SMILES IDX 75 77 77 78 74 79 70 80 71 81 72 82 73 83 52 84 53 85 61 86
REMARK SMILES IDX 54 87 60 88 62 89 59 90 55 91 56 92 57 93 58 94
REMARK H PARENT 7 15 82 47 50 58
REMARK Flexibility Score: inf
ROOT
ATOM      1  C   UNL A   1      31.414  26.154  26.525  1.00  0.00     0.188 C 
ENDROOT
BRANCH   1   2
ATOM      2  C   UNL A   1      30.433  25.269  25.730  1.00  0.00     0.188 C 
BRANCH   2   3
ATOM      3  O   UNL A   1      30.384  25.383  24.320  1.00  0.00    -0.376 OA
BRANCH   3   4
ATOM      4  C   UNL A   1      31.498  25.886  23.598  1.00  0.00     0.202 C 
BRANCH   4   5
ATOM      5  C   UNL A   1      32.829  25.131  23.430  1.00  0.00     0.261 C 
BRANCH   5   6
ATOM      6  O   UNL A   1      32.938  23.905  24.157  1.00  0.00    -0.463 OA
BRANCH   6   7
ATOM      7  C   UNL A   1      34.069  23.741  24.901  1.00  0.00     0.312 C 
ATOM      8  O   UNL A   1      34.733  24.650  25.384  1.00  0.00    -0.252 OA
BRANCH   7   9
ATOM      9  C   UNL A   1      34.334  22.261  25.135  1.00  0.00     0.124 C 
ATOM     10  C   UNL A   1      32.692  20.693  24.243  1.00  0.00     0.105 C 
ATOM     11  C   UNL A   1      32.561  20.837  25.719  1.00  0.00    -0.006 C 
ATOM     12  C   UNL A   1      33.968  21.447  23.877  1.00  0.00     0.048 C 
ATOM     13  C   UNL A   1      33.441  21.716  26.208  1.00  0.00    -0.014 C 
BRANCH  10  14
ATOM     14  N   UNL A   1      32.670  19.319  23.837  1.00  0.00    -0.359 N 
ATOM     15  H   UNL A   1      32.344  19.189  22.917  1.00  0.00     0.162 HD
BRANCH  14  16
ATOM     16  C   UNL A   1      33.008  18.143  24.464  1.00  0.00     0.193 A 
ATOM     17  C   UNL A   1      35.883  15.828  25.528  1.00  0.00     0.153 C 
ATOM     18  N   UNL A   1      34.569  16.398  25.326  1.00  0.00    -0.314 N 
ATOM     19  C   UNL A   1      33.440  15.737  25.741  1.00  0.00     0.109 A 
ATOM     20  C   UNL A   1      34.472  17.620  24.661  1.00  0.00     0.293 A 
ATOM     21  C   UNL A   1      32.228  16.258  25.529  1.00  0.00     0.131 A 
ATOM     22  O   UNL A   1      35.446  18.232  24.245  1.00  0.00    -0.265 OA
ATOM     23  N   UNL A   1      31.984  17.449  24.905  1.00  0.00    -0.233 NA
ENDBRANCH  14  16
ENDBRANCH  10  14
ENDBRANCH   7   9
ENDBRANCH   6   7
ENDBRANCH   5   6
ENDBRANCH   4   5
ENDBRANCH   3   4
ENDBRANCH   2   3
ENDBRANCH   1   2
BRANCH   1  24
ATOM     24  O   UNL A   1      30.919  27.373  27.020  1.00  0.00    -0.376 OA
BRANCH  24  25
ATOM     25  C   UNL A   1      31.811  28.446  27.278  1.00  0.00     0.202 C 
BRANCH  25  26
ATOM     26  C   UNL A   1      31.722  29.877  26.702  1.00  0.00     0.261 C 
BRANCH  26  27
ATOM     27  O   UNL A   1      32.927  30.554  26.338  1.00  0.00    -0.460 OA
BRANCH  27  28
ATOM     28  C   UNL A   1      33.313  31.553  27.168  1.00  0.00     0.338 C 
ATOM     29  O   UNL A   1      32.629  32.489  27.557  1.00  0.00    -0.246 OA
BRANCH  28  30
ATOM     30  C   UNL A   1      34.655  31.242  27.692  1.00  0.00     0.060 A 
ATOM     31  C   UNL A   1      35.012  29.903  27.915  1.00  0.00     0.016 A 
ATOM     32  C   UNL A   1      35.544  32.273  27.998  1.00  0.00     0.016 A 
ATOM     33  C   UNL A   1      36.256  29.592  28.467  1.00  0.00     0.010 A 
ATOM     34  C   UNL A   1      36.777  31.961  28.575  1.00  0.00     0.010 A 
ATOM     35  C   UNL A   1      37.127  30.623  28.840  1.00  0.00    -0.014 A 
BRANCH  35  36
ATOM     36  C   UNL A   1      38.300  30.344  29.708  1.00  0.00     0.031 A 
ATOM     37  C   UNL A   1      39.317  29.351  29.214  1.00  0.00     0.074 A 
ATOM     38  C   UNL A   1      38.451  30.930  30.908  1.00  0.00     0.049 A 
ATOM     39  N   UNL A   1      40.327  28.810  29.843  1.00  0.00    -0.248 NA
ATOM     40  C   UNL A   1      39.159  28.901  27.822  1.00  0.00     0.031 C 
ATOM     41  C   UNL A   1      37.574  31.957  31.465  1.00  0.00     0.029 A 
ATOM     42  N   UNL A   1      39.392  30.721  31.888  1.00  0.00    -0.354 N 
ATOM     43  C   UNL A   1      40.913  27.938  28.930  1.00  0.00     0.074 A 
ATOM     44  C   UNL A   1      40.126  28.004  27.719  1.00  0.00     0.031 C 
ATOM     45  C   UNL A   1      38.005  32.274  32.699  1.00  0.00     0.029 A 
ATOM     46  C   UNL A   1      39.153  31.433  33.041  1.00  0.00     0.049 A 
ATOM     47  H   UNL A   1      40.163  30.120  31.775  1.00  0.00     0.167 HD
ATOM     48  C   UNL A   1      42.008  27.155  29.093  1.00  0.00     0.034 A 
ATOM     49  C   UNL A   1      39.765  31.378  34.244  1.00  0.00     0.034 A 
ATOM     50  C   UNL A   1      42.770  27.094  30.314  1.00  0.00     0.049 A 
ATOM     51  C   UNL A   1      40.920  30.419  34.440  1.00  0.00     0.074 A 
ATOM     52  C   UNL A   1      43.897  26.338  30.589  1.00  0.00     0.029 A 
ATOM     53  N   UNL A   1      42.478  27.804  31.472  1.00  0.00    -0.354 N 
ATOM     54  N   UNL A   1      41.456  29.582  33.580  1.00  0.00    -0.248 NA
ATOM     55  C   UNL A   1      41.552  30.397  35.767  1.00  0.00     0.031 C 
ATOM     56  C   UNL A   1      44.233  26.526  31.932  1.00  0.00     0.029 A 
ATOM     57  C   UNL A   1      43.382  27.478  32.470  1.00  0.00     0.049 A 
ATOM     58  H   UNL A   1      41.736  28.444  31.570  1.00  0.00     0.167 HD
ATOM     59  C   UNL A   1      42.520  28.977  34.249  1.00  0.00     0.074 A 
ATOM     60  C   UNL A   1      42.544  29.537  35.583  1.00  0.00     0.031 C 
ATOM     61  C   UNL A   1      43.405  28.055  33.795  1.00  0.00     0.034 A 
BRANCH  48  62
ATOM     62  C   UNL A   1      42.400  26.262  27.941  1.00  0.00     0.023 A 
ATOM     63  C   UNL A   1      41.850  24.979  27.776  1.00  0.00     0.031 A 
ATOM     64  C   UNL A   1      43.361  26.690  27.009  1.00  0.00     0.131 A 
ATOM     65  C   UNL A   1      42.319  24.144  26.751  1.00  0.00     0.055 A 
ATOM     66  C   UNL A   1      43.759  25.888  25.939  1.00  0.00     0.041 A 
ATOM     67  F   UNL A   1      43.943  27.894  27.130  1.00  0.00    -0.206 F 
ATOM     68  C   UNL A   1      43.249  24.599  25.813  1.00  0.00     0.022 A 
BRANCH  65  69
ATOM     69  S   UNL A   1      41.811  22.402  26.752  1.00  0.00     0.124 S 
ATOM     70  O   UNL A   1      42.107  22.008  25.377  1.00  0.00    -0.237 OA
ATOM     71  O   UNL A   1      42.668  21.824  27.781  1.00  0.00    -0.237 OA
ATOM     72  O   UNL A   1      40.389  22.460  27.083  1.00  0.00    -0.744 OA
ENDBRANCH  65  69
ENDBRANCH  48  62
BRANCH  49  73
ATOM     73  C   UNL A   1      39.277  32.213  35.382  1.00  0.00     0.023 A 
ATOM     74  C   UNL A   1      39.733  33.529  35.564  1.00  0.00     0.031 A 
ATOM     75  C   UNL A   1      38.400  31.684  36.347  1.00  0.00     0.131 A 
ATOM     76  C   UNL A   1      39.353  34.251  36.707  1.00  0.00     0.055 A 
ATOM     77  C   UNL A   1      37.974  32.429  37.448  1.00  0.00     0.041 A 
ATOM     78  F   UNL A   1      37.940  30.428  36.230  1.00  0.00    -0.206 F 
ATOM     79  C   UNL A   1      38.464  33.717  37.641  1.00  0.00     0.022 A 
BRANCH  76  80
ATOM     80  S   UNL A   1      40.127  35.864  37.012  1.00  0.00     0.124 S 
ATOM     81  O   UNL A   1      39.662  36.636  35.866  1.00  0.00    -0.237 OA
ATOM     82  O   UNL A   1      39.564  36.231  38.307  1.00  0.00    -0.237 OA
ATOM     83  O   UNL A   1      41.556  35.557  37.020  1.00  0.00    -0.744 OA
ENDBRANCH  76  80
ENDBRANCH  49  73
BRANCH  61  84
ATOM     84  C   UNL A   1      44.540  27.654  34.709  1.00  0.00     0.023 A 
ATOM     85  C   UNL A   1      44.462  26.550  35.573  1.00  0.00     0.031 A 
ATOM     86  C   UNL A   1      45.745  28.384  34.677  1.00  0.00     0.131 A 
ATOM     87  C   UNL A   1      45.554  26.227  36.396  1.00  0.00     0.055 A 
ATOM     88  C   UNL A   1      46.847  28.022  35.451  1.00  0.00     0.041 A 
ATOM     89  F   UNL A   1      45.875  29.451  33.872  1.00  0.00    -0.206 F 
ATOM     90  C   UNL A   1      46.753  26.943  36.323  1.00  0.00     0.022 A 
BRANCH  87  91
ATOM     91  S   UNL A   1      45.372  24.899  37.617  1.00  0.00     0.124 S 
ATOM     92  O   UNL A   1      46.218  25.372  38.708  1.00  0.00    -0.237 OA
ATOM     93  O   UNL A   1      43.936  24.906  37.876  1.00  0.00    -0.237 OA
ATOM     94  O   UNL A   1      45.867  23.716  36.916  1.00  0.00    -0.744 OA
ENDBRANCH  87  91
ENDBRANCH  61  84
ENDBRANCH  35  36
ENDBRANCH  28  30
ENDBRANCH  27  28
ENDBRANCH  26  27
ENDBRANCH  25  26
ENDBRANCH  24  25
ENDBRANCH   1  24
TORSDOF 22
ENDMDL
MODEL 2
REMARK VINA RESULT:     -10.4      4.693      7.881
REMARK SMILES Cn1ccnc(N[C@H]2C=C[C@H](C(=O)OCCOCCOCCOC(=O)c3ccc(-c4c5nc(c(-c6cc(S(=O)(=O)[O-])ccc6F)c6ccc([nH]6)c(-c6cc(S(=O)(=O)[O-])ccc6F)c6nc(c(-c7cc(S(=O)(=O)[O-])ccc7F)c7ccc4[nH]7)C=C6)C=C5)cc3)C2)c1=O
REMARK SMILES IDX 19 1 18 2 17 3 16 4 15 5 14 6 12 7 13 8 11 9 8 10 9 11 89 12
REMARK SMILES IDX 10 13 7 14 6 16 1 17 2 18 3 19 90 20 4 21 91 22 5 23 20 24
REMARK SMILES IDX 21 25 22 26 23 27 24 28 25 29 26 30 27 31 88 32 28 33 87 34
REMARK SMILES IDX 29 35 30 36 31 37 81 38 32 39 86 40 80 41 82 42 33 43 85 44
REMARK SMILES IDX 79 45 78 46 34 48 66 49 46 50 65 51 47 52 50 53 64 54 83 55
REMARK SMILES IDX 48 56 49 57 63 59 84 60 51 61 35 62 36 63 44 64 37 65 43 66
REMARK SMILES IDX 45 67 42 68 38 69 39 70 40 71 41 72 67 73 68 74 76 75 69 76
REMARK SMILES IDX 75 77 77 78 74 79 70 80 71 81 72 82 73 83 52 84 53 85 61 86
REMARK SMILES IDX 54 87 60 88 62 89 59 90 55 91 56 92 57 93 58 94
REMARK H PARENT 7 15 82 47 50 58
REMARK Flexibility Score: inf
ROOT
ATOM      1  C   UNL A   1      35.811  20.291  24.819  1.00  0.00     0.188 C 
ENDROOT
BRANCH   1   2
ATOM      2  C   UNL A   1      36.239  21.773  24.807  1.00  0.00     0.188 C 
BRANCH   2   3
ATOM      3  O   UNL A   1      35.966  22.581  25.936  1.00  0.00    -0.376 OA
BRANCH   3   4
ATOM      4  C   UNL A   1      36.018  23.996  25.840  1.00  0.00     0.202 C 
BRANCH   4   5
ATOM      5  C   UNL A   1      34.870  24.866  25.299  1.00  0.00     0.261 C 
BRANCH   5   6
ATOM      6  O   UNL A   1      33.584  24.614  25.869  1.00  0.00    -0.463 OA
BRANCH   6   7
ATOM      7  C   UNL A   1      32.512  25.129  25.201  1.00  0.00     0.312 C 
ATOM      8  O   UNL A   1      32.436  26.273  24.768  1.00  0.00    -0.252 OA
BRANCH   7   9
ATOM      9  C   UNL A   1      31.464  24.050  24.976  1.00  0.00     0.124 C 
ATOM     10  C   UNL A   1      32.277  21.830  24.377  1.00  0.00     0.105 C 
ATOM     11  C   UNL A   1      31.710  22.537  23.197  1.00  0.00    -0.006 C 
ATOM     12  C   UNL A   1      31.938  22.711  25.577  1.00  0.00     0.048 C 
ATOM     13  C   UNL A   1      31.287  23.765  23.516  1.00  0.00    -0.014 C 
BRANCH  10  14
ATOM     14  N   UNL A   1      31.803  20.481  24.470  1.00  0.00    -0.359 N 
ATOM     15  H   UNL A   1      30.893  20.412  24.840  1.00  0.00     0.162 HD
BRANCH  14  16
ATOM     16  C   UNL A   1      32.354  19.262  24.151  1.00  0.00     0.193 A 
ATOM     17  C   UNL A   1      33.893  16.019  25.518  1.00  0.00     0.153 C 
ATOM     18  N   UNL A   1      33.381  17.040  24.630  1.00  0.00    -0.314 N 
ATOM     19  C   UNL A   1      33.442  16.887  23.267  1.00  0.00     0.109 A 
ATOM     20  C   UNL A   1      32.858  18.205  25.191  1.00  0.00     0.293 A 
ATOM     21  C   UNL A   1      32.989  17.845  22.454  1.00  0.00     0.131 A 
ATOM     22  O   UNL A   1      32.809  18.400  26.397  1.00  0.00    -0.265 OA
ATOM     23  N   UNL A   1      32.441  19.028  22.861  1.00  0.00    -0.233 NA
ENDBRANCH  14  16
ENDBRANCH  10  14
ENDBRANCH   7   9
ENDBRANCH   6   7
ENDBRANCH   5   6
ENDBRANCH   4   5
ENDBRANCH   3   4
ENDBRANCH   2   3
ENDBRANCH   1   2
BRANCH   1  24
ATOM     24  O   UNL A   1      36.822  19.334  25.015  1.00  0.00    -0.376 OA
BRANCH  24  25
ATOM     25  C   UNL A   1      38.185  19.727  24.985  1.00  0.00     0.202 C 
BRANCH  25  26
ATOM     26  C   UNL A   1      39.351  19.069  25.756  1.00  0.00     0.261 C 
BRANCH  26  27
ATOM     27  O   UNL A   1      40.657  19.641  25.658  1.00  0.00    -0.460 OA
BRANCH  27  28
ATOM     28  C   UNL A   1      41.308  19.824  26.832  1.00  0.00     0.338 C 
ATOM     29  O   UNL A   1      41.922  18.981  27.470  1.00  0.00    -0.246 OA
BRANCH  28  30
ATOM     30  C   UNL A   1      41.325  21.265  27.146  1.00  0.00     0.060 A 
ATOM     31  C   UNL A   1      40.768  22.173  26.232  1.00  0.00     0.016 A 
ATOM     32  C   UNL A   1      41.921  21.718  28.322  1.00  0.00     0.016 A 
ATOM     33  C   UNL A   1      40.827  23.545  26.484  1.00  0.00     0.010 A 
ATOM     34  C   UNL A   1      42.004  23.092  28.559  1.00  0.00     0.010 A 
ATOM     35  C   UNL A   1      41.485  24.013  27.627  1.00  0.00    -0.014 A 
BRANCH  35  36
ATOM     36  C   UNL A   1      41.840  25.449  27.760  1.00  0.00     0.031 A 
ATOM     37  C   UNL A   1      43.211  25.876  27.307  1.00  0.00     0.074 A 
ATOM     38  C   UNL A   1      40.990  26.346  28.287  1.00  0.00     0.049 A 
ATOM     39  N   UNL A   1      43.823  27.019  27.469  1.00  0.00    -0.248 NA
ATOM     40  C   UNL A   1      43.997  24.864  26.584  1.00  0.00     0.031 C 
ATOM     41  C   UNL A   1      39.614  26.070  28.696  1.00  0.00     0.029 A 
ATOM     42  N   UNL A   1      41.172  27.674  28.591  1.00  0.00    -0.354 N 
ATOM     43  C   UNL A   1      45.077  26.859  26.888  1.00  0.00     0.074 A 
ATOM     44  C   UNL A   1      45.143  25.499  26.398  1.00  0.00     0.031 C 
ATOM     45  C   UNL A   1      39.084  27.190  29.219  1.00  0.00     0.029 A 
ATOM     46  C   UNL A   1      40.098  28.245  29.235  1.00  0.00     0.049 A 
ATOM     47  H   UNL A   1      41.994  28.169  28.370  1.00  0.00     0.167 HD
ATOM     48  C   UNL A   1      46.079  27.765  26.775  1.00  0.00     0.034 A 
ATOM     49  C   UNL A   1      39.968  29.461  29.805  1.00  0.00     0.034 A 
ATOM     50  C   UNL A   1      45.997  29.111  27.283  1.00  0.00     0.049 A 
ATOM     51  C   UNL A   1      41.136  30.424  29.764  1.00  0.00     0.074 A 
ATOM     52  C   UNL A   1      46.950  30.113  27.223  1.00  0.00     0.029 A 
ATOM     53  N   UNL A   1      44.905  29.642  27.959  1.00  0.00    -0.354 N 
ATOM     54  N   UNL A   1      42.327  30.259  29.231  1.00  0.00    -0.248 NA
ATOM     55  C   UNL A   1      40.944  31.736  30.400  1.00  0.00     0.031 C 
ATOM     56  C   UNL A   1      46.469  31.217  27.933  1.00  0.00     0.029 A 
ATOM     57  C   UNL A   1      45.176  30.945  28.348  1.00  0.00     0.049 A 
ATOM     58  H   UNL A   1      44.064  29.164  28.136  1.00  0.00     0.167 HD
ATOM     59  C   UNL A   1      43.001  31.465  29.423  1.00  0.00     0.074 A 
ATOM     60  C   UNL A   1      42.090  32.343  30.125  1.00  0.00     0.031 C 
ATOM     61  C   UNL A   1      44.253  31.817  29.037  1.00  0.00     0.034 A 
BRANCH  48  62
ATOM     62  C   UNL A   1      47.364  27.303  26.133  1.00  0.00     0.023 A 
ATOM     63  C   UNL A   1      48.378  26.669  26.872  1.00  0.00     0.031 A 
ATOM     64  C   UNL A   1      47.591  27.527  24.764  1.00  0.00     0.131 A 
ATOM     65  C   UNL A   1      49.597  26.350  26.257  1.00  0.00     0.055 A 
ATOM     66  C   UNL A   1      48.772  27.127  24.137  1.00  0.00     0.041 A 
ATOM     67  F   UNL A   1      46.672  28.153  24.011  1.00  0.00    -0.206 F 
ATOM     68  C   UNL A   1      49.791  26.547  24.888  1.00  0.00     0.022 A 
BRANCH  65  69
ATOM     69  S   UNL A   1      50.980  25.815  27.300  1.00  0.00     0.124 S 
ATOM     70  O   UNL A   1      51.680  27.076  27.532  1.00  0.00    -0.237 OA
ATOM     71  O   UNL A   1      50.301  25.240  28.456  1.00  0.00    -0.237 OA
ATOM     72  O   UNL A   1      51.696  24.859  26.458  1.00  0.00    -0.744 OA
ENDBRANCH  65  69
ENDBRANCH  48  62
BRANCH  49  73
ATOM     73  C   UNL A   1      38.708  29.836  30.514  1.00  0.00     0.023 A 
ATOM     74  C   UNL A   1      37.721  30.610  29.882  1.00  0.00     0.031 A 
ATOM     75  C   UNL A   1      38.501  29.484  31.861  1.00  0.00     0.131 A 
ATOM     76  C   UNL A   1      36.603  31.050  30.608  1.00  0.00     0.055 A 
ATOM     77  C   UNL A   1      37.355  29.869  32.559  1.00  0.00     0.041 A 
ATOM     78  F   UNL A   1      39.414  28.753  32.520  1.00  0.00    -0.206 F 
ATOM     79  C   UNL A   1      36.404  30.671  31.936  1.00  0.00     0.022 A 
BRANCH  76  80
ATOM     80  S   UNL A   1      35.461  32.219  29.818  1.00  0.00     0.124 S 
ATOM     81  O   UNL A   1      35.036  31.469  28.642  1.00  0.00    -0.237 OA
ATOM     82  O   UNL A   1      34.455  32.410  30.857  1.00  0.00    -0.237 OA
ATOM     83  O   UNL A   1      36.303  33.383  29.546  1.00  0.00    -0.744 OA
ENDBRANCH  76  80
ENDBRANCH  49  73
BRANCH  61  84
ATOM     84  C   UNL A   1      44.691  33.244  29.277  1.00  0.00     0.023 A 
ATOM     85  C   UNL A   1      44.587  34.243  28.296  1.00  0.00     0.031 A 
ATOM     86  C   UNL A   1      45.188  33.610  30.544  1.00  0.00     0.131 A 
ATOM     87  C   UNL A   1      45.008  35.552  28.584  1.00  0.00     0.055 A 
ATOM     88  C   UNL A   1      45.547  34.924  30.843  1.00  0.00     0.041 A 
ATOM     89  F   UNL A   1      45.312  32.696  31.520  1.00  0.00    -0.206 F 
ATOM     90  C   UNL A   1      45.465  35.903  29.858  1.00  0.00     0.022 A 
BRANCH  87  91
ATOM     91  S   UNL A   1      45.016  36.785  27.253  1.00  0.00     0.124 S 
ATOM     92  O   UNL A   1      45.637  37.932  27.907  1.00  0.00    -0.237 OA
ATOM     93  O   UNL A   1      45.815  36.128  26.224  1.00  0.00    -0.237 OA
ATOM     94  O   UNL A   1      43.601  36.948  26.927  1.00  0.00    -0.744 OA
ENDBRANCH  87  91
ENDBRANCH  61  84
ENDBRANCH  35  36
ENDBRANCH  28  30
ENDBRANCH  27  28
ENDBRANCH  26  27
ENDBRANCH  25  26
ENDBRANCH  24  25
ENDBRANCH   1  24
TORSDOF 22
ENDMDL
MODEL 3
REMARK VINA RESULT:     -10.1      5.226      8.521
REMARK SMILES Cn1ccnc(N[C@H]2C=C[C@H](C(=O)OCCOCCOCCOC(=O)c3ccc(-c4c5nc(c(-c6cc(S(=O)(=O)[O-])ccc6F)c6ccc([nH]6)c(-c6cc(S(=O)(=O)[O-])ccc6F)c6nc(c(-c7cc(S(=O)(=O)[O-])ccc7F)c7ccc4[nH]7)C=C6)C=C5)cc3)C2)c1=O
REMARK SMILES IDX 19 1 18 2 17 3 16 4 15 5 14 6 12 7 13 8 11 9 8 10 9 11 89 12
REMARK SMILES IDX 10 13 7 14 6 16 1 17 2 18 3 19 90 20 4 21 91 22 5 23 20 24
REMARK SMILES IDX 21 25 22 26 23 27 24 28 25 29 26 30 27 31 88 32 28 33 87 34
REMARK SMILES IDX 29 35 30 36 31 37 81 38 32 39 86 40 80 41 82 42 33 43 85 44
REMARK SMILES IDX 79 45 78 46 34 48 66 49 46 50 65 51 47 52 50 53 64 54 83 55
REMARK SMILES IDX 48 56 49 57 63 59 84 60 51 61 35 62 36 63 44 64 37 65 43 66
REMARK SMILES IDX 45 67 42 68 38 69 39 70 40 71 41 72 67 73 68 74 76 75 69 76
REMARK SMILES IDX 75 77 77 78 74 79 70 80 71 81 72 82 73 83 52 84 53 85 61 86
REMARK SMILES IDX 54 87 60 88 62 89 59 90 55 91 56 92 57 93 58 94
REMARK H PARENT 7 15 82 47 50 58
REMARK Flexibility Score: inf
ROOT
ATOM      1  C   UNL A   1      37.267  21.471  24.612  1.00  0.00     0.188 C 
ENDROOT
BRANCH   1   2
ATOM      2  C   UNL A   1      35.736  21.651  24.618  1.00  0.00     0.188 C 
BRANCH   2   3
ATOM      3  O   UNL A   1      35.165  22.757  23.944  1.00  0.00    -0.376 OA
BRANCH   3   4
ATOM      4  C   UNL A   1      35.491  24.083  24.330  1.00  0.00     0.202 C 
BRANCH   4   5
ATOM      5  C   UNL A   1      34.459  25.119  24.811  1.00  0.00     0.261 C 
BRANCH   5   6
ATOM      6  O   UNL A   1      33.938  24.907  26.125  1.00  0.00    -0.463 OA
BRANCH   6   7
ATOM      7  C   UNL A   1      32.685  25.388  26.365  1.00  0.00     0.312 C 
ATOM      8  O   UNL A   1      32.379  26.574  26.390  1.00  0.00    -0.252 OA
BRANCH   7   9
ATOM      9  C   UNL A   1      31.697  24.239  26.497  1.00  0.00     0.124 C 
ATOM     10  C   UNL A   1      32.175  22.221  25.211  1.00  0.00     0.105 C 
ATOM     11  C   UNL A   1      31.075  23.012  24.593  1.00  0.00    -0.006 C 
ATOM     12  C   UNL A   1      32.447  22.893  26.555  1.00  0.00     0.048 C 
ATOM     13  C   UNL A   1      30.829  24.133  25.280  1.00  0.00    -0.014 C 
BRANCH  10  14
ATOM     14  N   UNL A   1      31.850  20.828  25.291  1.00  0.00    -0.359 N 
ATOM     15  H   UNL A   1      31.256  20.609  26.045  1.00  0.00     0.162 HD
BRANCH  14  16
ATOM     16  C   UNL A   1      32.196  19.733  24.535  1.00  0.00     0.193 A 
ATOM     17  C   UNL A   1      33.277  16.047  24.598  1.00  0.00     0.153 C 
ATOM     18  N   UNL A   1      32.891  17.369  24.151  1.00  0.00    -0.314 N 
ATOM     19  C   UNL A   1      32.875  17.687  22.816  1.00  0.00     0.109 A 
ATOM     20  C   UNL A   1      32.574  18.326  25.113  1.00  0.00     0.293 A 
ATOM     21  C   UNL A   1      32.541  18.915  22.412  1.00  0.00     0.131 A 
ATOM     22  O   UNL A   1      32.603  18.100  26.314  1.00  0.00    -0.265 OA
ATOM     23  N   UNL A   1      32.196  19.947  23.239  1.00  0.00    -0.233 NA
ENDBRANCH  14  16
ENDBRANCH  10  14
ENDBRANCH   7   9
ENDBRANCH   6   7
ENDBRANCH   5   6
ENDBRANCH   4   5
ENDBRANCH   3   4
ENDBRANCH   2   3
ENDBRANCH   1   2
BRANCH   1  24
ATOM     24  O   UNL A   1      37.966  21.897  25.756  1.00  0.00    -0.376 OA
BRANCH  24  25
ATOM     25  C   UNL A   1      39.282  21.425  25.997  1.00  0.00     0.202 C 
BRANCH  25  26
ATOM     26  C   UNL A   1      39.727  19.950  26.105  1.00  0.00     0.261 C 
BRANCH  26  27
ATOM     27  O   UNL A   1      40.934  19.540  25.458  1.00  0.00    -0.460 OA
BRANCH  27  28
ATOM     28  C   UNL A   1      42.031  19.468  26.250  1.00  0.00     0.338 C 
ATOM     29  O   UNL A   1      42.617  18.454  26.601  1.00  0.00    -0.246 OA
BRANCH  28  30
ATOM     30  C   UNL A   1      42.536  20.833  26.485  1.00  0.00     0.060 A 
ATOM     31  C   UNL A   1      42.614  21.320  27.799  1.00  0.00     0.016 A 
ATOM     32  C   UNL A   1      42.896  21.641  25.407  1.00  0.00     0.016 A 
ATOM     33  C   UNL A   1      43.033  22.629  28.038  1.00  0.00     0.010 A 
ATOM     34  C   UNL A   1      43.290  22.960  25.646  1.00  0.00     0.010 A 
ATOM     35  C   UNL A   1      43.332  23.470  26.959  1.00  0.00    -0.014 A 
BRANCH  35  36
ATOM     36  C   UNL A   1      43.468  24.935  27.158  1.00  0.00     0.031 A 
ATOM     37  C   UNL A   1      44.802  25.563  26.855  1.00  0.00     0.074 A 
ATOM     38  C   UNL A   1      42.452  25.688  27.616  1.00  0.00     0.049 A 
ATOM     39  N   UNL A   1      45.229  26.773  27.103  1.00  0.00    -0.248 NA
ATOM     40  C   UNL A   1      45.789  24.696  26.193  1.00  0.00     0.031 C 
ATOM     41  C   UNL A   1      41.096  25.211  27.878  1.00  0.00     0.029 A 
ATOM     42  N   UNL A   1      42.417  27.016  27.966  1.00  0.00    -0.354 N 
ATOM     43  C   UNL A   1      46.543  26.808  26.647  1.00  0.00     0.074 A 
ATOM     44  C   UNL A   1      46.847  25.489  26.137  1.00  0.00     0.031 C 
ATOM     45  C   UNL A   1      40.366  26.227  28.370  1.00  0.00     0.029 A 
ATOM     46  C   UNL A   1      41.216  27.411  28.511  1.00  0.00     0.049 A 
ATOM     47  H   UNL A   1      43.178  27.628  27.839  1.00  0.00     0.167 HD
ATOM     48  C   UNL A   1      47.413  27.847  26.656  1.00  0.00     0.034 A 
ATOM     49  C   UNL A   1      40.861  28.577  29.092  1.00  0.00     0.034 A 
ATOM     50  C   UNL A   1      47.095  29.150  27.182  1.00  0.00     0.049 A 
ATOM     51  C   UNL A   1      41.881  29.691  29.190  1.00  0.00     0.074 A 
ATOM     52  C   UNL A   1      47.899  30.275  27.240  1.00  0.00     0.029 A 
ATOM     53  N   UNL A   1      45.879  29.501  27.756  1.00  0.00    -0.354 N 
ATOM     54  N   UNL A   1      43.129  29.711  28.776  1.00  0.00    -0.248 NA
ATOM     55  C   UNL A   1      41.447  30.941  29.831  1.00  0.00     0.031 C 
ATOM     56  C   UNL A   1      47.202  31.276  27.922  1.00  0.00     0.029 A 
ATOM     57  C   UNL A   1      45.925  30.814  28.199  1.00  0.00     0.049 A 
ATOM     58  H   UNL A   1      45.100  28.905  27.837  1.00  0.00     0.167 HD
ATOM     59  C   UNL A   1      43.605  30.991  29.061  1.00  0.00     0.074 A 
ATOM     60  C   UNL A   1      42.517  31.710  29.687  1.00  0.00     0.031 C 
ATOM     61  C   UNL A   1      44.827  31.526  28.810  1.00  0.00     0.034 A 
BRANCH  48  62
ATOM     62  C   UNL A   1      48.807  27.589  26.136  1.00  0.00     0.023 A 
ATOM     63  C   UNL A   1      49.157  27.830  24.797  1.00  0.00     0.031 A 
ATOM     64  C   UNL A   1      49.795  27.066  26.989  1.00  0.00     0.131 A 
ATOM     65  C   UNL A   1      50.434  27.480  24.333  1.00  0.00     0.055 A 
ATOM     66  C   UNL A   1      51.090  26.803  26.544  1.00  0.00     0.041 A 
ATOM     67  F   UNL A   1      49.513  26.789  28.273  1.00  0.00    -0.206 F 
ATOM     68  C   UNL A   1      51.413  26.995  25.204  1.00  0.00     0.022 A 
BRANCH  65  69
ATOM     69  S   UNL A   1      50.749  27.523  22.548  1.00  0.00     0.124 S 
ATOM     70  O   UNL A   1      52.063  26.889  22.464  1.00  0.00    -0.237 OA
ATOM     71  O   UNL A   1      49.633  26.752  22.011  1.00  0.00    -0.237 OA
ATOM     72  O   UNL A   1      50.733  28.949  22.230  1.00  0.00    -0.744 OA
ENDBRANCH  65  69
ENDBRANCH  48  62
BRANCH  49  73
ATOM     73  C   UNL A   1      39.498  28.748  29.678  1.00  0.00     0.023 A 
ATOM     74  C   UNL A   1      38.447  29.295  28.924  1.00  0.00     0.031 A 
ATOM     75  C   UNL A   1      39.243  28.434  31.026  1.00  0.00     0.131 A 
ATOM     76  C   UNL A   1      37.210  29.557  29.534  1.00  0.00     0.055 A 
ATOM     77  C   UNL A   1      37.992  28.637  31.610  1.00  0.00     0.041 A 
ATOM     78  F   UNL A   1      40.213  27.918  31.798  1.00  0.00    -0.206 F 
ATOM     79  C   UNL A   1      36.969  29.217  30.865  1.00  0.00     0.022 A 
BRANCH  76  80
ATOM     80  S   UNL A   1      35.949  30.455  28.586  1.00  0.00     0.124 S 
ATOM     81  O   UNL A   1      35.138  29.361  28.064  1.00  0.00    -0.237 OA
ATOM     82  O   UNL A   1      35.327  31.283  29.614  1.00  0.00    -0.237 OA
ATOM     83  O   UNL A   1      36.730  31.184  27.589  1.00  0.00    -0.744 OA
ENDBRANCH  76  80
ENDBRANCH  49  73
BRANCH  61  84
ATOM     84  C   UNL A   1      45.034  32.990  29.125  1.00  0.00     0.023 A 
ATOM     85  C   UNL A   1      44.623  34.015  28.258  1.00  0.00     0.031 A 
ATOM     86  C   UNL A   1      45.627  33.356  30.349  1.00  0.00     0.131 A 
ATOM     87  C   UNL A   1      44.841  35.357  28.611  1.00  0.00     0.055 A 
ATOM     88  C   UNL A   1      45.786  34.691  30.721  1.00  0.00     0.041 A 
ATOM     89  F   UNL A   1      46.042  32.418  31.215  1.00  0.00    -0.206 F 
ATOM     90  C   UNL A   1      45.400  35.701  29.847  1.00  0.00     0.022 A 
BRANCH  87  91
ATOM     91  S   UNL A   1      44.450  36.657  27.408  1.00  0.00     0.124 S 
ATOM     92  O   UNL A   1      45.743  36.877  26.768  1.00  0.00    -0.237 OA
ATOM     93  O   UNL A   1      43.430  36.021  26.581  1.00  0.00    -0.237 OA
ATOM     94  O   UNL A   1      43.973  37.762  28.237  1.00  0.00    -0.744 OA
ENDBRANCH  87  91
ENDBRANCH  61  84
ENDBRANCH  35  36
ENDBRANCH  28  30
ENDBRANCH  27  28
ENDBRANCH  26  27
ENDBRANCH  25  26
ENDBRANCH  24  25
ENDBRANCH   1  24
TORSDOF 22
ENDMDL
