MODEL 1
REMARK VINA RESULT:     -11.2      0.000      0.000
REMARK SMILES Cc1ccc([S@TB4](=O)(=O)n2cc(C(=O)C(=O)NCC(=O)N[C@@H](Cc3c[nH]c4ccccc34)C(=O)OCCOCCOCCOC(=O)c3ccc(-c4c5nc(c(-c6cc(S(=O)(=O)[O-])ccc6F)c6ccc([nH]6)c(-c6cc(S(=O)(=O)[O-])ccc6F)c6nc(c(-c7cc(S(=O)(=O)[O-])ccc7F)c7ccc4[nH]7)C=C6)C=C5)cc3)c3ccccc32)cc1
REMARK SMILES IDX 36 1 35 2 34 3 32 4 33 5 21 6 20 7 18 8 19 9 17 11 16 12
REMARK SMILES IDX 14 13 15 14 12 16 13 17 11 18 9 19 10 20 114 21 109 22
REMARK SMILES IDX 113 23 110 24 112 25 111 26 6 27 7 28 8 29 5 30 1 31 2 32
REMARK SMILES IDX 3 33 116 34 4 35 115 36 22 37 23 38 24 39 31 40 25 41 26 42
REMARK SMILES IDX 30 43 27 45 29 46 28 47 37 48 38 49 39 50 40 51 41 52 42 53
REMARK SMILES IDX 43 54 44 55 45 56 46 57 47 58 108 59 48 60 107 61 49 62
REMARK SMILES IDX 50 63 51 64 101 65 52 66 106 67 100 68 102 69 53 70 105 71
REMARK SMILES IDX 99 72 98 73 54 75 86 76 66 77 85 78 67 79 70 80 84 81 103 82
REMARK SMILES IDX 68 83 69 84 83 86 104 87 71 88 55 89 56 90 64 91 57 92 63 93
REMARK SMILES IDX 65 94 62 95 58 96 59 97 60 98 61 99 87 100 88 101 96 102
REMARK SMILES IDX 89 103 95 104 97 105 94 106 90 107 91 108 92 109 93 110
REMARK SMILES IDX 72 111 73 112 81 113 74 114 80 115 82 116 79 117 75 118
REMARK SMILES IDX 76 119 77 120 78 121
REMARK H PARENT 20 10 16 15 25 44 102 74 70 85
REMARK Flexibility Score: inf
ROOT
ATOM      1  C   UNL A   1      40.261  27.915  27.179  1.00  0.00     0.202 C 
ENDROOT
BRANCH   1   2
ATOM      2  C   UNL A   1      39.437  28.862  28.073  1.00  0.00     0.261 C 
BRANCH   2   3
ATOM      3  O   UNL A   1      37.632  28.684  28.608  1.00  0.00    -0.462 OA
BRANCH   3   4
ATOM      4  C   UNL A   1      36.232  29.619  29.005  1.00  0.00     0.329 C 
ATOM      5  O   UNL A   1      35.958  29.849  30.189  1.00  0.00    -0.250 OA
BRANCH   4   6
ATOM      6  C   UNL A   1      35.348  30.915  28.014  1.00  0.00     0.196 C 
BRANCH   6   7
ATOM      7  N   UNL A   1      33.893  31.021  27.484  1.00  0.00    -0.341 N 
ATOM      8  C   UNL A   1      32.919  30.182  27.018  1.00  0.00     0.240 C 
ATOM      9  O   UNL A   1      31.805  30.674  26.795  1.00  0.00    -0.273 OA
ATOM     10  H   UNL A   1      33.584  31.956  27.482  1.00  0.00     0.164 HD
BRANCH   8  11
ATOM     11  C   UNL A   1      33.115  28.671  26.918  1.00  0.00     0.216 C 
BRANCH  11  12
ATOM     12  N   UNL A   1      33.384  28.309  25.540  1.00  0.00    -0.340 N 
ATOM     13  C   UNL A   1      33.397  27.065  24.934  1.00  0.00     0.292 C 
ATOM     14  O   UNL A   1      33.905  26.976  23.821  1.00  0.00    -0.265 OA
ATOM     15  H   UNL A   1      33.588  29.064  24.943  1.00  0.00     0.164 HD
BRANCH  13  16
ATOM     16  C   UNL A   1      32.763  25.838  25.632  1.00  0.00     0.252 C 
ATOM     17  O   UNL A   1      31.935  26.075  26.514  1.00  0.00    -0.283 OA
BRANCH  16  18
ATOM     18  C   UNL A   1      33.131  24.449  25.316  1.00  0.00     0.055 A 
ATOM     19  N   UNL A   1      33.165  22.446  24.351  1.00  0.00    -0.218 N 
ATOM     20  C   UNL A   1      32.317  23.396  24.866  1.00  0.00     0.126 A 
ATOM     21  C   UNL A   1      34.491  22.867  24.463  1.00  0.00     0.072 A 
ATOM     22  C   UNL A   1      34.494  23.955  25.307  1.00  0.00     0.013 A 
ATOM     23  C   UNL A   1      35.685  22.235  23.980  1.00  0.00     0.029 A 
ATOM     24  C   UNL A   1      35.773  24.381  25.741  1.00  0.00     0.011 A 
ATOM     25  C   UNL A   1      36.912  22.649  24.428  1.00  0.00     0.002 A 
ATOM     26  C   UNL A   1      36.953  23.703  25.323  1.00  0.00     0.001 A 
BRANCH  19  27
ATOM     27  S   UNL A   1      33.174  20.803  24.403  1.00  0.00     0.083 S 
ATOM     28  O   UNL A   1      32.393  20.569  23.186  1.00  0.00    -0.149 OA
ATOM     29  O   UNL A   1      32.663  20.835  25.778  1.00  0.00    -0.149 OA
BRANCH  27  30
ATOM     30  C   UNL A   1      33.592  19.187  24.639  1.00  0.00     0.111 A 
ATOM     31  C   UNL A   1      33.685  15.027  25.369  1.00  0.00     0.044 C 
ATOM     32  C   UNL A   1      33.653  16.489  25.100  1.00  0.00    -0.051 A 
ATOM     33  C   UNL A   1      32.501  17.162  25.470  1.00  0.00     0.005 A 
ATOM     34  C   UNL A   1      34.751  17.171  24.508  1.00  0.00     0.005 A 
ATOM     35  C   UNL A   1      32.472  18.496  25.218  1.00  0.00     0.030 A 
ATOM     36  C   UNL A   1      34.732  18.542  24.265  1.00  0.00     0.030 A 
ENDBRANCH  27  30
ENDBRANCH  19  27
ENDBRANCH  16  18
ENDBRANCH  13  16
ENDBRANCH  11  12
ENDBRANCH   8  11
ENDBRANCH   6   7
BRANCH   6  37
ATOM     37  C   UNL A   1      35.890  32.403  28.013  1.00  0.00     0.074 C 
BRANCH  37  38
ATOM     38  C   UNL A   1      36.109  33.353  29.492  1.00  0.00    -0.020 A 
ATOM     39  C   UNL A   1      34.886  34.499  30.709  1.00  0.00     0.087 A 
ATOM     40  C   UNL A   1      37.624  33.153  30.148  1.00  0.00     0.003 A 
ATOM     41  N   UNL A   1      36.042  34.946  32.053  1.00  0.00    -0.361 N 
ATOM     42  C   UNL A   1      37.645  34.074  31.605  1.00  0.00     0.046 A 
ATOM     43  C   UNL A   1      38.675  32.387  29.629  1.00  0.00     0.010 A 
ATOM     44  H   UNL A   1      35.865  35.517  32.836  1.00  0.00     0.166 HD
ATOM     45  C   UNL A   1      38.901  34.576  31.566  1.00  0.00     0.026 A 
ATOM     46  C   UNL A   1      39.838  32.625  30.288  1.00  0.00     0.001 A 
ATOM     47  C   UNL A   1      39.930  33.728  31.150  1.00  0.00     0.002 A 
ENDBRANCH  37  38
ENDBRANCH   6  37
ENDBRANCH   4   6
ENDBRANCH   3   4
ENDBRANCH   2   3
ENDBRANCH   1   2
BRANCH   1  48
ATOM     48  O   UNL A   1      41.095  28.434  26.196  1.00  0.00    -0.376 OA
BRANCH  48  49
ATOM     49  C   UNL A   1      42.366  27.892  26.260  1.00  0.00     0.188 C 
BRANCH  49  50
ATOM     50  C   UNL A   1      43.509  28.827  26.304  1.00  0.00     0.188 C 
BRANCH  50  51
ATOM     51  O   UNL A   1      44.843  28.464  26.001  1.00  0.00    -0.376 OA
BRANCH  51  52
ATOM     52  C   UNL A   1      45.915  28.657  26.847  1.00  0.00     0.202 C 
BRANCH  52  53
ATOM     53  C   UNL A   1      46.889  29.437  26.047  1.00  0.00     0.261 C 
BRANCH  53  54
ATOM     54  O   UNL A   1      46.492  30.881  25.813  1.00  0.00    -0.460 OA
BRANCH  54  55
ATOM     55  C   UNL A   1      45.493  31.765  26.175  1.00  0.00     0.338 C 
ATOM     56  O   UNL A   1      44.915  32.390  25.280  1.00  0.00    -0.246 OA
BRANCH  55  57
ATOM     57  C   UNL A   1      45.131  32.169  27.597  1.00  0.00     0.060 A 
ATOM     58  C   UNL A   1      46.168  32.087  28.501  1.00  0.00     0.016 A 
ATOM     59  C   UNL A   1      43.843  32.184  28.123  1.00  0.00     0.016 A 
ATOM     60  C   UNL A   1      45.881  31.519  29.748  1.00  0.00     0.010 A 
ATOM     61  C   UNL A   1      43.564  31.584  29.388  1.00  0.00     0.010 A 
ATOM     62  C   UNL A   1      44.559  31.099  30.270  1.00  0.00    -0.014 A 
BRANCH  62  63
ATOM     63  C   UNL A   1      44.114  29.954  31.694  1.00  0.00     0.031 A 
ATOM     64  C   UNL A   1      44.162  30.892  32.678  1.00  0.00     0.074 A 
ATOM     65  C   UNL A   1      43.956  28.459  32.114  1.00  0.00     0.049 A 
ATOM     66  N   UNL A   1      44.083  30.507  34.190  1.00  0.00    -0.248 NA
ATOM     67  C   UNL A   1      43.707  32.785  32.151  1.00  0.00     0.031 C 
ATOM     68  C   UNL A   1      42.984  27.599  32.930  1.00  0.00     0.029 A 
ATOM     69  N   UNL A   1      44.267  27.328  31.289  1.00  0.00    -0.354 N 
ATOM     70  C   UNL A   1      43.344  31.927  35.079  1.00  0.00     0.074 A 
ATOM     71  C   UNL A   1      43.229  33.409  33.450  1.00  0.00     0.031 C 
ATOM     72  C   UNL A   1      43.188  26.241  32.794  1.00  0.00     0.029 A 
ATOM     73  C   UNL A   1      44.144  26.043  31.741  1.00  0.00     0.049 A 
ATOM     74  H   UNL A   1      44.579  27.481  30.368  1.00  0.00     0.167 HD
ATOM     75  C   UNL A   1      42.310  31.498  36.143  1.00  0.00     0.034 A 
ATOM     76  C   UNL A   1      45.235  25.235  31.665  1.00  0.00     0.034 A 
ATOM     77  C   UNL A   1      42.329  30.048  36.128  1.00  0.00     0.049 A 
ATOM     78  C   UNL A   1      45.784  25.628  33.138  1.00  0.00     0.074 A 
ATOM     79  C   UNL A   1      41.510  29.062  35.615  1.00  0.00     0.029 A 
ATOM     80  N   UNL A   1      43.563  29.469  36.323  1.00  0.00    -0.354 N 
ATOM     81  N   UNL A   1      45.551  26.782  33.765  1.00  0.00    -0.248 NA
ATOM     82  C   UNL A   1      46.231  24.603  34.073  1.00  0.00     0.031 C 
ATOM     83  C   UNL A   1      42.286  27.853  35.642  1.00  0.00     0.029 A 
ATOM     84  C   UNL A   1      43.624  28.145  35.913  1.00  0.00     0.049 A 
ATOM     85  H   UNL A   1      44.329  29.948  36.715  1.00  0.00     0.167 HD
ATOM     86  C   UNL A   1      45.471  26.569  35.128  1.00  0.00     0.074 A 
ATOM     87  C   UNL A   1      46.024  25.212  35.254  1.00  0.00     0.031 C 
ATOM     88  C   UNL A   1      44.871  27.357  36.112  1.00  0.00     0.034 A 
BRANCH  75  89
ATOM     89  C   UNL A   1      40.907  32.222  36.789  1.00  0.00     0.023 A 
ATOM     90  C   UNL A   1      41.006  33.076  37.894  1.00  0.00     0.031 A 
ATOM     91  C   UNL A   1      39.536  32.089  36.391  1.00  0.00     0.131 A 
ATOM     92  C   UNL A   1      39.877  33.766  38.425  1.00  0.00     0.055 A 
ATOM     93  C   UNL A   1      38.399  32.651  36.979  1.00  0.00     0.041 A 
ATOM     94  F   UNL A   1      39.149  31.392  35.351  1.00  0.00    -0.206 F 
ATOM     95  C   UNL A   1      38.571  33.546  37.991  1.00  0.00     0.022 A 
BRANCH  92  96
ATOM     96  S   UNL A   1      40.218  35.146  39.539  1.00  0.00     0.124 S 
ATOM     97  O   UNL A   1      40.332  34.465  40.823  1.00  0.00    -0.237 OA
ATOM     98  O   UNL A   1      41.450  35.676  38.967  1.00  0.00    -0.237 OA
ATOM     99  O   UNL A   1      39.045  36.004  39.385  1.00  0.00    -0.744 OA
ENDBRANCH  92  96
ENDBRANCH  75  89
BRANCH  76 100
ATOM    100  C   UNL A   1      45.903  25.469  30.257  1.00  0.00     0.023 A 
ATOM    101  C   UNL A   1      47.198  25.941  29.895  1.00  0.00     0.031 A 
ATOM    102  C   UNL A   1      45.284  24.757  29.251  1.00  0.00     0.131 A 
ATOM    103  C   UNL A   1      47.760  25.663  28.590  1.00  0.00     0.055 A 
ATOM    104  C   UNL A   1      45.875  24.360  28.034  1.00  0.00     0.041 A 
ATOM    105  F   UNL A   1      44.053  24.370  29.565  1.00  0.00    -0.206 F 
ATOM    106  C   UNL A   1      47.101  24.855  27.665  1.00  0.00     0.022 A 
BRANCH 103 107
ATOM    107  S   UNL A   1      49.450  26.171  28.109  1.00  0.00     0.124 S 
ATOM    108  O   UNL A   1      49.312  26.332  26.666  1.00  0.00    -0.237 OA
ATOM    109  O   UNL A   1      49.661  27.391  28.877  1.00  0.00    -0.237 OA
ATOM    110  O   UNL A   1      50.288  25.042  28.522  1.00  0.00    -0.744 OA
ENDBRANCH 103 107
ENDBRANCH  76 100
BRANCH  88 111
ATOM    111  C   UNL A   1      45.412  27.322  37.536  1.00  0.00     0.023 A 
ATOM    112  C   UNL A   1      46.550  28.047  37.894  1.00  0.00     0.031 A 
ATOM    113  C   UNL A   1      44.779  26.647  38.611  1.00  0.00     0.131 A 
ATOM    114  C   UNL A   1      47.131  27.919  39.157  1.00  0.00     0.055 A 
ATOM    115  C   UNL A   1      45.268  26.657  39.914  1.00  0.00     0.041 A 
ATOM    116  F   UNL A   1      43.645  25.950  38.486  1.00  0.00    -0.206 F 
ATOM    117  C   UNL A   1      46.484  27.248  40.186  1.00  0.00     0.022 A 
BRANCH 114 118
ATOM    118  S   UNL A   1      48.795  28.578  39.364  1.00  0.00     0.124 S 
ATOM    119  O   UNL A   1      49.080  29.090  38.025  1.00  0.00    -0.237 OA
ATOM    120  O   UNL A   1      48.608  29.588  40.402  1.00  0.00    -0.237 OA
ATOM    121  O   UNL A   1      49.575  27.410  39.764  1.00  0.00    -0.744 OA
ENDBRANCH 114 118
ENDBRANCH  88 111
ENDBRANCH  62  63
ENDBRANCH  55  57
ENDBRANCH  54  55
ENDBRANCH  53  54
ENDBRANCH  52  53
ENDBRANCH  51  52
ENDBRANCH  50  51
ENDBRANCH  49  50
ENDBRANCH  48  49
ENDBRANCH   1  48
TORSDOF 29
ENDMDL
MODEL 2
REMARK VINA RESULT:     -10.6      2.004      2.797
REMARK SMILES Cc1ccc([S@TB4](=O)(=O)n2cc(C(=O)C(=O)NCC(=O)N[C@@H](Cc3c[nH]c4ccccc34)C(=O)OCCOCCOCCOC(=O)c3ccc(-c4c5nc(c(-c6cc(S(=O)(=O)[O-])ccc6F)c6ccc([nH]6)c(-c6cc(S(=O)(=O)[O-])ccc6F)c6nc(c(-c7cc(S(=O)(=O)[O-])ccc7F)c7ccc4[nH]7)C=C6)C=C5)cc3)c3ccccc32)cc1
REMARK SMILES IDX 36 1 35 2 34 3 32 4 33 5 21 6 20 7 18 8 19 9 17 11 16 12
REMARK SMILES IDX 14 13 15 14 12 16 13 17 11 18 9 19 10 20 114 21 109 22
REMARK SMILES IDX 113 23 110 24 112 25 111 26 6 27 7 28 8 29 5 30 1 31 2 32
REMARK SMILES IDX 3 33 116 34 4 35 115 36 22 37 23 38 24 39 31 40 25 41 26 42
REMARK SMILES IDX 30 43 27 45 29 46 28 47 37 48 38 49 39 50 40 51 41 52 42 53
REMARK SMILES IDX 43 54 44 55 45 56 46 57 47 58 108 59 48 60 107 61 49 62
REMARK SMILES IDX 50 63 51 64 101 65 52 66 106 67 100 68 102 69 53 70 105 71
REMARK SMILES IDX 99 72 98 73 54 75 86 76 66 77 85 78 67 79 70 80 84 81 103 82
REMARK SMILES IDX 68 83 69 84 83 86 104 87 71 88 55 89 56 90 64 91 57 92 63 93
REMARK SMILES IDX 65 94 62 95 58 96 59 97 60 98 61 99 87 100 88 101 96 102
REMARK SMILES IDX 89 103 95 104 97 105 94 106 90 107 91 108 92 109 93 110
REMARK SMILES IDX 72 111 73 112 81 113 74 114 80 115 82 116 79 117 75 118
REMARK SMILES IDX 76 119 77 120 78 121
REMARK H PARENT 20 10 16 15 25 44 102 74 70 85
REMARK Flexibility Score: inf
ROOT
ATOM      1  C   UNL A   1      39.815  28.347  27.679  1.00  0.00     0.202 C 
ENDROOT
BRANCH   1   2
ATOM      2  C   UNL A   1      39.370  29.275  28.826  1.00  0.00     0.261 C 
BRANCH   2   3
ATOM      3  O   UNL A   1      37.609  29.695  29.369  1.00  0.00    -0.462 OA
BRANCH   3   4
ATOM      4  C   UNL A   1      36.659  30.978  30.036  1.00  0.00     0.329 C 
ATOM      5  O   UNL A   1      36.254  30.905  31.202  1.00  0.00    -0.250 OA
BRANCH   4   6
ATOM      6  C   UNL A   1      36.616  32.780  29.590  1.00  0.00     0.196 C 
BRANCH   6   7
ATOM      7  N   UNL A   1      35.584  33.646  28.821  1.00  0.00    -0.341 N 
ATOM      8  C   UNL A   1      34.402  33.467  28.157  1.00  0.00     0.240 C 
ATOM      9  O   UNL A   1      33.811  34.482  27.766  1.00  0.00    -0.273 OA
ATOM     10  H   UNL A   1      35.857  34.592  28.806  1.00  0.00     0.164 HD
BRANCH   8  11
ATOM     11  C   UNL A   1      33.732  32.101  28.028  1.00  0.00     0.216 C 
BRANCH  11  12
ATOM     12  N   UNL A   1      34.674  31.152  27.466  1.00  0.00    -0.340 N 
ATOM     13  C   UNL A   1      34.485  29.841  27.069  1.00  0.00     0.292 C 
ATOM     14  O   UNL A   1      35.482  29.154  26.869  1.00  0.00    -0.265 OA
ATOM     15  H   UNL A   1      35.589  31.494  27.349  1.00  0.00     0.164 HD
BRANCH  13  16
ATOM     16  C   UNL A   1      33.059  29.275  26.857  1.00  0.00     0.252 C 
ATOM     17  O   UNL A   1      32.137  29.901  27.383  1.00  0.00    -0.283 OA
BRANCH  16  18
ATOM     18  C   UNL A   1      32.784  28.039  26.108  1.00  0.00     0.055 A 
ATOM     19  N   UNL A   1      31.752  26.222  25.349  1.00  0.00    -0.218 N 
ATOM     20  C   UNL A   1      32.045  26.911  26.501  1.00  0.00     0.126 A 
ATOM     21  C   UNL A   1      32.286  26.881  24.240  1.00  0.00     0.072 A 
ATOM     22  C   UNL A   1      33.157  27.832  24.722  1.00  0.00     0.013 A 
ATOM     23  C   UNL A   1      32.149  26.566  22.847  1.00  0.00     0.029 A 
ATOM     24  C   UNL A   1      33.983  28.445  23.750  1.00  0.00     0.011 A 
ATOM     25  C   UNL A   1      32.972  27.156  21.924  1.00  0.00     0.002 A 
ATOM     26  C   UNL A   1      33.900  28.075  22.378  1.00  0.00     0.001 A 
BRANCH  19  27
ATOM     27  S   UNL A   1      31.703  24.621  24.981  1.00  0.00     0.083 S 
ATOM     28  O   UNL A   1      30.252  24.511  24.802  1.00  0.00    -0.149 OA
ATOM     29  O   UNL A   1      32.461  24.309  26.196  1.00  0.00    -0.149 OA
BRANCH  27  30
ATOM     30  C   UNL A   1      32.053  23.072  24.413  1.00  0.00     0.111 A 
ATOM     31  C   UNL A   1      32.783  18.940  23.919  1.00  0.00     0.044 C 
ATOM     32  C   UNL A   1      32.514  20.394  24.089  1.00  0.00    -0.051 A 
ATOM     33  C   UNL A   1      32.531  20.879  25.385  1.00  0.00     0.005 A 
ATOM     34  C   UNL A   1      32.269  21.249  22.981  1.00  0.00     0.005 A 
ATOM     35  C   UNL A   1      32.280  22.205  25.538  1.00  0.00     0.030 A 
ATOM     36  C   UNL A   1      32.029  22.613  23.132  1.00  0.00     0.030 A 
ENDBRANCH  27  30
ENDBRANCH  19  27
ENDBRANCH  16  18
ENDBRANCH  13  16
ENDBRANCH  11  12
ENDBRANCH   8  11
ENDBRANCH   6   7
BRANCH   6  37
ATOM     37  C   UNL A   1      37.466  33.815  30.435  1.00  0.00     0.074 C 
BRANCH  37  38
ATOM     38  C   UNL A   1      37.332  33.967  32.195  1.00  0.00    -0.020 A 
ATOM     39  C   UNL A   1      35.815  33.740  33.587  1.00  0.00     0.087 A 
ATOM     40  C   UNL A   1      38.810  34.197  32.921  1.00  0.00     0.003 A 
ATOM     41  N   UNL A   1      36.729  33.991  35.150  1.00  0.00    -0.361 N 
ATOM     42  C   UNL A   1      38.512  34.248  34.618  1.00  0.00     0.046 A 
ATOM     43  C   UNL A   1      40.052  34.320  32.287  1.00  0.00     0.010 A 
ATOM     44  H   UNL A   1      36.368  33.991  36.067  1.00  0.00     0.166 HD
ATOM     45  C   UNL A   1      39.378  35.218  34.995  1.00  0.00     0.026 A 
ATOM     46  C   UNL A   1      41.016  34.727  33.152  1.00  0.00     0.001 A 
ATOM     47  C   UNL A   1      40.648  35.221  34.413  1.00  0.00     0.002 A 
ENDBRANCH  37  38
ENDBRANCH   6  37
ENDBRANCH   4   6
ENDBRANCH   3   4
ENDBRANCH   2   3
ENDBRANCH   1   2
BRANCH   1  48
ATOM     48  O   UNL A   1      40.615  28.838  26.655  1.00  0.00    -0.376 OA
BRANCH  48  49
ATOM     49  C   UNL A   1      41.830  28.178  26.588  1.00  0.00     0.188 C 
BRANCH  49  50
ATOM     50  C   UNL A   1      43.048  28.999  26.427  1.00  0.00     0.188 C 
BRANCH  50  51
ATOM     51  O   UNL A   1      44.312  28.480  26.059  1.00  0.00    -0.376 OA
BRANCH  51  52
ATOM     52  C   UNL A   1      45.421  28.475  26.877  1.00  0.00     0.202 C 
BRANCH  52  53
ATOM     53  C   UNL A   1      46.510  29.028  26.036  1.00  0.00     0.261 C 
BRANCH  53  54
ATOM     54  O   UNL A   1      46.413  30.520  25.788  1.00  0.00    -0.460 OA
BRANCH  54  55
ATOM     55  C   UNL A   1      45.657  31.603  26.196  1.00  0.00     0.338 C 
ATOM     56  O   UNL A   1      45.179  32.340  25.328  1.00  0.00    -0.246 OA
BRANCH  55  57
ATOM     57  C   UNL A   1      45.477  32.077  27.632  1.00  0.00     0.060 A 
ATOM     58  C   UNL A   1      46.590  31.927  28.431  1.00  0.00     0.016 A 
ATOM     59  C   UNL A   1      44.255  32.221  28.281  1.00  0.00     0.016 A 
ATOM     60  C   UNL A   1      46.384  31.421  29.720  1.00  0.00     0.010 A 
ATOM     61  C   UNL A   1      44.056  31.683  29.588  1.00  0.00     0.010 A 
ATOM     62  C   UNL A   1      45.090  31.136  30.384  1.00  0.00    -0.014 A 
BRANCH  62  63
ATOM     63  C   UNL A   1      44.695  30.074  31.886  1.00  0.00     0.031 A 
ATOM     64  C   UNL A   1      44.953  31.021  32.827  1.00  0.00     0.074 A 
ATOM     65  C   UNL A   1      44.431  28.614  32.369  1.00  0.00     0.049 A 
ATOM     66  N   UNL A   1      45.009  30.678  34.350  1.00  0.00    -0.248 NA
ATOM     67  C   UNL A   1      44.641  32.941  32.293  1.00  0.00     0.031 C 
ATOM     68  C   UNL A   1      43.475  27.880  33.317  1.00  0.00     0.029 A 
ATOM     69  N   UNL A   1      44.525  27.439  31.552  1.00  0.00    -0.354 N 
ATOM     70  C   UNL A   1      44.530  32.187  35.271  1.00  0.00     0.074 A 
ATOM     71  C   UNL A   1      44.384  33.639  33.617  1.00  0.00     0.031 C 
ATOM     72  C   UNL A   1      43.519  26.505  33.203  1.00  0.00     0.029 A 
ATOM     73  C   UNL A   1      44.321  26.185  32.057  1.00  0.00     0.049 A 
ATOM     74  H   UNL A   1      44.743  27.539  30.597  1.00  0.00     0.167 HD
ATOM     75  C   UNL A   1      43.587  31.894  36.457  1.00  0.00     0.034 A 
ATOM     76  C   UNL A   1      45.306  25.262  31.885  1.00  0.00     0.034 A 
ATOM     77  C   UNL A   1      43.452  30.449  36.487  1.00  0.00     0.049 A 
ATOM     78  C   UNL A   1      46.059  25.624  33.274  1.00  0.00     0.074 A 
ATOM     79  C   UNL A   1      42.481  29.547  36.101  1.00  0.00     0.029 A 
ATOM     80  N   UNL A   1      44.633  29.745  36.561  1.00  0.00    -0.354 N 
ATOM     81  N   UNL A   1      46.022  26.809  33.884  1.00  0.00    -0.248 NA
ATOM     82  C   UNL A   1      46.501  24.576  34.184  1.00  0.00     0.031 C 
ATOM     83  C   UNL A   1      43.124  28.263  36.080  1.00  0.00     0.029 A 
ATOM     84  C   UNL A   1      44.508  28.415  36.190  1.00  0.00     0.049 A 
ATOM     85  H   UNL A   1      45.485  30.147  36.848  1.00  0.00     0.167 HD
ATOM     86  C   UNL A   1      46.077  26.634  35.254  1.00  0.00     0.074 A 
ATOM     87  C   UNL A   1      46.496  25.228  35.361  1.00  0.00     0.031 C 
ATOM     88  C   UNL A   1      45.680  27.502  36.273  1.00  0.00     0.034 A 
BRANCH  75  89
ATOM     89  C   UNL A   1      42.350  32.778  37.233  1.00  0.00     0.023 A 
ATOM     90  C   UNL A   1      42.680  33.787  38.145  1.00  0.00     0.031 A 
ATOM     91  C   UNL A   1      40.926  32.651  37.130  1.00  0.00     0.131 A 
ATOM     92  C   UNL A   1      41.689  34.606  38.763  1.00  0.00     0.055 A 
ATOM     93  C   UNL A   1      39.937  33.353  37.825  1.00  0.00     0.041 A 
ATOM     94  F   UNL A   1      40.330  31.821  36.310  1.00  0.00    -0.206 F 
ATOM     95  C   UNL A   1      40.320  34.385  38.627  1.00  0.00     0.022 A 
BRANCH  92  96
ATOM     96  S   UNL A   1      42.267  36.123  39.553  1.00  0.00     0.124 S 
ATOM     97  O   UNL A   1      43.595  35.730  40.007  1.00  0.00    -0.237 OA
ATOM     98  O   UNL A   1      42.207  37.064  38.440  1.00  0.00    -0.237 OA
ATOM     99  O   UNL A   1      41.284  36.351  40.610  1.00  0.00    -0.744 OA
ENDBRANCH  92  96
ENDBRANCH  75  89
BRANCH  76 100
ATOM    100  C   UNL A   1      45.828  25.395  30.404  1.00  0.00     0.023 A 
ATOM    101  C   UNL A   1      47.109  25.739  29.883  1.00  0.00     0.031 A 
ATOM    102  C   UNL A   1      45.041  24.711  29.500  1.00  0.00     0.131 A 
ATOM    103  C   UNL A   1      47.494  25.373  28.537  1.00  0.00     0.055 A 
ATOM    104  C   UNL A   1      45.455  24.227  28.242  1.00  0.00     0.041 A 
ATOM    105  F   UNL A   1      43.825  24.445  29.963  1.00  0.00    -0.206 F 
ATOM    106  C   UNL A   1      46.668  24.601  27.722  1.00  0.00     0.022 A 
BRANCH 103 107
ATOM    107  S   UNL A   1      49.156  25.714  27.852  1.00  0.00     0.124 S 
ATOM    108  O   UNL A   1      49.735  24.377  27.799  1.00  0.00    -0.237 OA
ATOM    109  O   UNL A   1      48.864  26.342  26.571  1.00  0.00    -0.237 OA
ATOM    110  O   UNL A   1      49.767  26.607  28.840  1.00  0.00    -0.744 OA
ENDBRANCH 103 107
ENDBRANCH  76 100
BRANCH  88 111
ATOM    111  C   UNL A   1      46.375  27.437  37.628  1.00  0.00     0.023 A 
ATOM    112  C   UNL A   1      45.642  27.310  38.809  1.00  0.00     0.031 A 
ATOM    113  C   UNL A   1      47.783  27.408  37.800  1.00  0.00     0.131 A 
ATOM    114  C   UNL A   1      46.256  27.383  40.061  1.00  0.00     0.055 A 
ATOM    115  C   UNL A   1      48.400  27.311  39.044  1.00  0.00     0.041 A 
ATOM    116  F   UNL A   1      48.655  27.455  36.788  1.00  0.00    -0.206 F 
ATOM    117  C   UNL A   1      47.638  27.356  40.192  1.00  0.00     0.022 A 
BRANCH 114 118
ATOM    118  S   UNL A   1      45.180  27.611  41.489  1.00  0.00     0.124 S 
ATOM    119  O   UNL A   1      44.557  28.898  41.188  1.00  0.00    -0.237 OA
ATOM    120  O   UNL A   1      44.301  26.447  41.410  1.00  0.00    -0.237 OA
ATOM    121  O   UNL A   1      46.109  27.616  42.616  1.00  0.00    -0.744 OA
ENDBRANCH 114 118
ENDBRANCH  88 111
ENDBRANCH  62  63
ENDBRANCH  55  57
ENDBRANCH  54  55
ENDBRANCH  53  54
ENDBRANCH  52  53
ENDBRANCH  51  52
ENDBRANCH  50  51
ENDBRANCH  49  50
ENDBRANCH  48  49
ENDBRANCH   1  48
TORSDOF 29
ENDMDL
MODEL 3
REMARK VINA RESULT:     -10.4      2.035      3.327
REMARK SMILES Cc1ccc([S@TB4](=O)(=O)n2cc(C(=O)C(=O)NCC(=O)N[C@@H](Cc3c[nH]c4ccccc34)C(=O)OCCOCCOCCOC(=O)c3ccc(-c4c5nc(c(-c6cc(S(=O)(=O)[O-])ccc6F)c6ccc([nH]6)c(-c6cc(S(=O)(=O)[O-])ccc6F)c6nc(c(-c7cc(S(=O)(=O)[O-])ccc7F)c7ccc4[nH]7)C=C6)C=C5)cc3)c3ccccc32)cc1
REMARK SMILES IDX 36 1 35 2 34 3 32 4 33 5 21 6 20 7 18 8 19 9 17 11 16 12
REMARK SMILES IDX 14 13 15 14 12 16 13 17 11 18 9 19 10 20 114 21 109 22
REMARK SMILES IDX 113 23 110 24 112 25 111 26 6 27 7 28 8 29 5 30 1 31 2 32
REMARK SMILES IDX 3 33 116 34 4 35 115 36 22 37 23 38 24 39 31 40 25 41 26 42
REMARK SMILES IDX 30 43 27 45 29 46 28 47 37 48 38 49 39 50 40 51 41 52 42 53
REMARK SMILES IDX 43 54 44 55 45 56 46 57 47 58 108 59 48 60 107 61 49 62
REMARK SMILES IDX 50 63 51 64 101 65 52 66 106 67 100 68 102 69 53 70 105 71
REMARK SMILES IDX 99 72 98 73 54 75 86 76 66 77 85 78 67 79 70 80 84 81 103 82
REMARK SMILES IDX 68 83 69 84 83 86 104 87 71 88 55 89 56 90 64 91 57 92 63 93
REMARK SMILES IDX 65 94 62 95 58 96 59 97 60 98 61 99 87 100 88 101 96 102
REMARK SMILES IDX 89 103 95 104 97 105 94 106 90 107 91 108 92 109 93 110
REMARK SMILES IDX 72 111 73 112 81 113 74 114 80 115 82 116 79 117 75 118
REMARK SMILES IDX 76 119 77 120 78 121
REMARK H PARENT 20 10 16 15 25 44 102 74 70 85
REMARK Flexibility Score: inf
ROOT
ATOM      1  C   UNL A   1      39.744  28.334  27.606  1.00  0.00     0.202 C 
ENDROOT
BRANCH   1   2
ATOM      2  C   UNL A   1      39.269  29.163  28.815  1.00  0.00     0.261 C 
BRANCH   2   3
ATOM      3  O   UNL A   1      37.512  29.335  29.493  1.00  0.00    -0.462 OA
BRANCH   3   4
ATOM      4  C   UNL A   1      36.606  30.114  30.744  1.00  0.00     0.329 C 
ATOM      5  O   UNL A   1      36.315  29.493  31.774  1.00  0.00    -0.250 OA
BRANCH   4   6
ATOM      6  C   UNL A   1      36.487  31.914  31.181  1.00  0.00     0.196 C 
BRANCH   6   7
ATOM      7  N   UNL A   1      35.917  33.142  30.422  1.00  0.00    -0.341 N 
ATOM      8  C   UNL A   1      35.028  33.389  29.413  1.00  0.00     0.240 C 
ATOM      9  O   UNL A   1      34.756  34.573  29.174  1.00  0.00    -0.273 OA
ATOM     10  H   UNL A   1      36.305  33.980  30.763  1.00  0.00     0.164 HD
BRANCH   8  11
ATOM     11  C   UNL A   1      34.264  32.275  28.701  1.00  0.00     0.216 C 
BRANCH  11  12
ATOM     12  N   UNL A   1      35.201  31.413  28.008  1.00  0.00    -0.340 N 
ATOM     13  C   UNL A   1      34.973  30.277  27.252  1.00  0.00     0.292 C 
ATOM     14  O   UNL A   1      35.935  29.566  26.981  1.00  0.00    -0.265 OA
ATOM     15  H   UNL A   1      36.146  31.677  28.086  1.00  0.00     0.164 HD
BRANCH  13  16
ATOM     16  C   UNL A   1      33.550  29.938  26.743  1.00  0.00     0.252 C 
ATOM     17  O   UNL A   1      32.716  30.843  26.802  1.00  0.00    -0.283 OA
BRANCH  16  18
ATOM     18  C   UNL A   1      33.167  28.607  26.246  1.00  0.00     0.055 A 
ATOM     19  N   UNL A   1      32.036  26.717  25.945  1.00  0.00    -0.218 N 
ATOM     20  C   UNL A   1      32.501  27.569  26.918  1.00  0.00     0.126 A 
ATOM     21  C   UNL A   1      32.390  27.186  24.679  1.00  0.00     0.072 A 
ATOM     22  C   UNL A   1      33.321  28.182  24.869  1.00  0.00     0.013 A 
ATOM     23  C   UNL A   1      32.040  26.663  23.390  1.00  0.00     0.029 A 
ATOM     24  C   UNL A   1      33.985  28.621  23.698  1.00  0.00     0.011 A 
ATOM     25  C   UNL A   1      32.708  27.087  22.271  1.00  0.00     0.002 A 
ATOM     26  C   UNL A   1      33.692  28.045  22.429  1.00  0.00     0.001 A 
BRANCH  19  27
ATOM     27  S   UNL A   1      31.937  25.079  25.842  1.00  0.00     0.083 S 
ATOM     28  O   UNL A   1      30.825  24.896  26.780  1.00  0.00    -0.149 OA
ATOM     29  O   UNL A   1      33.366  24.964  26.148  1.00  0.00    -0.149 OA
BRANCH  27  30
ATOM     30  C   UNL A   1      31.962  23.479  25.310  1.00  0.00     0.111 A 
ATOM     31  C   UNL A   1      32.440  19.858  23.187  1.00  0.00     0.044 C 
ATOM     32  C   UNL A   1      32.282  21.131  23.941  1.00  0.00    -0.051 A 
ATOM     33  C   UNL A   1      32.398  22.301  23.212  1.00  0.00     0.005 A 
ATOM     34  C   UNL A   1      32.009  21.151  25.336  1.00  0.00     0.005 A 
ATOM     35  C   UNL A   1      32.259  23.462  23.903  1.00  0.00     0.030 A 
ATOM     36  C   UNL A   1      31.847  22.339  26.045  1.00  0.00     0.030 A 
ENDBRANCH  27  30
ENDBRANCH  19  27
ENDBRANCH  16  18
ENDBRANCH  13  16
ENDBRANCH  11  12
ENDBRANCH   8  11
ENDBRANCH   6   7
BRANCH   6  37
ATOM     37  C   UNL A   1      36.516  32.354  32.702  1.00  0.00     0.074 C 
BRANCH  37  38
ATOM     38  C   UNL A   1      37.532  31.561  33.917  1.00  0.00    -0.020 A 
ATOM     39  C   UNL A   1      38.867  29.977  33.923  1.00  0.00     0.087 A 
ATOM     40  C   UNL A   1      37.532  32.377  35.366  1.00  0.00     0.003 A 
ATOM     41  N   UNL A   1      39.485  30.042  35.643  1.00  0.00    -0.361 N 
ATOM     42  C   UNL A   1      38.616  31.525  36.400  1.00  0.00     0.046 A 
ATOM     43  C   UNL A   1      36.804  33.529  35.686  1.00  0.00     0.010 A 
ATOM     44  H   UNL A   1      40.129  29.435  36.075  1.00  0.00     0.166 HD
ATOM     45  C   UNL A   1      37.956  31.610  37.579  1.00  0.00     0.026 A 
ATOM     46  C   UNL A   1      36.857  33.799  37.016  1.00  0.00     0.001 A 
ATOM     47  C   UNL A   1      37.345  32.825  37.899  1.00  0.00     0.002 A 
ENDBRANCH  37  38
ENDBRANCH   6  37
ENDBRANCH   4   6
ENDBRANCH   3   4
ENDBRANCH   2   3
ENDBRANCH   1   2
BRANCH   1  48
ATOM     48  O   UNL A   1      40.410  28.952  26.555  1.00  0.00    -0.376 OA
BRANCH  48  49
ATOM     49  C   UNL A   1      41.589  28.301  26.239  1.00  0.00     0.188 C 
BRANCH  49  50
ATOM     50  C   UNL A   1      42.842  29.082  26.305  1.00  0.00     0.188 C 
BRANCH  50  51
ATOM     51  O   UNL A   1      44.101  28.600  25.877  1.00  0.00    -0.376 OA
BRANCH  51  52
ATOM     52  C   UNL A   1      45.196  28.439  26.699  1.00  0.00     0.202 C 
BRANCH  52  53
ATOM     53  C   UNL A   1      46.336  28.969  25.913  1.00  0.00     0.261 C 
BRANCH  53  54
ATOM     54  O   UNL A   1      46.318  30.472  25.719  1.00  0.00    -0.460 OA
BRANCH  54  55
ATOM     55  C   UNL A   1      45.664  31.585  26.214  1.00  0.00     0.338 C 
ATOM     56  O   UNL A   1      45.170  32.377  25.406  1.00  0.00    -0.246 OA
BRANCH  55  57
ATOM     57  C   UNL A   1      45.622  32.021  27.672  1.00  0.00     0.060 A 
ATOM     58  C   UNL A   1      46.744  31.694  28.403  1.00  0.00     0.016 A 
ATOM     59  C   UNL A   1      44.465  32.300  28.392  1.00  0.00     0.016 A 
ATOM     60  C   UNL A   1      46.537  31.170  29.684  1.00  0.00     0.010 A 
ATOM     61  C   UNL A   1      44.262  31.742  29.690  1.00  0.00     0.010 A 
ATOM     62  C   UNL A   1      45.252  31.032  30.410  1.00  0.00    -0.014 A 
BRANCH  62  63
ATOM     63  C   UNL A   1      44.795  29.974  31.896  1.00  0.00     0.031 A 
ATOM     64  C   UNL A   1      45.067  30.905  32.849  1.00  0.00     0.074 A 
ATOM     65  C   UNL A   1      44.474  28.519  32.364  1.00  0.00     0.049 A 
ATOM     66  N   UNL A   1      45.084  30.550  34.370  1.00  0.00    -0.248 NA
ATOM     67  C   UNL A   1      44.828  32.838  32.324  1.00  0.00     0.031 C 
ATOM     68  C   UNL A   1      43.477  27.811  33.288  1.00  0.00     0.029 A 
ATOM     69  N   UNL A   1      44.545  27.348  31.540  1.00  0.00    -0.354 N 
ATOM     70  C   UNL A   1      44.638  32.068  35.293  1.00  0.00     0.074 A 
ATOM     71  C   UNL A   1      44.570  33.535  33.648  1.00  0.00     0.031 C 
ATOM     72  C   UNL A   1      43.478  26.437  33.165  1.00  0.00     0.029 A 
ATOM     73  C   UNL A   1      44.291  26.098  32.031  1.00  0.00     0.049 A 
ATOM     74  H   UNL A   1      44.783  27.448  30.589  1.00  0.00     0.167 HD
ATOM     75  C   UNL A   1      43.663  31.798  36.460  1.00  0.00     0.034 A 
ATOM     76  C   UNL A   1      45.248  25.144  31.870  1.00  0.00     0.034 A 
ATOM     77  C   UNL A   1      43.481  30.358  36.477  1.00  0.00     0.049 A 
ATOM     78  C   UNL A   1      45.987  25.472  33.275  1.00  0.00     0.074 A 
ATOM     79  C   UNL A   1      42.488  29.491  36.067  1.00  0.00     0.029 A 
ATOM     80  N   UNL A   1      44.637  29.615  36.567  1.00  0.00    -0.354 N 
ATOM     81  N   UNL A   1      45.977  26.653  33.894  1.00  0.00    -0.248 NA
ATOM     82  C   UNL A   1      46.377  24.403  34.186  1.00  0.00     0.031 C 
ATOM     83  C   UNL A   1      43.089  28.187  36.048  1.00  0.00     0.029 A 
ATOM     84  C   UNL A   1      44.475  28.292  36.184  1.00  0.00     0.049 A 
ATOM     85  H   UNL A   1      45.495  29.987  36.873  1.00  0.00     0.167 HD
ATOM     86  C   UNL A   1      46.001  26.467  35.263  1.00  0.00     0.074 A 
ATOM     87  C   UNL A   1      46.372  25.047  35.367  1.00  0.00     0.031 C 
ATOM     88  C   UNL A   1      45.614  27.340  36.281  1.00  0.00     0.034 A 
BRANCH  75  89
ATOM     89  C   UNL A   1      42.443  32.716  37.220  1.00  0.00     0.023 A 
ATOM     90  C   UNL A   1      41.998  32.364  38.500  1.00  0.00     0.031 A 
ATOM     91  C   UNL A   1      41.718  33.857  36.742  1.00  0.00     0.131 A 
ATOM     92  C   UNL A   1      41.036  33.141  39.210  1.00  0.00     0.055 A 
ATOM     93  C   UNL A   1      40.680  34.554  37.367  1.00  0.00     0.041 A 
ATOM     94  F   UNL A   1      41.960  34.440  35.594  1.00  0.00    -0.206 F 
ATOM     95  C   UNL A   1      40.358  34.221  38.648  1.00  0.00     0.022 A 
BRANCH  92  96
ATOM     96  S   UNL A   1      40.891  32.831  40.983  1.00  0.00     0.124 S 
ATOM     97  O   UNL A   1      41.653  31.597  41.128  1.00  0.00    -0.237 OA
ATOM     98  O   UNL A   1      41.492  34.041  41.533  1.00  0.00    -0.237 OA
ATOM     99  O   UNL A   1      39.449  32.707  41.189  1.00  0.00    -0.744 OA
ENDBRANCH  92  96
ENDBRANCH  75  89
BRANCH  76 100
ATOM    100  C   UNL A   1      45.800  25.270  30.400  1.00  0.00     0.023 A 
ATOM    101  C   UNL A   1      47.071  25.684  29.902  1.00  0.00     0.031 A 
ATOM    102  C   UNL A   1      45.086  24.510  29.497  1.00  0.00     0.131 A 
ATOM    103  C   UNL A   1      47.517  25.307  28.578  1.00  0.00     0.055 A 
ATOM    104  C   UNL A   1      45.566  24.019  28.265  1.00  0.00     0.041 A 
ATOM    105  F   UNL A   1      43.878  24.176  29.936  1.00  0.00    -0.206 F 
ATOM    106  C   UNL A   1      46.767  24.459  27.766  1.00  0.00     0.022 A 
BRANCH 103 107
ATOM    107  S   UNL A   1      49.171  25.740  27.927  1.00  0.00     0.124 S 
ATOM    108  O   UNL A   1      49.901  26.045  29.152  1.00  0.00    -0.237 OA
ATOM    109  O   UNL A   1      49.574  24.532  27.220  1.00  0.00    -0.237 OA
ATOM    110  O   UNL A   1      48.918  26.894  27.061  1.00  0.00    -0.744 OA
ENDBRANCH 103 107
ENDBRANCH  76 100
BRANCH  88 111
ATOM    111  C   UNL A   1      46.282  27.243  37.648  1.00  0.00     0.023 A 
ATOM    112  C   UNL A   1      47.603  27.654  37.836  1.00  0.00     0.031 A 
ATOM    113  C   UNL A   1      45.617  26.830  38.830  1.00  0.00     0.131 A 
ATOM    114  C   UNL A   1      48.266  27.448  39.048  1.00  0.00     0.055 A 
ATOM    115  C   UNL A   1      46.233  26.783  40.078  1.00  0.00     0.041 A 
ATOM    116  F   UNL A   1      44.333  26.459  38.870  1.00  0.00    -0.206 F 
ATOM    117  C   UNL A   1      47.584  27.039  40.185  1.00  0.00     0.022 A 
BRANCH 114 118
ATOM    118  S   UNL A   1      50.058  27.644  39.044  1.00  0.00     0.124 S 
ATOM    119  O   UNL A   1      50.402  27.252  40.409  1.00  0.00    -0.237 OA
ATOM    120  O   UNL A   1      50.474  26.717  37.994  1.00  0.00    -0.237 OA
ATOM    121  O   UNL A   1      50.243  29.059  38.736  1.00  0.00    -0.744 OA
ENDBRANCH 114 118
ENDBRANCH  88 111
ENDBRANCH  62  63
ENDBRANCH  55  57
ENDBRANCH  54  55
ENDBRANCH  53  54
ENDBRANCH  52  53
ENDBRANCH  51  52
ENDBRANCH  50  51
ENDBRANCH  49  50
ENDBRANCH  48  49
ENDBRANCH   1  48
TORSDOF 29
ENDMDL
