MODEL 1
REMARK VINA RESULT:      -8.8      0.000      0.000
REMARK SMILES O=C(CNC(=O)OCc1ccccc1)NCC(=O)OCCOCCOCCOC(=O)c1ccc(-c2c3nc(c(-c4cc(S(=O)(=O)[O-])ccc4F)c4ccc([nH]4)c(-c4cc(S(=O)(=O)[O-])ccc4F)c4nc(c(-c5cc(S(=O)(=O)[O-])ccc5F)c5ccc2[nH]5)C=C4)C=C3)cc1
REMARK SMILES IDX 22 1 21 2 20 3 19 4 17 5 18 6 16 7 15 8 1 9 2 10 3 12 4 13
REMARK SMILES IDX 5 14 6 16 7 17 8 18 9 19 10 20 14 21 11 22 13 23 12 24 23 25
REMARK SMILES IDX 24 26 25 27 26 28 27 29 28 30 29 31 30 32 31 33 32 34 93 35
REMARK SMILES IDX 33 36 92 37 34 38 35 39 36 40 86 41 37 42 91 43 85 44 87 45
REMARK SMILES IDX 38 46 90 47 84 48 83 49 39 51 71 52 51 53 70 54 52 55 55 56
REMARK SMILES IDX 69 57 88 58 53 59 54 60 68 62 89 63 56 64 40 65 41 66 49 67
REMARK SMILES IDX 42 68 48 69 50 70 47 71 43 72 44 73 45 74 46 75 72 76 73 77
REMARK SMILES IDX 81 78 74 79 80 80 82 81 79 82 75 83 76 84 77 85 78 86 57 87
REMARK SMILES IDX 58 88 66 89 59 90 65 91 67 92 64 93 60 94 61 95 62 96 63 97
REMARK H PARENT 15 11 4 15 87 50 55 61
REMARK Flexibility Score: inf
ROOT
ATOM      1  O   UNL A   1      37.308  22.272  25.333  1.00  0.00    -0.376 OA
ENDROOT
BRANCH   1   2
ATOM      2  C   UNL A   1      35.891  22.178  25.473  1.00  0.00     0.202 C 
BRANCH   2   3
ATOM      3  C   UNL A   1      35.059  21.669  24.280  1.00  0.00     0.261 C 
BRANCH   3   4
ATOM      4  O   UNL A   1      33.641  21.549  24.539  1.00  0.00    -0.462 OA
BRANCH   4   5
ATOM      5  C   UNL A   1      32.823  22.245  23.704  1.00  0.00     0.325 C 
ATOM      6  O   UNL A   1      31.951  21.724  23.013  1.00  0.00    -0.250 OA
BRANCH   5   7
ATOM      7  C   UNL A   1      32.944  23.776  23.816  1.00  0.00     0.238 C 
BRANCH   7   8
ATOM      8  N   UNL A   1      31.862  24.628  24.288  1.00  0.00    -0.344 N 
ATOM      9  O   UNL A   1      31.767  23.789  26.411  1.00  0.00    -0.273 OA
ATOM     10  C   UNL A   1      31.410  24.626  25.588  1.00  0.00     0.240 C 
ATOM     11  H   UNL A   1      31.430  25.236  23.645  1.00  0.00     0.164 HD
BRANCH  10  12
ATOM     12  C   UNL A   1      30.316  25.670  25.883  1.00  0.00     0.219 C 
BRANCH  12  13
ATOM     13  N   UNL A   1      30.875  26.889  26.452  1.00  0.00    -0.312 N 
ATOM     14  C   UNL A   1      31.512  27.897  25.794  1.00  0.00     0.407 C 
ATOM     15  H   UNL A   1      30.780  26.998  27.426  1.00  0.00     0.167 HD
ATOM     16  O   UNL A   1      32.001  28.826  26.426  1.00  0.00    -0.225 OA
BRANCH  14  17
ATOM     17  O   UNL A   1      31.550  27.740  24.451  1.00  0.00    -0.445 OA
BRANCH  17  18
ATOM     18  C   UNL A   1      31.424  28.954  23.690  1.00  0.00     0.270 C 
BRANCH  18  19
ATOM     19  C   UNL A   1      29.973  29.336  23.509  1.00  0.00    -0.011 A 
ATOM     20  C   UNL A   1      29.033  28.368  23.127  1.00  0.00     0.007 A 
ATOM     21  C   UNL A   1      29.543  30.656  23.699  1.00  0.00     0.007 A 
ATOM     22  C   UNL A   1      27.693  28.711  22.937  1.00  0.00     0.000 A 
ATOM     23  C   UNL A   1      28.200  30.998  23.514  1.00  0.00     0.000 A 
ATOM     24  C   UNL A   1      27.277  30.025  23.130  1.00  0.00     0.000 A 
ENDBRANCH  18  19
ENDBRANCH  17  18
ENDBRANCH  14  17
ENDBRANCH  12  13
ENDBRANCH  10  12
ENDBRANCH   7   8
ENDBRANCH   5   7
ENDBRANCH   4   5
ENDBRANCH   3   4
ENDBRANCH   2   3
ENDBRANCH   1   2
BRANCH   1  25
ATOM     25  C   UNL A   1      38.064  22.749  26.440  1.00  0.00     0.188 C 
BRANCH  25  26
ATOM     26  C   UNL A   1      39.596  22.628  26.379  1.00  0.00     0.188 C 
BRANCH  26  27
ATOM     27  O   UNL A   1      40.068  21.493  25.693  1.00  0.00    -0.376 OA
BRANCH  27  28
ATOM     28  C   UNL A   1      39.947  20.218  26.295  1.00  0.00     0.202 C 
BRANCH  28  29
ATOM     29  C   UNL A   1      41.093  19.187  26.265  1.00  0.00     0.261 C 
BRANCH  29  30
ATOM     30  O   UNL A   1      42.067  19.299  25.218  1.00  0.00    -0.460 OA
BRANCH  30  31
ATOM     31  C   UNL A   1      43.322  19.662  25.581  1.00  0.00     0.338 C 
ATOM     32  O   UNL A   1      44.338  19.008  25.431  1.00  0.00    -0.246 OA
BRANCH  31  33
ATOM     33  C   UNL A   1      43.269  21.098  25.952  1.00  0.00     0.060 A 
ATOM     34  C   UNL A   1      43.182  22.062  24.937  1.00  0.00     0.016 A 
ATOM     35  C   UNL A   1      43.269  21.486  27.293  1.00  0.00     0.016 A 
ATOM     36  C   UNL A   1      43.104  23.418  25.263  1.00  0.00     0.010 A 
ATOM     37  C   UNL A   1      43.222  22.846  27.616  1.00  0.00     0.010 A 
ATOM     38  C   UNL A   1      43.161  23.821  26.603  1.00  0.00    -0.014 A 
BRANCH  38  39
ATOM     39  C   UNL A   1      43.363  25.253  26.944  1.00  0.00     0.031 A 
ATOM     40  C   UNL A   1      44.710  25.863  26.669  1.00  0.00     0.074 A 
ATOM     41  C   UNL A   1      42.381  26.000  27.482  1.00  0.00     0.049 A 
ATOM     42  N   UNL A   1      45.164  27.053  26.965  1.00  0.00    -0.248 NA
ATOM     43  C   UNL A   1      45.679  25.003  25.971  1.00  0.00     0.031 C 
ATOM     44  C   UNL A   1      41.018  25.543  27.744  1.00  0.00     0.029 A 
ATOM     45  N   UNL A   1      42.388  27.304  27.916  1.00  0.00    -0.354 N 
ATOM     46  C   UNL A   1      46.474  27.083  26.500  1.00  0.00     0.074 A 
ATOM     47  C   UNL A   1      46.751  25.778  25.936  1.00  0.00     0.031 C 
ATOM     48  C   UNL A   1      40.324  26.548  28.308  1.00  0.00     0.029 A 
ATOM     49  C   UNL A   1      41.204  27.702  28.491  1.00  0.00     0.049 A 
ATOM     50  H   UNL A   1      43.169  27.897  27.824  1.00  0.00     0.167 HD
ATOM     51  C   UNL A   1      47.364  28.105  26.535  1.00  0.00     0.034 A 
ATOM     52  C   UNL A   1      40.881  28.850  29.122  1.00  0.00     0.034 A 
ATOM     53  C   UNL A   1      47.079  29.395  27.114  1.00  0.00     0.049 A 
ATOM     54  C   UNL A   1      41.921  29.942  29.244  1.00  0.00     0.074 A 
ATOM     55  C   UNL A   1      47.903  30.504  27.193  1.00  0.00     0.029 A 
ATOM     56  N   UNL A   1      45.884  29.745  27.730  1.00  0.00    -0.354 N 
ATOM     57  N   UNL A   1      43.157  29.962  28.801  1.00  0.00    -0.248 NA
ATOM     58  C   UNL A   1      41.519  31.170  29.946  1.00  0.00     0.031 C 
ATOM     59  C   UNL A   1      47.240  31.492  27.928  1.00  0.00     0.029 A 
ATOM     60  C   UNL A   1      45.964  31.039  28.225  1.00  0.00     0.049 A 
ATOM     61  H   UNL A   1      45.095  29.161  27.804  1.00  0.00     0.167 HD
ATOM     62  C   UNL A   1      43.664  31.217  29.138  1.00  0.00     0.074 A 
ATOM     63  C   UNL A   1      42.598  31.926  29.813  1.00  0.00     0.031 C 
ATOM     64  C   UNL A   1      44.896  31.738  28.901  1.00  0.00     0.034 A 
BRANCH  51  65
ATOM     65  C   UNL A   1      48.746  27.842  25.985  1.00  0.00     0.023 A 
ATOM     66  C   UNL A   1      49.056  28.041  24.628  1.00  0.00     0.031 A 
ATOM     67  C   UNL A   1      49.759  27.348  26.825  1.00  0.00     0.131 A 
ATOM     68  C   UNL A   1      50.320  27.679  24.139  1.00  0.00     0.055 A 
ATOM     69  C   UNL A   1      51.042  27.072  26.349  1.00  0.00     0.041 A 
ATOM     70  F   UNL A   1      49.515  27.110  28.124  1.00  0.00    -0.206 F 
ATOM     71  C   UNL A   1      51.324  27.223  24.995  1.00  0.00     0.022 A 
BRANCH  68  72
ATOM     72  S   UNL A   1      50.582  27.664  22.344  1.00  0.00     0.124 S 
ATOM     73  O   UNL A   1      50.138  29.006  21.970  1.00  0.00    -0.237 OA
ATOM     74  O   UNL A   1      52.014  27.412  22.236  1.00  0.00    -0.237 OA
ATOM     75  O   UNL A   1      49.719  26.580  21.880  1.00  0.00    -0.744 OA
ENDBRANCH  68  72
ENDBRANCH  51  65
BRANCH  52  76
ATOM     76  C   UNL A   1      39.531  29.024  29.739  1.00  0.00     0.023 A 
ATOM     77  C   UNL A   1      38.475  29.610  29.026  1.00  0.00     0.031 A 
ATOM     78  C   UNL A   1      39.299  28.661  31.079  1.00  0.00     0.131 A 
ATOM     79  C   UNL A   1      37.250  29.861  29.666  1.00  0.00     0.055 A 
ATOM     80  C   UNL A   1      38.060  28.858  31.694  1.00  0.00     0.041 A 
ATOM     81  F   UNL A   1      40.276  28.104  31.812  1.00  0.00    -0.206 F 
ATOM     82  C   UNL A   1      37.031  29.475  30.990  1.00  0.00     0.022 A 
BRANCH  79  83
ATOM     83  S   UNL A   1      35.975  30.791  28.772  1.00  0.00     0.124 S 
ATOM     84  O   UNL A   1      35.320  31.513  29.857  1.00  0.00    -0.237 OA
ATOM     85  O   UNL A   1      36.775  31.597  27.856  1.00  0.00    -0.237 OA
ATOM     86  O   UNL A   1      35.172  29.747  28.141  1.00  0.00    -0.744 OA
ENDBRANCH  79  83
ENDBRANCH  52  76
BRANCH  64  87
ATOM     87  C   UNL A   1      45.139  33.171  29.319  1.00  0.00     0.023 A 
ATOM     88  C   UNL A   1      44.830  34.259  28.482  1.00  0.00     0.031 A 
ATOM     89  C   UNL A   1      45.686  33.450  30.585  1.00  0.00     0.131 A 
ATOM     90  C   UNL A   1      45.118  35.568  28.901  1.00  0.00     0.055 A 
ATOM     91  C   UNL A   1      45.909  34.756  31.022  1.00  0.00     0.041 A 
ATOM     92  F   UNL A   1      46.005  32.453  31.427  1.00  0.00    -0.206 F 
ATOM     93  C   UNL A   1      45.636  35.824  30.173  1.00  0.00     0.022 A 
BRANCH  90  94
ATOM     94  S   UNL A   1      44.894  36.931  27.725  1.00  0.00     0.124 S 
ATOM     95  O   UNL A   1      43.560  36.663  27.201  1.00  0.00    -0.237 OA
ATOM     96  O   UNL A   1      45.020  38.106  28.581  1.00  0.00    -0.237 OA
ATOM     97  O   UNL A   1      45.986  36.742  26.769  1.00  0.00    -0.744 OA
ENDBRANCH  90  94
ENDBRANCH  64  87
ENDBRANCH  38  39
ENDBRANCH  31  33
ENDBRANCH  30  31
ENDBRANCH  29  30
ENDBRANCH  28  29
ENDBRANCH  27  28
ENDBRANCH  26  27
ENDBRANCH  25  26
ENDBRANCH   1  25
TORSDOF 26
ENDMDL
MODEL 2
REMARK VINA RESULT:      -8.4      5.314      9.367
REMARK SMILES O=C(CNC(=O)OCc1ccccc1)NCC(=O)OCCOCCOCCOC(=O)c1ccc(-c2c3nc(c(-c4cc(S(=O)(=O)[O-])ccc4F)c4ccc([nH]4)c(-c4cc(S(=O)(=O)[O-])ccc4F)c4nc(c(-c5cc(S(=O)(=O)[O-])ccc5F)c5ccc2[nH]5)C=C4)C=C3)cc1
REMARK SMILES IDX 22 1 21 2 20 3 19 4 17 5 18 6 16 7 15 8 1 9 2 10 3 12 4 13
REMARK SMILES IDX 5 14 6 16 7 17 8 18 9 19 10 20 14 21 11 22 13 23 12 24 23 25
REMARK SMILES IDX 24 26 25 27 26 28 27 29 28 30 29 31 30 32 31 33 32 34 93 35
REMARK SMILES IDX 33 36 92 37 34 38 35 39 36 40 86 41 37 42 91 43 85 44 87 45
REMARK SMILES IDX 38 46 90 47 84 48 83 49 39 51 71 52 51 53 70 54 52 55 55 56
REMARK SMILES IDX 69 57 88 58 53 59 54 60 68 62 89 63 56 64 40 65 41 66 49 67
REMARK SMILES IDX 42 68 48 69 50 70 47 71 43 72 44 73 45 74 46 75 72 76 73 77
REMARK SMILES IDX 81 78 74 79 80 80 82 81 79 82 75 83 76 84 77 85 78 86 57 87
REMARK SMILES IDX 58 88 66 89 59 90 65 91 67 92 64 93 60 94 61 95 62 96 63 97
REMARK H PARENT 15 11 4 15 87 50 55 61
REMARK Flexibility Score: inf
ROOT
ATOM      1  O   UNL A   1      42.653  22.213  24.982  1.00  0.00    -0.376 OA
ENDROOT
BRANCH   1   2
ATOM      2  C   UNL A   1      42.395  21.704  26.290  1.00  0.00     0.202 C 
BRANCH   2   3
ATOM      3  C   UNL A   1      41.256  20.683  26.479  1.00  0.00     0.261 C 
BRANCH   3   4
ATOM      4  O   UNL A   1      40.054  21.224  27.075  1.00  0.00    -0.462 OA
BRANCH   4   5
ATOM      5  C   UNL A   1      39.170  21.799  26.214  1.00  0.00     0.325 C 
ATOM      6  O   UNL A   1      38.535  21.174  25.369  1.00  0.00    -0.250 OA
BRANCH   5   7
ATOM      7  C   UNL A   1      38.880  23.286  26.492  1.00  0.00     0.238 C 
BRANCH   7   8
ATOM      8  N   UNL A   1      39.796  24.357  26.127  1.00  0.00    -0.344 N 
ATOM      9  O   UNL A   1      40.945  24.412  28.101  1.00  0.00    -0.273 OA
ATOM     10  C   UNL A   1      40.823  24.783  26.938  1.00  0.00     0.240 C 
ATOM     11  H   UNL A   1      39.674  24.800  25.256  1.00  0.00     0.164 HD
BRANCH  10  12
ATOM     12  C   UNL A   1      41.719  25.869  26.312  1.00  0.00     0.219 C 
BRANCH  12  13
ATOM     13  N   UNL A   1      40.987  27.107  26.084  1.00  0.00    -0.312 N 
ATOM     14  C   UNL A   1      40.729  28.097  26.983  1.00  0.00     0.407 C 
ATOM     15  H   UNL A   1      40.639  27.245  25.173  1.00  0.00     0.167 HD
ATOM     16  O   UNL A   1      40.026  29.047  26.659  1.00  0.00    -0.225 OA
BRANCH  14  17
ATOM     17  O   UNL A   1      41.292  27.899  28.197  1.00  0.00    -0.445 OA
BRANCH  17  18
ATOM     18  C   UNL A   1      41.220  29.022  29.094  1.00  0.00     0.270 C 
BRANCH  18  19
ATOM     19  C   UNL A   1      40.356  28.707  30.293  1.00  0.00    -0.011 A 
ATOM     20  C   UNL A   1      39.345  27.740  30.198  1.00  0.00     0.007 A 
ATOM     21  C   UNL A   1      40.534  29.381  31.509  1.00  0.00     0.007 A 
ATOM     22  C   UNL A   1      38.527  27.454  31.293  1.00  0.00     0.000 A 
ATOM     23  C   UNL A   1      39.717  29.090  32.607  1.00  0.00     0.000 A 
ATOM     24  C   UNL A   1      38.713  28.129  32.496  1.00  0.00     0.000 A 
ENDBRANCH  18  19
ENDBRANCH  17  18
ENDBRANCH  14  17
ENDBRANCH  12  13
ENDBRANCH  10  12
ENDBRANCH   7   8
ENDBRANCH   5   7
ENDBRANCH   4   5
ENDBRANCH   3   4
ENDBRANCH   2   3
ENDBRANCH   1   2
BRANCH   1  25
ATOM     25  C   UNL A   1      43.902  22.849  24.740  1.00  0.00     0.188 C 
BRANCH  25  26
ATOM     26  C   UNL A   1      45.100  22.454  25.619  1.00  0.00     0.188 C 
BRANCH  26  27
ATOM     27  O   UNL A   1      46.300  22.241  24.915  1.00  0.00    -0.376 OA
BRANCH  27  28
ATOM     28  C   UNL A   1      46.914  23.326  24.244  1.00  0.00     0.202 C 
BRANCH  28  29
ATOM     29  C   UNL A   1      47.082  24.707  24.908  1.00  0.00     0.261 C 
BRANCH  29  30
ATOM     30  O   UNL A   1      46.496  25.841  24.253  1.00  0.00    -0.460 OA
BRANCH  30  31
ATOM     31  C   UNL A   1      47.058  27.051  24.496  1.00  0.00     0.338 C 
ATOM     32  O   UNL A   1      47.707  27.719  23.712  1.00  0.00    -0.246 OA
BRANCH  31  33
ATOM     33  C   UNL A   1      46.522  27.526  25.795  1.00  0.00     0.060 A 
ATOM     34  C   UNL A   1      45.141  27.456  26.030  1.00  0.00     0.016 A 
ATOM     35  C   UNL A   1      47.381  28.004  26.787  1.00  0.00     0.016 A 
ATOM     36  C   UNL A   1      44.616  27.872  27.256  1.00  0.00     0.010 A 
ATOM     37  C   UNL A   1      46.849  28.449  28.002  1.00  0.00     0.010 A 
ATOM     38  C   UNL A   1      45.462  28.406  28.236  1.00  0.00    -0.014 A 
BRANCH  38  39
ATOM     39  C   UNL A   1      44.891  29.107  29.415  1.00  0.00     0.031 A 
ATOM     40  C   UNL A   1      44.693  28.317  30.680  1.00  0.00     0.074 A 
ATOM     41  C   UNL A   1      44.559  30.410  29.374  1.00  0.00     0.049 A 
ATOM     42  N   UNL A   1      44.126  28.670  31.804  1.00  0.00    -0.248 NA
ATOM     43  C   UNL A   1      45.197  26.934  30.665  1.00  0.00     0.031 C 
ATOM     44  C   UNL A   1      44.754  31.297  28.228  1.00  0.00     0.029 A 
ATOM     45  N   UNL A   1      43.972  31.211  30.324  1.00  0.00    -0.354 N 
ATOM     46  C   UNL A   1      44.195  27.552  32.628  1.00  0.00     0.074 A 
ATOM     47  C   UNL A   1      44.825  26.500  31.858  1.00  0.00     0.031 C 
ATOM     48  C   UNL A   1      44.280  32.518  28.539  1.00  0.00     0.029 A 
ATOM     49  C   UNL A   1      43.706  32.487  29.884  1.00  0.00     0.049 A 
ATOM     50  H   UNL A   1      43.761  30.900  31.234  1.00  0.00     0.167 HD
ATOM     51  C   UNL A   1      43.777  27.415  33.910  1.00  0.00     0.034 A 
ATOM     52  C   UNL A   1      43.045  33.500  30.485  1.00  0.00     0.034 A 
ATOM     53  C   UNL A   1      43.136  28.469  34.659  1.00  0.00     0.049 A 
ATOM     54  C   UNL A   1      42.492  33.294  31.878  1.00  0.00     0.074 A 
ATOM     55  C   UNL A   1      42.683  28.441  35.967  1.00  0.00     0.029 A 
ATOM     56  N   UNL A   1      42.841  29.733  34.165  1.00  0.00    -0.354 N 
ATOM     57  N   UNL A   1      42.562  32.234  32.650  1.00  0.00    -0.248 NA
ATOM     58  C   UNL A   1      41.776  34.427  32.483  1.00  0.00     0.031 C 
ATOM     59  C   UNL A   1      42.040  29.655  36.233  1.00  0.00     0.029 A 
ATOM     60  C   UNL A   1      42.178  30.479  35.127  1.00  0.00     0.049 A 
ATOM     61  H   UNL A   1      43.070  30.053  33.262  1.00  0.00     0.167 HD
ATOM     62  C   UNL A   1      41.934  32.587  33.843  1.00  0.00     0.074 A 
ATOM     63  C   UNL A   1      41.498  33.959  33.691  1.00  0.00     0.031 C 
ATOM     64  C   UNL A   1      41.743  31.847  34.966  1.00  0.00     0.034 A 
BRANCH  51  65
ATOM     65  C   UNL A   1      43.945  26.060  34.555  1.00  0.00     0.023 A 
ATOM     66  C   UNL A   1      45.210  25.553  34.899  1.00  0.00     0.031 A 
ATOM     67  C   UNL A   1      42.823  25.247  34.795  1.00  0.00     0.131 A 
ATOM     68  C   UNL A   1      45.329  24.246  35.393  1.00  0.00     0.055 A 
ATOM     69  C   UNL A   1      42.940  23.980  35.368  1.00  0.00     0.041 A 
ATOM     70  F   UNL A   1      41.592  25.665  34.460  1.00  0.00    -0.206 F 
ATOM     71  C   UNL A   1      44.200  23.466  35.657  1.00  0.00     0.022 A 
BRANCH  68  72
ATOM     72  S   UNL A   1      46.986  23.522  35.539  1.00  0.00     0.124 S 
ATOM     73  O   UNL A   1      47.199  23.561  36.985  1.00  0.00    -0.237 OA
ATOM     74  O   UNL A   1      46.805  22.198  34.955  1.00  0.00    -0.237 OA
ATOM     75  O   UNL A   1      47.828  24.435  34.769  1.00  0.00    -0.744 OA
ENDBRANCH  68  72
ENDBRANCH  51  65
BRANCH  52  76
ATOM     76  C   UNL A   1      42.816  34.789  29.766  1.00  0.00     0.023 A 
ATOM     77  C   UNL A   1      43.789  35.801  29.758  1.00  0.00     0.031 A 
ATOM     78  C   UNL A   1      41.590  35.051  29.127  1.00  0.00     0.131 A 
ATOM     79  C   UNL A   1      43.503  37.043  29.169  1.00  0.00     0.055 A 
ATOM     80  C   UNL A   1      41.333  36.266  28.490  1.00  0.00     0.041 A 
ATOM     81  F   UNL A   1      40.620  34.122  29.111  1.00  0.00    -0.206 F 
ATOM     82  C   UNL A   1      42.288  37.277  28.521  1.00  0.00     0.022 A 
BRANCH  79  83
ATOM     83  S   UNL A   1      44.708  38.387  29.345  1.00  0.00     0.124 S 
ATOM     84  O   UNL A   1      45.013  38.696  27.953  1.00  0.00    -0.237 OA
ATOM     85  O   UNL A   1      43.938  39.391  30.071  1.00  0.00    -0.237 OA
ATOM     86  O   UNL A   1      45.796  37.772  30.102  1.00  0.00    -0.744 OA
ENDBRANCH  79  83
ENDBRANCH  52  76
BRANCH  64  87
ATOM     87  C   UNL A   1      41.089  32.528  36.147  1.00  0.00     0.023 A 
ATOM     88  C   UNL A   1      39.775  32.229  36.552  1.00  0.00     0.031 A 
ATOM     89  C   UNL A   1      41.801  33.491  36.886  1.00  0.00     0.131 A 
ATOM     90  C   UNL A   1      39.199  32.923  37.628  1.00  0.00     0.055 A 
ATOM     91  C   UNL A   1      41.246  34.130  37.996  1.00  0.00     0.041 A 
ATOM     92  F   UNL A   1      43.058  33.820  36.546  1.00  0.00    -0.206 F 
ATOM     93  C   UNL A   1      39.933  33.856  38.365  1.00  0.00     0.022 A 
BRANCH  90  94
ATOM     94  S   UNL A   1      37.442  32.660  37.997  1.00  0.00     0.124 S 
ATOM     95  O   UNL A   1      37.311  33.288  39.308  1.00  0.00    -0.237 OA
ATOM     96  O   UNL A   1      36.784  33.348  36.892  1.00  0.00    -0.237 OA
ATOM     97  O   UNL A   1      37.304  31.204  37.990  1.00  0.00    -0.744 OA
ENDBRANCH  90  94
ENDBRANCH  64  87
ENDBRANCH  38  39
ENDBRANCH  31  33
ENDBRANCH  30  31
ENDBRANCH  29  30
ENDBRANCH  28  29
ENDBRANCH  27  28
ENDBRANCH  26  27
ENDBRANCH  25  26
ENDBRANCH   1  25
TORSDOF 26
ENDMDL
MODEL 3
REMARK VINA RESULT:      -8.2      1.977      2.562
REMARK SMILES O=C(CNC(=O)OCc1ccccc1)NCC(=O)OCCOCCOCCOC(=O)c1ccc(-c2c3nc(c(-c4cc(S(=O)(=O)[O-])ccc4F)c4ccc([nH]4)c(-c4cc(S(=O)(=O)[O-])ccc4F)c4nc(c(-c5cc(S(=O)(=O)[O-])ccc5F)c5ccc2[nH]5)C=C4)C=C3)cc1
REMARK SMILES IDX 22 1 21 2 20 3 19 4 17 5 18 6 16 7 15 8 1 9 2 10 3 12 4 13
REMARK SMILES IDX 5 14 6 16 7 17 8 18 9 19 10 20 14 21 11 22 13 23 12 24 23 25
REMARK SMILES IDX 24 26 25 27 26 28 27 29 28 30 29 31 30 32 31 33 32 34 93 35
REMARK SMILES IDX 33 36 92 37 34 38 35 39 36 40 86 41 37 42 91 43 85 44 87 45
REMARK SMILES IDX 38 46 90 47 84 48 83 49 39 51 71 52 51 53 70 54 52 55 55 56
REMARK SMILES IDX 69 57 88 58 53 59 54 60 68 62 89 63 56 64 40 65 41 66 49 67
REMARK SMILES IDX 42 68 48 69 50 70 47 71 43 72 44 73 45 74 46 75 72 76 73 77
REMARK SMILES IDX 81 78 74 79 80 80 82 81 79 82 75 83 76 84 77 85 78 86 57 87
REMARK SMILES IDX 58 88 66 89 59 90 65 91 67 92 64 93 60 94 61 95 62 96 63 97
REMARK H PARENT 15 11 4 15 87 50 55 61
REMARK Flexibility Score: inf
ROOT
ATOM      1  O   UNL A   1      36.982  22.181  25.337  1.00  0.00    -0.376 OA
ENDROOT
BRANCH   1   2
ATOM      2  C   UNL A   1      35.568  22.103  25.509  1.00  0.00     0.202 C 
BRANCH   2   3
ATOM      3  C   UNL A   1      34.682  21.847  24.275  1.00  0.00     0.261 C 
BRANCH   3   4
ATOM      4  O   UNL A   1      33.286  21.613  24.571  1.00  0.00    -0.462 OA
BRANCH   4   5
ATOM      5  C   UNL A   1      32.463  21.482  23.496  1.00  0.00     0.325 C 
ATOM      6  O   UNL A   1      32.267  20.420  22.911  1.00  0.00    -0.250 OA
BRANCH   5   7
ATOM      7  C   UNL A   1      31.639  22.740  23.162  1.00  0.00     0.238 C 
BRANCH   7   8
ATOM      8  N   UNL A   1      32.207  24.081  23.141  1.00  0.00    -0.344 N 
ATOM      9  O   UNL A   1      33.328  23.865  21.161  1.00  0.00    -0.273 OA
ATOM     10  C   UNL A   1      32.946  24.572  22.089  1.00  0.00     0.240 C 
ATOM     11  H   UNL A   1      32.056  24.665  23.918  1.00  0.00     0.164 HD
BRANCH  10  12
ATOM     12  C   UNL A   1      33.374  26.044  22.244  1.00  0.00     0.219 C 
BRANCH  12  13
ATOM     13  N   UNL A   1      32.337  26.957  21.782  1.00  0.00    -0.312 N 
ATOM     14  C   UNL A   1      31.166  27.267  22.403  1.00  0.00     0.407 C 
ATOM     15  H   UNL A   1      32.503  27.404  20.920  1.00  0.00     0.167 HD
ATOM     16  O   UNL A   1      30.353  27.997  21.846  1.00  0.00    -0.225 OA
BRANCH  14  17
ATOM     17  O   UNL A   1      31.017  26.689  23.617  1.00  0.00    -0.445 OA
BRANCH  17  18
ATOM     18  C   UNL A   1      30.558  27.569  24.660  1.00  0.00     0.270 C 
BRANCH  18  19
ATOM     19  C   UNL A   1      31.721  28.214  25.378  1.00  0.00    -0.011 A 
ATOM     20  C   UNL A   1      32.816  27.437  25.785  1.00  0.00     0.007 A 
ATOM     21  C   UNL A   1      31.722  29.585  25.667  1.00  0.00     0.007 A 
ATOM     22  C   UNL A   1      33.887  28.016  26.467  1.00  0.00     0.000 A 
ATOM     23  C   UNL A   1      32.798  30.166  26.346  1.00  0.00     0.000 A 
ATOM     24  C   UNL A   1      33.878  29.380  26.748  1.00  0.00     0.000 A 
ENDBRANCH  18  19
ENDBRANCH  17  18
ENDBRANCH  14  17
ENDBRANCH  12  13
ENDBRANCH  10  12
ENDBRANCH   7   8
ENDBRANCH   5   7
ENDBRANCH   4   5
ENDBRANCH   3   4
ENDBRANCH   2   3
ENDBRANCH   1   2
BRANCH   1  25
ATOM     25  C   UNL A   1      37.774  22.605  26.441  1.00  0.00     0.188 C 
BRANCH  25  26
ATOM     26  C   UNL A   1      39.277  22.830  26.212  1.00  0.00     0.188 C 
BRANCH  26  27
ATOM     27  O   UNL A   1      39.965  21.718  25.689  1.00  0.00    -0.376 OA
BRANCH  27  28
ATOM     28  C   UNL A   1      39.975  20.504  26.415  1.00  0.00     0.202 C 
BRANCH  28  29
ATOM     29  C   UNL A   1      41.188  19.552  26.399  1.00  0.00     0.261 C 
BRANCH  29  30
ATOM     30  O   UNL A   1      42.046  19.580  25.250  1.00  0.00    -0.460 OA
BRANCH  30  31
ATOM     31  C   UNL A   1      43.358  19.847  25.468  1.00  0.00     0.338 C 
ATOM     32  O   UNL A   1      44.300  19.128  25.188  1.00  0.00    -0.246 OA
BRANCH  31  33
ATOM     33  C   UNL A   1      43.451  21.273  25.866  1.00  0.00     0.060 A 
ATOM     34  C   UNL A   1      43.246  22.267  24.898  1.00  0.00     0.016 A 
ATOM     35  C   UNL A   1      43.704  21.625  27.194  1.00  0.00     0.016 A 
ATOM     36  C   UNL A   1      43.301  23.616  25.254  1.00  0.00     0.010 A 
ATOM     37  C   UNL A   1      43.790  22.978  27.542  1.00  0.00     0.010 A 
ATOM     38  C   UNL A   1      43.611  23.981  26.571  1.00  0.00    -0.014 A 
BRANCH  38  39
ATOM     39  C   UNL A   1      43.950  25.391  26.896  1.00  0.00     0.031 A 
ATOM     40  C   UNL A   1      45.339  25.876  26.580  1.00  0.00     0.074 A 
ATOM     41  C   UNL A   1      43.054  26.225  27.452  1.00  0.00     0.049 A 
ATOM     42  N   UNL A   1      45.905  27.021  26.855  1.00  0.00    -0.248 NA
ATOM     43  C   UNL A   1      46.207  24.928  25.864  1.00  0.00     0.031 C 
ATOM     44  C   UNL A   1      41.662  25.894  27.754  1.00  0.00     0.029 A 
ATOM     45  N   UNL A   1      43.190  27.526  27.876  1.00  0.00    -0.354 N 
ATOM     46  C   UNL A   1      47.200  26.931  26.356  1.00  0.00     0.074 A 
ATOM     47  C   UNL A   1      47.343  25.603  25.795  1.00  0.00     0.031 C 
ATOM     48  C   UNL A   1      41.077  26.961  28.328  1.00  0.00     0.029 A 
ATOM     49  C   UNL A   1      42.062  28.032  28.479  1.00  0.00     0.049 A 
ATOM     50  H   UNL A   1      44.017  28.046  27.759  1.00  0.00     0.167 HD
ATOM     51  C   UNL A   1      48.178  27.869  26.359  1.00  0.00     0.034 A 
ATOM     52  C   UNL A   1      41.859  29.208  29.109  1.00  0.00     0.034 A 
ATOM     53  C   UNL A   1      48.025  29.183  26.935  1.00  0.00     0.049 A 
ATOM     54  C   UNL A   1      42.997  30.203  29.195  1.00  0.00     0.074 A 
ATOM     55  C   UNL A   1      48.948  30.213  26.984  1.00  0.00     0.029 A 
ATOM     56  N   UNL A   1      46.884  29.642  27.579  1.00  0.00    -0.354 N 
ATOM     57  N   UNL A   1      44.217  30.109  28.720  1.00  0.00    -0.248 NA
ATOM     58  C   UNL A   1      42.724  31.465  29.898  1.00  0.00     0.031 C 
ATOM     59  C   UNL A   1      48.395  31.261  27.728  1.00  0.00     0.029 A 
ATOM     60  C   UNL A   1      47.092  30.926  28.062  1.00  0.00     0.049 A 
ATOM     61  H   UNL A   1      46.048  29.132  27.679  1.00  0.00     0.167 HD
ATOM     62  C   UNL A   1      44.843  31.315  29.034  1.00  0.00     0.074 A 
ATOM     63  C   UNL A   1      43.864  32.121  29.731  1.00  0.00     0.031 C 
ATOM     64  C   UNL A   1      46.110  31.722  28.760  1.00  0.00     0.034 A 
BRANCH  51  65
ATOM     65  C   UNL A   1      49.515  27.480  25.775  1.00  0.00     0.023 A 
ATOM     66  C   UNL A   1      50.625  27.192  26.589  1.00  0.00     0.031 A 
ATOM     67  C   UNL A   1      49.692  27.431  24.381  1.00  0.00     0.131 A 
ATOM     68  C   UNL A   1      51.876  26.943  26.004  1.00  0.00     0.055 A 
ATOM     69  C   UNL A   1      50.918  27.097  23.805  1.00  0.00     0.041 A 
ATOM     70  F   UNL A   1      48.677  27.725  23.553  1.00  0.00    -0.206 F 
ATOM     71  C   UNL A   1      52.024  26.866  24.617  1.00  0.00     0.022 A 
BRANCH  68  72
ATOM     72  S   UNL A   1      53.337  26.878  27.077  1.00  0.00     0.124 S 
ATOM     73  O   UNL A   1      54.250  26.057  26.282  1.00  0.00    -0.237 OA
ATOM     74  O   UNL A   1      53.695  28.285  27.211  1.00  0.00    -0.237 OA
ATOM     75  O   UNL A   1      52.840  26.240  28.294  1.00  0.00    -0.744 OA
ENDBRANCH  68  72
ENDBRANCH  51  65
BRANCH  52  76
ATOM     76  C   UNL A   1      40.548  29.505  29.760  1.00  0.00     0.023 A 
ATOM     77  C   UNL A   1      39.447  29.947  29.010  1.00  0.00     0.031 A 
ATOM     78  C   UNL A   1      40.398  29.412  31.156  1.00  0.00     0.131 A 
ATOM     79  C   UNL A   1      38.261  30.324  29.661  1.00  0.00     0.055 A 
ATOM     80  C   UNL A   1      39.197  29.732  31.793  1.00  0.00     0.041 A 
ATOM     81  F   UNL A   1      41.421  29.005  31.924  1.00  0.00    -0.206 F 
ATOM     82  C   UNL A   1      38.123  30.205  31.045  1.00  0.00     0.022 A 
BRANCH  79  83
ATOM     83  S   UNL A   1      36.929  31.068  28.680  1.00  0.00     0.124 S 
ATOM     84  O   UNL A   1      35.750  30.706  29.459  1.00  0.00    -0.237 OA
ATOM     85  O   UNL A   1      37.297  32.480  28.692  1.00  0.00    -0.237 OA
ATOM     86  O   UNL A   1      37.050  30.405  27.384  1.00  0.00    -0.744 OA
ENDBRANCH  79  83
ENDBRANCH  52  76
BRANCH  64  87
ATOM     87  C   UNL A   1      46.492  33.130  29.160  1.00  0.00     0.023 A 
ATOM     88  C   UNL A   1      46.253  34.238  28.326  1.00  0.00     0.031 A 
ATOM     89  C   UNL A   1      47.100  33.365  30.407  1.00  0.00     0.131 A 
ATOM     90  C   UNL A   1      46.669  35.517  28.726  1.00  0.00     0.055 A 
ATOM     91  C   UNL A   1      47.452  34.648  30.828  1.00  0.00     0.041 A 
ATOM     92  F   UNL A   1      47.356  32.347  31.245  1.00  0.00    -0.206 F 
ATOM     93  C   UNL A   1      47.247  35.733  29.980  1.00  0.00     0.022 A 
BRANCH  90  94
ATOM     94  S   UNL A   1      46.530  36.890  27.548  1.00  0.00     0.124 S 
ATOM     95  O   UNL A   1      46.562  38.051  28.430  1.00  0.00    -0.237 OA
ATOM     96  O   UNL A   1      47.705  36.697  26.704  1.00  0.00    -0.237 OA
ATOM     97  O   UNL A   1      45.247  36.647  26.888  1.00  0.00    -0.744 OA
ENDBRANCH  90  94
ENDBRANCH  64  87
ENDBRANCH  38  39
ENDBRANCH  31  33
ENDBRANCH  30  31
ENDBRANCH  29  30
ENDBRANCH  28  29
ENDBRANCH  27  28
ENDBRANCH  26  27
ENDBRANCH  25  26
ENDBRANCH   1  25
TORSDOF 26
ENDMDL
