MODEL 1
REMARK VINA RESULT:     -10.5      0.000      0.000
REMARK SMILES C[C@@H]1CN(c2ccc(N)cc2C(=O)OCCOCCOCCOC(=O)c2ccc(-c3c4nc(c(-c5cc(S(=O)(=O)[O-])ccc5F)c5ccc([nH]5)c(-c5cc(S(=O)(=O)[O-])ccc5F)c5nc(c(-c6cc(S(=O)(=O)[O-])ccc6F)c6ccc3[nH]6)C=C5)C=C4)cc2)C[C@H]1C
REMARK SMILES IDX 19 1 18 2 17 3 16 4 15 5 14 6 12 7 13 8 11 9 5 10 6 11 7 12
REMARK SMILES IDX 10 13 8 14 4 15 1 16 2 17 3 18 90 19 89 20 91 21 9 22 20 25
REMARK SMILES IDX 21 26 22 27 23 28 24 29 25 30 26 31 27 32 88 33 28 34 87 35
REMARK SMILES IDX 29 36 30 37 31 38 81 39 32 40 86 41 80 42 82 43 33 44 85 45
REMARK SMILES IDX 79 46 78 47 34 49 66 50 46 51 65 52 47 53 50 54 64 55 83 56
REMARK SMILES IDX 48 57 49 58 63 60 84 61 51 62 35 63 36 64 44 65 37 66 43 67
REMARK SMILES IDX 45 68 42 69 38 70 39 71 40 72 41 73 67 74 68 75 76 76 69 77
REMARK SMILES IDX 75 78 77 79 74 80 70 81 71 82 72 83 73 84 52 85 53 86 61 87
REMARK SMILES IDX 54 88 60 89 62 90 59 91 55 92 56 93 57 94 58 95
REMARK H PARENT 9 23 9 24 82 48 50 59
REMARK Flexibility Score: inf
ROOT
ATOM      1  C   UNL A   1      30.470  29.200  23.858  1.00  0.00     0.188 C 
ENDROOT
BRANCH   1   2
ATOM      2  C   UNL A   1      31.434  28.774  22.728  1.00  0.00     0.188 C 
BRANCH   2   3
ATOM      3  O   UNL A   1      32.827  28.695  22.998  1.00  0.00    -0.376 OA
BRANCH   3   4
ATOM      4  C   UNL A   1      33.640  27.853  22.191  1.00  0.00     0.202 C 
BRANCH   4   5
ATOM      5  C   UNL A   1      33.115  26.501  21.688  1.00  0.00     0.261 C 
BRANCH   5   6
ATOM      6  O   UNL A   1      33.816  25.373  22.229  1.00  0.00    -0.460 OA
BRANCH   6   7
ATOM      7  C   UNL A   1      33.056  24.315  22.610  1.00  0.00     0.340 C 
ATOM      8  O   UNL A   1      32.728  23.376  21.900  1.00  0.00    -0.246 OA
BRANCH   7   9
ATOM      9  C   UNL A   1      32.806  24.339  24.072  1.00  0.00     0.085 A 
ATOM     10  C   UNL A   1      33.715  23.921  25.065  1.00  0.00     0.051 A 
ATOM     11  C   UNL A   1      33.242  23.982  26.393  1.00  0.00     0.029 A 
ATOM     12  C   UNL A   1      31.940  24.385  26.720  1.00  0.00     0.027 A 
ATOM     13  C   UNL A   1      31.488  24.734  24.410  1.00  0.00     0.043 A 
ATOM     14  C   UNL A   1      31.047  24.762  25.729  1.00  0.00     0.032 A 
BRANCH  10  15
ATOM     15  N   UNL A   1      34.989  23.426  24.867  1.00  0.00    -0.370 N 
ATOM     16  C   UNL A   1      38.403  23.525  26.315  1.00  0.00     0.010 C 
ATOM     17  C   UNL A   1      37.317  23.221  25.295  1.00  0.00     0.010 C 
ATOM     18  C   UNL A   1      36.135  24.202  25.372  1.00  0.00     0.120 C 
ATOM     19  C   UNL A   1      36.623  21.868  25.497  1.00  0.00     0.010 C 
ATOM     20  C   UNL A   1      35.365  22.037  24.636  1.00  0.00     0.120 C 
ATOM     21  C   UNL A   1      37.448  20.660  25.094  1.00  0.00     0.010 C 
ENDBRANCH  10  15
BRANCH  14  22
ATOM     22  N   UNL A   1      29.726  25.026  26.033  1.00  0.00    -0.399 N 
ATOM     23  H   UNL A   1      29.448  25.939  26.277  1.00  0.00     0.156 HD
ATOM     24  H   UNL A   1      29.060  24.300  26.007  1.00  0.00     0.156 HD
ENDBRANCH  14  22
ENDBRANCH   7   9
ENDBRANCH   6   7
ENDBRANCH   5   6
ENDBRANCH   4   5
ENDBRANCH   3   4
ENDBRANCH   2   3
ENDBRANCH   1   2
BRANCH   1  25
ATOM     25  O   UNL A   1      31.047  29.467  25.115  1.00  0.00    -0.376 OA
BRANCH  25  26
ATOM     26  C   UNL A   1      31.222  30.802  25.554  1.00  0.00     0.202 C 
BRANCH  26  27
ATOM     27  C   UNL A   1      31.905  31.261  26.859  1.00  0.00     0.261 C 
BRANCH  27  28
ATOM     28  O   UNL A   1      33.258  30.881  27.106  1.00  0.00    -0.460 OA
BRANCH  28  29
ATOM     29  C   UNL A   1      34.047  31.829  27.668  1.00  0.00     0.338 C 
ATOM     30  O   UNL A   1      33.722  32.971  27.965  1.00  0.00    -0.246 OA
BRANCH  29  31
ATOM     31  C   UNL A   1      35.328  31.205  28.045  1.00  0.00     0.060 A 
ATOM     32  C   UNL A   1      35.403  29.809  28.144  1.00  0.00     0.016 A 
ATOM     33  C   UNL A   1      36.448  31.997  28.303  1.00  0.00     0.016 A 
ATOM     34  C   UNL A   1      36.601  29.199  28.520  1.00  0.00     0.010 A 
ATOM     35  C   UNL A   1      37.639  31.385  28.702  1.00  0.00     0.010 A 
ATOM     36  C   UNL A   1      37.716  29.986  28.837  1.00  0.00    -0.014 A 
BRANCH  36  37
ATOM     37  C   UNL A   1      38.903  29.372  29.484  1.00  0.00     0.031 A 
ATOM     38  C   UNL A   1      39.354  29.917  30.811  1.00  0.00     0.074 A 
ATOM     39  C   UNL A   1      39.568  28.354  28.907  1.00  0.00     0.049 A 
ATOM     40  N   UNL A   1      40.408  29.613  31.522  1.00  0.00    -0.248 NA
ATOM     41  C   UNL A   1      38.500  30.954  31.410  1.00  0.00     0.031 C 
ATOM     42  C   UNL A   1      39.198  27.708  27.650  1.00  0.00     0.029 A 
ATOM     43  N   UNL A   1      40.706  27.695  29.303  1.00  0.00    -0.354 N 
ATOM     44  C   UNL A   1      40.351  30.428  32.648  1.00  0.00     0.074 A 
ATOM     45  C   UNL A   1      39.179  31.264  32.503  1.00  0.00     0.031 C 
ATOM     46  C   UNL A   1      40.103  26.753  27.369  1.00  0.00     0.029 A 
ATOM     47  C   UNL A   1      41.140  26.751  28.401  1.00  0.00     0.049 A 
ATOM     48  H   UNL A   1      41.167  27.881  30.153  1.00  0.00     0.167 HD
ATOM     49  C   UNL A   1      41.197  30.470  33.707  1.00  0.00     0.034 A 
ATOM     50  C   UNL A   1      42.260  26.000  28.393  1.00  0.00     0.034 A 
ATOM     51  C   UNL A   1      42.371  29.640  33.827  1.00  0.00     0.049 A 
ATOM     52  C   UNL A   1      43.244  26.134  29.535  1.00  0.00     0.074 A 
ATOM     53  C   UNL A   1      43.288  29.591  34.861  1.00  0.00     0.029 A 
ATOM     54  N   UNL A   1      42.802  28.727  32.872  1.00  0.00    -0.354 N 
ATOM     55  N   UNL A   1      43.180  26.903  30.598  1.00  0.00    -0.248 NA
ATOM     56  C   UNL A   1      44.448  25.294  29.477  1.00  0.00     0.031 C 
ATOM     57  C   UNL A   1      44.317  28.716  34.495  1.00  0.00     0.029 A 
ATOM     58  C   UNL A   1      43.992  28.140  33.278  1.00  0.00     0.049 A 
ATOM     59  H   UNL A   1      42.333  28.526  32.031  1.00  0.00     0.167 HD
ATOM     60  C   UNL A   1      44.313  26.606  31.353  1.00  0.00     0.074 A 
ATOM     61  C   UNL A   1      45.038  25.586  30.627  1.00  0.00     0.031 C 
ATOM     62  C   UNL A   1      44.712  27.124  32.544  1.00  0.00     0.034 A 
BRANCH  49  63
ATOM     63  C   UNL A   1      40.909  31.487  34.786  1.00  0.00     0.023 A 
ATOM     64  C   UNL A   1      39.920  31.275  35.763  1.00  0.00     0.031 A 
ATOM     65  C   UNL A   1      41.615  32.703  34.819  1.00  0.00     0.131 A 
ATOM     66  C   UNL A   1      39.613  32.291  36.680  1.00  0.00     0.055 A 
ATOM     67  C   UNL A   1      41.365  33.674  35.790  1.00  0.00     0.041 A 
ATOM     68  F   UNL A   1      42.552  32.975  33.897  1.00  0.00    -0.206 F 
ATOM     69  C   UNL A   1      40.347  33.478  36.718  1.00  0.00     0.022 A 
BRANCH  66  70
ATOM     70  S   UNL A   1      38.138  32.103  37.720  1.00  0.00     0.124 S 
ATOM     71  O   UNL A   1      38.723  32.080  39.059  1.00  0.00    -0.237 OA
ATOM     72  O   UNL A   1      37.361  33.290  37.383  1.00  0.00    -0.237 OA
ATOM     73  O   UNL A   1      37.566  30.834  37.276  1.00  0.00    -0.744 OA
ENDBRANCH  66  70
ENDBRANCH  49  63
BRANCH  50  74
ATOM     74  C   UNL A   1      42.548  25.082  27.252  1.00  0.00     0.023 A 
ATOM     75  C   UNL A   1      42.117  23.745  27.267  1.00  0.00     0.031 A 
ATOM     76  C   UNL A   1      43.315  25.512  26.153  1.00  0.00     0.131 A 
ATOM     77  C   UNL A   1      42.494  22.876  26.231  1.00  0.00     0.055 A 
ATOM     78  C   UNL A   1      43.635  24.659  25.096  1.00  0.00     0.041 A 
ATOM     79  F   UNL A   1      43.762  26.776  26.090  1.00  0.00    -0.206 F 
ATOM     80  C   UNL A   1      43.235  23.328  25.138  1.00  0.00     0.022 A 
BRANCH  77  81
ATOM     81  S   UNL A   1      42.084  21.115  26.383  1.00  0.00     0.124 S 
ATOM     82  O   UNL A   1      40.649  21.122  26.119  1.00  0.00    -0.237 OA
ATOM     83  O   UNL A   1      42.923  20.518  25.349  1.00  0.00    -0.237 OA
ATOM     84  O   UNL A   1      42.465  20.794  27.757  1.00  0.00    -0.744 OA
ENDBRANCH  77  81
ENDBRANCH  50  74
BRANCH  62  85
ATOM     85  C   UNL A   1      45.958  26.544  33.174  1.00  0.00     0.023 A 
ATOM     86  C   UNL A   1      45.944  25.334  33.890  1.00  0.00     0.031 A 
ATOM     87  C   UNL A   1      47.187  27.218  33.045  1.00  0.00     0.131 A 
ATOM     88  C   UNL A   1      47.122  24.862  34.491  1.00  0.00     0.055 A 
ATOM     89  C   UNL A   1      48.369  26.710  33.587  1.00  0.00     0.041 A 
ATOM     90  F   UNL A   1      47.263  28.381  32.377  1.00  0.00    -0.206 F 
ATOM     91  C   UNL A   1      48.338  25.533  34.326  1.00  0.00     0.022 A 
BRANCH  88  92
ATOM     92  S   UNL A   1      47.030  23.410  35.575  1.00  0.00     0.124 S 
ATOM     93  O   UNL A   1      48.332  22.788  35.359  1.00  0.00    -0.237 OA
ATOM     94  O   UNL A   1      46.821  24.012  36.887  1.00  0.00    -0.237 OA
ATOM     95  O   UNL A   1      45.891  22.661  35.049  1.00  0.00    -0.744 OA
ENDBRANCH  88  92
ENDBRANCH  62  85
ENDBRANCH  36  37
ENDBRANCH  29  31
ENDBRANCH  28  29
ENDBRANCH  27  28
ENDBRANCH  26  27
ENDBRANCH  25  26
ENDBRANCH   1  25
TORSDOF 22
ENDMDL
MODEL 2
REMARK VINA RESULT:     -10.4      2.738      8.993
REMARK SMILES C[C@@H]1CN(c2ccc(N)cc2C(=O)OCCOCCOCCOC(=O)c2ccc(-c3c4nc(c(-c5cc(S(=O)(=O)[O-])ccc5F)c5ccc([nH]5)c(-c5cc(S(=O)(=O)[O-])ccc5F)c5nc(c(-c6cc(S(=O)(=O)[O-])ccc6F)c6ccc3[nH]6)C=C5)C=C4)cc2)C[C@H]1C
REMARK SMILES IDX 19 1 18 2 17 3 16 4 15 5 14 6 12 7 13 8 11 9 5 10 6 11 7 12
REMARK SMILES IDX 10 13 8 14 4 15 1 16 2 17 3 18 90 19 89 20 91 21 9 22 20 25
REMARK SMILES IDX 21 26 22 27 23 28 24 29 25 30 26 31 27 32 88 33 28 34 87 35
REMARK SMILES IDX 29 36 30 37 31 38 81 39 32 40 86 41 80 42 82 43 33 44 85 45
REMARK SMILES IDX 79 46 78 47 34 49 66 50 46 51 65 52 47 53 50 54 64 55 83 56
REMARK SMILES IDX 48 57 49 58 63 60 84 61 51 62 35 63 36 64 44 65 37 66 43 67
REMARK SMILES IDX 45 68 42 69 38 70 39 71 40 72 41 73 67 74 68 75 76 76 69 77
REMARK SMILES IDX 75 78 77 79 74 80 70 81 71 82 72 83 73 84 52 85 53 86 61 87
REMARK SMILES IDX 54 88 60 89 62 90 59 91 55 92 56 93 57 94 58 95
REMARK H PARENT 9 23 9 24 82 48 50 59
REMARK Flexibility Score: inf
ROOT
ATOM      1  C   UNL A   1      40.757  21.688  26.412  1.00  0.00     0.188 C 
ENDROOT
BRANCH   1   2
ATOM      2  C   UNL A   1      39.230  21.450  26.436  1.00  0.00     0.188 C 
BRANCH   2   3
ATOM      3  O   UNL A   1      38.489  21.583  25.231  1.00  0.00    -0.376 OA
BRANCH   3   4
ATOM      4  C   UNL A   1      37.480  22.582  25.148  1.00  0.00     0.202 C 
BRANCH   4   5
ATOM      5  C   UNL A   1      36.010  22.196  24.936  1.00  0.00     0.261 C 
BRANCH   5   6
ATOM      6  O   UNL A   1      35.589  21.075  25.726  1.00  0.00    -0.460 OA
BRANCH   6   7
ATOM      7  C   UNL A   1      34.255  20.952  25.938  1.00  0.00     0.340 C 
ATOM      8  O   UNL A   1      33.640  21.383  26.902  1.00  0.00    -0.246 OA
BRANCH   7   9
ATOM      9  C   UNL A   1      33.579  20.372  24.753  1.00  0.00     0.085 A 
ATOM     10  C   UNL A   1      32.843  21.098  23.793  1.00  0.00     0.051 A 
ATOM     11  C   UNL A   1      32.239  20.329  22.775  1.00  0.00     0.029 A 
ATOM     12  C   UNL A   1      32.315  18.930  22.730  1.00  0.00     0.027 A 
ATOM     13  C   UNL A   1      33.640  18.957  24.707  1.00  0.00     0.043 A 
ATOM     14  C   UNL A   1      33.015  18.229  23.699  1.00  0.00     0.032 A 
BRANCH  10  15
ATOM     15  N   UNL A   1      32.625  22.461  23.774  1.00  0.00    -0.370 N 
ATOM     16  C   UNL A   1      32.438  25.342  21.444  1.00  0.00     0.010 C 
ATOM     17  C   UNL A   1      32.500  24.614  22.779  1.00  0.00     0.010 C 
ATOM     18  C   UNL A   1      33.215  23.256  22.684  1.00  0.00     0.120 C 
ATOM     19  C   UNL A   1      31.131  24.216  23.344  1.00  0.00     0.010 C 
ATOM     20  C   UNL A   1      31.528  23.182  24.406  1.00  0.00     0.120 C 
ATOM     21  C   UNL A   1      30.319  25.361  23.919  1.00  0.00     0.010 C 
ENDBRANCH  10  15
BRANCH  14  22
ATOM     22  N   UNL A   1      32.976  16.849  23.738  1.00  0.00    -0.399 N 
ATOM     23  H   UNL A   1      33.203  16.327  22.934  1.00  0.00     0.156 HD
ATOM     24  H   UNL A   1      32.720  16.386  24.569  1.00  0.00     0.156 HD
ENDBRANCH  14  22
ENDBRANCH   7   9
ENDBRANCH   6   7
ENDBRANCH   5   6
ENDBRANCH   4   5
ENDBRANCH   3   4
ENDBRANCH   2   3
ENDBRANCH   1   2
BRANCH   1  25
ATOM     25  O   UNL A   1      41.543  20.693  25.798  1.00  0.00    -0.376 OA
BRANCH  25  26
ATOM     26  C   UNL A   1      42.957  20.759  25.857  1.00  0.00     0.202 C 
BRANCH  26  27
ATOM     27  C   UNL A   1      43.858  21.827  25.203  1.00  0.00     0.261 C 
BRANCH  27  28
ATOM     28  O   UNL A   1      43.285  23.075  24.813  1.00  0.00    -0.460 OA
BRANCH  28  29
ATOM     29  C   UNL A   1      44.072  24.165  24.978  1.00  0.00     0.338 C 
ATOM     30  O   UNL A   1      45.088  24.437  24.354  1.00  0.00    -0.246 OA
BRANCH  29  31
ATOM     31  C   UNL A   1      43.403  25.084  25.918  1.00  0.00     0.060 A 
ATOM     32  C   UNL A   1      43.656  26.460  25.823  1.00  0.00     0.016 A 
ATOM     33  C   UNL A   1      42.535  24.587  26.891  1.00  0.00     0.016 A 
ATOM     34  C   UNL A   1      43.050  27.345  26.716  1.00  0.00     0.010 A 
ATOM     35  C   UNL A   1      41.948  25.473  27.799  1.00  0.00     0.010 A 
ATOM     36  C   UNL A   1      42.222  26.851  27.733  1.00  0.00    -0.014 A 
BRANCH  36  37
ATOM     37  C   UNL A   1      41.785  27.742  28.837  1.00  0.00     0.031 A 
ATOM     38  C   UNL A   1      42.559  27.713  30.127  1.00  0.00     0.074 A 
ATOM     39  C   UNL A   1      40.725  28.560  28.702  1.00  0.00     0.049 A 
ATOM     40  N   UNL A   1      42.319  28.323  31.257  1.00  0.00    -0.248 NA
ATOM     41  C   UNL A   1      43.764  26.868  30.140  1.00  0.00     0.031 C 
ATOM     42  C   UNL A   1      39.929  28.716  27.487  1.00  0.00     0.029 A 
ATOM     43  N   UNL A   1      40.131  29.406  29.606  1.00  0.00    -0.354 N 
ATOM     44  C   UNL A   1      43.336  27.930  32.121  1.00  0.00     0.074 A 
ATOM     45  C   UNL A   1      44.171  26.999  31.393  1.00  0.00     0.031 C 
ATOM     46  C   UNL A   1      38.937  29.593  27.727  1.00  0.00     0.029 A 
ATOM     47  C   UNL A   1      39.002  30.026  29.122  1.00  0.00     0.049 A 
ATOM     48  H   UNL A   1      40.479  29.554  30.514  1.00  0.00     0.167 HD
ATOM     49  C   UNL A   1      43.555  28.315  33.403  1.00  0.00     0.034 A 
ATOM     50  C   UNL A   1      38.107  30.821  29.744  1.00  0.00     0.034 A 
ATOM     51  C   UNL A   1      42.702  29.231  34.120  1.00  0.00     0.049 A 
ATOM     52  C   UNL A   1      38.313  31.159  31.205  1.00  0.00     0.074 A 
ATOM     53  C   UNL A   1      42.838  29.700  35.415  1.00  0.00     0.029 A 
ATOM     54  N   UNL A   1      41.543  29.805  33.611  1.00  0.00    -0.354 N 
ATOM     55  N   UNL A   1      39.280  30.787  32.012  1.00  0.00    -0.248 NA
ATOM     56  C   UNL A   1      37.310  32.028  31.835  1.00  0.00     0.031 C 
ATOM     57  C   UNL A   1      41.719  30.484  35.718  1.00  0.00     0.029 A 
ATOM     58  C   UNL A   1      40.935  30.590  34.580  1.00  0.00     0.049 A 
ATOM     59  H   UNL A   1      41.202  29.673  32.698  1.00  0.00     0.167 HD
ATOM     60  C   UNL A   1      39.022  31.413  33.231  1.00  0.00     0.074 A 
ATOM     61  C   UNL A   1      37.813  32.188  33.050  1.00  0.00     0.031 C 
ATOM     62  C   UNL A   1      39.726  31.359  34.391  1.00  0.00     0.034 A 
BRANCH  49  63
ATOM     63  C   UNL A   1      44.730  27.698  34.122  1.00  0.00     0.023 A 
ATOM     64  C   UNL A   1      44.578  26.603  34.991  1.00  0.00     0.031 A 
ATOM     65  C   UNL A   1      46.022  28.233  33.961  1.00  0.00     0.131 A 
ATOM     66  C   UNL A   1      45.679  26.129  35.721  1.00  0.00     0.055 A 
ATOM     67  C   UNL A   1      47.129  27.699  34.623  1.00  0.00     0.041 A 
ATOM     68  F   UNL A   1      46.227  29.295  33.166  1.00  0.00    -0.206 F 
ATOM     69  C   UNL A   1      46.958  26.651  35.521  1.00  0.00     0.022 A 
BRANCH  66  70
ATOM     70  S   UNL A   1      45.387  24.927  37.047  1.00  0.00     0.124 S 
ATOM     71  O   UNL A   1      45.371  25.788  38.228  1.00  0.00    -0.237 OA
ATOM     72  O   UNL A   1      44.107  24.342  36.666  1.00  0.00    -0.237 OA
ATOM     73  O   UNL A   1      46.536  24.030  36.956  1.00  0.00    -0.744 OA
ENDBRANCH  66  70
ENDBRANCH  49  63
BRANCH  50  74
ATOM     74  C   UNL A   1      36.906  31.325  29.015  1.00  0.00     0.023 A 
ATOM     75  C   UNL A   1      35.891  30.452  28.593  1.00  0.00     0.031 A 
ATOM     76  C   UNL A   1      36.786  32.685  28.674  1.00  0.00     0.131 A 
ATOM     77  C   UNL A   1      34.827  30.938  27.815  1.00  0.00     0.055 A 
ATOM     78  C   UNL A   1      35.696  33.174  27.953  1.00  0.00     0.041 A 
ATOM     79  F   UNL A   1      37.732  33.564  29.043  1.00  0.00    -0.206 F 
ATOM     80  C   UNL A   1      34.714  32.295  27.507  1.00  0.00     0.022 A 
BRANCH  77  81
ATOM     81  S   UNL A   1      33.642  29.750  27.126  1.00  0.00     0.124 S 
ATOM     82  O   UNL A   1      33.898  28.569  27.943  1.00  0.00    -0.237 OA
ATOM     83  O   UNL A   1      32.369  30.424  27.355  1.00  0.00    -0.237 OA
ATOM     84  O   UNL A   1      34.044  29.640  25.725  1.00  0.00    -0.744 OA
ENDBRANCH  77  81
ENDBRANCH  50  74
BRANCH  62  85
ATOM     85  C   UNL A   1      39.245  32.217  35.540  1.00  0.00     0.023 A 
ATOM     86  C   UNL A   1      39.680  33.542  35.719  1.00  0.00     0.031 A 
ATOM     87  C   UNL A   1      38.325  31.695  36.468  1.00  0.00     0.131 A 
ATOM     88  C   UNL A   1      39.234  34.281  36.828  1.00  0.00     0.055 A 
ATOM     89  C   UNL A   1      37.833  32.456  37.529  1.00  0.00     0.041 A 
ATOM     90  F   UNL A   1      37.877  30.434  36.351  1.00  0.00    -0.206 F 
ATOM     91  C   UNL A   1      38.298  33.752  37.721  1.00  0.00     0.022 A 
BRANCH  88  92
ATOM     92  S   UNL A   1      39.967  35.910  37.144  1.00  0.00     0.124 S 
ATOM     93  O   UNL A   1      41.370  35.574  37.365  1.00  0.00    -0.237 OA
ATOM     94  O   UNL A   1      39.670  36.631  35.912  1.00  0.00    -0.237 OA
ATOM     95  O   UNL A   1      39.250  36.384  38.327  1.00  0.00    -0.744 OA
ENDBRANCH  88  92
ENDBRANCH  62  85
ENDBRANCH  36  37
ENDBRANCH  29  31
ENDBRANCH  28  29
ENDBRANCH  27  28
ENDBRANCH  26  27
ENDBRANCH  25  26
ENDBRANCH   1  25
TORSDOF 22
ENDMDL
MODEL 3
REMARK VINA RESULT:     -10.3      2.807      8.982
REMARK SMILES C[C@@H]1CN(c2ccc(N)cc2C(=O)OCCOCCOCCOC(=O)c2ccc(-c3c4nc(c(-c5cc(S(=O)(=O)[O-])ccc5F)c5ccc([nH]5)c(-c5cc(S(=O)(=O)[O-])ccc5F)c5nc(c(-c6cc(S(=O)(=O)[O-])ccc6F)c6ccc3[nH]6)C=C5)C=C4)cc2)C[C@H]1C
REMARK SMILES IDX 19 1 18 2 17 3 16 4 15 5 14 6 12 7 13 8 11 9 5 10 6 11 7 12
REMARK SMILES IDX 10 13 8 14 4 15 1 16 2 17 3 18 90 19 89 20 91 21 9 22 20 25
REMARK SMILES IDX 21 26 22 27 23 28 24 29 25 30 26 31 27 32 88 33 28 34 87 35
REMARK SMILES IDX 29 36 30 37 31 38 81 39 32 40 86 41 80 42 82 43 33 44 85 45
REMARK SMILES IDX 79 46 78 47 34 49 66 50 46 51 65 52 47 53 50 54 64 55 83 56
REMARK SMILES IDX 48 57 49 58 63 60 84 61 51 62 35 63 36 64 44 65 37 66 43 67
REMARK SMILES IDX 45 68 42 69 38 70 39 71 40 72 41 73 67 74 68 75 76 76 69 77
REMARK SMILES IDX 75 78 77 79 74 80 70 81 71 82 72 83 73 84 52 85 53 86 61 87
REMARK SMILES IDX 54 88 60 89 62 90 59 91 55 92 56 93 57 94 58 95
REMARK H PARENT 9 23 9 24 82 48 50 59
REMARK Flexibility Score: inf
ROOT
ATOM      1  C   UNL A   1      40.944  21.694  26.428  1.00  0.00     0.188 C 
ENDROOT
BRANCH   1   2
ATOM      2  C   UNL A   1      39.432  21.383  26.504  1.00  0.00     0.188 C 
BRANCH   2   3
ATOM      3  O   UNL A   1      38.590  21.774  25.428  1.00  0.00    -0.376 OA
BRANCH   3   4
ATOM      4  C   UNL A   1      37.673  22.843  25.621  1.00  0.00     0.202 C 
BRANCH   4   5
ATOM      5  C   UNL A   1      36.163  22.618  25.469  1.00  0.00     0.261 C 
BRANCH   5   6
ATOM      6  O   UNL A   1      35.733  21.305  25.855  1.00  0.00    -0.460 OA
BRANCH   6   7
ATOM      7  C   UNL A   1      34.416  21.161  26.143  1.00  0.00     0.340 C 
ATOM      8  O   UNL A   1      33.879  21.441  27.204  1.00  0.00    -0.246 OA
BRANCH   7   9
ATOM      9  C   UNL A   1      33.646  20.776  24.935  1.00  0.00     0.085 A 
ATOM     10  C   UNL A   1      32.990  21.670  24.063  1.00  0.00     0.051 A 
ATOM     11  C   UNL A   1      32.272  21.075  23.004  1.00  0.00     0.029 A 
ATOM     12  C   UNL A   1      32.166  19.687  22.839  1.00  0.00     0.027 A 
ATOM     13  C   UNL A   1      33.524  19.374  24.768  1.00  0.00     0.043 A 
ATOM     14  C   UNL A   1      32.790  18.821  23.724  1.00  0.00     0.032 A 
BRANCH  10  15
ATOM     15  N   UNL A   1      32.948  23.046  24.165  1.00  0.00    -0.370 N 
ATOM     16  C   UNL A   1      31.358  26.027  22.633  1.00  0.00     0.010 C 
ATOM     17  C   UNL A   1      32.319  25.242  23.512  1.00  0.00     0.010 C 
ATOM     18  C   UNL A   1      32.611  23.834  22.967  1.00  0.00     0.120 C 
ATOM     19  C   UNL A   1      31.783  24.936  24.917  1.00  0.00     0.010 C 
ATOM     20  C   UNL A   1      32.742  23.830  25.376  1.00  0.00     0.120 C 
ATOM     21  C   UNL A   1      31.762  26.121  25.864  1.00  0.00     0.010 C 
ENDBRANCH  10  15
BRANCH  14  22
ATOM     22  N   UNL A   1      32.575  17.459  23.647  1.00  0.00    -0.399 N 
ATOM     23  H   UNL A   1      31.884  17.102  23.044  1.00  0.00     0.156 HD
ATOM     24  H   UNL A   1      33.113  16.844  24.198  1.00  0.00     0.156 HD
ENDBRANCH  14  22
ENDBRANCH   7   9
ENDBRANCH   6   7
ENDBRANCH   5   6
ENDBRANCH   4   5
ENDBRANCH   3   4
ENDBRANCH   2   3
ENDBRANCH   1   2
BRANCH   1  25
ATOM     25  O   UNL A   1      41.751  20.757  25.753  1.00  0.00    -0.376 OA
BRANCH  25  26
ATOM     26  C   UNL A   1      43.162  20.884  25.766  1.00  0.00     0.202 C 
BRANCH  26  27
ATOM     27  C   UNL A   1      43.995  21.973  25.060  1.00  0.00     0.261 C 
BRANCH  27  28
ATOM     28  O   UNL A   1      43.383  23.226  24.754  1.00  0.00    -0.460 OA
BRANCH  28  29
ATOM     29  C   UNL A   1      44.145  24.326  24.967  1.00  0.00     0.338 C 
ATOM     30  O   UNL A   1      45.171  24.632  24.375  1.00  0.00    -0.246 OA
BRANCH  29  31
ATOM     31  C   UNL A   1      43.437  25.207  25.914  1.00  0.00     0.060 A 
ATOM     32  C   UNL A   1      43.794  26.561  25.983  1.00  0.00     0.016 A 
ATOM     33  C   UNL A   1      42.428  24.695  26.731  1.00  0.00     0.016 A 
ATOM     34  C   UNL A   1      43.150  27.407  26.888  1.00  0.00     0.010 A 
ATOM     35  C   UNL A   1      41.802  25.539  27.652  1.00  0.00     0.010 A 
ATOM     36  C   UNL A   1      42.176  26.892  27.754  1.00  0.00    -0.014 A 
BRANCH  36  37
ATOM     37  C   UNL A   1      41.677  27.711  28.886  1.00  0.00     0.031 A 
ATOM     38  C   UNL A   1      42.399  27.627  30.202  1.00  0.00     0.074 A 
ATOM     39  C   UNL A   1      40.605  28.514  28.752  1.00  0.00     0.049 A 
ATOM     40  N   UNL A   1      42.101  28.169  31.353  1.00  0.00    -0.248 NA
ATOM     41  C   UNL A   1      43.621  26.807  30.219  1.00  0.00     0.031 C 
ATOM     42  C   UNL A   1      39.854  28.720  27.516  1.00  0.00     0.029 A 
ATOM     43  N   UNL A   1      39.956  29.297  29.675  1.00  0.00    -0.354 N 
ATOM     44  C   UNL A   1      43.091  27.749  32.236  1.00  0.00     0.074 A 
ATOM     45  C   UNL A   1      43.975  26.877  31.492  1.00  0.00     0.031 C 
ATOM     46  C   UNL A   1      38.834  29.563  27.762  1.00  0.00     0.029 A 
ATOM     47  C   UNL A   1      38.834  29.920  29.180  1.00  0.00     0.049 A 
ATOM     48  H   UNL A   1      40.265  29.401  30.604  1.00  0.00     0.167 HD
ATOM     49  C   UNL A   1      43.251  28.068  33.544  1.00  0.00     0.034 A 
ATOM     50  C   UNL A   1      37.897  30.661  29.808  1.00  0.00     0.034 A 
ATOM     51  C   UNL A   1      42.349  28.925  34.275  1.00  0.00     0.049 A 
ATOM     52  C   UNL A   1      38.038  30.922  31.291  1.00  0.00     0.074 A 
ATOM     53  C   UNL A   1      42.423  29.325  35.597  1.00  0.00     0.029 A 
ATOM     54  N   UNL A   1      41.199  29.503  33.751  1.00  0.00    -0.354 N 
ATOM     55  N   UNL A   1      38.980  30.526  32.117  1.00  0.00    -0.248 NA
ATOM     56  C   UNL A   1      36.991  31.735  31.926  1.00  0.00     0.031 C 
ATOM     57  C   UNL A   1      41.277  30.068  35.896  1.00  0.00     0.029 A 
ATOM     58  C   UNL A   1      40.536  30.221  34.735  1.00  0.00     0.049 A 
ATOM     59  H   UNL A   1      40.897  29.414  32.818  1.00  0.00     0.167 HD
ATOM     60  C   UNL A   1      38.660  31.078  33.356  1.00  0.00     0.074 A 
ATOM     61  C   UNL A   1      37.442  31.837  33.168  1.00  0.00     0.031 C 
ATOM     62  C   UNL A   1      39.318  30.974  34.539  1.00  0.00     0.034 A 
BRANCH  49  63
ATOM     63  C   UNL A   1      44.410  27.435  34.277  1.00  0.00     0.023 A 
ATOM     64  C   UNL A   1      45.674  28.048  34.338  1.00  0.00     0.031 A 
ATOM     65  C   UNL A   1      44.257  26.182  34.898  1.00  0.00     0.131 A 
ATOM     66  C   UNL A   1      46.750  27.375  34.937  1.00  0.00     0.055 A 
ATOM     67  C   UNL A   1      45.310  25.559  35.570  1.00  0.00     0.041 A 
ATOM     68  F   UNL A   1      43.081  25.535  34.851  1.00  0.00    -0.206 F 
ATOM     69  C   UNL A   1      46.570  26.148  35.578  1.00  0.00     0.022 A 
BRANCH  66  70
ATOM     70  S   UNL A   1      48.419  28.054  34.731  1.00  0.00     0.124 S 
ATOM     71  O   UNL A   1      49.240  26.847  34.798  1.00  0.00    -0.237 OA
ATOM     72  O   UNL A   1      48.338  28.699  33.426  1.00  0.00    -0.237 OA
ATOM     73  O   UNL A   1      48.564  28.960  35.868  1.00  0.00    -0.744 OA
ENDBRANCH  66  70
ENDBRANCH  49  63
BRANCH  50  74
ATOM     74  C   UNL A   1      36.716  31.180  29.058  1.00  0.00     0.023 A 
ATOM     75  C   UNL A   1      35.706  30.317  28.602  1.00  0.00     0.031 A 
ATOM     76  C   UNL A   1      36.609  32.545  28.732  1.00  0.00     0.131 A 
ATOM     77  C   UNL A   1      34.662  30.819  27.807  1.00  0.00     0.055 A 
ATOM     78  C   UNL A   1      35.537  33.048  27.994  1.00  0.00     0.041 A 
ATOM     79  F   UNL A   1      37.550  33.415  29.134  1.00  0.00    -0.206 F 
ATOM     80  C   UNL A   1      34.562  32.180  27.514  1.00  0.00     0.022 A 
BRANCH  77  81
ATOM     81  S   UNL A   1      33.488  29.645  27.076  1.00  0.00     0.124 S 
ATOM     82  O   UNL A   1      32.211  30.295  27.349  1.00  0.00    -0.237 OA
ATOM     83  O   UNL A   1      33.911  29.624  25.679  1.00  0.00    -0.237 OA
ATOM     84  O   UNL A   1      33.733  28.410  27.818  1.00  0.00    -0.744 OA
ENDBRANCH  77  81
ENDBRANCH  50  74
BRANCH  62  85
ATOM     85  C   UNL A   1      38.773  31.758  35.712  1.00  0.00     0.023 A 
ATOM     86  C   UNL A   1      38.122  31.137  36.792  1.00  0.00     0.031 A 
ATOM     87  C   UNL A   1      38.921  33.157  35.749  1.00  0.00     0.131 A 
ATOM     88  C   UNL A   1      37.597  31.918  37.835  1.00  0.00     0.055 A 
ATOM     89  C   UNL A   1      38.457  33.922  36.821  1.00  0.00     0.041 A 
ATOM     90  F   UNL A   1      39.530  33.808  34.743  1.00  0.00    -0.206 F 
ATOM     91  C   UNL A   1      37.780  33.303  37.866  1.00  0.00     0.022 A 
BRANCH  88  92
ATOM     92  S   UNL A   1      36.588  31.111  39.109  1.00  0.00     0.124 S 
ATOM     93  O   UNL A   1      36.313  29.813  38.500  1.00  0.00    -0.237 OA
ATOM     94  O   UNL A   1      37.485  31.099  40.258  1.00  0.00    -0.237 OA
ATOM     95  O   UNL A   1      35.428  31.992  39.237  1.00  0.00    -0.744 OA
ENDBRANCH  88  92
ENDBRANCH  62  85
ENDBRANCH  36  37
ENDBRANCH  29  31
ENDBRANCH  28  29
ENDBRANCH  27  28
ENDBRANCH  26  27
ENDBRANCH  25  26
ENDBRANCH   1  25
TORSDOF 22
ENDMDL
