MODEL 1
REMARK VINA RESULT:      -8.5      0.000      0.000
REMARK SMILES CC(C)Cc1ccc([C@H](C)C(=O)OCCOCCOCCOC(=O)c2ccc(-c3c4nc(c(-c5cc(S(=O)(=O)[O-])ccc5F)c5ccc([nH]5)c(-c5cc(S(=O)(=O)[O-])ccc5F)c5nc(c(-c6cc(S(=O)(=O)[O-])ccc6F)c6ccc3[nH]6)C=C5)C=C4)cc2)cc1
REMARK SMILES IDX 17 1 16 2 15 3 14 4 13 5 11 6 12 7 9 8 10 9 8 10 5 11 6 12
REMARK SMILES IDX 89 13 7 14 88 15 4 16 2 17 1 18 3 19 18 20 19 21 20 22 21 23
REMARK SMILES IDX 22 24 23 25 24 26 25 27 26 28 87 29 27 30 86 31 28 32 29 33
REMARK SMILES IDX 30 34 80 35 31 36 85 37 79 38 81 39 32 40 84 41 78 42 77 43
REMARK SMILES IDX 33 45 65 46 45 47 64 48 46 49 49 50 63 51 82 52 47 53 48 54
REMARK SMILES IDX 62 56 83 57 50 58 34 59 35 60 43 61 36 62 42 63 44 64 41 65
REMARK SMILES IDX 37 66 38 67 39 68 40 69 66 70 67 71 75 72 68 73 74 74 76 75
REMARK SMILES IDX 73 76 69 77 70 78 71 79 72 80 51 81 52 82 60 83 53 84 59 85
REMARK SMILES IDX 61 86 58 87 54 88 55 89 56 90 57 91
REMARK H PARENT 81 44 49 55
REMARK Flexibility Score: inf
ROOT
ATOM      1  C   UNL A   1      33.144  31.274  26.788  1.00  0.00     0.188 C 
ENDROOT
BRANCH   1   2
ATOM      2  O   UNL A   1      31.957  30.515  26.994  1.00  0.00    -0.376 OA
BRANCH   2   3
ATOM      3  C   UNL A   1      32.003  29.131  26.652  1.00  0.00     0.202 C 
BRANCH   3   4
ATOM      4  C   UNL A   1      32.583  28.764  25.276  1.00  0.00     0.261 C 
BRANCH   4   5
ATOM      5  O   UNL A   1      32.126  27.505  24.746  1.00  0.00    -0.463 OA
BRANCH   5   6
ATOM      6  C   UNL A   1      32.658  26.395  25.331  1.00  0.00     0.313 C 
ATOM      7  O   UNL A   1      33.865  26.174  25.402  1.00  0.00    -0.252 OA
BRANCH   6   8
ATOM      8  C   UNL A   1      31.609  25.448  25.943  1.00  0.00     0.126 C 
ATOM      9  C   UNL A   1      30.194  26.011  26.095  1.00  0.00     0.025 C 
BRANCH   8  10
ATOM     10  C   UNL A   1      31.659  24.140  25.176  1.00  0.00    -0.034 A 
ATOM     11  C   UNL A   1      32.242  21.630  24.085  1.00  0.00    -0.048 A 
ATOM     12  C   UNL A   1      32.554  22.797  23.377  1.00  0.00     0.004 A 
ATOM     13  C   UNL A   1      31.527  21.721  25.282  1.00  0.00     0.004 A 
ATOM     14  C   UNL A   1      32.278  24.045  23.923  1.00  0.00     0.005 A 
ATOM     15  C   UNL A   1      31.234  22.969  25.821  1.00  0.00     0.005 A 
BRANCH  11  16
ATOM     16  C   UNL A   1      32.829  20.311  23.652  1.00  0.00     0.038 C 
BRANCH  16  17
ATOM     17  C   UNL A   1      33.616  19.648  24.806  1.00  0.00    -0.013 C 
ATOM     18  C   UNL A   1      33.730  18.127  24.641  1.00  0.00     0.008 C 
ATOM     19  C   UNL A   1      35.006  20.266  24.918  1.00  0.00     0.008 C 
ENDBRANCH  16  17
ENDBRANCH  11  16
ENDBRANCH   8  10
ENDBRANCH   6   8
ENDBRANCH   5   6
ENDBRANCH   4   5
ENDBRANCH   3   4
ENDBRANCH   2   3
ENDBRANCH   1   2
BRANCH   1  20
ATOM     20  C   UNL A   1      34.287  31.046  27.775  1.00  0.00     0.188 C 
BRANCH  20  21
ATOM     21  O   UNL A   1      34.375  31.988  28.839  1.00  0.00    -0.376 OA
BRANCH  21  22
ATOM     22  C   UNL A   1      34.125  33.354  28.491  1.00  0.00     0.202 C 
BRANCH  22  23
ATOM     23  C   UNL A   1      33.806  34.303  29.665  1.00  0.00     0.261 C 
BRANCH  23  24
ATOM     24  O   UNL A   1      34.120  33.769  30.970  1.00  0.00    -0.460 OA
BRANCH  24  25
ATOM     25  C   UNL A   1      35.213  34.276  31.588  1.00  0.00     0.338 C 
ATOM     26  O   UNL A   1      35.216  35.190  32.398  1.00  0.00    -0.246 OA
BRANCH  25  27
ATOM     27  C   UNL A   1      36.374  33.381  31.338  1.00  0.00     0.060 A 
ATOM     28  C   UNL A   1      36.282  32.055  31.787  1.00  0.00     0.016 A 
ATOM     29  C   UNL A   1      37.513  33.797  30.640  1.00  0.00     0.016 A 
ATOM     30  C   UNL A   1      37.356  31.178  31.622  1.00  0.00     0.010 A 
ATOM     31  C   UNL A   1      38.594  32.918  30.480  1.00  0.00     0.010 A 
ATOM     32  C   UNL A   1      38.542  31.621  31.023  1.00  0.00    -0.014 A 
BRANCH  32  33
ATOM     33  C   UNL A   1      39.786  30.829  31.235  1.00  0.00     0.031 A 
ATOM     34  C   UNL A   1      40.598  31.125  32.476  1.00  0.00     0.074 A 
ATOM     35  C   UNL A   1      40.155  29.824  30.418  1.00  0.00     0.049 A 
ATOM     36  N   UNL A   1      41.679  30.542  32.924  1.00  0.00    -0.248 NA
ATOM     37  C   UNL A   1      40.118  32.229  33.324  1.00  0.00     0.031 C 
ATOM     38  C   UNL A   1      39.446  29.409  29.208  1.00  0.00     0.029 A 
ATOM     39  N   UNL A   1      41.224  28.963  30.489  1.00  0.00    -0.354 N 
ATOM     40  C   UNL A   1      42.010  31.210  34.100  1.00  0.00     0.074 A 
ATOM     41  C   UNL A   1      41.037  32.264  34.276  1.00  0.00     0.031 C 
ATOM     42  C   UNL A   1      40.100  28.373  28.652  1.00  0.00     0.029 A 
ATOM     43  C   UNL A   1      41.288  28.063  29.449  1.00  0.00     0.049 A 
ATOM     44  H   UNL A   1      41.884  28.987  31.219  1.00  0.00     0.167 HD
ATOM     45  C   UNL A   1      43.024  30.963  34.963  1.00  0.00     0.034 A 
ATOM     46  C   UNL A   1      42.204  27.110  29.170  1.00  0.00     0.034 A 
ATOM     47  C   UNL A   1      43.988  29.908  34.794  1.00  0.00     0.049 A 
ATOM     48  C   UNL A   1      43.364  26.897  30.123  1.00  0.00     0.074 A 
ATOM     49  C   UNL A   1      45.029  29.553  35.635  1.00  0.00     0.029 A 
ATOM     50  N   UNL A   1      44.044  29.046  33.708  1.00  0.00    -0.354 N 
ATOM     51  N   UNL A   1      43.629  27.505  31.258  1.00  0.00    -0.248 NA
ATOM     52  C   UNL A   1      44.337  25.856  29.764  1.00  0.00     0.031 C 
ATOM     53  C   UNL A   1      45.759  28.531  35.021  1.00  0.00     0.029 A 
ATOM     54  C   UNL A   1      45.124  28.189  33.838  1.00  0.00     0.049 A 
ATOM     55  H   UNL A   1      43.409  29.044  32.955  1.00  0.00     0.167 HD
ATOM     56  C   UNL A   1      44.774  26.886  31.761  1.00  0.00     0.074 A 
ATOM     57  C   UNL A   1      45.131  25.846  30.823  1.00  0.00     0.031 C 
ATOM     58  C   UNL A   1      45.471  27.151  32.897  1.00  0.00     0.034 A 
BRANCH  45  59
ATOM     59  C   UNL A   1      43.174  31.887  36.144  1.00  0.00     0.023 A 
ATOM     60  C   UNL A   1      42.306  31.836  37.249  1.00  0.00     0.031 A 
ATOM     61  C   UNL A   1      44.212  32.836  36.162  1.00  0.00     0.131 A 
ATOM     62  C   UNL A   1      42.464  32.748  38.302  1.00  0.00     0.055 A 
ATOM     63  C   UNL A   1      44.406  33.693  37.245  1.00  0.00     0.041 A 
ATOM     64  F   UNL A   1      45.052  32.947  35.121  1.00  0.00    -0.206 F 
ATOM     65  C   UNL A   1      43.525  33.658  38.321  1.00  0.00     0.022 A 
BRANCH  62  66
ATOM     66  S   UNL A   1      41.204  32.802  39.605  1.00  0.00     0.124 S 
ATOM     67  O   UNL A   1      39.990  32.487  38.855  1.00  0.00    -0.237 OA
ATOM     68  O   UNL A   1      41.665  31.778  40.535  1.00  0.00    -0.237 OA
ATOM     69  O   UNL A   1      41.282  34.174  40.101  1.00  0.00    -0.744 OA
ENDBRANCH  62  66
ENDBRANCH  45  59
BRANCH  46  70
ATOM     70  C   UNL A   1      42.120  26.295  27.916  1.00  0.00     0.023 A 
ATOM     71  C   UNL A   1      41.712  24.951  27.943  1.00  0.00     0.031 A 
ATOM     72  C   UNL A   1      42.580  26.814  26.692  1.00  0.00     0.131 A 
ATOM     73  C   UNL A   1      41.847  24.152  26.795  1.00  0.00     0.055 A 
ATOM     74  C   UNL A   1      42.649  26.034  25.536  1.00  0.00     0.041 A 
ATOM     75  F   UNL A   1      42.993  28.089  26.607  1.00  0.00    -0.206 F 
ATOM     76  C   UNL A   1      42.302  24.688  25.589  1.00  0.00     0.022 A 
BRANCH  73  77
ATOM     77  S   UNL A   1      41.563  22.364  26.940  1.00  0.00     0.124 S 
ATOM     78  O   UNL A   1      42.742  21.936  27.685  1.00  0.00    -0.237 OA
ATOM     79  O   UNL A   1      40.296  22.317  27.661  1.00  0.00    -0.237 OA
ATOM     80  O   UNL A   1      41.505  21.915  25.550  1.00  0.00    -0.744 OA
ENDBRANCH  73  77
ENDBRANCH  46  70
BRANCH  58  81
ATOM     81  C   UNL A   1      46.653  26.261  33.210  1.00  0.00     0.023 A 
ATOM     82  C   UNL A   1      46.507  25.049  33.909  1.00  0.00     0.031 A 
ATOM     83  C   UNL A   1      47.951  26.646  32.826  1.00  0.00     0.131 A 
ATOM     84  C   UNL A   1      47.641  24.306  34.268  1.00  0.00     0.055 A 
ATOM     85  C   UNL A   1      49.069  25.866  33.123  1.00  0.00     0.041 A 
ATOM     86  F   UNL A   1      48.154  27.791  32.155  1.00  0.00    -0.206 F 
ATOM     87  C   UNL A   1      48.921  24.698  33.866  1.00  0.00     0.022 A 
BRANCH  84  88
ATOM     88  S   UNL A   1      47.436  22.883  35.376  1.00  0.00     0.124 S 
ATOM     89  O   UNL A   1      47.061  23.526  36.630  1.00  0.00    -0.237 OA
ATOM     90  O   UNL A   1      46.385  22.121  34.710  1.00  0.00    -0.237 OA
ATOM     91  O   UNL A   1      48.755  22.252  35.371  1.00  0.00    -0.744 OA
ENDBRANCH  84  88
ENDBRANCH  58  81
ENDBRANCH  32  33
ENDBRANCH  25  27
ENDBRANCH  24  25
ENDBRANCH  23  24
ENDBRANCH  22  23
ENDBRANCH  21  22
ENDBRANCH  20  21
ENDBRANCH   1  20
TORSDOF 23
ENDMDL
MODEL 2
REMARK VINA RESULT:      -8.5      3.911      6.390
REMARK SMILES CC(C)Cc1ccc([C@H](C)C(=O)OCCOCCOCCOC(=O)c2ccc(-c3c4nc(c(-c5cc(S(=O)(=O)[O-])ccc5F)c5ccc([nH]5)c(-c5cc(S(=O)(=O)[O-])ccc5F)c5nc(c(-c6cc(S(=O)(=O)[O-])ccc6F)c6ccc3[nH]6)C=C5)C=C4)cc2)cc1
REMARK SMILES IDX 17 1 16 2 15 3 14 4 13 5 11 6 12 7 9 8 10 9 8 10 5 11 6 12
REMARK SMILES IDX 89 13 7 14 88 15 4 16 2 17 1 18 3 19 18 20 19 21 20 22 21 23
REMARK SMILES IDX 22 24 23 25 24 26 25 27 26 28 87 29 27 30 86 31 28 32 29 33
REMARK SMILES IDX 30 34 80 35 31 36 85 37 79 38 81 39 32 40 84 41 78 42 77 43
REMARK SMILES IDX 33 45 65 46 45 47 64 48 46 49 49 50 63 51 82 52 47 53 48 54
REMARK SMILES IDX 62 56 83 57 50 58 34 59 35 60 43 61 36 62 42 63 44 64 41 65
REMARK SMILES IDX 37 66 38 67 39 68 40 69 66 70 67 71 75 72 68 73 74 74 76 75
REMARK SMILES IDX 73 76 69 77 70 78 71 79 72 80 51 81 52 82 60 83 53 84 59 85
REMARK SMILES IDX 61 86 58 87 54 88 55 89 56 90 57 91
REMARK H PARENT 81 44 49 55
REMARK Flexibility Score: inf
ROOT
ATOM      1  C   UNL A   1      34.090  31.920  27.923  1.00  0.00     0.188 C 
ENDROOT
BRANCH   1   2
ATOM      2  O   UNL A   1      33.485  30.661  27.649  1.00  0.00    -0.376 OA
BRANCH   2   3
ATOM      3  C   UNL A   1      33.023  30.437  26.319  1.00  0.00     0.202 C 
BRANCH   3   4
ATOM      4  C   UNL A   1      31.654  29.758  26.153  1.00  0.00     0.261 C 
BRANCH   4   5
ATOM      5  O   UNL A   1      31.709  28.394  25.693  1.00  0.00    -0.463 OA
BRANCH   5   6
ATOM      6  C   UNL A   1      31.447  27.446  26.637  1.00  0.00     0.313 C 
ATOM      7  O   UNL A   1      31.391  27.682  27.842  1.00  0.00    -0.252 OA
BRANCH   6   8
ATOM      8  C   UNL A   1      31.182  26.045  26.057  1.00  0.00     0.126 C 
ATOM      9  C   UNL A   1      30.327  25.986  24.789  1.00  0.00     0.025 C 
BRANCH   8  10
ATOM     10  C   UNL A   1      32.517  25.337  25.919  1.00  0.00    -0.034 A 
ATOM     11  C   UNL A   1      34.722  23.775  25.191  1.00  0.00    -0.048 A 
ATOM     12  C   UNL A   1      33.899  23.383  26.254  1.00  0.00     0.004 A 
ATOM     13  C   UNL A   1      34.510  25.013  24.576  1.00  0.00     0.004 A 
ATOM     14  C   UNL A   1      32.795  24.151  26.608  1.00  0.00     0.005 A 
ATOM     15  C   UNL A   1      33.416  25.790  24.942  1.00  0.00     0.005 A 
BRANCH  11  16
ATOM     16  C   UNL A   1      35.705  22.796  24.604  1.00  0.00     0.038 C 
BRANCH  16  17
ATOM     17  C   UNL A   1      36.825  22.460  25.616  1.00  0.00    -0.013 C 
ATOM     18  C   UNL A   1      37.724  21.312  25.137  1.00  0.00     0.008 C 
ATOM     19  C   UNL A   1      37.668  23.700  25.899  1.00  0.00     0.008 C 
ENDBRANCH  16  17
ENDBRANCH  11  16
ENDBRANCH   8  10
ENDBRANCH   6   8
ENDBRANCH   5   6
ENDBRANCH   4   5
ENDBRANCH   3   4
ENDBRANCH   2   3
ENDBRANCH   1   2
BRANCH   1  20
ATOM     20  C   UNL A   1      34.914  32.024  29.205  1.00  0.00     0.188 C 
BRANCH  20  21
ATOM     21  O   UNL A   1      34.357  32.844  30.227  1.00  0.00    -0.376 OA
BRANCH  21  22
ATOM     22  C   UNL A   1      34.040  34.189  29.850  1.00  0.00     0.202 C 
BRANCH  22  23
ATOM     23  C   UNL A   1      33.795  35.175  31.010  1.00  0.00     0.261 C 
BRANCH  23  24
ATOM     24  O   UNL A   1      34.088  34.644  32.322  1.00  0.00    -0.460 OA
BRANCH  24  25
ATOM     25  C   UNL A   1      34.815  35.432  33.148  1.00  0.00     0.338 C 
ATOM     26  O   UNL A   1      34.450  36.494  33.627  1.00  0.00    -0.246 OA
BRANCH  25  27
ATOM     27  C   UNL A   1      36.019  34.684  33.601  1.00  0.00     0.060 A 
ATOM     28  C   UNL A   1      35.902  33.904  34.761  1.00  0.00     0.016 A 
ATOM     29  C   UNL A   1      37.226  34.694  32.892  1.00  0.00     0.016 A 
ATOM     30  C   UNL A   1      37.008  33.213  35.261  1.00  0.00     0.010 A 
ATOM     31  C   UNL A   1      38.338  34.005  33.399  1.00  0.00     0.010 A 
ATOM     32  C   UNL A   1      38.249  33.309  34.619  1.00  0.00    -0.014 A 
BRANCH  32  33
ATOM     33  C   UNL A   1      39.475  32.932  35.376  1.00  0.00     0.031 A 
ATOM     34  C   UNL A   1      39.891  33.828  36.520  1.00  0.00     0.074 A 
ATOM     35  C   UNL A   1      40.158  31.798  35.130  1.00  0.00     0.049 A 
ATOM     36  N   UNL A   1      40.875  33.693  37.370  1.00  0.00    -0.248 NA
ATOM     37  C   UNL A   1      39.081  35.040  36.730  1.00  0.00     0.031 C 
ATOM     38  C   UNL A   1      39.846  30.827  34.083  1.00  0.00     0.029 A 
ATOM     39  N   UNL A   1      41.262  31.268  35.757  1.00  0.00    -0.354 N 
ATOM     40  C   UNL A   1      40.805  34.801  38.210  1.00  0.00     0.074 A 
ATOM     41  C   UNL A   1      39.706  35.616  37.745  1.00  0.00     0.031 C 
ATOM     42  C   UNL A   1      40.738  29.820  34.140  1.00  0.00     0.029 A 
ATOM     43  C   UNL A   1      41.700  30.083  35.210  1.00  0.00     0.049 A 
ATOM     44  H   UNL A   1      41.699  31.698  36.527  1.00  0.00     0.167 HD
ATOM     45  C   UNL A   1      41.577  35.108  39.279  1.00  0.00     0.034 A 
ATOM     46  C   UNL A   1      42.761  29.309  35.532  1.00  0.00     0.034 A 
ATOM     47  C   UNL A   1      42.666  34.293  39.750  1.00  0.00     0.049 A 
ATOM     48  C   UNL A   1      43.645  29.712  36.696  1.00  0.00     0.074 A 
ATOM     49  C   UNL A   1      43.481  34.501  40.849  1.00  0.00     0.029 A 
ATOM     50  N   UNL A   1      43.104  33.124  39.145  1.00  0.00    -0.354 N 
ATOM     51  N   UNL A   1      43.530  30.737  37.511  1.00  0.00    -0.248 NA
ATOM     52  C   UNL A   1      44.790  28.841  36.993  1.00  0.00     0.031 C 
ATOM     53  C   UNL A   1      44.460  33.501  40.863  1.00  0.00     0.029 A 
ATOM     54  C   UNL A   1      44.202  32.622  39.825  1.00  0.00     0.049 A 
ATOM     55  H   UNL A   1      42.694  32.711  38.351  1.00  0.00     0.167 HD
ATOM     56  C   UNL A   1      44.564  30.602  38.438  1.00  0.00     0.074 A 
ATOM     57  C   UNL A   1      45.272  29.389  38.097  1.00  0.00     0.031 C 
ATOM     58  C   UNL A   1      44.902  31.408  39.479  1.00  0.00     0.034 A 
BRANCH  45  59
ATOM     59  C   UNL A   1      41.303  36.413  39.984  1.00  0.00     0.023 A 
ATOM     60  C   UNL A   1      41.976  37.601  39.647  1.00  0.00     0.031 A 
ATOM     61  C   UNL A   1      40.345  36.463  41.012  1.00  0.00     0.131 A 
ATOM     62  C   UNL A   1      41.714  38.777  40.364  1.00  0.00     0.055 A 
ATOM     63  C   UNL A   1      40.038  37.653  41.673  1.00  0.00     0.041 A 
ATOM     64  F   UNL A   1      39.694  35.353  41.392  1.00  0.00    -0.206 F 
ATOM     65  C   UNL A   1      40.730  38.818  41.356  1.00  0.00     0.022 A 
BRANCH  62  66
ATOM     66  S   UNL A   1      42.748  40.235  40.056  1.00  0.00     0.124 S 
ATOM     67  O   UNL A   1      43.402  40.410  41.351  1.00  0.00    -0.237 OA
ATOM     68  O   UNL A   1      43.604  39.790  38.962  1.00  0.00    -0.237 OA
ATOM     69  O   UNL A   1      41.781  41.274  39.708  1.00  0.00    -0.744 OA
ENDBRANCH  62  66
ENDBRANCH  45  59
BRANCH  46  70
ATOM     70  C   UNL A   1      43.104  28.092  34.731  1.00  0.00     0.023 A 
ATOM     71  C   UNL A   1      42.705  26.808  35.143  1.00  0.00     0.031 A 
ATOM     72  C   UNL A   1      43.955  28.184  33.615  1.00  0.00     0.131 A 
ATOM     73  C   UNL A   1      43.219  25.671  34.497  1.00  0.00     0.055 A 
ATOM     74  C   UNL A   1      44.409  27.053  32.934  1.00  0.00     0.041 A 
ATOM     75  F   UNL A   1      44.378  29.382  33.181  1.00  0.00    -0.206 F 
ATOM     76  C   UNL A   1      44.059  25.786  33.388  1.00  0.00     0.022 A 
BRANCH  73  77
ATOM     77  S   UNL A   1      42.894  24.037  35.221  1.00  0.00     0.124 S 
ATOM     78  O   UNL A   1      43.068  23.162  34.067  1.00  0.00    -0.237 OA
ATOM     79  O   UNL A   1      43.924  23.954  36.251  1.00  0.00    -0.237 OA
ATOM     80  O   UNL A   1      41.525  24.151  35.718  1.00  0.00    -0.744 OA
ENDBRANCH  73  77
ENDBRANCH  46  70
BRANCH  58  81
ATOM     81  C   UNL A   1      46.053  30.965  40.354  1.00  0.00     0.023 A 
ATOM     82  C   UNL A   1      45.849  30.226  41.532  1.00  0.00     0.031 A 
ATOM     83  C   UNL A   1      47.374  31.313  40.016  1.00  0.00     0.131 A 
ATOM     84  C   UNL A   1      46.936  29.925  42.368  1.00  0.00     0.055 A 
ATOM     85  C   UNL A   1      48.459  30.950  40.815  1.00  0.00     0.041 A 
ATOM     86  F   UNL A   1      47.632  32.017  38.903  1.00  0.00    -0.206 F 
ATOM     87  C   UNL A   1      48.242  30.268  42.009  1.00  0.00     0.022 A 
BRANCH  84  88
ATOM     88  S   UNL A   1      46.607  29.189  43.993  1.00  0.00     0.124 S 
ATOM     89  O   UNL A   1      45.214  29.555  44.218  1.00  0.00    -0.237 OA
ATOM     90  O   UNL A   1      46.863  27.773  43.750  1.00  0.00    -0.237 OA
ATOM     91  O   UNL A   1      47.572  29.849  44.872  1.00  0.00    -0.744 OA
ENDBRANCH  84  88
ENDBRANCH  58  81
ENDBRANCH  32  33
ENDBRANCH  25  27
ENDBRANCH  24  25
ENDBRANCH  23  24
ENDBRANCH  22  23
ENDBRANCH  21  22
ENDBRANCH  20  21
ENDBRANCH   1  20
TORSDOF 23
ENDMDL
MODEL 3
REMARK VINA RESULT:      -8.5      5.307     11.071
REMARK SMILES CC(C)Cc1ccc([C@H](C)C(=O)OCCOCCOCCOC(=O)c2ccc(-c3c4nc(c(-c5cc(S(=O)(=O)[O-])ccc5F)c5ccc([nH]5)c(-c5cc(S(=O)(=O)[O-])ccc5F)c5nc(c(-c6cc(S(=O)(=O)[O-])ccc6F)c6ccc3[nH]6)C=C5)C=C4)cc2)cc1
REMARK SMILES IDX 17 1 16 2 15 3 14 4 13 5 11 6 12 7 9 8 10 9 8 10 5 11 6 12
REMARK SMILES IDX 89 13 7 14 88 15 4 16 2 17 1 18 3 19 18 20 19 21 20 22 21 23
REMARK SMILES IDX 22 24 23 25 24 26 25 27 26 28 87 29 27 30 86 31 28 32 29 33
REMARK SMILES IDX 30 34 80 35 31 36 85 37 79 38 81 39 32 40 84 41 78 42 77 43
REMARK SMILES IDX 33 45 65 46 45 47 64 48 46 49 49 50 63 51 82 52 47 53 48 54
REMARK SMILES IDX 62 56 83 57 50 58 34 59 35 60 43 61 36 62 42 63 44 64 41 65
REMARK SMILES IDX 37 66 38 67 39 68 40 69 66 70 67 71 75 72 68 73 74 74 76 75
REMARK SMILES IDX 73 76 69 77 70 78 71 79 72 80 51 81 52 82 60 83 53 84 59 85
REMARK SMILES IDX 61 86 58 87 54 88 55 89 56 90 57 91
REMARK H PARENT 81 44 49 55
REMARK Flexibility Score: inf
ROOT
ATOM      1  C   UNL A   1      46.819  27.369  39.566  1.00  0.00     0.188 C 
ENDROOT
BRANCH   1   2
ATOM      2  O   UNL A   1      45.412  27.223  39.409  1.00  0.00    -0.376 OA
BRANCH   2   3
ATOM      3  C   UNL A   1      44.907  25.895  39.285  1.00  0.00     0.202 C 
BRANCH   3   4
ATOM      4  C   UNL A   1      43.883  25.633  38.169  1.00  0.00     0.261 C 
BRANCH   4   5
ATOM      5  O   UNL A   1      42.635  26.336  38.319  1.00  0.00    -0.463 OA
BRANCH   5   6
ATOM      6  C   UNL A   1      41.658  25.991  37.432  1.00  0.00     0.313 C 
ATOM      7  O   UNL A   1      40.461  25.970  37.711  1.00  0.00    -0.252 OA
BRANCH   6   8
ATOM      8  C   UNL A   1      42.183  25.665  36.022  1.00  0.00     0.126 C 
ATOM      9  C   UNL A   1      41.689  24.357  35.399  1.00  0.00     0.025 C 
BRANCH   8  10
ATOM     10  C   UNL A   1      41.944  26.880  35.144  1.00  0.00    -0.034 A 
ATOM     11  C   UNL A   1      40.934  29.041  33.681  1.00  0.00    -0.048 A 
ATOM     12  C   UNL A   1      41.258  27.841  33.036  1.00  0.00     0.004 A 
ATOM     13  C   UNL A   1      41.233  29.196  35.038  1.00  0.00     0.004 A 
ATOM     14  C   UNL A   1      41.747  26.762  33.763  1.00  0.00     0.005 A 
ATOM     15  C   UNL A   1      41.739  28.123  35.763  1.00  0.00     0.005 A 
BRANCH  11  16
ATOM     16  C   UNL A   1      40.110  30.079  32.964  1.00  0.00     0.038 C 
BRANCH  16  17
ATOM     17  C   UNL A   1      39.126  29.418  31.972  1.00  0.00    -0.013 C 
ATOM     18  C   UNL A   1      37.748  29.158  32.596  1.00  0.00     0.008 C 
ATOM     19  C   UNL A   1      38.978  30.281  30.722  1.00  0.00     0.008 C 
ENDBRANCH  16  17
ENDBRANCH  11  16
ENDBRANCH   8  10
ENDBRANCH   6   8
ENDBRANCH   5   6
ENDBRANCH   4   5
ENDBRANCH   3   4
ENDBRANCH   2   3
ENDBRANCH   1   2
BRANCH   1  20
ATOM     20  C   UNL A   1      47.540  26.286  40.367  1.00  0.00     0.188 C 
BRANCH  20  21
ATOM     21  O   UNL A   1      48.751  25.805  39.794  1.00  0.00    -0.376 OA
BRANCH  21  22
ATOM     22  C   UNL A   1      48.932  24.384  39.807  1.00  0.00     0.202 C 
BRANCH  22  23
ATOM     23  C   UNL A   1      48.049  23.582  38.829  1.00  0.00     0.261 C 
BRANCH  23  24
ATOM     24  O   UNL A   1      48.779  22.888  37.793  1.00  0.00    -0.460 OA
BRANCH  24  25
ATOM     25  C   UNL A   1      48.059  22.083  36.978  1.00  0.00     0.338 C 
ATOM     26  O   UNL A   1      47.865  20.888  37.143  1.00  0.00    -0.246 OA
BRANCH  25  27
ATOM     27  C   UNL A   1      47.315  22.919  35.998  1.00  0.00     0.060 A 
ATOM     28  C   UNL A   1      48.064  23.712  35.117  1.00  0.00     0.016 A 
ATOM     29  C   UNL A   1      45.919  22.902  35.896  1.00  0.00     0.016 A 
ATOM     30  C   UNL A   1      47.424  24.552  34.204  1.00  0.00     0.010 A 
ATOM     31  C   UNL A   1      45.275  23.750  34.983  1.00  0.00     0.010 A 
ATOM     32  C   UNL A   1      46.025  24.623  34.173  1.00  0.00    -0.014 A 
BRANCH  32  33
ATOM     33  C   UNL A   1      45.386  25.798  33.517  1.00  0.00     0.031 A 
ATOM     34  C   UNL A   1      45.354  27.097  34.291  1.00  0.00     0.074 A 
ATOM     35  C   UNL A   1      44.923  25.760  32.253  1.00  0.00     0.049 A 
ATOM     36  N   UNL A   1      44.915  28.274  33.928  1.00  0.00    -0.248 NA
ATOM     37  C   UNL A   1      45.894  27.056  35.660  1.00  0.00     0.031 C 
ATOM     38  C   UNL A   1      44.925  24.585  31.382  1.00  0.00     0.029 A 
ATOM     39  N   UNL A   1      44.362  26.748  31.478  1.00  0.00    -0.354 N 
ATOM     40  C   UNL A   1      45.121  29.109  35.022  1.00  0.00     0.074 A 
ATOM     41  C   UNL A   1      45.690  28.297  36.073  1.00  0.00     0.031 C 
ATOM     42  C   UNL A   1      44.391  24.922  30.193  1.00  0.00     0.029 A 
ATOM     43  C   UNL A   1      43.986  26.328  30.222  1.00  0.00     0.049 A 
ATOM     44  H   UNL A   1      44.241  27.673  31.794  1.00  0.00     0.167 HD
ATOM     45  C   UNL A   1      44.871  30.435  35.140  1.00  0.00     0.034 A 
ATOM     46  C   UNL A   1      43.376  26.999  29.220  1.00  0.00     0.034 A 
ATOM     47  C   UNL A   1      44.314  31.247  34.090  1.00  0.00     0.049 A 
ATOM     48  C   UNL A   1      43.052  28.469  29.404  1.00  0.00     0.074 A 
ATOM     49  C   UNL A   1      44.061  32.608  34.101  1.00  0.00     0.029 A 
ATOM     50  N   UNL A   1      43.908  30.777  32.850  1.00  0.00    -0.354 N 
ATOM     51  N   UNL A   1      43.304  29.254  30.428  1.00  0.00    -0.248 NA
ATOM     52  C   UNL A   1      42.379  29.146  28.287  1.00  0.00     0.031 C 
ATOM     53  C   UNL A   1      43.431  32.945  32.899  1.00  0.00     0.029 A 
ATOM     54  C   UNL A   1      43.370  31.813  32.103  1.00  0.00     0.049 A 
ATOM     55  H   UNL A   1      43.990  29.844  32.545  1.00  0.00     0.167 HD
ATOM     56  C   UNL A   1      42.856  30.521  30.054  1.00  0.00     0.074 A 
ATOM     57  C   UNL A   1      42.345  30.401  28.707  1.00  0.00     0.031 C 
ATOM     58  C   UNL A   1      42.864  31.683  30.758  1.00  0.00     0.034 A 
BRANCH  45  59
ATOM     59  C   UNL A   1      45.151  31.080  36.473  1.00  0.00     0.023 A 
ATOM     60  C   UNL A   1      44.168  31.190  37.472  1.00  0.00     0.031 A 
ATOM     61  C   UNL A   1      46.432  31.593  36.745  1.00  0.00     0.131 A 
ATOM     62  C   UNL A   1      44.471  31.839  38.678  1.00  0.00     0.055 A 
ATOM     63  C   UNL A   1      46.746  32.175  37.974  1.00  0.00     0.041 A 
ATOM     64  F   UNL A   1      47.399  31.540  35.816  1.00  0.00    -0.206 F 
ATOM     65  C   UNL A   1      45.760  32.307  38.947  1.00  0.00     0.022 A 
BRANCH  62  66
ATOM     66  S   UNL A   1      43.130  32.158  39.857  1.00  0.00     0.124 S 
ATOM     67  O   UNL A   1      41.949  31.880  39.042  1.00  0.00    -0.237 OA
ATOM     68  O   UNL A   1      43.410  31.201  40.922  1.00  0.00    -0.237 OA
ATOM     69  O   UNL A   1      43.314  33.562  40.216  1.00  0.00    -0.744 OA
ENDBRANCH  62  66
ENDBRANCH  45  59
BRANCH  46  70
ATOM     70  C   UNL A   1      42.974  26.308  27.955  1.00  0.00     0.023 A 
ATOM     71  C   UNL A   1      41.983  25.310  27.948  1.00  0.00     0.031 A 
ATOM     72  C   UNL A   1      43.674  26.540  26.757  1.00  0.00     0.131 A 
ATOM     73  C   UNL A   1      41.778  24.531  26.798  1.00  0.00     0.055 A 
ATOM     74  C   UNL A   1      43.419  25.809  25.596  1.00  0.00     0.041 A 
ATOM     75  F   UNL A   1      44.639  27.473  26.704  1.00  0.00    -0.206 F 
ATOM     76  C   UNL A   1      42.481  24.782  25.618  1.00  0.00     0.022 A 
BRANCH  73  77
ATOM     77  S   UNL A   1      40.685  23.085  26.909  1.00  0.00     0.124 S 
ATOM     78  O   UNL A   1      41.042  22.544  28.215  1.00  0.00    -0.237 OA
ATOM     79  O   UNL A   1      39.365  23.696  26.807  1.00  0.00    -0.237 OA
ATOM     80  O   UNL A   1      41.083  22.268  25.764  1.00  0.00    -0.744 OA
ENDBRANCH  73  77
ENDBRANCH  46  70
BRANCH  58  81
ATOM     81  C   UNL A   1      42.357  32.924  30.057  1.00  0.00     0.023 A 
ATOM     82  C   UNL A   1      43.130  33.607  29.102  1.00  0.00     0.031 A 
ATOM     83  C   UNL A   1      41.088  33.445  30.370  1.00  0.00     0.131 A 
ATOM     84  C   UNL A   1      42.663  34.811  28.553  1.00  0.00     0.055 A 
ATOM     85  C   UNL A   1      40.598  34.604  29.767  1.00  0.00     0.041 A 
ATOM     86  F   UNL A   1      40.302  32.836  31.272  1.00  0.00    -0.206 F 
ATOM     87  C   UNL A   1      41.395  35.305  28.866  1.00  0.00     0.022 A 
BRANCH  84  88
ATOM     88  S   UNL A   1      43.786  35.789  27.515  1.00  0.00     0.124 S 
ATOM     89  O   UNL A   1      44.409  36.674  28.492  1.00  0.00    -0.237 OA
ATOM     90  O   UNL A   1      44.651  34.763  26.942  1.00  0.00    -0.237 OA
ATOM     91  O   UNL A   1      42.890  36.445  26.564  1.00  0.00    -0.744 OA
ENDBRANCH  84  88
ENDBRANCH  58  81
ENDBRANCH  32  33
ENDBRANCH  25  27
ENDBRANCH  24  25
ENDBRANCH  23  24
ENDBRANCH  22  23
ENDBRANCH  21  22
ENDBRANCH  20  21
ENDBRANCH   1  20
TORSDOF 23
ENDMDL
