MODEL 1
REMARK VINA RESULT:      -9.5      0.000      0.000
REMARK SMILES CCC[C@@]1(C(=O)OCCOCCOCCOC(=O)c2ccc(-c3c4nc(c(-c5cc(S(=O)(=O)[O-])ccc5F)c5ccc([nH]5)c(-c5cc(S(=O)(=O)[O-])ccc5F)c5nc(c(-c6cc(S(=O)(=O)[O-])ccc6F)c6ccc3[nH]6)C=C5)C=C4)cc2)CCCN(C(=O)C[C@H]2CCCCO2)C1
REMARK SMILES IDX 11 1 10 2 9 3 8 4 7 5 5 6 6 7 4 8 82 9 95 10 83 11 85 12
REMARK SMILES IDX 84 13 3 14 2 15 1 16 86 17 87 18 88 19 89 20 90 21 94 22
REMARK SMILES IDX 91 23 93 24 92 25 12 26 13 27 14 28 15 29 16 30 17 31 18 32
REMARK SMILES IDX 19 33 20 34 81 35 21 36 80 37 22 38 23 39 24 40 74 41 25 42
REMARK SMILES IDX 79 43 73 44 75 45 26 46 78 47 72 48 71 49 27 51 59 52 39 53
REMARK SMILES IDX 58 54 40 55 43 56 57 57 76 58 41 59 42 60 56 62 77 63 44 64
REMARK SMILES IDX 28 65 29 66 37 67 30 68 36 69 38 70 35 71 31 72 32 73 33 74
REMARK SMILES IDX 34 75 60 76 61 77 69 78 62 79 68 80 70 81 67 82 63 83 64 84
REMARK SMILES IDX 65 85 66 86 45 87 46 88 54 89 47 90 53 91 55 92 52 93 48 94
REMARK SMILES IDX 49 95 50 96 51 97
REMARK H PARENT 75 50 43 61
REMARK Flexibility Score: inf
ROOT
ATOM      1  C   UNL A   1      38.817  24.599  26.765  1.00  0.00     0.188 C 
ENDROOT
BRANCH   1   2
ATOM      2  O   UNL A   1      38.197  23.481  26.130  1.00  0.00    -0.376 OA
BRANCH   2   3
ATOM      3  C   UNL A   1      36.895  23.656  25.567  1.00  0.00     0.202 C 
BRANCH   3   4
ATOM      4  C   UNL A   1      35.681  23.201  26.388  1.00  0.00     0.261 C 
BRANCH   4   5
ATOM      5  O   UNL A   1      35.388  21.802  26.176  1.00  0.00    -0.463 OA
BRANCH   5   6
ATOM      6  C   UNL A   1      34.119  21.450  26.525  1.00  0.00     0.313 C 
ATOM      7  O   UNL A   1      33.755  21.322  27.664  1.00  0.00    -0.252 OA
BRANCH   6   8
ATOM      8  C   UNL A   1      33.148  21.289  25.336  1.00  0.00     0.086 C 
ATOM      9  C   UNL A   1      33.571  21.750  23.916  1.00  0.00     0.022 C 
ATOM     10  C   UNL A   1      31.856  22.131  25.921  1.00  0.00     0.138 C 
ATOM     11  C   UNL A   1      32.505  22.332  23.026  1.00  0.00     0.023 C 
ATOM     12  N   UNL A   1      31.364  23.245  25.026  1.00  0.00    -0.341 N 
ATOM     13  C   UNL A   1      31.209  22.597  23.731  1.00  0.00     0.119 C 
BRANCH   8  14
ATOM     14  C   UNL A   1      33.021  19.709  25.255  1.00  0.00     0.020 C 
BRANCH  14  15
ATOM     15  C   UNL A   1      34.068  18.880  24.412  1.00  0.00    -0.002 C 
ATOM     16  C   UNL A   1      34.108  17.340  24.451  1.00  0.00     0.004 C 
ENDBRANCH  14  15
ENDBRANCH   8  14
BRANCH  12  17
ATOM     17  C   UNL A   1      30.677  24.411  25.586  1.00  0.00     0.225 C 
ATOM     18  O   UNL A   1      30.398  24.293  26.802  1.00  0.00    -0.275 OA
BRANCH  17  19
ATOM     19  C   UNL A   1      30.493  26.139  25.068  1.00  0.00     0.132 C 
BRANCH  19  20
ATOM     20  C   UNL A   1      31.126  27.765  24.808  1.00  0.00     0.127 C 
ATOM     21  C   UNL A   1      32.442  28.103  25.586  1.00  0.00     0.033 C 
ATOM     22  O   UNL A   1      31.089  28.435  23.540  1.00  0.00    -0.378 OA
ATOM     23  C   UNL A   1      33.377  29.142  24.936  1.00  0.00     0.005 C 
ATOM     24  C   UNL A   1      32.250  28.852  22.784  1.00  0.00     0.160 C 
ATOM     25  C   UNL A   1      33.591  28.820  23.485  1.00  0.00     0.029 C 
ENDBRANCH  19  20
ENDBRANCH  17  19
ENDBRANCH  12  17
ENDBRANCH   6   8
ENDBRANCH   5   6
ENDBRANCH   4   5
ENDBRANCH   3   4
ENDBRANCH   2   3
ENDBRANCH   1   2
BRANCH   1  26
ATOM     26  C   UNL A   1      39.977  24.293  27.731  1.00  0.00     0.188 C 
BRANCH  26  27
ATOM     27  O   UNL A   1      41.014  23.430  27.239  1.00  0.00    -0.376 OA
BRANCH  27  28
ATOM     28  C   UNL A   1      41.103  22.176  28.006  1.00  0.00     0.202 C 
BRANCH  28  29
ATOM     29  C   UNL A   1      41.597  21.075  27.036  1.00  0.00     0.261 C 
BRANCH  29  30
ATOM     30  O   UNL A   1      42.878  21.077  26.238  1.00  0.00    -0.460 OA
BRANCH  30  31
ATOM     31  C   UNL A   1      43.779  22.003  25.589  1.00  0.00     0.338 C 
ATOM     32  O   UNL A   1      44.239  21.609  24.516  1.00  0.00    -0.246 OA
BRANCH  31  33
ATOM     33  C   UNL A   1      44.009  23.569  25.810  1.00  0.00     0.060 A 
ATOM     34  C   UNL A   1      44.366  24.011  27.106  1.00  0.00     0.016 A 
ATOM     35  C   UNL A   1      43.699  24.633  24.945  1.00  0.00     0.016 A 
ATOM     36  C   UNL A   1      44.614  25.371  27.448  1.00  0.00     0.010 A 
ATOM     37  C   UNL A   1      43.969  26.012  25.261  1.00  0.00     0.010 A 
ATOM     38  C   UNL A   1      44.437  26.407  26.526  1.00  0.00    -0.014 A 
BRANCH  38  39
ATOM     39  C   UNL A   1      44.443  27.839  27.029  1.00  0.00     0.031 A 
ATOM     40  C   UNL A   1      43.151  28.387  27.603  1.00  0.00     0.074 A 
ATOM     41  C   UNL A   1      45.555  28.608  27.137  1.00  0.00     0.049 A 
ATOM     42  N   UNL A   1      42.934  29.458  28.330  1.00  0.00    -0.248 NA
ATOM     43  C   UNL A   1      41.942  27.600  27.326  1.00  0.00     0.031 C 
ATOM     44  C   UNL A   1      46.882  28.258  26.635  1.00  0.00     0.029 A 
ATOM     45  N   UNL A   1      45.754  29.846  27.732  1.00  0.00    -0.354 N 
ATOM     46  C   UNL A   1      41.578  29.434  28.646  1.00  0.00     0.074 A 
ATOM     47  C   UNL A   1      41.012  28.293  27.961  1.00  0.00     0.031 C 
ATOM     48  C   UNL A   1      47.756  29.229  26.970  1.00  0.00     0.029 A 
ATOM     49  C   UNL A   1      47.066  30.286  27.714  1.00  0.00     0.049 A 
ATOM     50  H   UNL A   1      45.022  30.368  28.135  1.00  0.00     0.167 HD
ATOM     51  C   UNL A   1      40.859  30.256  29.454  1.00  0.00     0.034 A 
ATOM     52  C   UNL A   1      47.649  31.391  28.243  1.00  0.00     0.034 A 
ATOM     53  C   UNL A   1      41.384  31.441  30.079  1.00  0.00     0.049 A 
ATOM     54  C   UNL A   1      46.804  32.363  29.051  1.00  0.00     0.074 A 
ATOM     55  C   UNL A   1      40.725  32.375  30.860  1.00  0.00     0.029 A 
ATOM     56  N   UNL A   1      42.699  31.874  29.971  1.00  0.00    -0.354 N 
ATOM     57  N   UNL A   1      45.536  32.284  29.383  1.00  0.00    -0.248 NA
ATOM     58  C   UNL A   1      47.476  33.570  29.568  1.00  0.00     0.031 C 
ATOM     59  C   UNL A   1      41.625  33.401  31.172  1.00  0.00     0.029 A 
ATOM     60  C   UNL A   1      42.862  33.074  30.642  1.00  0.00     0.049 A 
ATOM     61  H   UNL A   1      43.411  31.396  29.488  1.00  0.00     0.167 HD
ATOM     62  C   UNL A   1      45.271  33.408  30.166  1.00  0.00     0.074 A 
ATOM     63  C   UNL A   1      46.513  34.143  30.277  1.00  0.00     0.031 C 
ATOM     64  C   UNL A   1      44.106  33.800  30.743  1.00  0.00     0.034 A 
BRANCH  51  65
ATOM     65  C   UNL A   1      39.405  29.895  29.648  1.00  0.00     0.023 A 
ATOM     66  C   UNL A   1      38.389  30.582  28.953  1.00  0.00     0.031 A 
ATOM     67  C   UNL A   1      39.021  28.940  30.603  1.00  0.00     0.131 A 
ATOM     68  C   UNL A   1      37.045  30.373  29.296  1.00  0.00     0.055 A 
ATOM     69  C   UNL A   1      37.678  28.680  30.882  1.00  0.00     0.041 A 
ATOM     70  F   UNL A   1      39.946  28.270  31.309  1.00  0.00    -0.206 F 
ATOM     71  C   UNL A   1      36.681  29.413  30.242  1.00  0.00     0.022 A 
BRANCH  68  72
ATOM     72  S   UNL A   1      35.793  31.494  28.611  1.00  0.00     0.124 S 
ATOM     73  O   UNL A   1      36.623  32.529  28.005  1.00  0.00    -0.237 OA
ATOM     74  O   UNL A   1      35.067  30.630  27.685  1.00  0.00    -0.237 OA
ATOM     75  O   UNL A   1      35.036  31.920  29.786  1.00  0.00    -0.744 OA
ENDBRANCH  68  72
ENDBRANCH  51  65
BRANCH  52  76
ATOM     76  C   UNL A   1      49.108  31.691  28.036  1.00  0.00     0.023 A 
ATOM     77  C   UNL A   1      49.582  32.342  26.879  1.00  0.00     0.031 A 
ATOM     78  C   UNL A   1      50.070  31.225  28.952  1.00  0.00     0.131 A 
ATOM     79  C   UNL A   1      50.967  32.471  26.652  1.00  0.00     0.055 A 
ATOM     80  C   UNL A   1      51.443  31.400  28.746  1.00  0.00     0.041 A 
ATOM     81  F   UNL A   1      49.690  30.575  30.062  1.00  0.00    -0.206 F 
ATOM     82  C   UNL A   1      51.899  32.015  27.585  1.00  0.00     0.022 A 
BRANCH  79  83
ATOM     83  S   UNL A   1      51.546  33.159  25.070  1.00  0.00     0.124 S 
ATOM     84  O   UNL A   1      52.858  33.677  25.429  1.00  0.00    -0.237 OA
ATOM     85  O   UNL A   1      51.532  31.982  24.205  1.00  0.00    -0.237 OA
ATOM     86  O   UNL A   1      50.541  34.172  24.749  1.00  0.00    -0.744 OA
ENDBRANCH  79  83
ENDBRANCH  52  76
BRANCH  64  87
ATOM     87  C   UNL A   1      44.126  35.062  31.571  1.00  0.00     0.023 A 
ATOM     88  C   UNL A   1      44.343  35.032  32.960  1.00  0.00     0.031 A 
ATOM     89  C   UNL A   1      43.944  36.315  30.958  1.00  0.00     0.131 A 
ATOM     90  C   UNL A   1      44.331  36.227  33.696  1.00  0.00     0.055 A 
ATOM     91  C   UNL A   1      43.982  37.504  31.687  1.00  0.00     0.041 A 
ATOM     92  F   UNL A   1      43.737  36.403  29.634  1.00  0.00    -0.206 F 
ATOM     93  C   UNL A   1      44.167  37.464  33.067  1.00  0.00     0.022 A 
BRANCH  90  94
ATOM     94  S   UNL A   1      44.474  36.142  35.504  1.00  0.00     0.124 S 
ATOM     95  O   UNL A   1      45.887  35.826  35.684  1.00  0.00    -0.237 OA
ATOM     96  O   UNL A   1      44.062  37.482  35.913  1.00  0.00    -0.237 OA
ATOM     97  O   UNL A   1      43.547  35.073  35.872  1.00  0.00    -0.744 OA
ENDBRANCH  90  94
ENDBRANCH  64  87
ENDBRANCH  38  39
ENDBRANCH  31  33
ENDBRANCH  30  31
ENDBRANCH  29  30
ENDBRANCH  28  29
ENDBRANCH  27  28
ENDBRANCH  26  27
ENDBRANCH   1  26
TORSDOF 25
ENDMDL
MODEL 2
REMARK VINA RESULT:      -9.5      1.897      3.964
REMARK SMILES CCC[C@@]1(C(=O)OCCOCCOCCOC(=O)c2ccc(-c3c4nc(c(-c5cc(S(=O)(=O)[O-])ccc5F)c5ccc([nH]5)c(-c5cc(S(=O)(=O)[O-])ccc5F)c5nc(c(-c6cc(S(=O)(=O)[O-])ccc6F)c6ccc3[nH]6)C=C5)C=C4)cc2)CCCN(C(=O)C[C@H]2CCCCO2)C1
REMARK SMILES IDX 11 1 10 2 9 3 8 4 7 5 5 6 6 7 4 8 82 9 95 10 83 11 85 12
REMARK SMILES IDX 84 13 3 14 2 15 1 16 86 17 87 18 88 19 89 20 90 21 94 22
REMARK SMILES IDX 91 23 93 24 92 25 12 26 13 27 14 28 15 29 16 30 17 31 18 32
REMARK SMILES IDX 19 33 20 34 81 35 21 36 80 37 22 38 23 39 24 40 74 41 25 42
REMARK SMILES IDX 79 43 73 44 75 45 26 46 78 47 72 48 71 49 27 51 59 52 39 53
REMARK SMILES IDX 58 54 40 55 43 56 57 57 76 58 41 59 42 60 56 62 77 63 44 64
REMARK SMILES IDX 28 65 29 66 37 67 30 68 36 69 38 70 35 71 31 72 32 73 33 74
REMARK SMILES IDX 34 75 60 76 61 77 69 78 62 79 68 80 70 81 67 82 63 83 64 84
REMARK SMILES IDX 65 85 66 86 45 87 46 88 54 89 47 90 53 91 55 92 52 93 48 94
REMARK SMILES IDX 49 95 50 96 51 97
REMARK H PARENT 75 50 43 61
REMARK Flexibility Score: inf
ROOT
ATOM      1  C   UNL A   1      37.306  22.687  25.701  1.00  0.00     0.188 C 
ENDROOT
BRANCH   1   2
ATOM      2  O   UNL A   1      36.789  23.596  24.731  1.00  0.00    -0.376 OA
BRANCH   2   3
ATOM      3  C   UNL A   1      36.102  23.063  23.597  1.00  0.00     0.202 C 
BRANCH   3   4
ATOM      4  C   UNL A   1      34.697  23.594  23.282  1.00  0.00     0.261 C 
BRANCH   4   5
ATOM      5  O   UNL A   1      34.590  25.009  23.553  1.00  0.00    -0.463 OA
BRANCH   5   6
ATOM      6  C   UNL A   1      33.622  25.633  22.824  1.00  0.00     0.313 C 
ATOM      7  O   UNL A   1      33.665  25.754  21.629  1.00  0.00    -0.252 OA
BRANCH   6   8
ATOM      8  C   UNL A   1      32.413  26.124  23.651  1.00  0.00     0.086 C 
ATOM      9  C   UNL A   1      32.630  27.067  24.864  1.00  0.00     0.022 C 
ATOM     10  C   UNL A   1      31.768  24.669  24.082  1.00  0.00     0.138 C 
ATOM     11  C   UNL A   1      31.717  26.899  26.049  1.00  0.00     0.023 C 
ATOM     12  N   UNL A   1      31.576  24.472  25.569  1.00  0.00    -0.341 N 
ATOM     13  C   UNL A   1      30.859  25.671  25.980  1.00  0.00     0.119 C 
BRANCH   8  14
ATOM     14  C   UNL A   1      31.632  26.985  22.571  1.00  0.00     0.020 C 
BRANCH  14  15
ATOM     15  C   UNL A   1      31.526  28.551  22.744  1.00  0.00    -0.002 C 
ATOM     16  C   UNL A   1      30.173  29.287  22.684  1.00  0.00     0.004 C 
ENDBRANCH  14  15
ENDBRANCH   8  14
BRANCH  12  17
ATOM     17  C   UNL A   1      31.589  23.132  26.156  1.00  0.00     0.225 C 
ATOM     18  O   UNL A   1      31.115  23.087  27.316  1.00  0.00    -0.275 OA
BRANCH  17  19
ATOM     19  C   UNL A   1      31.742  21.457  25.479  1.00  0.00     0.132 C 
BRANCH  19  20
ATOM     20  C   UNL A   1      32.557  20.242  24.491  1.00  0.00     0.127 C 
ATOM     21  C   UNL A   1      34.063  19.996  24.839  1.00  0.00     0.033 C 
ATOM     22  O   UNL A   1      31.926  19.034  24.043  1.00  0.00    -0.378 OA
ATOM     23  C   UNL A   1      34.614  18.588  24.546  1.00  0.00     0.005 C 
ATOM     24  C   UNL A   1      32.341  17.695  24.402  1.00  0.00     0.160 C 
ATOM     25  C   UNL A   1      33.684  17.537  25.081  1.00  0.00     0.029 C 
ENDBRANCH  19  20
ENDBRANCH  17  19
ENDBRANCH  12  17
ENDBRANCH   6   8
ENDBRANCH   5   6
ENDBRANCH   4   5
ENDBRANCH   3   4
ENDBRANCH   2   3
ENDBRANCH   1   2
BRANCH   1  26
ATOM     26  C   UNL A   1      38.802  22.818  26.048  1.00  0.00     0.188 C 
BRANCH  26  27
ATOM     27  O   UNL A   1      39.330  21.873  26.991  1.00  0.00    -0.376 OA
BRANCH  27  28
ATOM     28  C   UNL A   1      39.849  20.662  26.331  1.00  0.00     0.202 C 
BRANCH  28  29
ATOM     29  C   UNL A   1      41.316  20.948  25.927  1.00  0.00     0.261 C 
BRANCH  29  30
ATOM     30  O   UNL A   1      42.115  22.191  26.236  1.00  0.00    -0.460 OA
BRANCH  30  31
ATOM     31  C   UNL A   1      42.957  23.160  25.573  1.00  0.00     0.338 C 
ATOM     32  O   UNL A   1      43.318  22.840  24.439  1.00  0.00    -0.246 OA
BRANCH  31  33
ATOM     33  C   UNL A   1      43.211  24.709  25.877  1.00  0.00     0.060 A 
ATOM     34  C   UNL A   1      43.680  25.064  27.165  1.00  0.00     0.016 A 
ATOM     35  C   UNL A   1      42.834  25.827  25.115  1.00  0.00     0.016 A 
ATOM     36  C   UNL A   1      43.962  26.398  27.574  1.00  0.00     0.010 A 
ATOM     37  C   UNL A   1      43.135  27.183  25.498  1.00  0.00     0.010 A 
ATOM     38  C   UNL A   1      43.711  27.493  26.742  1.00  0.00    -0.014 A 
BRANCH  38  39
ATOM     39  C   UNL A   1      43.766  28.888  27.337  1.00  0.00     0.031 A 
ATOM     40  C   UNL A   1      42.535  29.389  28.067  1.00  0.00     0.074 A 
ATOM     41  C   UNL A   1      44.883  29.655  27.389  1.00  0.00     0.049 A 
ATOM     42  N   UNL A   1      42.389  30.408  28.882  1.00  0.00    -0.248 NA
ATOM     43  C   UNL A   1      41.305  28.615  27.855  1.00  0.00     0.031 C 
ATOM     44  C   UNL A   1      46.156  29.347  26.740  1.00  0.00     0.029 A 
ATOM     45  N   UNL A   1      45.139  30.851  28.044  1.00  0.00    -0.354 N 
ATOM     46  C   UNL A   1      41.070  30.354  29.324  1.00  0.00     0.074 A 
ATOM     47  C   UNL A   1      40.440  29.258  28.621  1.00  0.00     0.031 C 
ATOM     48  C   UNL A   1      47.059  30.299  27.054  1.00  0.00     0.029 A 
ATOM     49  C   UNL A   1      46.443  31.299  27.929  1.00  0.00     0.049 A 
ATOM     50  H   UNL A   1      44.450  31.341  28.549  1.00  0.00     0.167 HD
ATOM     51  C   UNL A   1      40.432  31.116  30.250  1.00  0.00     0.034 A 
ATOM     52  C   UNL A   1      47.074  32.370  28.474  1.00  0.00     0.034 A 
ATOM     53  C   UNL A   1      41.015  32.260  30.900  1.00  0.00     0.049 A 
ATOM     54  C   UNL A   1      46.312  33.282  29.422  1.00  0.00     0.074 A 
ATOM     55  C   UNL A   1      40.434  33.136  31.802  1.00  0.00     0.029 A 
ATOM     56  N   UNL A   1      42.313  32.707  30.696  1.00  0.00    -0.354 N 
ATOM     57  N   UNL A   1      45.081  33.172  29.868  1.00  0.00    -0.248 NA
ATOM     58  C   UNL A   1      47.031  34.455  29.952  1.00  0.00     0.031 C 
ATOM     59  C   UNL A   1      41.360  34.144  32.094  1.00  0.00     0.029 A 
ATOM     60  C   UNL A   1      42.541  33.861  31.428  1.00  0.00     0.049 A 
ATOM     61  H   UNL A   1      42.976  32.267  30.116  1.00  0.00     0.167 HD
ATOM     62  C   UNL A   1      44.893  34.240  30.746  1.00  0.00     0.074 A 
ATOM     63  C   UNL A   1      46.140  34.973  30.786  1.00  0.00     0.031 C 
ATOM     64  C   UNL A   1      43.789  34.586  31.457  1.00  0.00     0.034 A 
BRANCH  51  65
ATOM     65  C   UNL A   1      39.003  30.735  30.558  1.00  0.00     0.023 A 
ATOM     66  C   UNL A   1      37.926  31.422  29.964  1.00  0.00     0.031 A 
ATOM     67  C   UNL A   1      38.710  29.757  31.522  1.00  0.00     0.131 A 
ATOM     68  C   UNL A   1      36.618  31.191  30.414  1.00  0.00     0.055 A 
ATOM     69  C   UNL A   1      37.398  29.476  31.907  1.00  0.00     0.041 A 
ATOM     70  F   UNL A   1      39.698  29.085  32.136  1.00  0.00    -0.206 F 
ATOM     71  C   UNL A   1      36.344  30.209  31.368  1.00  0.00     0.022 A 
BRANCH  68  72
ATOM     72  S   UNL A   1      35.301  32.309  29.858  1.00  0.00     0.124 S 
ATOM     73  O   UNL A   1      36.063  33.489  29.462  1.00  0.00    -0.237 OA
ATOM     74  O   UNL A   1      34.679  31.554  28.775  1.00  0.00    -0.237 OA
ATOM     75  O   UNL A   1      34.473  32.482  31.051  1.00  0.00    -0.744 OA
ENDBRANCH  68  72
ENDBRANCH  51  65
BRANCH  52  76
ATOM     76  C   UNL A   1      48.508  32.692  28.148  1.00  0.00     0.023 A 
ATOM     77  C   UNL A   1      48.861  33.518  27.062  1.00  0.00     0.031 A 
ATOM     78  C   UNL A   1      49.557  32.080  28.860  1.00  0.00     0.131 A 
ATOM     79  C   UNL A   1      50.214  33.675  26.699  1.00  0.00     0.055 A 
ATOM     80  C   UNL A   1      50.900  32.279  28.526  1.00  0.00     0.041 A 
ATOM     81  F   UNL A   1      49.290  31.262  29.890  1.00  0.00    -0.206 F 
ATOM     82  C   UNL A   1      51.235  33.070  27.432  1.00  0.00     0.022 A 
BRANCH  79  83
ATOM     83  S   UNL A   1      50.625  34.605  25.190  1.00  0.00     0.124 S 
ATOM     84  O   UNL A   1      51.529  35.625  25.701  1.00  0.00    -0.237 OA
ATOM     85  O   UNL A   1      51.227  33.571  24.352  1.00  0.00    -0.237 OA
ATOM     86  O   UNL A   1      49.327  35.096  24.727  1.00  0.00    -0.744 OA
ENDBRANCH  79  83
ENDBRANCH  52  76
BRANCH  64  87
ATOM     87  C   UNL A   1      43.889  35.790  32.362  1.00  0.00     0.023 A 
ATOM     88  C   UNL A   1      43.734  37.099  31.872  1.00  0.00     0.031 A 
ATOM     89  C   UNL A   1      44.124  35.623  33.739  1.00  0.00     0.131 A 
ATOM     90  C   UNL A   1      43.858  38.192  32.744  1.00  0.00     0.055 A 
ATOM     91  C   UNL A   1      44.197  36.711  34.610  1.00  0.00     0.041 A 
ATOM     92  F   UNL A   1      44.275  34.396  34.262  1.00  0.00    -0.206 F 
ATOM     93  C   UNL A   1      44.074  38.006  34.113  1.00  0.00     0.022 A 
BRANCH  90  94
ATOM     94  S   UNL A   1      43.794  39.870  32.058  1.00  0.00     0.124 S 
ATOM     95  O   UNL A   1      45.079  40.420  32.476  1.00  0.00    -0.237 OA
ATOM     96  O   UNL A   1      43.642  39.618  30.628  1.00  0.00    -0.237 OA
ATOM     97  O   UNL A   1      42.626  40.463  32.706  1.00  0.00    -0.744 OA
ENDBRANCH  90  94
ENDBRANCH  64  87
ENDBRANCH  38  39
ENDBRANCH  31  33
ENDBRANCH  30  31
ENDBRANCH  29  30
ENDBRANCH  28  29
ENDBRANCH  27  28
ENDBRANCH  26  27
ENDBRANCH   1  26
TORSDOF 25
ENDMDL
MODEL 3
REMARK VINA RESULT:      -9.0      2.178      7.744
REMARK SMILES CCC[C@@]1(C(=O)OCCOCCOCCOC(=O)c2ccc(-c3c4nc(c(-c5cc(S(=O)(=O)[O-])ccc5F)c5ccc([nH]5)c(-c5cc(S(=O)(=O)[O-])ccc5F)c5nc(c(-c6cc(S(=O)(=O)[O-])ccc6F)c6ccc3[nH]6)C=C5)C=C4)cc2)CCCN(C(=O)C[C@H]2CCCCO2)C1
REMARK SMILES IDX 11 1 10 2 9 3 8 4 7 5 5 6 6 7 4 8 82 9 95 10 83 11 85 12
REMARK SMILES IDX 84 13 3 14 2 15 1 16 86 17 87 18 88 19 89 20 90 21 94 22
REMARK SMILES IDX 91 23 93 24 92 25 12 26 13 27 14 28 15 29 16 30 17 31 18 32
REMARK SMILES IDX 19 33 20 34 81 35 21 36 80 37 22 38 23 39 24 40 74 41 25 42
REMARK SMILES IDX 79 43 73 44 75 45 26 46 78 47 72 48 71 49 27 51 59 52 39 53
REMARK SMILES IDX 58 54 40 55 43 56 57 57 76 58 41 59 42 60 56 62 77 63 44 64
REMARK SMILES IDX 28 65 29 66 37 67 30 68 36 69 38 70 35 71 31 72 32 73 33 74
REMARK SMILES IDX 34 75 60 76 61 77 69 78 62 79 68 80 70 81 67 82 63 83 64 84
REMARK SMILES IDX 65 85 66 86 45 87 46 88 54 89 47 90 53 91 55 92 52 93 48 94
REMARK SMILES IDX 49 95 50 96 51 97
REMARK H PARENT 75 50 43 61
REMARK Flexibility Score: inf
ROOT
ATOM      1  C   UNL A   1      39.756  22.187  26.266  1.00  0.00     0.188 C 
ENDROOT
BRANCH   1   2
ATOM      2  O   UNL A   1      38.846  21.193  25.795  1.00  0.00    -0.376 OA
BRANCH   2   3
ATOM      3  C   UNL A   1      37.724  21.613  25.017  1.00  0.00     0.202 C 
BRANCH   3   4
ATOM      4  C   UNL A   1      36.352  21.691  25.702  1.00  0.00     0.261 C 
BRANCH   4   5
ATOM      5  O   UNL A   1      35.376  20.860  25.036  1.00  0.00    -0.463 OA
BRANCH   5   6
ATOM      6  C   UNL A   1      34.124  20.958  25.564  1.00  0.00     0.313 C 
ATOM      7  O   UNL A   1      33.886  20.842  26.738  1.00  0.00    -0.252 OA
BRANCH   6   8
ATOM      8  C   UNL A   1      33.021  21.300  24.539  1.00  0.00     0.086 C 
ATOM      9  C   UNL A   1      33.350  22.176  23.302  1.00  0.00     0.022 C 
ATOM     10  C   UNL A   1      31.921  22.006  25.545  1.00  0.00     0.138 C 
ATOM     11  C   UNL A   1      32.285  23.120  22.813  1.00  0.00     0.023 C 
ATOM     12  N   UNL A   1      31.491  23.398  25.143  1.00  0.00    -0.341 N 
ATOM     13  C   UNL A   1      31.116  23.246  23.743  1.00  0.00     0.119 C 
BRANCH   8  14
ATOM     14  C   UNL A   1      32.676  19.860  23.967  1.00  0.00     0.020 C 
BRANCH  14  15
ATOM     15  C   UNL A   1      33.338  18.581  24.615  1.00  0.00    -0.002 C 
ATOM     16  C   UNL A   1      32.491  17.446  25.223  1.00  0.00     0.004 C 
ENDBRANCH  14  15
ENDBRANCH   8  14
BRANCH  12  17
ATOM     17  C   UNL A   1      31.029  24.361  26.144  1.00  0.00     0.225 C 
ATOM     18  O   UNL A   1      30.604  23.827  27.195  1.00  0.00    -0.275 OA
BRANCH  17  19
ATOM     19  C   UNL A   1      31.292  26.136  26.407  1.00  0.00     0.132 C 
BRANCH  19  20
ATOM     20  C   UNL A   1      32.188  27.495  27.088  1.00  0.00     0.127 C 
ATOM     21  C   UNL A   1      33.597  27.752  26.458  1.00  0.00     0.033 C 
ATOM     22  O   UNL A   1      31.570  28.726  27.491  1.00  0.00    -0.378 OA
ATOM     23  C   UNL A   1      34.107  29.206  26.482  1.00  0.00     0.005 C 
ATOM     24  C   UNL A   1      31.840  30.023  26.909  1.00  0.00     0.160 C 
ATOM     25  C   UNL A   1      33.040  30.144  25.994  1.00  0.00     0.029 C 
ENDBRANCH  19  20
ENDBRANCH  17  19
ENDBRANCH  12  17
ENDBRANCH   6   8
ENDBRANCH   5   6
ENDBRANCH   4   5
ENDBRANCH   3   4
ENDBRANCH   2   3
ENDBRANCH   1   2
BRANCH   1  26
ATOM     26  C   UNL A   1      41.242  21.787  26.345  1.00  0.00     0.188 C 
BRANCH  26  27
ATOM     27  O   UNL A   1      42.189  22.716  25.797  1.00  0.00    -0.376 OA
BRANCH  27  28
ATOM     28  C   UNL A   1      43.533  22.127  25.667  1.00  0.00     0.202 C 
BRANCH  28  29
ATOM     29  C   UNL A   1      44.080  22.526  24.275  1.00  0.00     0.261 C 
BRANCH  29  30
ATOM     30  O   UNL A   1      45.289  23.382  23.986  1.00  0.00    -0.460 OA
BRANCH  30  31
ATOM     31  C   UNL A   1      46.159  24.330  24.645  1.00  0.00     0.338 C 
ATOM     32  O   UNL A   1      47.282  24.432  24.147  1.00  0.00    -0.246 OA
BRANCH  31  33
ATOM     33  C   UNL A   1      45.833  25.523  25.657  1.00  0.00     0.060 A 
ATOM     34  C   UNL A   1      45.101  26.629  25.165  1.00  0.00     0.016 A 
ATOM     35  C   UNL A   1      46.354  25.751  26.942  1.00  0.00     0.016 A 
ATOM     36  C   UNL A   1      44.727  27.756  25.952  1.00  0.00     0.010 A 
ATOM     37  C   UNL A   1      45.968  26.870  27.764  1.00  0.00     0.010 A 
ATOM     38  C   UNL A   1      45.139  27.897  27.279  1.00  0.00    -0.014 A 
BRANCH  38  39
ATOM     39  C   UNL A   1      44.948  29.238  27.964  1.00  0.00     0.031 A 
ATOM     40  C   UNL A   1      46.033  30.282  27.778  1.00  0.00     0.074 A 
ATOM     41  C   UNL A   1      43.813  29.618  28.602  1.00  0.00     0.049 A 
ATOM     42  N   UNL A   1      46.017  31.571  28.018  1.00  0.00    -0.248 NA
ATOM     43  C   UNL A   1      47.305  29.793  27.229  1.00  0.00     0.031 C 
ATOM     44  C   UNL A   1      42.668  28.755  28.884  1.00  0.00     0.029 A 
ATOM     45  N   UNL A   1      43.421  30.848  29.111  1.00  0.00    -0.354 N 
ATOM     46  C   UNL A   1      47.252  32.052  27.590  1.00  0.00     0.074 A 
ATOM     47  C   UNL A   1      48.018  30.904  27.158  1.00  0.00     0.031 C 
ATOM     48  C   UNL A   1      41.699  29.480  29.479  1.00  0.00     0.029 A 
ATOM     49  C   UNL A   1      42.138  30.870  29.628  1.00  0.00     0.049 A 
ATOM     50  H   UNL A   1      44.007  31.639  29.105  1.00  0.00     0.167 HD
ATOM     51  C   UNL A   1      47.712  33.329  27.523  1.00  0.00     0.034 A 
ATOM     52  C   UNL A   1      41.396  31.883  30.143  1.00  0.00     0.034 A 
ATOM     53  C   UNL A   1      46.999  34.475  28.022  1.00  0.00     0.049 A 
ATOM     54  C   UNL A   1      41.971  33.290  30.167  1.00  0.00     0.074 A 
ATOM     55  C   UNL A   1      47.404  35.799  28.063  1.00  0.00     0.029 A 
ATOM     56  N   UNL A   1      45.736  34.430  28.596  1.00  0.00    -0.354 N 
ATOM     57  N   UNL A   1      43.120  33.725  29.700  1.00  0.00    -0.248 NA
ATOM     58  C   UNL A   1      41.142  34.346  30.776  1.00  0.00     0.031 C 
ATOM     59  C   UNL A   1      46.413  36.541  28.716  1.00  0.00     0.029 A 
ATOM     60  C   UNL A   1      45.361  35.694  29.022  1.00  0.00     0.049 A 
ATOM     61  H   UNL A   1      45.187  33.619  28.686  1.00  0.00     0.167 HD
ATOM     62  C   UNL A   1      43.134  35.100  29.934  1.00  0.00     0.074 A 
ATOM     63  C   UNL A   1      41.874  35.431  30.564  1.00  0.00     0.031 C 
ATOM     64  C   UNL A   1      44.102  36.011  29.653  1.00  0.00     0.034 A 
BRANCH  51  65
ATOM     65  C   UNL A   1      49.087  33.511  26.923  1.00  0.00     0.023 A 
ATOM     66  C   UNL A   1      50.244  33.137  27.634  1.00  0.00     0.031 A 
ATOM     67  C   UNL A   1      49.252  34.157  25.687  1.00  0.00     0.131 A 
ATOM     68  C   UNL A   1      51.509  33.498  27.149  1.00  0.00     0.055 A 
ATOM     69  C   UNL A   1      50.518  34.443  25.172  1.00  0.00     0.041 A 
ATOM     70  F   UNL A   1      48.185  34.556  24.976  1.00  0.00    -0.206 F 
ATOM     71  C   UNL A   1      51.655  34.133  25.914  1.00  0.00     0.022 A 
BRANCH  68  72
ATOM     72  S   UNL A   1      52.947  33.282  28.235  1.00  0.00     0.124 S 
ATOM     73  O   UNL A   1      53.886  32.603  27.348  1.00  0.00    -0.237 OA
ATOM     74  O   UNL A   1      53.284  34.656  28.593  1.00  0.00    -0.237 OA
ATOM     75  O   UNL A   1      52.430  32.463  29.329  1.00  0.00    -0.744 OA
ENDBRANCH  68  72
ENDBRANCH  51  65
BRANCH  52  76
ATOM     76  C   UNL A   1      40.022  31.647  30.710  1.00  0.00     0.023 A 
ATOM     77  C   UNL A   1      38.853  31.856  29.952  1.00  0.00     0.031 A 
ATOM     78  C   UNL A   1      39.858  31.314  32.068  1.00  0.00     0.131 A 
ATOM     79  C   UNL A   1      37.585  31.770  30.561  1.00  0.00     0.055 A 
ATOM     80  C   UNL A   1      38.596  31.180  32.656  1.00  0.00     0.041 A 
ATOM     81  F   UNL A   1      40.929  31.125  32.853  1.00  0.00    -0.206 F 
ATOM     82  C   UNL A   1      37.450  31.421  31.905  1.00  0.00     0.022 A 
BRANCH  79  83
ATOM     83  S   UNL A   1      36.107  32.216  29.599  1.00  0.00     0.124 S 
ATOM     84  O   UNL A   1      35.874  31.004  28.825  1.00  0.00    -0.237 OA
ATOM     85  O   UNL A   1      35.136  32.505  30.651  1.00  0.00    -0.237 OA
ATOM     86  O   UNL A   1      36.540  33.378  28.824  1.00  0.00    -0.744 OA
ENDBRANCH  79  83
ENDBRANCH  52  76
BRANCH  64  87
ATOM     87  C   UNL A   1      43.823  37.455  29.995  1.00  0.00     0.023 A 
ATOM     88  C   UNL A   1      44.142  37.991  31.255  1.00  0.00     0.031 A 
ATOM     89  C   UNL A   1      43.248  38.311  29.038  1.00  0.00     0.131 A 
ATOM     90  C   UNL A   1      43.845  39.333  31.540  1.00  0.00     0.055 A 
ATOM     91  C   UNL A   1      43.000  39.657  29.311  1.00  0.00     0.041 A 
ATOM     92  F   UNL A   1      42.928  37.853  27.817  1.00  0.00    -0.206 F 
ATOM     93  C   UNL A   1      43.290  40.174  30.571  1.00  0.00     0.022 A 
BRANCH  90  94
ATOM     94  S   UNL A   1      44.138  39.956  33.219  1.00  0.00     0.124 S 
ATOM     95  O   UNL A   1      45.193  39.068  33.694  1.00  0.00    -0.237 OA
ATOM     96  O   UNL A   1      44.530  41.341  32.975  1.00  0.00    -0.237 OA
ATOM     97  O   UNL A   1      42.844  39.790  33.878  1.00  0.00    -0.744 OA
ENDBRANCH  90  94
ENDBRANCH  64  87
ENDBRANCH  38  39
ENDBRANCH  31  33
ENDBRANCH  30  31
ENDBRANCH  29  30
ENDBRANCH  28  29
ENDBRANCH  27  28
ENDBRANCH  26  27
ENDBRANCH   1  26
TORSDOF 25
ENDMDL
