MODEL 1
REMARK VINA RESULT:      -9.7      0.000      0.000
REMARK SMILES C[C@@H]1[C@@H](C(=O)OCCOCCOCCOC(=O)c2ccc(-c3c4nc(c(-c5cc(S(=O)(=O)[O-])ccc5F)c5ccc([nH]5)c(-c5cc(S(=O)(=O)[O-])ccc5F)c5nc(c(-c6cc(S(=O)(=O)[O-])ccc6F)c6ccc3[nH]6)C=C5)C=C4)cc2)CCN1C(=O)CCCC1CCCCC1
REMARK SMILES IDX 10 1 9 2 8 3 7 4 6 5 4 6 5 7 3 8 1 9 2 10 83 11 81 12 82 13
REMARK SMILES IDX 84 14 85 15 86 16 87 17 88 18 89 19 90 20 94 21 91 22 93 23
REMARK SMILES IDX 92 24 11 25 12 26 13 27 14 28 15 29 16 30 17 31 18 32 19 33
REMARK SMILES IDX 80 34 20 35 79 36 21 37 22 38 23 39 73 40 24 41 78 42 72 43
REMARK SMILES IDX 74 44 25 45 77 46 71 47 70 48 26 50 58 51 38 52 57 53 39 54
REMARK SMILES IDX 42 55 56 56 75 57 40 58 41 59 55 61 76 62 43 63 27 64 28 65
REMARK SMILES IDX 36 66 29 67 35 68 37 69 34 70 30 71 31 72 32 73 33 74 59 75
REMARK SMILES IDX 60 76 68 77 61 78 67 79 69 80 66 81 62 82 63 83 64 84 65 85
REMARK SMILES IDX 44 86 45 87 53 88 46 89 52 90 54 91 51 92 47 93 48 94 49 95
REMARK SMILES IDX 50 96
REMARK H PARENT 74 49 42 60
REMARK Flexibility Score: inf
ROOT
ATOM      1  C   UNL A   1      39.892  22.313  26.680  1.00  0.00     0.188 C 
ENDROOT
BRANCH   1   2
ATOM      2  O   UNL A   1      39.012  21.744  25.740  1.00  0.00    -0.376 OA
BRANCH   2   3
ATOM      3  C   UNL A   1      37.646  22.117  25.698  1.00  0.00     0.202 C 
BRANCH   3   4
ATOM      4  C   UNL A   1      36.964  22.979  24.618  1.00  0.00     0.261 C 
BRANCH   4   5
ATOM      5  O   UNL A   1      35.969  23.929  25.009  1.00  0.00    -0.463 OA
BRANCH   5   6
ATOM      6  C   UNL A   1      34.932  24.039  24.131  1.00  0.00     0.311 C 
ATOM      7  O   UNL A   1      34.659  23.188  23.294  1.00  0.00    -0.252 OA
BRANCH   6   8
ATOM      8  C   UNL A   1      34.172  25.343  24.329  1.00  0.00     0.123 C 
ATOM      9  C   UNL A   1      33.341  26.916  26.157  1.00  0.00     0.032 C 
ATOM     10  C   UNL A   1      33.726  25.482  25.791  1.00  0.00     0.096 C 
ATOM     11  N   UNL A   1      32.595  24.572  25.859  1.00  0.00    -0.339 N 
ATOM     12  C   UNL A   1      32.834  25.281  23.595  1.00  0.00     0.039 C 
ATOM     13  C   UNL A   1      31.930  24.510  24.563  1.00  0.00     0.121 C 
BRANCH  11  14
ATOM     14  C   UNL A   1      32.444  23.532  26.765  1.00  0.00     0.222 C 
ATOM     15  O   UNL A   1      31.346  23.309  27.289  1.00  0.00    -0.275 OA
BRANCH  14  16
ATOM     16  C   UNL A   1      33.673  22.747  27.227  1.00  0.00     0.100 C 
BRANCH  16  17
ATOM     17  C   UNL A   1      34.051  21.401  26.582  1.00  0.00     0.010 C 
BRANCH  17  18
ATOM     18  C   UNL A   1      33.369  20.859  25.306  1.00  0.00     0.004 C 
BRANCH  18  19
ATOM     19  C   UNL A   1      33.399  19.349  24.916  1.00  0.00    -0.011 C 
ATOM     20  C   UNL A   1      32.501  19.110  23.681  1.00  0.00     0.003 C 
ATOM     21  C   UNL A   1      34.775  18.712  24.729  1.00  0.00     0.003 C 
ATOM     22  C   UNL A   1      32.525  17.674  23.157  1.00  0.00     0.000 C 
ATOM     23  C   UNL A   1      34.710  17.255  24.286  1.00  0.00     0.000 C 
ATOM     24  C   UNL A   1      33.939  17.141  22.977  1.00  0.00     0.000 C 
ENDBRANCH  18  19
ENDBRANCH  17  18
ENDBRANCH  16  17
ENDBRANCH  14  16
ENDBRANCH  11  14
ENDBRANCH   6   8
ENDBRANCH   5   6
ENDBRANCH   4   5
ENDBRANCH   3   4
ENDBRANCH   2   3
ENDBRANCH   1   2
BRANCH   1  25
ATOM     25  C   UNL A   1      41.387  22.001  26.460  1.00  0.00     0.188 C 
BRANCH  25  26
ATOM     26  O   UNL A   1      42.037  21.012  27.244  1.00  0.00    -0.376 OA
BRANCH  26  27
ATOM     27  C   UNL A   1      41.819  19.636  26.960  1.00  0.00     0.202 C 
BRANCH  27  28
ATOM     28  C   UNL A   1      42.712  18.835  25.993  1.00  0.00     0.261 C 
BRANCH  28  29
ATOM     29  O   UNL A   1      43.070  19.494  24.771  1.00  0.00    -0.460 OA
BRANCH  29  30
ATOM     30  C   UNL A   1      44.403  19.671  24.590  1.00  0.00     0.338 C 
ATOM     31  O   UNL A   1      45.193  18.872  24.122  1.00  0.00    -0.246 OA
BRANCH  30  32
ATOM     32  C   UNL A   1      44.754  21.077  24.864  1.00  0.00     0.060 A 
ATOM     33  C   UNL A   1      45.272  21.378  26.127  1.00  0.00     0.016 A 
ATOM     34  C   UNL A   1      44.520  22.093  23.934  1.00  0.00     0.016 A 
ATOM     35  C   UNL A   1      45.556  22.699  26.461  1.00  0.00     0.010 A 
ATOM     36  C   UNL A   1      44.794  23.424  24.282  1.00  0.00     0.010 A 
ATOM     37  C   UNL A   1      45.309  23.734  25.552  1.00  0.00    -0.014 A 
BRANCH  37  38
ATOM     38  C   UNL A   1      45.429  25.135  26.025  1.00  0.00     0.031 A 
ATOM     39  C   UNL A   1      46.780  25.792  25.971  1.00  0.00     0.074 A 
ATOM     40  C   UNL A   1      44.351  25.843  26.411  1.00  0.00     0.049 A 
ATOM     41  N   UNL A   1      47.136  26.993  26.342  1.00  0.00    -0.248 NA
ATOM     42  C   UNL A   1      47.870  24.982  25.405  1.00  0.00     0.031 C 
ATOM     43  C   UNL A   1      42.975  25.354  26.404  1.00  0.00     0.029 A 
ATOM     44  N   UNL A   1      44.245  27.133  26.872  1.00  0.00    -0.354 N 
ATOM     45  C   UNL A   1      48.491  27.091  26.046  1.00  0.00     0.074 A 
ATOM     46  C   UNL A   1      48.892  25.819  25.482  1.00  0.00     0.031 C 
ATOM     47  C   UNL A   1      42.161  26.334  26.840  1.00  0.00     0.029 A 
ATOM     48  C   UNL A   1      42.962  27.502  27.207  1.00  0.00     0.049 A 
ATOM     49  H   UNL A   1      45.018  27.740  26.954  1.00  0.00     0.167 HD
ATOM     50  C   UNL A   1      49.326  28.141  26.233  1.00  0.00     0.034 A 
ATOM     51  C   UNL A   1      42.499  28.636  27.776  1.00  0.00     0.034 A 
ATOM     52  C   UNL A   1      48.930  29.382  26.848  1.00  0.00     0.049 A 
ATOM     53  C   UNL A   1      43.483  29.733  28.126  1.00  0.00     0.074 A 
ATOM     54  C   UNL A   1      49.713  30.483  27.152  1.00  0.00     0.029 A 
ATOM     55  N   UNL A   1      47.643  29.682  27.273  1.00  0.00    -0.354 N 
ATOM     56  N   UNL A   1      44.774  29.796  27.888  1.00  0.00    -0.248 NA
ATOM     57  C   UNL A   1      42.948  30.907  28.831  1.00  0.00     0.031 C 
ATOM     58  C   UNL A   1      48.914  31.418  27.819  1.00  0.00     0.029 A 
ATOM     59  C   UNL A   1      47.615  30.937  27.862  1.00  0.00     0.049 A 
ATOM     60  H   UNL A   1      46.863  29.091  27.170  1.00  0.00     0.167 HD
ATOM     61  C   UNL A   1      45.193  31.029  28.385  1.00  0.00     0.074 A 
ATOM     62  C   UNL A   1      44.018  31.682  28.922  1.00  0.00     0.031 C 
ATOM     63  C   UNL A   1      46.436  31.576  28.396  1.00  0.00     0.034 A 
BRANCH  50  64
ATOM     64  C   UNL A   1      50.768  27.940  25.841  1.00  0.00     0.023 A 
ATOM     65  C   UNL A   1      51.188  28.039  24.504  1.00  0.00     0.031 A 
ATOM     66  C   UNL A   1      51.721  27.584  26.811  1.00  0.00     0.131 A 
ATOM     67  C   UNL A   1      52.509  27.715  24.163  1.00  0.00     0.055 A 
ATOM     68  C   UNL A   1      53.053  27.338  26.476  1.00  0.00     0.041 A 
ATOM     69  F   UNL A   1      51.366  27.445  28.098  1.00  0.00    -0.206 F 
ATOM     70  C   UNL A   1      53.450  27.389  25.142  1.00  0.00     0.022 A 
BRANCH  67  71
ATOM     71  S   UNL A   1      52.944  27.582  22.407  1.00  0.00     0.124 S 
ATOM     72  O   UNL A   1      53.377  26.189  22.315  1.00  0.00    -0.237 OA
ATOM     73  O   UNL A   1      51.687  27.905  21.744  1.00  0.00    -0.237 OA
ATOM     74  O   UNL A   1      54.009  28.569  22.241  1.00  0.00    -0.744 OA
ENDBRANCH  67  71
ENDBRANCH  50  64
BRANCH  51  75
ATOM     75  C   UNL A   1      41.055  28.788  28.134  1.00  0.00     0.023 A 
ATOM     76  C   UNL A   1      40.597  28.533  29.437  1.00  0.00     0.031 A 
ATOM     77  C   UNL A   1      40.095  29.082  27.149  1.00  0.00     0.131 A 
ATOM     78  C   UNL A   1      39.218  28.516  29.706  1.00  0.00     0.055 A 
ATOM     79  C   UNL A   1      38.729  29.126  27.435  1.00  0.00     0.041 A 
ATOM     80  F   UNL A   1      40.471  29.319  25.882  1.00  0.00    -0.206 F 
ATOM     81  C   UNL A   1      38.282  28.825  28.716  1.00  0.00     0.022 A 
BRANCH  78  82
ATOM     82  S   UNL A   1      38.655  27.963  31.340  1.00  0.00     0.124 S 
ATOM     83  O   UNL A   1      39.803  28.295  32.176  1.00  0.00    -0.237 OA
ATOM     84  O   UNL A   1      37.459  28.775  31.540  1.00  0.00    -0.237 OA
ATOM     85  O   UNL A   1      38.414  26.534  31.152  1.00  0.00    -0.744 OA
ENDBRANCH  78  82
ENDBRANCH  51  75
BRANCH  63  86
ATOM     86  C   UNL A   1      46.577  32.971  28.958  1.00  0.00     0.023 A 
ATOM     87  C   UNL A   1      46.785  33.205  30.329  1.00  0.00     0.031 A 
ATOM     88  C   UNL A   1      46.507  34.085  28.101  1.00  0.00     0.131 A 
ATOM     89  C   UNL A   1      46.870  34.522  30.808  1.00  0.00     0.055 A 
ATOM     90  C   UNL A   1      46.649  35.389  28.575  1.00  0.00     0.041 A 
ATOM     91  F   UNL A   1      46.311  33.920  26.783  1.00  0.00    -0.206 F 
ATOM     92  C   UNL A   1      46.820  35.614  29.937  1.00  0.00     0.022 A 
BRANCH  89  93
ATOM     93  S   UNL A   1      46.970  34.796  32.599  1.00  0.00     0.124 S 
ATOM     94  O   UNL A   1      46.239  36.050  32.757  1.00  0.00    -0.237 OA
ATOM     95  O   UNL A   1      46.318  33.606  33.135  1.00  0.00    -0.237 OA
ATOM     96  O   UNL A   1      48.407  34.881  32.854  1.00  0.00    -0.744 OA
ENDBRANCH  89  93
ENDBRANCH  63  86
ENDBRANCH  37  38
ENDBRANCH  30  32
ENDBRANCH  29  30
ENDBRANCH  28  29
ENDBRANCH  27  28
ENDBRANCH  26  27
ENDBRANCH  25  26
ENDBRANCH   1  25
TORSDOF 25
ENDMDL
MODEL 2
REMARK VINA RESULT:      -9.6      1.808      2.048
REMARK SMILES C[C@@H]1[C@@H](C(=O)OCCOCCOCCOC(=O)c2ccc(-c3c4nc(c(-c5cc(S(=O)(=O)[O-])ccc5F)c5ccc([nH]5)c(-c5cc(S(=O)(=O)[O-])ccc5F)c5nc(c(-c6cc(S(=O)(=O)[O-])ccc6F)c6ccc3[nH]6)C=C5)C=C4)cc2)CCN1C(=O)CCCC1CCCCC1
REMARK SMILES IDX 10 1 9 2 8 3 7 4 6 5 4 6 5 7 3 8 1 9 2 10 83 11 81 12 82 13
REMARK SMILES IDX 84 14 85 15 86 16 87 17 88 18 89 19 90 20 94 21 91 22 93 23
REMARK SMILES IDX 92 24 11 25 12 26 13 27 14 28 15 29 16 30 17 31 18 32 19 33
REMARK SMILES IDX 80 34 20 35 79 36 21 37 22 38 23 39 73 40 24 41 78 42 72 43
REMARK SMILES IDX 74 44 25 45 77 46 71 47 70 48 26 50 58 51 38 52 57 53 39 54
REMARK SMILES IDX 42 55 56 56 75 57 40 58 41 59 55 61 76 62 43 63 27 64 28 65
REMARK SMILES IDX 36 66 29 67 35 68 37 69 34 70 30 71 31 72 32 73 33 74 59 75
REMARK SMILES IDX 60 76 68 77 61 78 67 79 69 80 66 81 62 82 63 83 64 84 65 85
REMARK SMILES IDX 44 86 45 87 53 88 46 89 52 90 54 91 51 92 47 93 48 94 49 95
REMARK SMILES IDX 50 96
REMARK H PARENT 74 49 42 60
REMARK Flexibility Score: inf
ROOT
ATOM      1  C   UNL A   1      39.875  22.328  26.678  1.00  0.00     0.188 C 
ENDROOT
BRANCH   1   2
ATOM      2  O   UNL A   1      38.968  21.761  25.763  1.00  0.00    -0.376 OA
BRANCH   2   3
ATOM      3  C   UNL A   1      37.615  22.177  25.721  1.00  0.00     0.202 C 
BRANCH   3   4
ATOM      4  C   UNL A   1      36.953  23.032  24.623  1.00  0.00     0.261 C 
BRANCH   4   5
ATOM      5  O   UNL A   1      35.965  23.998  24.992  1.00  0.00    -0.463 OA
BRANCH   5   6
ATOM      6  C   UNL A   1      34.942  24.113  24.098  1.00  0.00     0.311 C 
ATOM      7  O   UNL A   1      34.690  23.274  23.243  1.00  0.00    -0.252 OA
BRANCH   6   8
ATOM      8  C   UNL A   1      34.167  25.408  24.305  1.00  0.00     0.123 C 
ATOM      9  C   UNL A   1      33.383  26.999  26.137  1.00  0.00     0.032 C 
ATOM     10  C   UNL A   1      33.778  25.566  25.781  1.00  0.00     0.096 C 
ATOM     11  N   UNL A   1      32.667  24.638  25.911  1.00  0.00    -0.339 N 
ATOM     12  C   UNL A   1      32.803  25.311  23.627  1.00  0.00     0.039 C 
ATOM     13  C   UNL A   1      31.952  24.541  24.643  1.00  0.00     0.121 C 
BRANCH  11  14
ATOM     14  C   UNL A   1      32.571  23.612  26.840  1.00  0.00     0.222 C 
ATOM     15  O   UNL A   1      31.528  23.441  27.481  1.00  0.00    -0.275 OA
BRANCH  14  16
ATOM     16  C   UNL A   1      33.808  22.777  27.175  1.00  0.00     0.100 C 
BRANCH  16  17
ATOM     17  C   UNL A   1      33.994  21.359  26.605  1.00  0.00     0.010 C 
BRANCH  17  18
ATOM     18  C   UNL A   1      33.427  20.920  25.237  1.00  0.00     0.004 C 
BRANCH  18  19
ATOM     19  C   UNL A   1      33.340  19.424  24.806  1.00  0.00    -0.011 C 
ATOM     20  C   UNL A   1      32.522  19.303  23.500  1.00  0.00     0.003 C 
ATOM     21  C   UNL A   1      34.658  18.658  24.704  1.00  0.00     0.003 C 
ATOM     22  C   UNL A   1      32.447  17.884  22.938  1.00  0.00     0.000 C 
ATOM     23  C   UNL A   1      34.487  17.225  24.213  1.00  0.00     0.000 C 
ATOM     24  C   UNL A   1      33.811  17.217  22.848  1.00  0.00     0.000 C 
ENDBRANCH  18  19
ENDBRANCH  17  18
ENDBRANCH  16  17
ENDBRANCH  14  16
ENDBRANCH  11  14
ENDBRANCH   6   8
ENDBRANCH   5   6
ENDBRANCH   4   5
ENDBRANCH   3   4
ENDBRANCH   2   3
ENDBRANCH   1   2
BRANCH   1  25
ATOM     25  C   UNL A   1      41.362  22.003  26.424  1.00  0.00     0.188 C 
BRANCH  25  26
ATOM     26  O   UNL A   1      42.032  21.038  27.220  1.00  0.00    -0.376 OA
BRANCH  26  27
ATOM     27  C   UNL A   1      41.823  19.654  26.969  1.00  0.00     0.202 C 
BRANCH  27  28
ATOM     28  C   UNL A   1      42.719  18.837  26.018  1.00  0.00     0.261 C 
BRANCH  28  29
ATOM     29  O   UNL A   1      43.074  19.473  24.783  1.00  0.00    -0.460 OA
BRANCH  29  30
ATOM     30  C   UNL A   1      44.408  19.634  24.590  1.00  0.00     0.338 C 
ATOM     31  O   UNL A   1      45.186  18.822  24.125  1.00  0.00    -0.246 OA
BRANCH  30  32
ATOM     32  C   UNL A   1      44.774  21.040  24.845  1.00  0.00     0.060 A 
ATOM     33  C   UNL A   1      45.324  21.346  26.094  1.00  0.00     0.016 A 
ATOM     34  C   UNL A   1      44.527  22.050  23.914  1.00  0.00     0.016 A 
ATOM     35  C   UNL A   1      45.625  22.667  26.412  1.00  0.00     0.010 A 
ATOM     36  C   UNL A   1      44.819  23.382  24.245  1.00  0.00     0.010 A 
ATOM     37  C   UNL A   1      45.364  23.697  25.501  1.00  0.00    -0.014 A 
BRANCH  37  38
ATOM     38  C   UNL A   1      45.505  25.101  25.961  1.00  0.00     0.031 A 
ATOM     39  C   UNL A   1      46.863  25.740  25.891  1.00  0.00     0.074 A 
ATOM     40  C   UNL A   1      44.439  25.825  26.349  1.00  0.00     0.049 A 
ATOM     41  N   UNL A   1      47.238  26.940  26.249  1.00  0.00    -0.248 NA
ATOM     42  C   UNL A   1      47.940  24.912  25.325  1.00  0.00     0.031 C 
ATOM     43  C   UNL A   1      43.057  25.354  26.356  1.00  0.00     0.029 A 
ATOM     44  N   UNL A   1      44.353  27.121  26.799  1.00  0.00    -0.354 N 
ATOM     45  C   UNL A   1      48.591  27.019  25.942  1.00  0.00     0.074 A 
ATOM     46  C   UNL A   1      48.973  25.737  25.387  1.00  0.00     0.031 C 
ATOM     47  C   UNL A   1      42.258  26.347  26.790  1.00  0.00     0.029 A 
ATOM     48  C   UNL A   1      43.076  27.508  27.140  1.00  0.00     0.049 A 
ATOM     49  H   UNL A   1      45.133  27.718  26.870  1.00  0.00     0.167 HD
ATOM     50  C   UNL A   1      49.441  28.060  26.114  1.00  0.00     0.034 A 
ATOM     51  C   UNL A   1      42.632  28.653  27.703  1.00  0.00     0.034 A 
ATOM     52  C   UNL A   1      49.065  29.311  26.721  1.00  0.00     0.049 A 
ATOM     53  C   UNL A   1      43.632  29.741  28.036  1.00  0.00     0.074 A 
ATOM     54  C   UNL A   1      49.863  30.405  27.009  1.00  0.00     0.029 A 
ATOM     55  N   UNL A   1      47.784  29.631  27.152  1.00  0.00    -0.354 N 
ATOM     56  N   UNL A   1      44.921  29.785  27.788  1.00  0.00    -0.248 NA
ATOM     57  C   UNL A   1      43.117  30.927  28.734  1.00  0.00     0.031 C 
ATOM     58  C   UNL A   1      49.081  31.355  27.675  1.00  0.00     0.029 A 
ATOM     59  C   UNL A   1      47.777  30.891  27.731  1.00  0.00     0.049 A 
ATOM     60  H   UNL A   1      46.997  29.049  27.060  1.00  0.00     0.167 HD
ATOM     61  C   UNL A   1      45.359  31.018  28.271  1.00  0.00     0.074 A 
ATOM     62  C   UNL A   1      44.197  31.689  28.811  1.00  0.00     0.031 C 
ATOM     63  C   UNL A   1      46.609  31.549  28.268  1.00  0.00     0.034 A 
BRANCH  50  64
ATOM     64  C   UNL A   1      50.876  27.838  25.713  1.00  0.00     0.023 A 
ATOM     65  C   UNL A   1      51.861  27.500  26.658  1.00  0.00     0.031 A 
ATOM     66  C   UNL A   1      51.276  28.028  24.379  1.00  0.00     0.131 A 
ATOM     67  C   UNL A   1      53.207  27.433  26.268  1.00  0.00     0.055 A 
ATOM     68  C   UNL A   1      52.605  27.884  23.983  1.00  0.00     0.041 A 
ATOM     69  F   UNL A   1      50.381  28.383  23.443  1.00  0.00    -0.206 F 
ATOM     70  C   UNL A   1      53.583  27.598  24.933  1.00  0.00     0.022 A 
BRANCH  67  71
ATOM     71  S   UNL A   1      54.476  27.272  27.554  1.00  0.00     0.124 S 
ATOM     72  O   UNL A   1      54.838  28.669  27.787  1.00  0.00    -0.237 OA
ATOM     73  O   UNL A   1      53.751  26.612  28.633  1.00  0.00    -0.237 OA
ATOM     74  O   UNL A   1      55.513  26.466  26.913  1.00  0.00    -0.744 OA
ENDBRANCH  67  71
ENDBRANCH  50  64
BRANCH  51  75
ATOM     75  C   UNL A   1      41.192  28.825  28.070  1.00  0.00     0.023 A 
ATOM     76  C   UNL A   1      40.743  28.598  29.382  1.00  0.00     0.031 A 
ATOM     77  C   UNL A   1      40.227  29.112  27.088  1.00  0.00     0.131 A 
ATOM     78  C   UNL A   1      39.366  28.600  29.662  1.00  0.00     0.055 A 
ATOM     79  C   UNL A   1      38.864  29.176  27.385  1.00  0.00     0.041 A 
ATOM     80  F   UNL A   1      40.595  29.323  25.814  1.00  0.00    -0.206 F 
ATOM     81  C   UNL A   1      38.425  28.901  28.675  1.00  0.00     0.022 A 
BRANCH  78  82
ATOM     82  S   UNL A   1      38.812  28.080  31.310  1.00  0.00     0.124 S 
ATOM     83  O   UNL A   1      39.999  28.339  32.116  1.00  0.00    -0.237 OA
ATOM     84  O   UNL A   1      37.675  28.965  31.541  1.00  0.00    -0.237 OA
ATOM     85  O   UNL A   1      38.476  26.670  31.128  1.00  0.00    -0.744 OA
ENDBRANCH  78  82
ENDBRANCH  51  75
BRANCH  63  86
ATOM     86  C   UNL A   1      46.772  32.947  28.817  1.00  0.00     0.023 A 
ATOM     87  C   UNL A   1      46.643  34.087  28.003  1.00  0.00     0.031 A 
ATOM     88  C   UNL A   1      47.056  33.139  30.181  1.00  0.00     0.131 A 
ATOM     89  C   UNL A   1      46.844  35.364  28.551  1.00  0.00     0.055 A 
ATOM     90  C   UNL A   1      47.197  34.412  30.732  1.00  0.00     0.041 A 
ATOM     91  F   UNL A   1      47.189  32.086  31.005  1.00  0.00    -0.206 F 
ATOM     92  C   UNL A   1      47.103  35.533  29.914  1.00  0.00     0.022 A 
BRANCH  89  93
ATOM     93  S   UNL A   1      46.837  36.802  27.445  1.00  0.00     0.124 S 
ATOM     94  O   UNL A   1      46.604  36.184  26.143  1.00  0.00    -0.237 OA
ATOM     95  O   UNL A   1      45.739  37.601  27.977  1.00  0.00    -0.237 OA
ATOM     96  O   UNL A   1      48.168  37.381  27.626  1.00  0.00    -0.744 OA
ENDBRANCH  89  93
ENDBRANCH  63  86
ENDBRANCH  37  38
ENDBRANCH  30  32
ENDBRANCH  29  30
ENDBRANCH  28  29
ENDBRANCH  27  28
ENDBRANCH  26  27
ENDBRANCH  25  26
ENDBRANCH   1  25
TORSDOF 25
ENDMDL
MODEL 3
REMARK VINA RESULT:      -9.3      6.954     12.658
REMARK SMILES C[C@@H]1[C@@H](C(=O)OCCOCCOCCOC(=O)c2ccc(-c3c4nc(c(-c5cc(S(=O)(=O)[O-])ccc5F)c5ccc([nH]5)c(-c5cc(S(=O)(=O)[O-])ccc5F)c5nc(c(-c6cc(S(=O)(=O)[O-])ccc6F)c6ccc3[nH]6)C=C5)C=C4)cc2)CCN1C(=O)CCCC1CCCCC1
REMARK SMILES IDX 10 1 9 2 8 3 7 4 6 5 4 6 5 7 3 8 1 9 2 10 83 11 81 12 82 13
REMARK SMILES IDX 84 14 85 15 86 16 87 17 88 18 89 19 90 20 94 21 91 22 93 23
REMARK SMILES IDX 92 24 11 25 12 26 13 27 14 28 15 29 16 30 17 31 18 32 19 33
REMARK SMILES IDX 80 34 20 35 79 36 21 37 22 38 23 39 73 40 24 41 78 42 72 43
REMARK SMILES IDX 74 44 25 45 77 46 71 47 70 48 26 50 58 51 38 52 57 53 39 54
REMARK SMILES IDX 42 55 56 56 75 57 40 58 41 59 55 61 76 62 43 63 27 64 28 65
REMARK SMILES IDX 36 66 29 67 35 68 37 69 34 70 30 71 31 72 32 73 33 74 59 75
REMARK SMILES IDX 60 76 68 77 61 78 67 79 69 80 66 81 62 82 63 83 64 84 65 85
REMARK SMILES IDX 44 86 45 87 53 88 46 89 52 90 54 91 51 92 47 93 48 94 49 95
REMARK SMILES IDX 50 96
REMARK H PARENT 74 49 42 60
REMARK Flexibility Score: inf
ROOT
ATOM      1  C   UNL A   1      34.998  31.493  27.822  1.00  0.00     0.188 C 
ENDROOT
BRANCH   1   2
ATOM      2  O   UNL A   1      33.760  31.295  27.183  1.00  0.00    -0.376 OA
BRANCH   2   3
ATOM      3  C   UNL A   1      33.094  30.046  27.247  1.00  0.00     0.202 C 
BRANCH   3   4
ATOM      4  C   UNL A   1      33.152  28.923  26.195  1.00  0.00     0.261 C 
BRANCH   4   5
ATOM      5  O   UNL A   1      33.444  27.587  26.615  1.00  0.00    -0.463 OA
BRANCH   5   6
ATOM      6  C   UNL A   1      32.506  26.671  26.244  1.00  0.00     0.311 C 
ATOM      7  O   UNL A   1      31.312  26.923  26.149  1.00  0.00    -0.252 OA
BRANCH   6   8
ATOM      8  C   UNL A   1      33.134  25.311  25.969  1.00  0.00     0.123 C 
ATOM      9  C   UNL A   1      35.038  24.213  24.676  1.00  0.00     0.032 C 
ATOM     10  C   UNL A   1      34.070  25.393  24.755  1.00  0.00     0.096 C 
ATOM     11  N   UNL A   1      33.135  25.416  23.643  1.00  0.00    -0.339 N 
ATOM     12  C   UNL A   1      32.067  24.335  25.481  1.00  0.00     0.039 C 
ATOM     13  C   UNL A   1      31.932  24.667  23.991  1.00  0.00     0.121 C 
BRANCH  11  14
ATOM     14  C   UNL A   1      33.085  26.377  22.643  1.00  0.00     0.222 C 
ATOM     15  O   UNL A   1      33.814  26.286  21.648  1.00  0.00    -0.275 OA
BRANCH  14  16
ATOM     16  C   UNL A   1      32.231  27.630  22.841  1.00  0.00     0.100 C 
BRANCH  16  17
ATOM     17  C   UNL A   1      30.823  27.742  22.228  1.00  0.00     0.010 C 
BRANCH  17  18
ATOM     18  C   UNL A   1      29.563  28.060  23.064  1.00  0.00     0.004 C 
BRANCH  18  19
ATOM     19  C   UNL A   1      28.817  29.426  22.970  1.00  0.00    -0.011 C 
ATOM     20  C   UNL A   1      29.569  30.491  23.801  1.00  0.00     0.003 C 
ATOM     21  C   UNL A   1      28.501  29.944  21.568  1.00  0.00     0.003 C 
ATOM     22  C   UNL A   1      28.971  31.894  23.708  1.00  0.00     0.000 C 
ATOM     23  C   UNL A   1      27.831  31.313  21.567  1.00  0.00     0.000 C 
ATOM     24  C   UNL A   1      28.720  32.329  22.272  1.00  0.00     0.000 C 
ENDBRANCH  18  19
ENDBRANCH  17  18
ENDBRANCH  16  17
ENDBRANCH  14  16
ENDBRANCH  11  14
ENDBRANCH   6   8
ENDBRANCH   5   6
ENDBRANCH   4   5
ENDBRANCH   3   4
ENDBRANCH   2   3
ENDBRANCH   1   2
BRANCH   1  25
ATOM     25  C   UNL A   1      35.314  32.951  28.217  1.00  0.00     0.188 C 
BRANCH  25  26
ATOM     26  O   UNL A   1      34.441  34.003  27.837  1.00  0.00    -0.376 OA
BRANCH  26  27
ATOM     27  C   UNL A   1      34.372  35.180  28.633  1.00  0.00     0.202 C 
BRANCH  27  28
ATOM     28  C   UNL A   1      33.047  35.716  29.210  1.00  0.00     0.261 C 
BRANCH  28  29
ATOM     29  O   UNL A   1      32.564  35.068  30.393  1.00  0.00    -0.460 OA
BRANCH  29  30
ATOM     30  C   UNL A   1      32.932  35.661  31.557  1.00  0.00     0.338 C 
ATOM     31  O   UNL A   1      32.370  36.582  32.121  1.00  0.00    -0.246 OA
BRANCH  30  32
ATOM     32  C   UNL A   1      34.030  34.894  32.175  1.00  0.00     0.060 A 
ATOM     33  C   UNL A   1      35.293  35.493  32.209  1.00  0.00     0.016 A 
ATOM     34  C   UNL A   1      33.849  33.594  32.650  1.00  0.00     0.016 A 
ATOM     35  C   UNL A   1      36.379  34.787  32.719  1.00  0.00     0.010 A 
ATOM     36  C   UNL A   1      34.950  32.881  33.149  1.00  0.00     0.010 A 
ATOM     37  C   UNL A   1      36.223  33.473  33.180  1.00  0.00    -0.014 A 
BRANCH  37  38
ATOM     38  C   UNL A   1      37.439  32.693  33.516  1.00  0.00     0.031 A 
ATOM     39  C   UNL A   1      38.175  33.031  34.783  1.00  0.00     0.074 A 
ATOM     40  C   UNL A   1      37.836  31.648  32.766  1.00  0.00     0.049 A 
ATOM     41  N   UNL A   1      39.265  32.507  35.277  1.00  0.00    -0.248 NA
ATOM     42  C   UNL A   1      37.587  34.099  35.606  1.00  0.00     0.031 C 
ATOM     43  C   UNL A   1      37.145  31.153  31.578  1.00  0.00     0.029 A 
ATOM     44  N   UNL A   1      38.912  30.805  32.903  1.00  0.00    -0.354 N 
ATOM     45  C   UNL A   1      39.491  33.171  36.477  1.00  0.00     0.074 A 
ATOM     46  C   UNL A   1      38.433  34.149  36.623  1.00  0.00     0.031 C 
ATOM     47  C   UNL A   1      37.815  30.091  31.094  1.00  0.00     0.029 A 
ATOM     48  C   UNL A   1      39.011  29.861  31.905  1.00  0.00     0.049 A 
ATOM     49  H   UNL A   1      39.554  30.869  33.648  1.00  0.00     0.167 HD
ATOM     50  C   UNL A   1      40.492  32.989  37.372  1.00  0.00     0.034 A 
ATOM     51  C   UNL A   1      39.974  28.946  31.660  1.00  0.00     0.034 A 
ATOM     52  C   UNL A   1      41.571  32.053  37.190  1.00  0.00     0.049 A 
ATOM     53  C   UNL A   1      41.168  28.874  32.590  1.00  0.00     0.074 A 
ATOM     54  C   UNL A   1      42.675  31.840  37.998  1.00  0.00     0.029 A 
ATOM     55  N   UNL A   1      41.696  31.185  36.113  1.00  0.00    -0.354 N 
ATOM     56  N   UNL A   1      41.398  29.544  33.696  1.00  0.00    -0.248 NA
ATOM     57  C   UNL A   1      42.236  27.932  32.229  1.00  0.00     0.031 C 
ATOM     58  C   UNL A   1      43.498  30.895  37.377  1.00  0.00     0.029 A 
ATOM     59  C   UNL A   1      42.871  30.457  36.221  1.00  0.00     0.049 A 
ATOM     60  H   UNL A   1      41.045  31.099  35.380  1.00  0.00     0.167 HD
ATOM     61  C   UNL A   1      42.620  29.075  34.177  1.00  0.00     0.074 A 
ATOM     62  C   UNL A   1      43.070  28.060  33.249  1.00  0.00     0.031 C 
ATOM     63  C   UNL A   1      43.310  29.448  35.286  1.00  0.00     0.034 A 
BRANCH  50  64
ATOM     64  C   UNL A   1      40.494  33.890  38.580  1.00  0.00     0.023 A 
ATOM     65  C   UNL A   1      41.319  35.026  38.649  1.00  0.00     0.031 A 
ATOM     66  C   UNL A   1      39.707  33.573  39.701  1.00  0.00     0.131 A 
ATOM     67  C   UNL A   1      41.391  35.763  39.841  1.00  0.00     0.055 A 
ATOM     68  C   UNL A   1      39.725  34.354  40.856  1.00  0.00     0.041 A 
ATOM     69  F   UNL A   1      38.926  32.481  39.699  1.00  0.00    -0.206 F 
ATOM     70  C   UNL A   1      40.582  35.450  40.936  1.00  0.00     0.022 A 
BRANCH  67  71
ATOM     71  S   UNL A   1      42.663  37.047  39.991  1.00  0.00     0.124 S 
ATOM     72  O   UNL A   1      41.882  38.180  40.486  1.00  0.00    -0.237 OA
ATOM     73  O   UNL A   1      43.600  36.455  40.938  1.00  0.00    -0.237 OA
ATOM     74  O   UNL A   1      43.164  37.195  38.626  1.00  0.00    -0.744 OA
ENDBRANCH  67  71
ENDBRANCH  50  64
BRANCH  51  75
ATOM     75  C   UNL A   1      39.916  28.068  30.451  1.00  0.00     0.023 A 
ATOM     76  C   UNL A   1      40.638  28.381  29.287  1.00  0.00     0.031 A 
ATOM     77  C   UNL A   1      39.049  26.961  30.405  1.00  0.00     0.131 A 
ATOM     78  C   UNL A   1      40.434  27.637  28.113  1.00  0.00     0.055 A 
ATOM     79  C   UNL A   1      38.898  26.186  29.254  1.00  0.00     0.041 A 
ATOM     80  F   UNL A   1      38.321  26.622  31.481  1.00  0.00    -0.206 F 
ATOM     81  C   UNL A   1      39.579  26.533  28.093  1.00  0.00     0.022 A 
BRANCH  78  82
ATOM     82  S   UNL A   1      41.209  28.208  26.575  1.00  0.00     0.124 S 
ATOM     83  O   UNL A   1      41.078  27.032  25.723  1.00  0.00    -0.237 OA
ATOM     84  O   UNL A   1      40.375  29.352  26.221  1.00  0.00    -0.237 OA
ATOM     85  O   UNL A   1      42.574  28.535  26.982  1.00  0.00    -0.744 OA
ENDBRANCH  78  82
ENDBRANCH  51  75
BRANCH  63  86
ATOM     86  C   UNL A   1      44.595  28.713  35.586  1.00  0.00     0.023 A 
ATOM     87  C   UNL A   1      44.620  27.538  36.357  1.00  0.00     0.031 A 
ATOM     88  C   UNL A   1      45.816  29.200  35.084  1.00  0.00     0.131 A 
ATOM     89  C   UNL A   1      45.845  26.915  36.642  1.00  0.00     0.055 A 
ATOM     90  C   UNL A   1      47.024  28.544  35.323  1.00  0.00     0.041 A 
ATOM     91  F   UNL A   1      45.852  30.318  34.340  1.00  0.00    -0.206 F 
ATOM     92  C   UNL A   1      47.045  27.401  36.115  1.00  0.00     0.022 A 
BRANCH  89  93
ATOM     93  S   UNL A   1      45.863  25.498  37.777  1.00  0.00     0.124 S 
ATOM     94  O   UNL A   1      47.282  25.385  38.101  1.00  0.00    -0.237 OA
ATOM     95  O   UNL A   1      44.996  25.954  38.859  1.00  0.00    -0.237 OA
ATOM     96  O   UNL A   1      45.323  24.405  36.970  1.00  0.00    -0.744 OA
ENDBRANCH  89  93
ENDBRANCH  63  86
ENDBRANCH  37  38
ENDBRANCH  30  32
ENDBRANCH  29  30
ENDBRANCH  28  29
ENDBRANCH  27  28
ENDBRANCH  26  27
ENDBRANCH  25  26
ENDBRANCH   1  25
TORSDOF 25
ENDMDL
