MODEL 1
REMARK VINA RESULT:     -10.5      0.000      0.000
REMARK SMILES CC(C)c1cc2c(cc1Cl)C=C(C(=O)OCCOCCOCCOC(=O)c1ccc(-c3c4nc(c(-c5cc(S(=O)(=O)[O-])ccc5F)c5ccc([nH]5)c(-c5cc(S(=O)(=O)[O-])ccc5F)c5nc(c(-c6cc(S(=O)(=O)[O-])ccc6F)c6ccc3[nH]6)C=C5)C=C4)cc1)[C@@H](C(F)(F)F)O2
REMARK SMILES IDX 20 1 19 2 18 3 17 4 16 5 15 6 13 7 14 8 12 9 4 10 5 11 9 12
REMARK SMILES IDX 6 13 8 14 10 15 7 16 95 17 11 18 90 19 2 20 1 21 3 22 91 23
REMARK SMILES IDX 92 24 93 25 94 26 21 27 22 28 23 29 24 30 25 31 26 32 27 33
REMARK SMILES IDX 28 34 89 35 29 36 88 37 30 38 31 39 32 40 82 41 33 42 87 43
REMARK SMILES IDX 81 44 83 45 34 46 86 47 80 48 79 49 35 51 67 52 47 53 66 54
REMARK SMILES IDX 48 55 51 56 65 57 84 58 49 59 50 60 64 62 85 63 52 64 36 65
REMARK SMILES IDX 37 66 45 67 38 68 44 69 46 70 43 71 39 72 40 73 41 74 42 75
REMARK SMILES IDX 68 76 69 77 77 78 70 79 76 80 78 81 75 82 71 83 72 84 73 85
REMARK SMILES IDX 74 86 53 87 54 88 62 89 55 90 61 91 63 92 60 93 56 94 57 95
REMARK SMILES IDX 58 96 59 97
REMARK H PARENT 83 50 51 61
REMARK Flexibility Score: inf
ROOT
ATOM      1  C   UNL A   1      31.563  30.544  26.584  1.00  0.00     0.188 C 
ENDROOT
BRANCH   1   2
ATOM      2  C   UNL A   1      31.439  30.057  25.124  1.00  0.00     0.188 C 
BRANCH   2   3
ATOM      3  O   UNL A   1      31.691  28.677  24.981  1.00  0.00    -0.376 OA
BRANCH   3   4
ATOM      4  C   UNL A   1      31.785  27.848  26.121  1.00  0.00     0.202 C 
BRANCH   4   5
ATOM      5  C   UNL A   1      31.719  26.311  26.057  1.00  0.00     0.261 C 
BRANCH   5   6
ATOM      6  O   UNL A   1      32.963  25.604  26.077  1.00  0.00    -0.460 OA
BRANCH   6   7
ATOM      7  C   UNL A   1      33.431  25.171  24.886  1.00  0.00     0.338 C 
ATOM      8  O   UNL A   1      33.870  25.862  23.982  1.00  0.00    -0.246 OA
BRANCH   7   9
ATOM      9  C   UNL A   1      33.436  23.694  24.886  1.00  0.00     0.087 C 
ATOM     10  C   UNL A   1      34.772  18.842  24.646  1.00  0.00    -0.023 A 
ATOM     11  C   UNL A   1      33.546  19.545  24.613  1.00  0.00     0.052 A 
ATOM     12  C   UNL A   1      35.932  19.578  24.944  1.00  0.00     0.045 A 
ATOM     13  C   UNL A   1      33.487  20.929  24.796  1.00  0.00     0.128 A 
ATOM     14  C   UNL A   1      35.866  20.964  25.152  1.00  0.00     0.032 A 
ATOM     15  Cl  UNL A   1      37.511  18.889  25.001  1.00  0.00    -0.084 Cl
ATOM     16  C   UNL A   1      34.653  21.647  25.037  1.00  0.00     0.019 A 
ATOM     17  O   UNL A   1      32.251  21.499  24.687  1.00  0.00    -0.475 OA
ATOM     18  C   UNL A   1      34.616  23.098  25.088  1.00  0.00     0.027 C 
ATOM     19  C   UNL A   1      32.141  22.949  24.685  1.00  0.00     0.316 C 
BRANCH  10  20
ATOM     20  C   UNL A   1      34.730  17.377  24.225  1.00  0.00     0.014 C 
ATOM     21  C   UNL A   1      34.178  16.525  25.375  1.00  0.00     0.012 C 
ATOM     22  C   UNL A   1      34.022  17.048  22.909  1.00  0.00     0.012 C 
ENDBRANCH  10  20
BRANCH  19  23
ATOM     23  C   UNL A   1      31.413  23.375  23.401  1.00  0.00     0.430 C 
ATOM     24  F   UNL A   1      32.288  23.813  22.462  1.00  0.00    -0.167 F 
ATOM     25  F   UNL A   1      30.737  22.344  22.840  1.00  0.00    -0.167 F 
ATOM     26  F   UNL A   1      30.525  24.370  23.621  1.00  0.00    -0.167 F 
ENDBRANCH  19  23
ENDBRANCH   7   9
ENDBRANCH   6   7
ENDBRANCH   5   6
ENDBRANCH   4   5
ENDBRANCH   3   4
ENDBRANCH   2   3
ENDBRANCH   1   2
BRANCH   1  27
ATOM     27  O   UNL A   1      32.855  30.726  27.157  1.00  0.00    -0.376 OA
BRANCH  27  28
ATOM     28  C   UNL A   1      33.390  32.042  27.251  1.00  0.00     0.202 C 
BRANCH  28  29
ATOM     29  C   UNL A   1      32.463  33.212  27.611  1.00  0.00     0.261 C 
BRANCH  29  30
ATOM     30  O   UNL A   1      33.141  34.421  27.989  1.00  0.00    -0.460 OA
BRANCH  30  31
ATOM     31  C   UNL A   1      33.354  34.580  29.322  1.00  0.00     0.338 C 
ATOM     32  O   UNL A   1      32.609  35.112  30.126  1.00  0.00    -0.246 OA
BRANCH  31  33
ATOM     33  C   UNL A   1      34.555  33.811  29.710  1.00  0.00     0.060 A 
ATOM     34  C   UNL A   1      35.812  34.118  29.186  1.00  0.00     0.016 A 
ATOM     35  C   UNL A   1      34.405  32.759  30.624  1.00  0.00     0.016 A 
ATOM     36  C   UNL A   1      36.926  33.378  29.596  1.00  0.00     0.010 A 
ATOM     37  C   UNL A   1      35.516  32.008  31.017  1.00  0.00     0.010 A 
ATOM     38  C   UNL A   1      36.787  32.324  30.518  1.00  0.00    -0.014 A 
BRANCH  38  39
ATOM     39  C   UNL A   1      37.990  31.663  31.082  1.00  0.00     0.031 A 
ATOM     40  C   UNL A   1      38.521  32.011  32.439  1.00  0.00     0.074 A 
ATOM     41  C   UNL A   1      38.620  30.746  30.324  1.00  0.00     0.049 A 
ATOM     42  N   UNL A   1      39.510  31.461  33.094  1.00  0.00    -0.248 NA
ATOM     43  C   UNL A   1      37.866  33.118  33.153  1.00  0.00     0.031 C 
ATOM     44  C   UNL A   1      38.212  30.366  28.972  1.00  0.00     0.029 A 
ATOM     45  N   UNL A   1      39.729  29.974  30.570  1.00  0.00    -0.354 N 
ATOM     46  C   UNL A   1      39.586  32.132  34.309  1.00  0.00     0.074 A 
ATOM     47  C   UNL A   1      38.572  33.167  34.278  1.00  0.00     0.031 C 
ATOM     48  C   UNL A   1      39.049  29.425  28.512  1.00  0.00     0.029 A 
ATOM     49  C   UNL A   1      40.067  29.149  29.524  1.00  0.00     0.049 A 
ATOM     50  H   UNL A   1      40.232  30.008  31.416  1.00  0.00     0.167 HD
ATOM     51  C   UNL A   1      40.411  31.884  35.354  1.00  0.00     0.034 A 
ATOM     52  C   UNL A   1      41.077  28.265  29.391  1.00  0.00     0.034 A 
ATOM     53  C   UNL A   1      41.423  30.856  35.356  1.00  0.00     0.049 A 
ATOM     54  C   UNL A   1      42.001  28.030  30.559  1.00  0.00     0.074 A 
ATOM     55  C   UNL A   1      42.265  30.490  36.394  1.00  0.00     0.029 A 
ATOM     56  N   UNL A   1      41.745  30.040  34.280  1.00  0.00    -0.354 N 
ATOM     57  N   UNL A   1      41.975  28.579  31.751  1.00  0.00    -0.248 NA
ATOM     58  C   UNL A   1      43.077  27.046  30.379  1.00  0.00     0.031 C 
ATOM     59  C   UNL A   1      43.141  29.511  35.924  1.00  0.00     0.029 A 
ATOM     60  C   UNL A   1      42.797  29.201  34.619  1.00  0.00     0.049 A 
ATOM     61  H   UNL A   1      41.294  30.054  33.406  1.00  0.00     0.167 HD
ATOM     62  C   UNL A   1      43.008  27.984  32.471  1.00  0.00     0.074 A 
ATOM     63  C   UNL A   1      43.627  27.020  31.587  1.00  0.00     0.031 C 
ATOM     64  C   UNL A   1      43.403  28.222  33.746  1.00  0.00     0.034 A 
BRANCH  51  65
ATOM     65  C   UNL A   1      40.256  32.696  36.618  1.00  0.00     0.023 A 
ATOM     66  C   UNL A   1      39.304  32.324  37.588  1.00  0.00     0.031 A 
ATOM     67  C   UNL A   1      40.912  33.930  36.770  1.00  0.00     0.131 A 
ATOM     68  C   UNL A   1      39.006  33.198  38.641  1.00  0.00     0.055 A 
ATOM     69  C   UNL A   1      40.640  34.779  37.844  1.00  0.00     0.041 A 
ATOM     70  F   UNL A   1      41.821  34.334  35.867  1.00  0.00    -0.206 F 
ATOM     71  C   UNL A   1      39.671  34.420  38.776  1.00  0.00     0.022 A 
BRANCH  68  72
ATOM     72  S   UNL A   1      37.686  32.823  39.828  1.00  0.00     0.124 S 
ATOM     73  O   UNL A   1      38.143  31.555  40.393  1.00  0.00    -0.237 OA
ATOM     74  O   UNL A   1      37.753  33.968  40.732  1.00  0.00    -0.237 OA
ATOM     75  O   UNL A   1      36.486  32.740  39.003  1.00  0.00    -0.744 OA
ENDBRANCH  68  72
ENDBRANCH  51  65
BRANCH  52  76
ATOM     76  C   UNL A   1      41.198  27.494  28.119  1.00  0.00     0.023 A 
ATOM     77  C   UNL A   1      40.856  26.130  28.066  1.00  0.00     0.031 A 
ATOM     78  C   UNL A   1      41.764  28.079  26.975  1.00  0.00     0.131 A 
ATOM     79  C   UNL A   1      41.145  25.385  26.916  1.00  0.00     0.055 A 
ATOM     80  C   UNL A   1      41.984  27.348  25.806  1.00  0.00     0.041 A 
ATOM     81  F   UNL A   1      42.124  29.372  26.983  1.00  0.00    -0.206 F 
ATOM     82  C   UNL A   1      41.690  25.988  25.780  1.00  0.00     0.022 A 
BRANCH  79  83
ATOM     83  S   UNL A   1      40.952  23.579  26.907  1.00  0.00     0.124 S 
ATOM     84  O   UNL A   1      41.281  23.232  28.286  1.00  0.00    -0.237 OA
ATOM     85  O   UNL A   1      39.547  23.431  26.536  1.00  0.00    -0.237 OA
ATOM     86  O   UNL A   1      41.909  23.136  25.898  1.00  0.00    -0.744 OA
ENDBRANCH  79  83
ENDBRANCH  52  76
BRANCH  64  87
ATOM     87  C   UNL A   1      44.563  27.435  34.310  1.00  0.00     0.023 A 
ATOM     88  C   UNL A   1      44.335  26.179  34.909  1.00  0.00     0.031 A 
ATOM     89  C   UNL A   1      45.849  27.993  34.412  1.00  0.00     0.131 A 
ATOM     90  C   UNL A   1      45.361  25.550  35.626  1.00  0.00     0.055 A 
ATOM     91  C   UNL A   1      46.883  27.337  35.084  1.00  0.00     0.041 A 
ATOM     92  F   UNL A   1      46.117  29.191  33.869  1.00  0.00    -0.206 F 
ATOM     93  C   UNL A   1      46.635  26.119  35.710  1.00  0.00     0.022 A 
BRANCH  90  94
ATOM     94  S   UNL A   1      45.054  24.023  36.558  1.00  0.00     0.124 S 
ATOM     95  O   UNL A   1      44.615  24.542  37.852  1.00  0.00    -0.237 OA
ATOM     96  O   UNL A   1      44.014  23.380  35.761  1.00  0.00    -0.237 OA
ATOM     97  O   UNL A   1      46.348  23.349  36.567  1.00  0.00    -0.744 OA
ENDBRANCH  90  94
ENDBRANCH  64  87
ENDBRANCH  38  39
ENDBRANCH  31  33
ENDBRANCH  30  31
ENDBRANCH  29  30
ENDBRANCH  28  29
ENDBRANCH  27  28
ENDBRANCH   1  27
TORSDOF 22
ENDMDL
MODEL 2
REMARK VINA RESULT:      -9.9      2.195      2.499
REMARK SMILES CC(C)c1cc2c(cc1Cl)C=C(C(=O)OCCOCCOCCOC(=O)c1ccc(-c3c4nc(c(-c5cc(S(=O)(=O)[O-])ccc5F)c5ccc([nH]5)c(-c5cc(S(=O)(=O)[O-])ccc5F)c5nc(c(-c6cc(S(=O)(=O)[O-])ccc6F)c6ccc3[nH]6)C=C5)C=C4)cc1)[C@@H](C(F)(F)F)O2
REMARK SMILES IDX 20 1 19 2 18 3 17 4 16 5 15 6 13 7 14 8 12 9 4 10 5 11 9 12
REMARK SMILES IDX 6 13 8 14 10 15 7 16 95 17 11 18 90 19 2 20 1 21 3 22 91 23
REMARK SMILES IDX 92 24 93 25 94 26 21 27 22 28 23 29 24 30 25 31 26 32 27 33
REMARK SMILES IDX 28 34 89 35 29 36 88 37 30 38 31 39 32 40 82 41 33 42 87 43
REMARK SMILES IDX 81 44 83 45 34 46 86 47 80 48 79 49 35 51 67 52 47 53 66 54
REMARK SMILES IDX 48 55 51 56 65 57 84 58 49 59 50 60 64 62 85 63 52 64 36 65
REMARK SMILES IDX 37 66 45 67 38 68 44 69 46 70 43 71 39 72 40 73 41 74 42 75
REMARK SMILES IDX 68 76 69 77 77 78 70 79 76 80 78 81 75 82 71 83 72 84 73 85
REMARK SMILES IDX 74 86 53 87 54 88 62 89 55 90 61 91 63 92 60 93 56 94 57 95
REMARK SMILES IDX 58 96 59 97
REMARK H PARENT 83 50 51 61
REMARK Flexibility Score: inf
ROOT
ATOM      1  C   UNL A   1      31.766  30.408  26.307  1.00  0.00     0.188 C 
ENDROOT
BRANCH   1   2
ATOM      2  C   UNL A   1      31.923  29.770  24.910  1.00  0.00     0.188 C 
BRANCH   2   3
ATOM      3  O   UNL A   1      31.783  28.367  24.926  1.00  0.00    -0.376 OA
BRANCH   3   4
ATOM      4  C   UNL A   1      31.384  27.705  26.110  1.00  0.00     0.202 C 
BRANCH   4   5
ATOM      5  C   UNL A   1      30.898  26.245  26.139  1.00  0.00     0.261 C 
BRANCH   5   6
ATOM      6  O   UNL A   1      31.760  25.282  26.753  1.00  0.00    -0.460 OA
BRANCH   6   7
ATOM      7  C   UNL A   1      32.883  24.957  26.075  1.00  0.00     0.338 C 
ATOM      8  O   UNL A   1      33.957  25.532  26.129  1.00  0.00    -0.246 OA
BRANCH   7   9
ATOM      9  C   UNL A   1      32.643  23.706  25.330  1.00  0.00     0.087 C 
ATOM     10  C   UNL A   1      32.520  18.902  23.816  1.00  0.00    -0.023 A 
ATOM     11  C   UNL A   1      32.253  20.150  23.207  1.00  0.00     0.052 A 
ATOM     12  C   UNL A   1      32.754  18.894  25.201  1.00  0.00     0.045 A 
ATOM     13  C   UNL A   1      32.291  21.344  23.932  1.00  0.00     0.128 A 
ATOM     14  C   UNL A   1      32.765  20.093  25.931  1.00  0.00     0.032 A 
ATOM     15  Cl  UNL A   1      33.118  17.469  26.100  1.00  0.00    -0.084 Cl
ATOM     16  C   UNL A   1      32.576  21.320  25.292  1.00  0.00     0.019 A 
ATOM     17  O   UNL A   1      32.070  22.488  23.219  1.00  0.00    -0.475 OA
ATOM     18  C   UNL A   1      32.754  22.564  26.020  1.00  0.00     0.027 C 
ATOM     19  C   UNL A   1      32.273  23.773  23.870  1.00  0.00     0.316 C 
BRANCH  10  20
ATOM     20  C   UNL A   1      32.656  17.703  22.883  1.00  0.00     0.014 C 
ATOM     21  C   UNL A   1      32.153  18.078  21.483  1.00  0.00     0.012 C 
ATOM     22  C   UNL A   1      34.027  17.027  22.809  1.00  0.00     0.012 C 
ENDBRANCH  10  20
BRANCH  19  23
ATOM     23  C   UNL A   1      33.288  24.575  23.044  1.00  0.00     0.430 C 
ATOM     24  F   UNL A   1      33.183  24.290  21.722  1.00  0.00    -0.167 F 
ATOM     25  F   UNL A   1      33.090  25.910  23.162  1.00  0.00    -0.167 F 
ATOM     26  F   UNL A   1      34.564  24.322  23.411  1.00  0.00    -0.167 F 
ENDBRANCH  19  23
ENDBRANCH   7   9
ENDBRANCH   6   7
ENDBRANCH   5   6
ENDBRANCH   4   5
ENDBRANCH   3   4
ENDBRANCH   2   3
ENDBRANCH   1   2
BRANCH   1  27
ATOM     27  O   UNL A   1      32.919  30.621  27.117  1.00  0.00    -0.376 OA
BRANCH  27  28
ATOM     28  C   UNL A   1      33.428  31.943  27.261  1.00  0.00     0.202 C 
BRANCH  28  29
ATOM     29  C   UNL A   1      32.453  33.108  27.487  1.00  0.00     0.261 C 
BRANCH  29  30
ATOM     30  O   UNL A   1      33.079  34.362  27.802  1.00  0.00    -0.460 OA
BRANCH  30  31
ATOM     31  C   UNL A   1      33.323  34.578  29.122  1.00  0.00     0.338 C 
ATOM     32  O   UNL A   1      32.595  35.143  29.920  1.00  0.00    -0.246 OA
BRANCH  31  33
ATOM     33  C   UNL A   1      34.535  33.829  29.515  1.00  0.00     0.060 A 
ATOM     34  C   UNL A   1      35.785  34.142  28.979  1.00  0.00     0.016 A 
ATOM     35  C   UNL A   1      34.403  32.789  30.447  1.00  0.00     0.016 A 
ATOM     36  C   UNL A   1      36.909  33.420  29.393  1.00  0.00     0.010 A 
ATOM     37  C   UNL A   1      35.524  32.058  30.844  1.00  0.00     0.010 A 
ATOM     38  C   UNL A   1      36.788  32.379  30.332  1.00  0.00    -0.014 A 
BRANCH  38  39
ATOM     39  C   UNL A   1      38.002  31.741  30.899  1.00  0.00     0.031 A 
ATOM     40  C   UNL A   1      38.565  32.151  32.225  1.00  0.00     0.074 A 
ATOM     41  C   UNL A   1      38.611  30.786  30.171  1.00  0.00     0.049 A 
ATOM     42  N   UNL A   1      39.568  31.628  32.883  1.00  0.00    -0.248 NA
ATOM     43  C   UNL A   1      37.932  33.293  32.900  1.00  0.00     0.031 C 
ATOM     44  C   UNL A   1      38.170  30.344  28.849  1.00  0.00     0.029 A 
ATOM     45  N   UNL A   1      39.723  30.022  30.428  1.00  0.00    -0.354 N 
ATOM     46  C   UNL A   1      39.675  32.356  34.062  1.00  0.00     0.074 A 
ATOM     47  C   UNL A   1      38.664  33.392  34.005  1.00  0.00     0.031 C 
ATOM     48  C   UNL A   1      38.993  29.378  28.415  1.00  0.00     0.029 A 
ATOM     49  C   UNL A   1      40.034  29.146  29.415  1.00  0.00     0.049 A 
ATOM     50  H   UNL A   1      40.245  30.094  31.259  1.00  0.00     0.167 HD
ATOM     51  C   UNL A   1      40.524  32.155  35.099  1.00  0.00     0.034 A 
ATOM     52  C   UNL A   1      41.038  28.252  29.300  1.00  0.00     0.034 A 
ATOM     53  C   UNL A   1      41.532  31.123  35.126  1.00  0.00     0.049 A 
ATOM     54  C   UNL A   1      41.987  28.070  30.457  1.00  0.00     0.074 A 
ATOM     55  C   UNL A   1      42.397  30.804  36.160  1.00  0.00     0.029 A 
ATOM     56  N   UNL A   1      41.826  30.255  34.083  1.00  0.00    -0.354 N 
ATOM     57  N   UNL A   1      41.991  28.674  31.622  1.00  0.00    -0.248 NA
ATOM     58  C   UNL A   1      43.056  27.073  30.299  1.00  0.00     0.031 C 
ATOM     59  C   UNL A   1      43.258  29.799  35.717  1.00  0.00     0.029 A 
ATOM     60  C   UNL A   1      42.882  29.429  34.437  1.00  0.00     0.049 A 
ATOM     61  H   UNL A   1      41.354  30.230  33.220  1.00  0.00     0.167 HD
ATOM     62  C   UNL A   1      43.039  28.110  32.345  1.00  0.00     0.074 A 
ATOM     63  C   UNL A   1      43.634  27.102  31.493  1.00  0.00     0.031 C 
ATOM     64  C   UNL A   1      43.465  28.407  33.598  1.00  0.00     0.034 A 
BRANCH  51  65
ATOM     65  C   UNL A   1      40.400  33.026  36.325  1.00  0.00     0.023 A 
ATOM     66  C   UNL A   1      41.309  34.081  36.540  1.00  0.00     0.031 A 
ATOM     67  C   UNL A   1      39.509  32.695  37.361  1.00  0.00     0.131 A 
ATOM     68  C   UNL A   1      41.333  34.737  37.778  1.00  0.00     0.055 A 
ATOM     69  C   UNL A   1      39.511  33.379  38.578  1.00  0.00     0.041 A 
ATOM     70  F   UNL A   1      38.630  31.691  37.208  1.00  0.00    -0.206 F 
ATOM     71  C   UNL A   1      40.437  34.394  38.795  1.00  0.00     0.022 A 
BRANCH  68  72
ATOM     72  S   UNL A   1      42.582  36.000  38.148  1.00  0.00     0.124 S 
ATOM     73  O   UNL A   1      42.880  36.525  36.816  1.00  0.00    -0.237 OA
ATOM     74  O   UNL A   1      41.848  36.908  39.025  1.00  0.00    -0.237 OA
ATOM     75  O   UNL A   1      43.664  35.251  38.776  1.00  0.00    -0.744 OA
ENDBRANCH  68  72
ENDBRANCH  51  65
BRANCH  52  76
ATOM     76  C   UNL A   1      41.126  27.421  28.065  1.00  0.00     0.023 A 
ATOM     77  C   UNL A   1      40.772  26.060  28.083  1.00  0.00     0.031 A 
ATOM     78  C   UNL A   1      41.674  27.947  26.883  1.00  0.00     0.131 A 
ATOM     79  C   UNL A   1      41.031  25.258  26.964  1.00  0.00     0.055 A 
ATOM     80  C   UNL A   1      41.864  27.159  25.746  1.00  0.00     0.041 A 
ATOM     81  F   UNL A   1      42.043  29.235  26.823  1.00  0.00    -0.206 F 
ATOM     82  C   UNL A   1      41.558  25.803  25.789  1.00  0.00     0.022 A 
BRANCH  79  83
ATOM     83  S   UNL A   1      40.824  23.456  27.045  1.00  0.00     0.124 S 
ATOM     84  O   UNL A   1      41.327  23.152  28.380  1.00  0.00    -0.237 OA
ATOM     85  O   UNL A   1      39.381  23.314  26.865  1.00  0.00    -0.237 OA
ATOM     86  O   UNL A   1      41.637  22.967  25.936  1.00  0.00    -0.744 OA
ENDBRANCH  79  83
ENDBRANCH  52  76
BRANCH  64  87
ATOM     87  C   UNL A   1      44.635  27.642  34.172  1.00  0.00     0.023 A 
ATOM     88  C   UNL A   1      45.952  28.064  33.900  1.00  0.00     0.031 A 
ATOM     89  C   UNL A   1      44.456  26.414  34.831  1.00  0.00     0.131 A 
ATOM     90  C   UNL A   1      47.034  27.241  34.239  1.00  0.00     0.055 A 
ATOM     91  C   UNL A   1      45.540  25.621  35.212  1.00  0.00     0.041 A 
ATOM     92  F   UNL A   1      43.222  25.960  35.104  1.00  0.00    -0.206 F 
ATOM     93  C   UNL A   1      46.835  26.025  34.900  1.00  0.00     0.022 A 
BRANCH  90  94
ATOM     94  S   UNL A   1      48.728  27.668  33.746  1.00  0.00     0.124 S 
ATOM     95  O   UNL A   1      49.369  27.901  35.039  1.00  0.00    -0.237 OA
ATOM     96  O   UNL A   1      49.158  26.462  33.046  1.00  0.00    -0.237 OA
ATOM     97  O   UNL A   1      48.563  28.855  32.913  1.00  0.00    -0.744 OA
ENDBRANCH  90  94
ENDBRANCH  64  87
ENDBRANCH  38  39
ENDBRANCH  31  33
ENDBRANCH  30  31
ENDBRANCH  29  30
ENDBRANCH  28  29
ENDBRANCH  27  28
ENDBRANCH   1  27
TORSDOF 22
ENDMDL
MODEL 3
REMARK VINA RESULT:      -9.7      3.879      9.300
REMARK SMILES CC(C)c1cc2c(cc1Cl)C=C(C(=O)OCCOCCOCCOC(=O)c1ccc(-c3c4nc(c(-c5cc(S(=O)(=O)[O-])ccc5F)c5ccc([nH]5)c(-c5cc(S(=O)(=O)[O-])ccc5F)c5nc(c(-c6cc(S(=O)(=O)[O-])ccc6F)c6ccc3[nH]6)C=C5)C=C4)cc1)[C@@H](C(F)(F)F)O2
REMARK SMILES IDX 20 1 19 2 18 3 17 4 16 5 15 6 13 7 14 8 12 9 4 10 5 11 9 12
REMARK SMILES IDX 6 13 8 14 10 15 7 16 95 17 11 18 90 19 2 20 1 21 3 22 91 23
REMARK SMILES IDX 92 24 93 25 94 26 21 27 22 28 23 29 24 30 25 31 26 32 27 33
REMARK SMILES IDX 28 34 89 35 29 36 88 37 30 38 31 39 32 40 82 41 33 42 87 43
REMARK SMILES IDX 81 44 83 45 34 46 86 47 80 48 79 49 35 51 67 52 47 53 66 54
REMARK SMILES IDX 48 55 51 56 65 57 84 58 49 59 50 60 64 62 85 63 52 64 36 65
REMARK SMILES IDX 37 66 45 67 38 68 44 69 46 70 43 71 39 72 40 73 41 74 42 75
REMARK SMILES IDX 68 76 69 77 77 78 70 79 76 80 78 81 75 82 71 83 72 84 73 85
REMARK SMILES IDX 74 86 53 87 54 88 62 89 55 90 61 91 63 92 60 93 56 94 57 95
REMARK SMILES IDX 58 96 59 97
REMARK H PARENT 83 50 51 61
REMARK Flexibility Score: inf
ROOT
ATOM      1  C   UNL A   1      36.440  33.226  29.808  1.00  0.00     0.188 C 
ENDROOT
BRANCH   1   2
ATOM      2  C   UNL A   1      35.226  32.624  29.068  1.00  0.00     0.188 C 
BRANCH   2   3
ATOM      3  O   UNL A   1      35.550  32.136  27.785  1.00  0.00    -0.376 OA
BRANCH   3   4
ATOM      4  C   UNL A   1      35.302  30.785  27.454  1.00  0.00     0.202 C 
BRANCH   4   5
ATOM      5  C   UNL A   1      33.887  30.188  27.343  1.00  0.00     0.261 C 
BRANCH   5   6
ATOM      6  O   UNL A   1      33.631  29.317  26.237  1.00  0.00    -0.460 OA
BRANCH   6   7
ATOM      7  C   UNL A   1      32.334  29.118  25.912  1.00  0.00     0.338 C 
ATOM      8  O   UNL A   1      31.461  29.967  25.853  1.00  0.00    -0.246 OA
BRANCH   7   9
ATOM      9  C   UNL A   1      32.154  27.707  25.519  1.00  0.00     0.087 C 
ATOM     10  C   UNL A   1      32.797  22.784  24.658  1.00  0.00    -0.023 A 
ATOM     11  C   UNL A   1      31.868  23.761  24.232  1.00  0.00     0.052 A 
ATOM     12  C   UNL A   1      33.712  23.154  25.659  1.00  0.00     0.045 A 
ATOM     13  C   UNL A   1      31.897  25.068  24.727  1.00  0.00     0.128 A 
ATOM     14  C   UNL A   1      33.721  24.460  26.173  1.00  0.00     0.032 A 
ATOM     15  Cl  UNL A   1      34.927  22.099  26.278  1.00  0.00    -0.084 Cl
ATOM     16  C   UNL A   1      32.844  25.428  25.679  1.00  0.00     0.019 A 
ATOM     17  O   UNL A   1      30.983  25.933  24.197  1.00  0.00    -0.475 OA
ATOM     18  C   UNL A   1      32.968  26.814  26.093  1.00  0.00     0.027 C 
ATOM     19  C   UNL A   1      31.074  27.345  24.531  1.00  0.00     0.316 C 
BRANCH  10  20
ATOM     20  C   UNL A   1      32.798  21.465  23.893  1.00  0.00     0.014 C 
ATOM     21  C   UNL A   1      32.227  20.353  24.781  1.00  0.00     0.012 C 
ATOM     22  C   UNL A   1      32.139  21.457  22.512  1.00  0.00     0.012 C 
ENDBRANCH  10  20
BRANCH  19  23
ATOM     23  C   UNL A   1      31.184  28.143  23.224  1.00  0.00     0.430 C 
ATOM     24  F   UNL A   1      30.369  29.227  23.238  1.00  0.00    -0.167 F 
ATOM     25  F   UNL A   1      32.439  28.614  23.026  1.00  0.00    -0.167 F 
ATOM     26  F   UNL A   1      30.854  27.405  22.142  1.00  0.00    -0.167 F 
ENDBRANCH  19  23
ENDBRANCH   7   9
ENDBRANCH   6   7
ENDBRANCH   5   6
ENDBRANCH   4   5
ENDBRANCH   3   4
ENDBRANCH   2   3
ENDBRANCH   1   2
BRANCH   1  27
ATOM     27  O   UNL A   1      36.231  34.020  30.973  1.00  0.00    -0.376 OA
BRANCH  27  28
ATOM     28  C   UNL A   1      36.802  33.599  32.208  1.00  0.00     0.202 C 
BRANCH  28  29
ATOM     29  C   UNL A   1      36.139  32.462  32.999  1.00  0.00     0.261 C 
BRANCH  29  30
ATOM     30  O   UNL A   1      37.021  31.387  33.360  1.00  0.00    -0.460 OA
BRANCH  30  31
ATOM     31  C   UNL A   1      36.999  30.311  32.531  1.00  0.00     0.338 C 
ATOM     32  O   UNL A   1      36.071  29.941  31.832  1.00  0.00    -0.246 OA
BRANCH  31  33
ATOM     33  C   UNL A   1      38.365  29.754  32.432  1.00  0.00     0.060 A 
ATOM     34  C   UNL A   1      39.484  30.586  32.368  1.00  0.00     0.016 A 
ATOM     35  C   UNL A   1      38.515  28.360  32.405  1.00  0.00     0.016 A 
ATOM     36  C   UNL A   1      40.759  30.017  32.295  1.00  0.00     0.010 A 
ATOM     37  C   UNL A   1      39.788  27.794  32.312  1.00  0.00     0.010 A 
ATOM     38  C   UNL A   1      40.921  28.618  32.274  1.00  0.00    -0.014 A 
BRANCH  38  39
ATOM     39  C   UNL A   1      42.276  28.023  32.378  1.00  0.00     0.031 A 
ATOM     40  C   UNL A   1      43.074  27.655  31.165  1.00  0.00     0.074 A 
ATOM     41  C   UNL A   1      42.771  27.793  33.609  1.00  0.00     0.049 A 
ATOM     42  N   UNL A   1      44.300  27.206  31.100  1.00  0.00    -0.248 NA
ATOM     43  C   UNL A   1      42.416  27.804  29.858  1.00  0.00     0.031 C 
ATOM     44  C   UNL A   1      42.059  28.073  34.855  1.00  0.00     0.029 A 
ATOM     45  N   UNL A   1      43.974  27.274  34.018  1.00  0.00    -0.354 N 
ATOM     46  C   UNL A   1      44.577  27.040  29.748  1.00  0.00     0.074 A 
ATOM     47  C   UNL A   1      43.369  27.390  29.029  1.00  0.00     0.031 C 
ATOM     48  C   UNL A   1      42.841  27.736  35.890  1.00  0.00     0.029 A 
ATOM     49  C   UNL A   1      44.102  27.194  35.385  1.00  0.00     0.049 A 
ATOM     50  H   UNL A   1      44.679  26.988  33.393  1.00  0.00     0.167 HD
ATOM     51  C   UNL A   1      45.741  26.655  29.171  1.00  0.00     0.034 A 
ATOM     52  C   UNL A   1      45.117  26.742  36.150  1.00  0.00     0.034 A 
ATOM     53  C   UNL A   1      46.927  26.297  29.910  1.00  0.00     0.049 A 
ATOM     54  C   UNL A   1      46.390  26.290  35.481  1.00  0.00     0.074 A 
ATOM     55  C   UNL A   1      48.172  25.954  29.409  1.00  0.00     0.029 A 
ATOM     56  N   UNL A   1      47.023  26.221  31.293  1.00  0.00    -0.354 N 
ATOM     57  N   UNL A   1      46.683  26.267  34.202  1.00  0.00    -0.248 NA
ATOM     58  C   UNL A   1      47.478  25.822  36.351  1.00  0.00     0.031 C 
ATOM     59  C   UNL A   1      48.994  25.600  30.479  1.00  0.00     0.029 A 
ATOM     60  C   UNL A   1      48.294  25.800  31.657  1.00  0.00     0.049 A 
ATOM     61  H   UNL A   1      46.297  26.435  31.921  1.00  0.00     0.167 HD
ATOM     62  C   UNL A   1      47.997  25.813  34.117  1.00  0.00     0.074 A 
ATOM     63  C   UNL A   1      48.448  25.593  35.475  1.00  0.00     0.031 C 
ATOM     64  C   UNL A   1      48.754  25.599  33.012  1.00  0.00     0.034 A 
BRANCH  51  65
ATOM     65  C   UNL A   1      45.836  26.626  27.665  1.00  0.00     0.023 A 
ATOM     66  C   UNL A   1      45.748  25.403  26.970  1.00  0.00     0.031 A 
ATOM     67  C   UNL A   1      46.198  27.777  26.941  1.00  0.00     0.131 A 
ATOM     68  C   UNL A   1      46.062  25.354  25.606  1.00  0.00     0.055 A 
ATOM     69  C   UNL A   1      46.471  27.728  25.573  1.00  0.00     0.041 A 
ATOM     70  F   UNL A   1      46.304  28.964  27.559  1.00  0.00    -0.206 F 
ATOM     71  C   UNL A   1      46.419  26.509  24.904  1.00  0.00     0.022 A 
BRANCH  68  72
ATOM     72  S   UNL A   1      46.104  23.777  24.708  1.00  0.00     0.124 S 
ATOM     73  O   UNL A   1      44.736  23.685  24.203  1.00  0.00    -0.237 OA
ATOM     74  O   UNL A   1      47.126  24.029  23.696  1.00  0.00    -0.237 OA
ATOM     75  O   UNL A   1      46.455  22.800  25.732  1.00  0.00    -0.744 OA
ENDBRANCH  68  72
ENDBRANCH  51  65
BRANCH  52  76
ATOM     76  C   UNL A   1      44.973  26.778  37.635  1.00  0.00     0.023 A 
ATOM     77  C   UNL A   1      45.229  27.958  38.357  1.00  0.00     0.031 A 
ATOM     78  C   UNL A   1      44.690  25.608  38.358  1.00  0.00     0.131 A 
ATOM     79  C   UNL A   1      45.263  27.924  39.756  1.00  0.00     0.055 A 
ATOM     80  C   UNL A   1      44.654  25.596  39.754  1.00  0.00     0.041 A 
ATOM     81  F   UNL A   1      44.456  24.455  37.714  1.00  0.00    -0.206 F 
ATOM     82  C   UNL A   1      44.959  26.755  40.460  1.00  0.00     0.022 A 
BRANCH  79  83
ATOM     83  S   UNL A   1      45.839  29.359  40.707  1.00  0.00     0.124 S 
ATOM     84  O   UNL A   1      46.737  28.741  41.676  1.00  0.00    -0.237 OA
ATOM     85  O   UNL A   1      46.484  30.164  39.671  1.00  0.00    -0.237 OA
ATOM     86  O   UNL A   1      44.611  29.926  41.255  1.00  0.00    -0.744 OA
ENDBRANCH  79  83
ENDBRANCH  52  76
BRANCH  64  87
ATOM     87  C   UNL A   1      50.171  25.104  33.182  1.00  0.00     0.023 A 
ATOM     88  C   UNL A   1      50.438  23.720  33.170  1.00  0.00     0.031 A 
ATOM     89  C   UNL A   1      51.218  25.977  33.525  1.00  0.00     0.131 A 
ATOM     90  C   UNL A   1      51.703  23.248  33.547  1.00  0.00     0.055 A 
ATOM     91  C   UNL A   1      52.491  25.504  33.850  1.00  0.00     0.041 A 
ATOM     92  F   UNL A   1      51.014  27.303  33.562  1.00  0.00    -0.206 F 
ATOM     93  C   UNL A   1      52.732  24.134  33.879  1.00  0.00     0.022 A 
BRANCH  90  94
ATOM     94  S   UNL A   1      52.029  21.471  33.716  1.00  0.00     0.124 S 
ATOM     95  O   UNL A   1      50.985  20.891  32.873  1.00  0.00    -0.237 OA
ATOM     96  O   UNL A   1      53.387  21.356  33.193  1.00  0.00    -0.237 OA
ATOM     97  O   UNL A   1      51.881  21.220  35.145  1.00  0.00    -0.744 OA
ENDBRANCH  90  94
ENDBRANCH  64  87
ENDBRANCH  38  39
ENDBRANCH  31  33
ENDBRANCH  30  31
ENDBRANCH  29  30
ENDBRANCH  28  29
ENDBRANCH  27  28
ENDBRANCH   1  27
TORSDOF 22
ENDMDL
