MODEL 1
REMARK VINA RESULT:     -10.5      0.000      0.000
REMARK SMILES Cc1nc(SCc2ccccc2)[nH]c(=O)c1CCC(=O)OCCOCCOCCOC(=O)c1ccc(-c2c3nc(c(-c4cc(S(=O)(=O)[O-])ccc4F)c4ccc([nH]4)c(-c4cc(S(=O)(=O)[O-])ccc4F)c4nc(c(-c5cc(S(=O)(=O)[O-])ccc5F)c5ccc2[nH]5)C=C4)C=C3)cc1
REMARK SMILES IDX 25 1 24 2 23 3 22 4 21 5 19 6 20 7 18 8 17 9 16 10 1 11 2 12
REMARK SMILES IDX 3 13 4 14 14 15 13 16 15 17 5 19 6 20 7 21 8 22 12 23 9 24
REMARK SMILES IDX 11 25 10 26 26 27 27 28 28 29 29 30 30 31 31 32 32 33 33 34
REMARK SMILES IDX 34 35 95 36 35 37 94 38 36 39 37 40 38 41 88 42 39 43 93 44
REMARK SMILES IDX 87 45 89 46 40 47 92 48 86 49 85 50 41 52 73 53 53 54 72 55
REMARK SMILES IDX 54 56 57 57 71 58 90 59 55 60 56 61 70 63 91 64 58 65 42 66
REMARK SMILES IDX 43 67 51 68 44 69 50 70 52 71 49 72 45 73 46 74 47 75 48 76
REMARK SMILES IDX 74 77 75 78 83 79 76 80 82 81 84 82 81 83 77 84 78 85 79 86
REMARK SMILES IDX 80 87 59 88 60 89 68 90 61 91 67 92 69 93 66 94 62 95 63 96
REMARK SMILES IDX 64 97 65 98
REMARK H PARENT 13 18 89 51 57 62
REMARK Flexibility Score: inf
ROOT
ATOM      1  C   UNL A   1      29.805  28.374  23.564  1.00  0.00     0.188 C 
ENDROOT
BRANCH   1   2
ATOM      2  O   UNL A   1      29.816  27.486  22.458  1.00  0.00    -0.376 OA
BRANCH   2   3
ATOM      3  C   UNL A   1      30.939  26.605  22.451  1.00  0.00     0.202 C 
BRANCH   3   4
ATOM      4  C   UNL A   1      32.307  27.278  22.174  1.00  0.00     0.261 C 
BRANCH   4   5
ATOM      5  O   UNL A   1      33.389  26.850  23.039  1.00  0.00    -0.463 OA
BRANCH   5   6
ATOM      6  C   UNL A   1      33.665  27.599  24.134  1.00  0.00     0.306 C 
ATOM      7  O   UNL A   1      34.471  28.521  24.154  1.00  0.00    -0.252 OA
BRANCH   6   8
ATOM      8  C   UNL A   1      32.860  27.174  25.358  1.00  0.00     0.128 C 
BRANCH   8   9
ATOM      9  C   UNL A   1      33.449  26.144  26.351  1.00  0.00     0.055 C 
BRANCH   9  10
ATOM     10  C   UNL A   1      33.271  24.660  26.080  1.00  0.00     0.039 A 
ATOM     11  C   UNL A   1      35.564  24.306  25.110  1.00  0.00     0.067 C 
ATOM     12  C   UNL A   1      34.206  23.828  25.563  1.00  0.00     0.049 A 
ATOM     13  N   UNL A   1      33.977  22.496  25.251  1.00  0.00    -0.229 NA
ATOM     14  C   UNL A   1      32.766  22.073  25.357  1.00  0.00     0.168 A 
ATOM     15  C   UNL A   1      32.009  23.983  26.479  1.00  0.00     0.254 A 
ATOM     16  N   UNL A   1      31.775  22.771  25.936  1.00  0.00    -0.301 N 
ATOM     17  O   UNL A   1      31.185  24.448  27.244  1.00  0.00    -0.269 OA
ATOM     18  H   UNL A   1      30.867  22.393  25.965  1.00  0.00     0.172 HD
BRANCH  14  19
ATOM     19  S   UNL A   1      32.177  20.587  24.704  1.00  0.00    -0.083 SA
BRANCH  19  20
ATOM     20  C   UNL A   1      33.714  19.683  24.444  1.00  0.00     0.113 C 
BRANCH  20  21
ATOM     21  C   UNL A   1      33.726  18.172  24.605  1.00  0.00    -0.038 A 
ATOM     22  C   UNL A   1      32.540  17.513  24.962  1.00  0.00     0.004 A 
ATOM     23  C   UNL A   1      34.900  17.406  24.607  1.00  0.00     0.004 A 
ATOM     24  C   UNL A   1      32.549  16.169  25.354  1.00  0.00     0.000 A 
ATOM     25  C   UNL A   1      34.920  16.070  25.007  1.00  0.00     0.000 A 
ATOM     26  C   UNL A   1      33.743  15.454  25.397  1.00  0.00     0.000 A 
ENDBRANCH  20  21
ENDBRANCH  19  20
ENDBRANCH  14  19
ENDBRANCH   9  10
ENDBRANCH   8   9
ENDBRANCH   6   8
ENDBRANCH   5   6
ENDBRANCH   4   5
ENDBRANCH   3   4
ENDBRANCH   2   3
ENDBRANCH   1   2
BRANCH   1  27
ATOM     27  C   UNL A   1      29.845  29.838  23.195  1.00  0.00     0.188 C 
BRANCH  27  28
ATOM     28  O   UNL A   1      30.103  30.738  24.274  1.00  0.00    -0.376 OA
BRANCH  28  29
ATOM     29  C   UNL A   1      31.098  30.296  25.188  1.00  0.00     0.202 C 
BRANCH  29  30
ATOM     30  C   UNL A   1      31.469  31.280  26.319  1.00  0.00     0.261 C 
BRANCH  30  31
ATOM     31  O   UNL A   1      32.748  31.035  26.930  1.00  0.00    -0.460 OA
BRANCH  31  32
ATOM     32  C   UNL A   1      33.383  32.138  27.413  1.00  0.00     0.338 C 
ATOM     33  O   UNL A   1      32.889  33.244  27.575  1.00  0.00    -0.246 OA
BRANCH  32  34
ATOM     34  C   UNL A   1      34.715  31.739  27.948  1.00  0.00     0.060 A 
ATOM     35  C   UNL A   1      34.907  30.402  28.341  1.00  0.00     0.016 A 
ATOM     36  C   UNL A   1      35.786  32.634  27.997  1.00  0.00     0.016 A 
ATOM     37  C   UNL A   1      36.157  29.960  28.780  1.00  0.00     0.010 A 
ATOM     38  C   UNL A   1      37.027  32.201  28.479  1.00  0.00     0.010 A 
ATOM     39  C   UNL A   1      37.213  30.870  28.899  1.00  0.00    -0.014 A 
BRANCH  39  40
ATOM     40  C   UNL A   1      38.408  30.516  29.707  1.00  0.00     0.031 A 
ATOM     41  C   UNL A   1      39.376  29.532  29.107  1.00  0.00     0.074 A 
ATOM     42  C   UNL A   1      38.647  31.040  30.922  1.00  0.00     0.049 A 
ATOM     43  N   UNL A   1      40.427  28.963  29.635  1.00  0.00    -0.248 NA
ATOM     44  C   UNL A   1      39.108  29.130  27.716  1.00  0.00     0.031 C 
ATOM     45  C   UNL A   1      37.830  32.055  31.584  1.00  0.00     0.029 A 
ATOM     46  N   UNL A   1      39.651  30.776  31.825  1.00  0.00    -0.354 N 
ATOM     47  C   UNL A   1      40.937  28.125  28.648  1.00  0.00     0.074 A 
ATOM     48  C   UNL A   1      40.058  28.235  27.505  1.00  0.00     0.031 C 
ATOM     49  C   UNL A   1      38.356  32.314  32.795  1.00  0.00     0.029 A 
ATOM     50  C   UNL A   1      39.516  31.451  33.017  1.00  0.00     0.049 A 
ATOM     51  H   UNL A   1      40.396  30.162  31.635  1.00  0.00     0.167 HD
ATOM     52  C   UNL A   1      42.038  27.338  28.691  1.00  0.00     0.034 A 
ATOM     53  C   UNL A   1      40.226  31.353  34.162  1.00  0.00     0.034 A 
ATOM     54  C   UNL A   1      42.896  27.228  29.843  1.00  0.00     0.049 A 
ATOM     55  C   UNL A   1      41.388  30.383  34.229  1.00  0.00     0.074 A 
ATOM     56  C   UNL A   1      44.041  26.464  29.993  1.00  0.00     0.029 A 
ATOM     57  N   UNL A   1      42.698  27.887  31.049  1.00  0.00    -0.354 N 
ATOM     58  N   UNL A   1      41.856  29.584  33.296  1.00  0.00    -0.248 NA
ATOM     59  C   UNL A   1      42.119  30.303  35.503  1.00  0.00     0.031 C 
ATOM     60  C   UNL A   1      44.483  26.594  31.313  1.00  0.00     0.029 A 
ATOM     61  C   UNL A   1      43.677  27.519  31.958  1.00  0.00     0.049 A 
ATOM     62  H   UNL A   1      41.969  28.523  31.231  1.00  0.00     0.167 HD
ATOM     63  C   UNL A   1      42.961  28.945  33.858  1.00  0.00     0.074 A 
ATOM     64  C   UNL A   1      43.089  29.450  35.208  1.00  0.00     0.031 C 
ATOM     65  C   UNL A   1      43.799  28.032  33.303  1.00  0.00     0.034 A 
BRANCH  52  66
ATOM     66  C   UNL A   1      42.332  26.490  27.477  1.00  0.00     0.023 A 
ATOM     67  C   UNL A   1      41.903  25.154  27.380  1.00  0.00     0.031 A 
ATOM     68  C   UNL A   1      43.085  27.016  26.413  1.00  0.00     0.131 A 
ATOM     69  C   UNL A   1      42.293  24.371  26.283  1.00  0.00     0.055 A 
ATOM     70  C   UNL A   1      43.394  26.259  25.283  1.00  0.00     0.041 A 
ATOM     71  F   UNL A   1      43.548  28.275  26.460  1.00  0.00    -0.206 F 
ATOM     72  C   UNL A   1      43.011  24.923  25.220  1.00  0.00     0.022 A 
BRANCH  69  73
ATOM     73  S   UNL A   1      41.985  22.585  26.341  1.00  0.00     0.124 S 
ATOM     74  O   UNL A   1      42.709  22.199  27.551  1.00  0.00    -0.237 OA
ATOM     75  O   UNL A   1      40.530  22.517  26.417  1.00  0.00    -0.237 OA
ATOM     76  O   UNL A   1      42.568  22.096  25.093  1.00  0.00    -0.744 OA
ENDBRANCH  69  73
ENDBRANCH  52  66
BRANCH  53  77
ATOM     77  C   UNL A   1      39.841  32.149  35.368  1.00  0.00     0.023 A 
ATOM     78  C   UNL A   1      38.994  31.618  36.353  1.00  0.00     0.031 A 
ATOM     79  C   UNL A   1      40.262  33.483  35.515  1.00  0.00     0.131 A 
ATOM     80  C   UNL A   1      38.557  32.429  37.415  1.00  0.00     0.055 A 
ATOM     81  C   UNL A   1      39.876  34.266  36.605  1.00  0.00     0.041 A 
ATOM     82  F   UNL A   1      41.060  34.050  34.595  1.00  0.00    -0.206 F 
ATOM     83  C   UNL A   1      39.007  33.743  37.556  1.00  0.00     0.022 A 
BRANCH  80  84
ATOM     84  S   UNL A   1      37.305  31.773  38.554  1.00  0.00     0.124 S 
ATOM     85  O   UNL A   1      36.198  32.698  38.341  1.00  0.00    -0.237 OA
ATOM     86  O   UNL A   1      37.115  30.417  38.049  1.00  0.00    -0.237 OA
ATOM     87  O   UNL A   1      37.953  31.864  39.861  1.00  0.00    -0.744 OA
ENDBRANCH  80  84
ENDBRANCH  53  77
BRANCH  65  88
ATOM     88  C   UNL A   1      44.981  27.571  34.125  1.00  0.00     0.023 A 
ATOM     89  C   UNL A   1      44.950  26.395  34.895  1.00  0.00     0.031 A 
ATOM     90  C   UNL A   1      46.174  28.319  34.112  1.00  0.00     0.131 A 
ATOM     91  C   UNL A   1      46.074  26.026  35.652  1.00  0.00     0.055 A 
ATOM     92  C   UNL A   1      47.309  27.912  34.815  1.00  0.00     0.041 A 
ATOM     93  F   UNL A   1      46.261  29.453  33.399  1.00  0.00    -0.206 F 
ATOM     94  C   UNL A   1      47.258  26.765  35.600  1.00  0.00     0.022 A 
BRANCH  91  95
ATOM     95  S   UNL A   1      45.945  24.607  36.776  1.00  0.00     0.124 S 
ATOM     96  O   UNL A   1      47.003  23.731  36.280  1.00  0.00    -0.237 OA
ATOM     97  O   UNL A   1      46.183  25.217  38.079  1.00  0.00    -0.237 OA
ATOM     98  O   UNL A   1      44.585  24.118  36.560  1.00  0.00    -0.744 OA
ENDBRANCH  91  95
ENDBRANCH  65  88
ENDBRANCH  39  40
ENDBRANCH  32  34
ENDBRANCH  31  32
ENDBRANCH  30  31
ENDBRANCH  29  30
ENDBRANCH  28  29
ENDBRANCH  27  28
ENDBRANCH   1  27
TORSDOF 25
ENDMDL
MODEL 2
REMARK VINA RESULT:     -10.3      1.733      2.512
REMARK SMILES Cc1nc(SCc2ccccc2)[nH]c(=O)c1CCC(=O)OCCOCCOCCOC(=O)c1ccc(-c2c3nc(c(-c4cc(S(=O)(=O)[O-])ccc4F)c4ccc([nH]4)c(-c4cc(S(=O)(=O)[O-])ccc4F)c4nc(c(-c5cc(S(=O)(=O)[O-])ccc5F)c5ccc2[nH]5)C=C4)C=C3)cc1
REMARK SMILES IDX 25 1 24 2 23 3 22 4 21 5 19 6 20 7 18 8 17 9 16 10 1 11 2 12
REMARK SMILES IDX 3 13 4 14 14 15 13 16 15 17 5 19 6 20 7 21 8 22 12 23 9 24
REMARK SMILES IDX 11 25 10 26 26 27 27 28 28 29 29 30 30 31 31 32 32 33 33 34
REMARK SMILES IDX 34 35 95 36 35 37 94 38 36 39 37 40 38 41 88 42 39 43 93 44
REMARK SMILES IDX 87 45 89 46 40 47 92 48 86 49 85 50 41 52 73 53 53 54 72 55
REMARK SMILES IDX 54 56 57 57 71 58 90 59 55 60 56 61 70 63 91 64 58 65 42 66
REMARK SMILES IDX 43 67 51 68 44 69 50 70 52 71 49 72 45 73 46 74 47 75 48 76
REMARK SMILES IDX 74 77 75 78 83 79 76 80 82 81 84 82 81 83 77 84 78 85 79 86
REMARK SMILES IDX 80 87 59 88 60 89 68 90 61 91 67 92 69 93 66 94 62 95 63 96
REMARK SMILES IDX 64 97 65 98
REMARK H PARENT 13 18 89 51 57 62
REMARK Flexibility Score: inf
ROOT
ATOM      1  C   UNL A   1      30.362  28.169  22.965  1.00  0.00     0.188 C 
ENDROOT
BRANCH   1   2
ATOM      2  O   UNL A   1      30.931  27.578  21.808  1.00  0.00    -0.376 OA
BRANCH   2   3
ATOM      3  C   UNL A   1      32.048  26.737  22.094  1.00  0.00     0.202 C 
BRANCH   3   4
ATOM      4  C   UNL A   1      32.873  27.133  23.345  1.00  0.00     0.261 C 
BRANCH   4   5
ATOM      5  O   UNL A   1      32.864  26.160  24.420  1.00  0.00    -0.463 OA
BRANCH   5   6
ATOM      6  C   UNL A   1      32.449  26.566  25.644  1.00  0.00     0.306 C 
ATOM      7  O   UNL A   1      33.195  26.970  26.526  1.00  0.00    -0.252 OA
BRANCH   6   8
ATOM      8  C   UNL A   1      30.937  26.467  25.816  1.00  0.00     0.128 C 
BRANCH   8   9
ATOM      9  C   UNL A   1      30.264  25.081  25.965  1.00  0.00     0.055 C 
BRANCH   9  10
ATOM     10  C   UNL A   1      31.081  23.825  25.715  1.00  0.00     0.039 A 
ATOM     11  C   UNL A   1      30.619  23.712  23.246  1.00  0.00     0.067 C 
ATOM     12  C   UNL A   1      31.274  23.226  24.516  1.00  0.00     0.049 A 
ATOM     13  N   UNL A   1      31.957  22.033  24.341  1.00  0.00    -0.229 NA
ATOM     14  C   UNL A   1      32.323  21.410  25.407  1.00  0.00     0.168 A 
ATOM     15  C   UNL A   1      31.834  23.199  26.834  1.00  0.00     0.254 A 
ATOM     16  N   UNL A   1      32.267  21.937  26.640  1.00  0.00    -0.301 N 
ATOM     17  O   UNL A   1      32.074  23.742  27.897  1.00  0.00    -0.269 OA
ATOM     18  H   UNL A   1      32.546  21.395  27.413  1.00  0.00     0.172 HD
BRANCH  14  19
ATOM     19  S   UNL A   1      32.863  19.771  25.458  1.00  0.00    -0.083 SA
BRANCH  19  20
ATOM     20  C   UNL A   1      34.481  19.909  24.676  1.00  0.00     0.113 C 
BRANCH  20  21
ATOM     21  C   UNL A   1      35.241  21.222  24.763  1.00  0.00    -0.038 A 
ATOM     22  C   UNL A   1      35.840  21.586  25.979  1.00  0.00     0.004 A 
ATOM     23  C   UNL A   1      35.222  22.194  23.752  1.00  0.00     0.004 A 
ATOM     24  C   UNL A   1      36.340  22.878  26.181  1.00  0.00     0.000 A 
ATOM     25  C   UNL A   1      35.707  23.487  23.949  1.00  0.00     0.000 A 
ATOM     26  C   UNL A   1      36.254  23.835  25.172  1.00  0.00     0.000 A 
ENDBRANCH  20  21
ENDBRANCH  19  20
ENDBRANCH  14  19
ENDBRANCH   9  10
ENDBRANCH   8   9
ENDBRANCH   6   8
ENDBRANCH   5   6
ENDBRANCH   4   5
ENDBRANCH   3   4
ENDBRANCH   2   3
ENDBRANCH   1   2
BRANCH   1  27
ATOM     27  C   UNL A   1      29.824  29.565  22.759  1.00  0.00     0.188 C 
BRANCH  27  28
ATOM     28  O   UNL A   1      29.904  30.429  23.894  1.00  0.00    -0.376 OA
BRANCH  28  29
ATOM     29  C   UNL A   1      30.971  30.136  24.786  1.00  0.00     0.202 C 
BRANCH  29  30
ATOM     30  C   UNL A   1      31.156  31.110  25.970  1.00  0.00     0.261 C 
BRANCH  30  31
ATOM     31  O   UNL A   1      32.389  30.948  26.691  1.00  0.00    -0.460 OA
BRANCH  31  32
ATOM     32  C   UNL A   1      32.913  32.092  27.212  1.00  0.00     0.338 C 
ATOM     33  O   UNL A   1      32.322  33.149  27.378  1.00  0.00    -0.246 OA
BRANCH  32  34
ATOM     34  C   UNL A   1      34.259  31.798  27.780  1.00  0.00     0.060 A 
ATOM     35  C   UNL A   1      34.615  30.456  28.001  1.00  0.00     0.016 A 
ATOM     36  C   UNL A   1      35.191  32.809  28.024  1.00  0.00     0.016 A 
ATOM     37  C   UNL A   1      35.890  30.122  28.463  1.00  0.00     0.010 A 
ATOM     38  C   UNL A   1      36.454  32.477  28.528  1.00  0.00     0.010 A 
ATOM     39  C   UNL A   1      36.802  31.136  28.777  1.00  0.00    -0.014 A 
BRANCH  39  40
ATOM     40  C   UNL A   1      37.992  30.828  29.611  1.00  0.00     0.031 A 
ATOM     41  C   UNL A   1      39.016  29.891  29.029  1.00  0.00     0.074 A 
ATOM     42  C   UNL A   1      38.180  31.355  30.834  1.00  0.00     0.049 A 
ATOM     43  N   UNL A   1      40.078  29.365  29.579  1.00  0.00    -0.248 NA
ATOM     44  C   UNL A   1      38.798  29.486  27.631  1.00  0.00     0.031 C 
ATOM     45  C   UNL A   1      37.304  32.330  31.482  1.00  0.00     0.029 A 
ATOM     46  N   UNL A   1      39.173  31.129  31.759  1.00  0.00    -0.354 N 
ATOM     47  C   UNL A   1      40.646  28.556  28.600  1.00  0.00     0.074 A 
ATOM     48  C   UNL A   1      39.790  28.634  27.437  1.00  0.00     0.031 C 
ATOM     49  C   UNL A   1      37.790  32.604  32.706  1.00  0.00     0.029 A 
ATOM     50  C   UNL A   1      38.982  31.790  32.951  1.00  0.00     0.049 A 
ATOM     51  H   UNL A   1      39.948  30.549  31.584  1.00  0.00     0.167 HD
ATOM     52  C   UNL A   1      41.779  27.816  28.665  1.00  0.00     0.034 A 
ATOM     53  C   UNL A   1      39.668  31.716  34.112  1.00  0.00     0.034 A 
ATOM     54  C   UNL A   1      42.614  27.737  29.836  1.00  0.00     0.049 A 
ATOM     55  C   UNL A   1      40.869  30.797  34.202  1.00  0.00     0.074 A 
ATOM     56  C   UNL A   1      43.787  27.022  30.009  1.00  0.00     0.029 A 
ATOM     57  N   UNL A   1      42.359  28.380  31.041  1.00  0.00    -0.354 N 
ATOM     58  N   UNL A   1      41.392  30.025  33.275  1.00  0.00    -0.248 NA
ATOM     59  C   UNL A   1      41.573  30.741  35.492  1.00  0.00     0.031 C 
ATOM     60  C   UNL A   1      44.192  27.163  31.340  1.00  0.00     0.029 A 
ATOM     61  C   UNL A   1      43.332  28.048  31.971  1.00  0.00     0.049 A 
ATOM     62  H   UNL A   1      41.599  28.982  31.209  1.00  0.00     0.167 HD
ATOM     63  C   UNL A   1      42.510  29.430  33.860  1.00  0.00     0.074 A 
ATOM     64  C   UNL A   1      42.586  29.932  35.216  1.00  0.00     0.031 C 
ATOM     65  C   UNL A   1      43.400  28.558  33.321  1.00  0.00     0.034 A 
BRANCH  52  66
ATOM     66  C   UNL A   1      42.137  26.989  27.454  1.00  0.00     0.023 A 
ATOM     67  C   UNL A   1      41.858  25.613  27.383  1.00  0.00     0.031 A 
ATOM     68  C   UNL A   1      42.803  27.581  26.366  1.00  0.00     0.131 A 
ATOM     69  C   UNL A   1      42.307  24.863  26.286  1.00  0.00     0.055 A 
ATOM     70  C   UNL A   1      43.169  26.847  25.237  1.00  0.00     0.041 A 
ATOM     71  F   UNL A   1      43.123  28.884  26.387  1.00  0.00    -0.206 F 
ATOM     72  C   UNL A   1      42.935  25.476  25.200  1.00  0.00     0.022 A 
BRANCH  69  73
ATOM     73  S   UNL A   1      42.202  23.054  26.372  1.00  0.00     0.124 S 
ATOM     74  O   UNL A   1      40.831  22.860  26.838  1.00  0.00    -0.237 OA
ATOM     75  O   UNL A   1      42.471  22.656  24.995  1.00  0.00    -0.237 OA
ATOM     76  O   UNL A   1      43.238  22.696  27.339  1.00  0.00    -0.744 OA
ENDBRANCH  69  73
ENDBRANCH  52  66
BRANCH  53  77
ATOM     77  C   UNL A   1      39.221  32.487  35.312  1.00  0.00     0.023 A 
ATOM     78  C   UNL A   1      39.670  33.797  35.547  1.00  0.00     0.031 A 
ATOM     79  C   UNL A   1      38.390  31.895  36.281  1.00  0.00     0.131 A 
ATOM     80  C   UNL A   1      39.325  34.453  36.741  1.00  0.00     0.055 A 
ATOM     81  C   UNL A   1      37.999  32.575  37.436  1.00  0.00     0.041 A 
ATOM     82  F   UNL A   1      37.943  30.640  36.118  1.00  0.00    -0.206 F 
ATOM     83  C   UNL A   1      38.479  33.858  37.678  1.00  0.00     0.022 A 
BRANCH  80  84
ATOM     84  S   UNL A   1      40.088  36.061  37.103  1.00  0.00     0.124 S 
ATOM     85  O   UNL A   1      39.120  36.647  38.022  1.00  0.00    -0.237 OA
ATOM     86  O   UNL A   1      41.367  35.666  37.683  1.00  0.00    -0.237 OA
ATOM     87  O   UNL A   1      40.172  36.700  35.791  1.00  0.00    -0.744 OA
ENDBRANCH  80  84
ENDBRANCH  53  77
BRANCH  65  88
ATOM     88  C   UNL A   1      44.582  28.143  34.168  1.00  0.00     0.023 A 
ATOM     89  C   UNL A   1      44.569  26.983  34.960  1.00  0.00     0.031 A 
ATOM     90  C   UNL A   1      45.755  28.921  34.157  1.00  0.00     0.131 A 
ATOM     91  C   UNL A   1      45.691  26.657  35.740  1.00  0.00     0.055 A 
ATOM     92  C   UNL A   1      46.890  28.558  34.883  1.00  0.00     0.041 A 
ATOM     93  F   UNL A   1      45.824  30.043  33.422  1.00  0.00    -0.206 F 
ATOM     94  C   UNL A   1      46.857  27.425  35.690  1.00  0.00     0.022 A 
BRANCH  91  95
ATOM     95  S   UNL A   1      45.582  25.258  36.890  1.00  0.00     0.124 S 
ATOM     96  O   UNL A   1      44.229  24.767  36.643  1.00  0.00    -0.237 OA
ATOM     97  O   UNL A   1      46.666  24.393  36.435  1.00  0.00    -0.237 OA
ATOM     98  O   UNL A   1      45.789  25.871  38.200  1.00  0.00    -0.744 OA
ENDBRANCH  91  95
ENDBRANCH  65  88
ENDBRANCH  39  40
ENDBRANCH  32  34
ENDBRANCH  31  32
ENDBRANCH  30  31
ENDBRANCH  29  30
ENDBRANCH  28  29
ENDBRANCH  27  28
ENDBRANCH   1  27
TORSDOF 25
ENDMDL
MODEL 3
REMARK VINA RESULT:      -9.8      2.241      3.247
REMARK SMILES Cc1nc(SCc2ccccc2)[nH]c(=O)c1CCC(=O)OCCOCCOCCOC(=O)c1ccc(-c2c3nc(c(-c4cc(S(=O)(=O)[O-])ccc4F)c4ccc([nH]4)c(-c4cc(S(=O)(=O)[O-])ccc4F)c4nc(c(-c5cc(S(=O)(=O)[O-])ccc5F)c5ccc2[nH]5)C=C4)C=C3)cc1
REMARK SMILES IDX 25 1 24 2 23 3 22 4 21 5 19 6 20 7 18 8 17 9 16 10 1 11 2 12
REMARK SMILES IDX 3 13 4 14 14 15 13 16 15 17 5 19 6 20 7 21 8 22 12 23 9 24
REMARK SMILES IDX 11 25 10 26 26 27 27 28 28 29 29 30 30 31 31 32 32 33 33 34
REMARK SMILES IDX 34 35 95 36 35 37 94 38 36 39 37 40 38 41 88 42 39 43 93 44
REMARK SMILES IDX 87 45 89 46 40 47 92 48 86 49 85 50 41 52 73 53 53 54 72 55
REMARK SMILES IDX 54 56 57 57 71 58 90 59 55 60 56 61 70 63 91 64 58 65 42 66
REMARK SMILES IDX 43 67 51 68 44 69 50 70 52 71 49 72 45 73 46 74 47 75 48 76
REMARK SMILES IDX 74 77 75 78 83 79 76 80 82 81 84 82 81 83 77 84 78 85 79 86
REMARK SMILES IDX 80 87 59 88 60 89 68 90 61 91 67 92 69 93 66 94 62 95 63 96
REMARK SMILES IDX 64 97 65 98
REMARK H PARENT 13 18 89 51 57 62
REMARK Flexibility Score: inf
ROOT
ATOM      1  C   UNL A   1      32.145  29.798  27.050  1.00  0.00     0.188 C 
ENDROOT
BRANCH   1   2
ATOM      2  O   UNL A   1      31.832  28.936  25.969  1.00  0.00    -0.376 OA
BRANCH   2   3
ATOM      3  C   UNL A   1      31.350  29.626  24.816  1.00  0.00     0.202 C 
BRANCH   3   4
ATOM      4  C   UNL A   1      31.421  28.830  23.488  1.00  0.00     0.261 C 
BRANCH   4   5
ATOM      5  O   UNL A   1      30.149  28.639  22.818  1.00  0.00    -0.463 OA
BRANCH   5   6
ATOM      6  C   UNL A   1      29.282  27.739  23.339  1.00  0.00     0.306 C 
ATOM      7  O   UNL A   1      28.065  27.808  23.228  1.00  0.00    -0.252 OA
BRANCH   6   8
ATOM      8  C   UNL A   1      29.983  26.611  24.091  1.00  0.00     0.128 C 
BRANCH   8   9
ATOM      9  C   UNL A   1      30.443  25.344  23.330  1.00  0.00     0.055 C 
BRANCH   9  10
ATOM     10  C   UNL A   1      31.710  24.630  23.768  1.00  0.00     0.039 A 
ATOM     11  C   UNL A   1      33.253  25.897  22.240  1.00  0.00     0.067 C 
ATOM     12  C   UNL A   1      32.962  24.884  23.321  1.00  0.00     0.049 A 
ATOM     13  N   UNL A   1      34.083  24.153  23.682  1.00  0.00    -0.229 NA
ATOM     14  C   UNL A   1      33.886  23.100  24.397  1.00  0.00     0.168 A 
ATOM     15  C   UNL A   1      31.646  23.609  24.848  1.00  0.00     0.254 A 
ATOM     16  N   UNL A   1      32.712  22.792  24.971  1.00  0.00    -0.301 N 
ATOM     17  O   UNL A   1      30.708  23.463  25.610  1.00  0.00    -0.269 OA
ATOM     18  H   UNL A   1      32.628  21.959  25.489  1.00  0.00     0.172 HD
BRANCH  14  19
ATOM     19  S   UNL A   1      35.054  21.859  24.672  1.00  0.00    -0.083 SA
BRANCH  19  20
ATOM     20  C   UNL A   1      34.010  20.521  25.279  1.00  0.00     0.113 C 
BRANCH  20  21
ATOM     21  C   UNL A   1      33.968  19.205  24.520  1.00  0.00    -0.038 A 
ATOM     22  C   UNL A   1      32.769  18.808  23.907  1.00  0.00     0.004 A 
ATOM     23  C   UNL A   1      35.004  18.262  24.553  1.00  0.00     0.004 A 
ATOM     24  C   UNL A   1      32.610  17.510  23.406  1.00  0.00     0.000 A 
ATOM     25  C   UNL A   1      34.849  16.964  24.067  1.00  0.00     0.000 A 
ATOM     26  C   UNL A   1      33.643  16.581  23.506  1.00  0.00     0.000 A 
ENDBRANCH  20  21
ENDBRANCH  19  20
ENDBRANCH  14  19
ENDBRANCH   9  10
ENDBRANCH   8   9
ENDBRANCH   6   8
ENDBRANCH   5   6
ENDBRANCH   4   5
ENDBRANCH   3   4
ENDBRANCH   2   3
ENDBRANCH   1   2
BRANCH   1  27
ATOM     27  C   UNL A   1      33.620  30.060  27.240  1.00  0.00     0.188 C 
BRANCH  27  28
ATOM     28  O   UNL A   1      33.981  31.429  27.434  1.00  0.00    -0.376 OA
BRANCH  28  29
ATOM     29  C   UNL A   1      32.880  32.319  27.563  1.00  0.00     0.202 C 
BRANCH  29  30
ATOM     30  C   UNL A   1      33.228  33.818  27.694  1.00  0.00     0.261 C 
BRANCH  30  31
ATOM     31  O   UNL A   1      32.478  34.520  28.700  1.00  0.00    -0.460 OA
BRANCH  31  32
ATOM     32  C   UNL A   1      33.214  35.315  29.525  1.00  0.00     0.338 C 
ATOM     33  O   UNL A   1      32.880  36.404  29.968  1.00  0.00    -0.246 OA
BRANCH  32  34
ATOM     34  C   UNL A   1      34.398  34.551  30.011  1.00  0.00     0.060 A 
ATOM     35  C   UNL A   1      34.228  33.666  31.090  1.00  0.00     0.016 A 
ATOM     36  C   UNL A   1      35.639  34.637  29.377  1.00  0.00     0.016 A 
ATOM     37  C   UNL A   1      35.287  32.873  31.536  1.00  0.00     0.010 A 
ATOM     38  C   UNL A   1      36.712  33.875  29.853  1.00  0.00     0.010 A 
ATOM     39  C   UNL A   1      36.551  33.010  30.951  1.00  0.00    -0.014 A 
BRANCH  39  40
ATOM     40  C   UNL A   1      37.750  32.473  31.646  1.00  0.00     0.031 A 
ATOM     41  C   UNL A   1      38.490  31.349  30.971  1.00  0.00     0.074 A 
ATOM     42  C   UNL A   1      38.186  32.956  32.823  1.00  0.00     0.049 A 
ATOM     43  N   UNL A   1      39.486  30.624  31.404  1.00  0.00    -0.248 NA
ATOM     44  C   UNL A   1      38.027  30.992  29.620  1.00  0.00     0.031 C 
ATOM     45  C   UNL A   1      37.606  34.087  33.544  1.00  0.00     0.029 A 
ATOM     46  N   UNL A   1      39.220  32.538  33.628  1.00  0.00    -0.354 N 
ATOM     47  C   UNL A   1      39.760  29.715  30.387  1.00  0.00     0.074 A 
ATOM     48  C   UNL A   1      38.800  29.959  29.332  1.00  0.00     0.031 C 
ATOM     49  C   UNL A   1      38.283  34.262  34.694  1.00  0.00     0.029 A 
ATOM     50  C   UNL A   1      39.311  33.228  34.816  1.00  0.00     0.049 A 
ATOM     51  H   UNL A   1      39.838  31.815  33.378  1.00  0.00     0.167 HD
ATOM     52  C   UNL A   1      40.723  28.765  30.336  1.00  0.00     0.034 A 
ATOM     53  C   UNL A   1      40.105  33.021  35.889  1.00  0.00     0.034 A 
ATOM     54  C   UNL A   1      41.663  28.523  31.401  1.00  0.00     0.049 A 
ATOM     55  C   UNL A   1      41.103  31.881  35.859  1.00  0.00     0.074 A 
ATOM     56  C   UNL A   1      42.684  27.590  31.452  1.00  0.00     0.029 A 
ATOM     57  N   UNL A   1      41.689  29.207  32.610  1.00  0.00    -0.354 N 
ATOM     58  N   UNL A   1      41.347  31.018  34.899  1.00  0.00    -0.248 NA
ATOM     59  C   UNL A   1      41.935  31.690  37.057  1.00  0.00     0.031 C 
ATOM     60  C   UNL A   1      43.268  27.651  32.721  1.00  0.00     0.029 A 
ATOM     61  C   UNL A   1      42.683  28.691  33.425  1.00  0.00     0.049 A 
ATOM     62  H   UNL A   1      41.090  29.950  32.850  1.00  0.00     0.167 HD
ATOM     63  C   UNL A   1      42.388  30.214  35.362  1.00  0.00     0.074 A 
ATOM     64  C   UNL A   1      42.726  30.694  36.684  1.00  0.00     0.031 C 
ATOM     65  C   UNL A   1      43.016  29.181  34.744  1.00  0.00     0.034 A 
BRANCH  52  66
ATOM     66  C   UNL A   1      40.760  27.879  29.113  1.00  0.00     0.023 A 
ATOM     67  C   UNL A   1      41.695  28.074  28.081  1.00  0.00     0.031 A 
ATOM     68  C   UNL A   1      39.819  26.846  28.961  1.00  0.00     0.131 A 
ATOM     69  C   UNL A   1      41.622  27.297  26.915  1.00  0.00     0.055 A 
ATOM     70  C   UNL A   1      39.808  26.019  27.838  1.00  0.00     0.041 A 
ATOM     71  F   UNL A   1      38.883  26.630  29.899  1.00  0.00    -0.206 F 
ATOM     72  C   UNL A   1      40.703  26.253  26.799  1.00  0.00     0.022 A 
BRANCH  69  73
ATOM     73  S   UNL A   1      42.638  27.776  25.491  1.00  0.00     0.124 S 
ATOM     74  O   UNL A   1      41.942  28.972  25.020  1.00  0.00    -0.237 OA
ATOM     75  O   UNL A   1      43.946  27.994  26.095  1.00  0.00    -0.237 OA
ATOM     76  O   UNL A   1      42.546  26.620  24.600  1.00  0.00    -0.744 OA
ENDBRANCH  69  73
ENDBRANCH  52  66
BRANCH  53  77
ATOM     77  C   UNL A   1      39.970  33.869  37.113  1.00  0.00     0.023 A 
ATOM     78  C   UNL A   1      39.430  33.354  38.302  1.00  0.00     0.031 A 
ATOM     79  C   UNL A   1      40.315  35.233  37.087  1.00  0.00     0.131 A 
ATOM     80  C   UNL A   1      39.208  34.205  39.399  1.00  0.00     0.055 A 
ATOM     81  C   UNL A   1      40.151  36.060  38.200  1.00  0.00     0.041 A 
ATOM     82  F   UNL A   1      40.821  35.785  35.972  1.00  0.00    -0.206 F 
ATOM     83  C   UNL A   1      39.581  35.549  39.361  1.00  0.00     0.022 A 
BRANCH  80  84
ATOM     84  S   UNL A   1      38.323  33.551  40.843  1.00  0.00     0.124 S 
ATOM     85  O   UNL A   1      38.929  32.233  40.989  1.00  0.00    -0.237 OA
ATOM     86  O   UNL A   1      38.659  34.529  41.873  1.00  0.00    -0.237 OA
ATOM     87  O   UNL A   1      36.926  33.554  40.416  1.00  0.00    -0.744 OA
ENDBRANCH  80  84
ENDBRANCH  53  77
BRANCH  65  88
ATOM     88  C   UNL A   1      44.187  28.541  35.455  1.00  0.00     0.023 A 
ATOM     89  C   UNL A   1      44.021  27.542  36.430  1.00  0.00     0.031 A 
ATOM     90  C   UNL A   1      45.499  28.928  35.124  1.00  0.00     0.131 A 
ATOM     91  C   UNL A   1      45.146  26.997  37.069  1.00  0.00     0.055 A 
ATOM     92  C   UNL A   1      46.615  28.336  35.716  1.00  0.00     0.041 A 
ATOM     93  F   UNL A   1      45.719  29.880  34.203  1.00  0.00    -0.206 F 
ATOM     94  C   UNL A   1      46.441  27.372  36.703  1.00  0.00     0.022 A 
BRANCH  91  95
ATOM     95  S   UNL A   1      44.897  25.844  38.448  1.00  0.00     0.124 S 
ATOM     96  O   UNL A   1      43.790  26.468  39.168  1.00  0.00    -0.237 OA
ATOM     97  O   UNL A   1      44.586  24.595  37.761  1.00  0.00    -0.237 OA
ATOM     98  O   UNL A   1      46.179  25.863  39.149  1.00  0.00    -0.744 OA
ENDBRANCH  91  95
ENDBRANCH  65  88
ENDBRANCH  39  40
ENDBRANCH  32  34
ENDBRANCH  31  32
ENDBRANCH  30  31
ENDBRANCH  29  30
ENDBRANCH  28  29
ENDBRANCH  27  28
ENDBRANCH   1  27
TORSDOF 25
ENDMDL
