MODEL 1
REMARK VINA RESULT:      -8.8      0.000      0.000
REMARK SMILES Cc1cc2c(c(C)c1Cl)C=C(C(=O)OCCOCCOCCOC(=O)c1ccc(-c3c4nc(c(-c5cc(S(=O)(=O)[O-])ccc5F)c5ccc([nH]5)c(-c5cc(S(=O)(=O)[O-])ccc5F)c5nc(c(-c6cc(S(=O)(=O)[O-])ccc6F)c6ccc3[nH]6)C=C5)C=C4)cc1)[C@@H](C(F)(F)F)O2
REMARK SMILES IDX 19 1 18 2 17 3 16 4 15 5 14 6 12 7 13 8 11 9 1 10 2 11 3 12
REMARK SMILES IDX 8 13 4 14 6 15 9 16 5 17 94 18 7 19 10 20 89 21 90 22 91 23
REMARK SMILES IDX 92 24 93 25 20 26 21 27 22 28 23 29 24 30 25 31 26 32 27 33
REMARK SMILES IDX 88 34 28 35 87 36 29 37 30 38 31 39 81 40 32 41 86 42 80 43
REMARK SMILES IDX 82 44 33 45 85 46 79 47 78 48 34 50 66 51 46 52 65 53 47 54
REMARK SMILES IDX 50 55 64 56 83 57 48 58 49 59 63 61 84 62 51 63 35 64 36 65
REMARK SMILES IDX 44 66 37 67 43 68 45 69 42 70 38 71 39 72 40 73 41 74 67 75
REMARK SMILES IDX 68 76 76 77 69 78 75 79 77 80 74 81 70 82 71 83 72 84 73 85
REMARK SMILES IDX 52 86 53 87 61 88 54 89 60 90 62 91 59 92 55 93 56 94 57 95
REMARK SMILES IDX 58 96
REMARK H PARENT 82 49 50 60
REMARK Flexibility Score: inf
ROOT
ATOM      1  C   UNL A   1      50.010  27.406  23.655  1.00  0.00     0.188 C 
ENDROOT
BRANCH   1   2
ATOM      2  C   UNL A   1      48.514  27.038  23.726  1.00  0.00     0.188 C 
BRANCH   2   3
ATOM      3  O   UNL A   1      48.093  25.697  23.528  1.00  0.00    -0.376 OA
BRANCH   3   4
ATOM      4  C   UNL A   1      47.527  24.961  24.601  1.00  0.00     0.202 C 
BRANCH   4   5
ATOM      5  C   UNL A   1      46.655  23.736  24.311  1.00  0.00     0.261 C 
BRANCH   5   6
ATOM      6  O   UNL A   1      45.452  23.695  25.091  1.00  0.00    -0.460 OA
BRANCH   6   7
ATOM      7  C   UNL A   1      44.347  23.288  24.422  1.00  0.00     0.338 C 
ATOM      8  O   UNL A   1      44.313  22.587  23.424  1.00  0.00    -0.246 OA
BRANCH   7   9
ATOM      9  C   UNL A   1      43.140  23.733  25.144  1.00  0.00     0.087 C 
ATOM     10  C   UNL A   1      38.829  26.813  28.847  1.00  0.00     0.046 C 
ATOM     11  C   UNL A   1      39.840  26.421  27.802  1.00  0.00    -0.028 A 
ATOM     12  C   UNL A   1      40.059  25.057  27.575  1.00  0.00     0.052 A 
ATOM     13  C   UNL A   1      40.541  27.361  27.022  1.00  0.00     0.047 A 
ATOM     14  C   UNL A   1      41.032  24.630  26.676  1.00  0.00     0.128 A 
ATOM     15  C   UNL A   1      41.523  26.946  26.090  1.00  0.00    -0.021 A 
ATOM     16  Cl  UNL A   1      40.184  29.047  27.237  1.00  0.00    -0.084 Cl
ATOM     17  C   UNL A   1      41.802  25.561  25.969  1.00  0.00     0.022 A 
ATOM     18  O   UNL A   1      41.159  23.274  26.568  1.00  0.00    -0.475 OA
ATOM     19  C   UNL A   1      42.281  27.942  25.238  1.00  0.00     0.047 C 
ATOM     20  C   UNL A   1      42.924  25.054  25.183  1.00  0.00     0.027 C 
ATOM     21  C   UNL A   1      42.249  22.717  25.792  1.00  0.00     0.316 C 
BRANCH  21  22
ATOM     22  C   UNL A   1      43.015  21.737  26.692  1.00  0.00     0.430 C 
ATOM     23  F   UNL A   1      43.729  20.850  25.954  1.00  0.00    -0.167 F 
ATOM     24  F   UNL A   1      43.905  22.371  27.490  1.00  0.00    -0.167 F 
ATOM     25  F   UNL A   1      42.191  21.023  27.491  1.00  0.00    -0.167 F 
ENDBRANCH  21  22
ENDBRANCH   7   9
ENDBRANCH   6   7
ENDBRANCH   5   6
ENDBRANCH   4   5
ENDBRANCH   3   4
ENDBRANCH   2   3
ENDBRANCH   1   2
BRANCH   1  26
ATOM     26  O   UNL A   1      50.519  28.347  24.571  1.00  0.00    -0.376 OA
BRANCH  26  27
ATOM     27  C   UNL A   1      51.547  28.010  25.485  1.00  0.00     0.202 C 
BRANCH  27  28
ATOM     28  C   UNL A   1      52.510  28.982  26.190  1.00  0.00     0.261 C 
BRANCH  28  29
ATOM     29  O   UNL A   1      52.238  30.378  26.114  1.00  0.00    -0.460 OA
BRANCH  29  30
ATOM     30  C   UNL A   1      52.246  31.035  27.301  1.00  0.00     0.338 C 
ATOM     31  O   UNL A   1      53.221  31.414  27.924  1.00  0.00    -0.246 OA
BRANCH  30  32
ATOM     32  C   UNL A   1      50.857  31.386  27.643  1.00  0.00     0.060 A 
ATOM     33  C   UNL A   1      50.541  31.641  28.984  1.00  0.00     0.016 A 
ATOM     34  C   UNL A   1      49.874  31.446  26.653  1.00  0.00     0.016 A 
ATOM     35  C   UNL A   1      49.228  31.943  29.341  1.00  0.00     0.010 A 
ATOM     36  C   UNL A   1      48.554  31.724  27.018  1.00  0.00     0.010 A 
ATOM     37  C   UNL A   1      48.222  31.950  28.364  1.00  0.00    -0.014 A 
BRANCH  37  38
ATOM     38  C   UNL A   1      46.799  32.022  28.770  1.00  0.00     0.031 A 
ATOM     39  C   UNL A   1      46.126  30.764  29.245  1.00  0.00     0.074 A 
ATOM     40  C   UNL A   1      46.124  33.184  28.736  1.00  0.00     0.049 A 
ATOM     41  N   UNL A   1      44.876  30.566  29.572  1.00  0.00    -0.248 NA
ATOM     42  C   UNL A   1      46.980  29.572  29.370  1.00  0.00     0.031 C 
ATOM     43  C   UNL A   1      46.688  34.480  28.362  1.00  0.00     0.029 A 
ATOM     44  N   UNL A   1      44.809  33.458  29.022  1.00  0.00    -0.354 N 
ATOM     45  C   UNL A   1      44.794  29.231  29.952  1.00  0.00     0.074 A 
ATOM     46  C   UNL A   1      46.114  28.660  29.786  1.00  0.00     0.031 C 
ATOM     47  C   UNL A   1      45.720  35.412  28.436  1.00  0.00     0.029 A 
ATOM     48  C   UNL A   1      44.463  34.773  28.823  1.00  0.00     0.049 A 
ATOM     49  H   UNL A   1      44.174  32.776  29.340  1.00  0.00     0.167 HD
ATOM     50  C   UNL A   1      43.716  28.546  30.401  1.00  0.00     0.034 A 
ATOM     51  C   UNL A   1      43.263  35.383  28.916  1.00  0.00     0.034 A 
ATOM     52  C   UNL A   1      42.400  29.115  30.537  1.00  0.00     0.049 A 
ATOM     53  C   UNL A   1      42.053  34.572  29.308  1.00  0.00     0.074 A 
ATOM     54  C   UNL A   1      41.234  28.496  30.952  1.00  0.00     0.029 A 
ATOM     55  N   UNL A   1      42.074  30.434  30.260  1.00  0.00    -0.354 N 
ATOM     56  N   UNL A   1      41.974  33.296  29.607  1.00  0.00    -0.248 NA
ATOM     57  C   UNL A   1      40.766  35.282  29.369  1.00  0.00     0.031 C 
ATOM     58  C   UNL A   1      40.192  29.424  30.869  1.00  0.00     0.029 A 
ATOM     59  C   UNL A   1      40.721  30.642  30.472  1.00  0.00     0.049 A 
ATOM     60  H   UNL A   1      42.709  31.122  29.955  1.00  0.00     0.167 HD
ATOM     61  C   UNL A   1      40.639  33.060  29.922  1.00  0.00     0.074 A 
ATOM     62  C   UNL A   1      39.945  34.323  29.773  1.00  0.00     0.031 C 
ATOM     63  C   UNL A   1      40.042  31.905  30.312  1.00  0.00     0.034 A 
BRANCH  50  64
ATOM     64  C   UNL A   1      43.910  27.091  30.734  1.00  0.00     0.023 A 
ATOM     65  C   UNL A   1      44.179  26.667  32.046  1.00  0.00     0.031 A 
ATOM     66  C   UNL A   1      43.813  26.116  29.726  1.00  0.00     0.131 A 
ATOM     67  C   UNL A   1      44.378  25.305  32.310  1.00  0.00     0.055 A 
ATOM     68  C   UNL A   1      43.954  24.756  30.005  1.00  0.00     0.041 A 
ATOM     69  F   UNL A   1      43.581  26.472  28.452  1.00  0.00    -0.206 F 
ATOM     70  C   UNL A   1      44.244  24.344  31.303  1.00  0.00     0.022 A 
BRANCH  67  71
ATOM     71  S   UNL A   1      44.889  24.805  33.976  1.00  0.00     0.124 S 
ATOM     72  O   UNL A   1      46.271  24.389  33.747  1.00  0.00    -0.237 OA
ATOM     73  O   UNL A   1      44.712  26.030  34.745  1.00  0.00    -0.237 OA
ATOM     74  O   UNL A   1      43.965  23.722  34.308  1.00  0.00    -0.744 OA
ENDBRANCH  67  71
ENDBRANCH  50  64
BRANCH  51  75
ATOM     75  C   UNL A   1      43.133  36.832  28.600  1.00  0.00     0.023 A 
ATOM     76  C   UNL A   1      43.381  37.812  29.574  1.00  0.00     0.031 A 
ATOM     77  C   UNL A   1      42.728  37.256  27.322  1.00  0.00     0.131 A 
ATOM     78  C   UNL A   1      43.196  39.168  29.262  1.00  0.00     0.055 A 
ATOM     79  C   UNL A   1      42.584  38.607  27.005  1.00  0.00     0.041 A 
ATOM     80  F   UNL A   1      42.478  36.357  26.357  1.00  0.00    -0.206 F 
ATOM     81  C   UNL A   1      42.812  39.573  27.981  1.00  0.00     0.022 A 
BRANCH  78  82
ATOM     82  S   UNL A   1      43.430  40.403  30.570  1.00  0.00     0.124 S 
ATOM     83  O   UNL A   1      43.897  39.575  31.678  1.00  0.00    -0.237 OA
ATOM     84  O   UNL A   1      44.419  41.295  29.973  1.00  0.00    -0.237 OA
ATOM     85  O   UNL A   1      42.097  40.978  30.736  1.00  0.00    -0.744 OA
ENDBRANCH  78  82
ENDBRANCH  51  75
BRANCH  63  86
ATOM     86  C   UNL A   1      38.575  31.958  30.654  1.00  0.00     0.023 A 
ATOM     87  C   UNL A   1      37.587  32.082  29.664  1.00  0.00     0.031 A 
ATOM     88  C   UNL A   1      38.163  31.836  31.994  1.00  0.00     0.131 A 
ATOM     89  C   UNL A   1      36.233  32.113  30.031  1.00  0.00     0.055 A 
ATOM     90  C   UNL A   1      36.815  31.820  32.348  1.00  0.00     0.041 A 
ATOM     91  F   UNL A   1      39.069  31.709  32.976  1.00  0.00    -0.206 F 
ATOM     92  C   UNL A   1      35.841  31.966  31.365  1.00  0.00     0.022 A 
BRANCH  89  93
ATOM     93  S   UNL A   1      34.984  32.388  28.746  1.00  0.00     0.124 S 
ATOM     94  O   UNL A   1      35.759  33.062  27.709  1.00  0.00    -0.237 OA
ATOM     95  O   UNL A   1      34.548  31.031  28.434  1.00  0.00    -0.237 OA
ATOM     96  O   UNL A   1      33.982  33.220  29.411  1.00  0.00    -0.744 OA
ENDBRANCH  89  93
ENDBRANCH  63  86
ENDBRANCH  37  38
ENDBRANCH  30  32
ENDBRANCH  29  30
ENDBRANCH  28  29
ENDBRANCH  27  28
ENDBRANCH  26  27
ENDBRANCH   1  26
TORSDOF 21
ENDMDL
MODEL 2
REMARK VINA RESULT:      -8.8      1.824      2.084
REMARK SMILES Cc1cc2c(c(C)c1Cl)C=C(C(=O)OCCOCCOCCOC(=O)c1ccc(-c3c4nc(c(-c5cc(S(=O)(=O)[O-])ccc5F)c5ccc([nH]5)c(-c5cc(S(=O)(=O)[O-])ccc5F)c5nc(c(-c6cc(S(=O)(=O)[O-])ccc6F)c6ccc3[nH]6)C=C5)C=C4)cc1)[C@@H](C(F)(F)F)O2
REMARK SMILES IDX 19 1 18 2 17 3 16 4 15 5 14 6 12 7 13 8 11 9 1 10 2 11 3 12
REMARK SMILES IDX 8 13 4 14 6 15 9 16 5 17 94 18 7 19 10 20 89 21 90 22 91 23
REMARK SMILES IDX 92 24 93 25 20 26 21 27 22 28 23 29 24 30 25 31 26 32 27 33
REMARK SMILES IDX 88 34 28 35 87 36 29 37 30 38 31 39 81 40 32 41 86 42 80 43
REMARK SMILES IDX 82 44 33 45 85 46 79 47 78 48 34 50 66 51 46 52 65 53 47 54
REMARK SMILES IDX 50 55 64 56 83 57 48 58 49 59 63 61 84 62 51 63 35 64 36 65
REMARK SMILES IDX 44 66 37 67 43 68 45 69 42 70 38 71 39 72 40 73 41 74 67 75
REMARK SMILES IDX 68 76 76 77 69 78 75 79 77 80 74 81 70 82 71 83 72 84 73 85
REMARK SMILES IDX 52 86 53 87 61 88 54 89 60 90 62 91 59 92 55 93 56 94 57 95
REMARK SMILES IDX 58 96
REMARK H PARENT 82 49 50 60
REMARK Flexibility Score: inf
ROOT
ATOM      1  C   UNL A   1      50.523  28.086  22.107  1.00  0.00     0.188 C 
ENDROOT
BRANCH   1   2
ATOM      2  C   UNL A   1      49.105  27.485  22.012  1.00  0.00     0.188 C 
BRANCH   2   3
ATOM      3  O   UNL A   1      48.712  26.430  22.877  1.00  0.00    -0.376 OA
BRANCH   3   4
ATOM      4  C   UNL A   1      48.022  26.717  24.083  1.00  0.00     0.202 C 
BRANCH   4   5
ATOM      5  C   UNL A   1      47.512  25.572  24.963  1.00  0.00     0.261 C 
BRANCH   5   6
ATOM      6  O   UNL A   1      46.167  25.764  25.424  1.00  0.00    -0.460 OA
BRANCH   6   7
ATOM      7  C   UNL A   1      45.287  24.810  25.041  1.00  0.00     0.338 C 
ATOM      8  O   UNL A   1      45.486  23.908  24.244  1.00  0.00    -0.246 OA
BRANCH   7   9
ATOM      9  C   UNL A   1      44.041  24.944  25.820  1.00  0.00     0.087 C 
ATOM     10  C   UNL A   1      39.131  27.006  29.485  1.00  0.00     0.046 C 
ATOM     11  C   UNL A   1      40.157  26.797  28.403  1.00  0.00    -0.028 A 
ATOM     12  C   UNL A   1      40.828  25.569  28.359  1.00  0.00     0.052 A 
ATOM     13  C   UNL A   1      40.440  27.761  27.416  1.00  0.00     0.047 A 
ATOM     14  C   UNL A   1      41.839  25.339  27.429  1.00  0.00     0.128 A 
ATOM     15  C   UNL A   1      41.453  27.540  26.452  1.00  0.00    -0.021 A 
ATOM     16  Cl  UNL A   1      39.526  29.238  27.415  1.00  0.00    -0.084 Cl
ATOM     17  C   UNL A   1      42.194  26.332  26.509  1.00  0.00     0.022 A 
ATOM     18  O   UNL A   1      42.427  24.110  27.513  1.00  0.00    -0.475 OA
ATOM     19  C   UNL A   1      41.765  28.562  25.380  1.00  0.00     0.047 C 
ATOM     20  C   UNL A   1      43.378  26.100  25.685  1.00  0.00     0.027 C 
ATOM     21  C   UNL A   1      43.600  23.822  26.710  1.00  0.00     0.316 C 
BRANCH  21  22
ATOM     22  C   UNL A   1      44.709  23.336  27.654  1.00  0.00     0.430 C 
ATOM     23  F   UNL A   1      45.523  22.445  27.035  1.00  0.00    -0.167 F 
ATOM     24  F   UNL A   1      45.502  24.350  28.070  1.00  0.00    -0.167 F 
ATOM     25  F   UNL A   1      44.215  22.730  28.757  1.00  0.00    -0.167 F 
ENDBRANCH  21  22
ENDBRANCH   7   9
ENDBRANCH   6   7
ENDBRANCH   5   6
ENDBRANCH   4   5
ENDBRANCH   3   4
ENDBRANCH   2   3
ENDBRANCH   1   2
BRANCH   1  26
ATOM     26  O   UNL A   1      50.931  28.663  23.324  1.00  0.00    -0.376 OA
BRANCH  26  27
ATOM     27  C   UNL A   1      52.124  28.257  23.973  1.00  0.00     0.202 C 
BRANCH  27  28
ATOM     28  C   UNL A   1      52.732  28.866  25.250  1.00  0.00     0.261 C 
BRANCH  28  29
ATOM     29  O   UNL A   1      52.102  30.009  25.821  1.00  0.00    -0.460 OA
BRANCH  29  30
ATOM     30  C   UNL A   1      52.041  30.018  27.177  1.00  0.00     0.338 C 
ATOM     31  O   UNL A   1      52.966  29.872  27.955  1.00  0.00    -0.246 OA
BRANCH  30  32
ATOM     32  C   UNL A   1      50.680  30.419  27.575  1.00  0.00     0.060 A 
ATOM     33  C   UNL A   1      50.506  31.073  28.801  1.00  0.00     0.016 A 
ATOM     34  C   UNL A   1      49.588  30.139  26.752  1.00  0.00     0.016 A 
ATOM     35  C   UNL A   1      49.225  31.434  29.218  1.00  0.00     0.010 A 
ATOM     36  C   UNL A   1      48.303  30.479  27.184  1.00  0.00     0.010 A 
ATOM     37  C   UNL A   1      48.114  31.106  28.427  1.00  0.00    -0.014 A 
BRANCH  37  38
ATOM     38  C   UNL A   1      46.747  31.261  28.974  1.00  0.00     0.031 A 
ATOM     39  C   UNL A   1      46.136  30.103  29.714  1.00  0.00     0.074 A 
ATOM     40  C   UNL A   1      46.068  32.414  28.835  1.00  0.00     0.049 A 
ATOM     41  N   UNL A   1      44.933  29.977  30.207  1.00  0.00    -0.248 NA
ATOM     42  C   UNL A   1      47.003  28.932  29.927  1.00  0.00     0.031 C 
ATOM     43  C   UNL A   1      46.582  33.627  28.201  1.00  0.00     0.029 A 
ATOM     44  N   UNL A   1      44.794  32.748  29.221  1.00  0.00    -0.354 N 
ATOM     45  C   UNL A   1      44.899  28.719  30.797  1.00  0.00     0.074 A 
ATOM     46  C   UNL A   1      46.193  28.110  30.576  1.00  0.00     0.031 C 
ATOM     47  C   UNL A   1      45.626  34.573  28.237  1.00  0.00     0.029 A 
ATOM     48  C   UNL A   1      44.423  34.021  28.859  1.00  0.00     0.049 A 
ATOM     49  H   UNL A   1      44.201  32.134  29.711  1.00  0.00     0.167 HD
ATOM     50  C   UNL A   1      43.881  28.128  31.468  1.00  0.00     0.034 A 
ATOM     51  C   UNL A   1      43.240  34.655  28.990  1.00  0.00     0.034 A 
ATOM     52  C   UNL A   1      42.587  28.730  31.661  1.00  0.00     0.049 A 
ATOM     53  C   UNL A   1      42.084  33.933  29.638  1.00  0.00     0.074 A 
ATOM     54  C   UNL A   1      41.478  28.201  32.296  1.00  0.00     0.029 A 
ATOM     55  N   UNL A   1      42.227  29.995  31.218  1.00  0.00    -0.354 N 
ATOM     56  N   UNL A   1      42.045  32.721  30.140  1.00  0.00    -0.248 NA
ATOM     57  C   UNL A   1      40.811  34.663  29.731  1.00  0.00     0.031 C 
ATOM     58  C   UNL A   1      40.430  29.120  32.186  1.00  0.00     0.029 A 
ATOM     59  C   UNL A   1      40.907  30.253  31.547  1.00  0.00     0.049 A 
ATOM     60  H   UNL A   1      42.822  30.617  30.740  1.00  0.00     0.167 HD
ATOM     61  C   UNL A   1      40.754  32.556  30.637  1.00  0.00     0.074 A 
ATOM     62  C   UNL A   1      40.044  33.790  30.371  1.00  0.00     0.031 C 
ATOM     63  C   UNL A   1      40.209  31.485  31.267  1.00  0.00     0.034 A 
BRANCH  50  64
ATOM     64  C   UNL A   1      44.116  26.740  32.000  1.00  0.00     0.023 A 
ATOM     65  C   UNL A   1      44.387  26.512  33.359  1.00  0.00     0.031 A 
ATOM     66  C   UNL A   1      44.057  25.632  31.138  1.00  0.00     0.131 A 
ATOM     67  C   UNL A   1      44.626  25.206  33.811  1.00  0.00     0.055 A 
ATOM     68  C   UNL A   1      44.237  24.329  31.604  1.00  0.00     0.041 A 
ATOM     69  F   UNL A   1      43.824  25.800  29.826  1.00  0.00    -0.206 F 
ATOM     70  C   UNL A   1      44.529  24.111  32.948  1.00  0.00     0.022 A 
BRANCH  67  71
ATOM     71  S   UNL A   1      45.139  24.958  35.532  1.00  0.00     0.124 S 
ATOM     72  O   UNL A   1      46.426  24.288  35.362  1.00  0.00    -0.237 OA
ATOM     73  O   UNL A   1      45.193  26.321  36.048  1.00  0.00    -0.237 OA
ATOM     74  O   UNL A   1      44.076  24.124  36.091  1.00  0.00    -0.744 OA
ENDBRANCH  67  71
ENDBRANCH  50  64
BRANCH  51  75
ATOM     75  C   UNL A   1      43.070  36.039  28.467  1.00  0.00     0.023 A 
ATOM     76  C   UNL A   1      43.364  37.156  29.264  1.00  0.00     0.031 A 
ATOM     77  C   UNL A   1      42.579  36.262  27.168  1.00  0.00     0.131 A 
ATOM     78  C   UNL A   1      43.141  38.448  28.763  1.00  0.00     0.055 A 
ATOM     79  C   UNL A   1      42.396  37.549  26.660  1.00  0.00     0.041 A 
ATOM     80  F   UNL A   1      42.281  35.226  26.368  1.00  0.00    -0.206 F 
ATOM     81  C   UNL A   1      42.672  38.653  27.462  1.00  0.00     0.022 A 
BRANCH  78  82
ATOM     82  S   UNL A   1      43.439  39.868  29.851  1.00  0.00     0.124 S 
ATOM     83  O   UNL A   1      42.164  40.574  29.773  1.00  0.00    -0.237 OA
ATOM     84  O   UNL A   1      43.738  39.220  31.123  1.00  0.00    -0.237 OA
ATOM     85  O   UNL A   1      44.570  40.548  29.221  1.00  0.00    -0.744 OA
ENDBRANCH  78  82
ENDBRANCH  51  75
BRANCH  63  86
ATOM     86  C   UNL A   1      38.791  31.612  31.761  1.00  0.00     0.023 A 
ATOM     87  C   UNL A   1      38.466  32.379  32.892  1.00  0.00     0.031 A 
ATOM     88  C   UNL A   1      37.745  30.989  31.056  1.00  0.00     0.131 A 
ATOM     89  C   UNL A   1      37.129  32.478  33.305  1.00  0.00     0.055 A 
ATOM     90  C   UNL A   1      36.413  31.130  31.444  1.00  0.00     0.041 A 
ATOM     91  F   UNL A   1      38.003  30.250  29.966  1.00  0.00    -0.206 F 
ATOM     92  C   UNL A   1      36.099  31.872  32.579  1.00  0.00     0.022 A 
BRANCH  89  93
ATOM     93  S   UNL A   1      36.750  33.380  34.832  1.00  0.00     0.124 S 
ATOM     94  O   UNL A   1      35.302  33.536  34.741  1.00  0.00    -0.237 OA
ATOM     95  O   UNL A   1      37.228  32.466  35.864  1.00  0.00    -0.237 OA
ATOM     96  O   UNL A   1      37.518  34.618  34.700  1.00  0.00    -0.744 OA
ENDBRANCH  89  93
ENDBRANCH  63  86
ENDBRANCH  37  38
ENDBRANCH  30  32
ENDBRANCH  29  30
ENDBRANCH  28  29
ENDBRANCH  27  28
ENDBRANCH  26  27
ENDBRANCH   1  26
TORSDOF 21
ENDMDL
MODEL 3
REMARK VINA RESULT:      -8.5      4.694      9.112
REMARK SMILES Cc1cc2c(c(C)c1Cl)C=C(C(=O)OCCOCCOCCOC(=O)c1ccc(-c3c4nc(c(-c5cc(S(=O)(=O)[O-])ccc5F)c5ccc([nH]5)c(-c5cc(S(=O)(=O)[O-])ccc5F)c5nc(c(-c6cc(S(=O)(=O)[O-])ccc6F)c6ccc3[nH]6)C=C5)C=C4)cc1)[C@@H](C(F)(F)F)O2
REMARK SMILES IDX 19 1 18 2 17 3 16 4 15 5 14 6 12 7 13 8 11 9 1 10 2 11 3 12
REMARK SMILES IDX 8 13 4 14 6 15 9 16 5 17 94 18 7 19 10 20 89 21 90 22 91 23
REMARK SMILES IDX 92 24 93 25 20 26 21 27 22 28 23 29 24 30 25 31 26 32 27 33
REMARK SMILES IDX 88 34 28 35 87 36 29 37 30 38 31 39 81 40 32 41 86 42 80 43
REMARK SMILES IDX 82 44 33 45 85 46 79 47 78 48 34 50 66 51 46 52 65 53 47 54
REMARK SMILES IDX 50 55 64 56 83 57 48 58 49 59 63 61 84 62 51 63 35 64 36 65
REMARK SMILES IDX 44 66 37 67 43 68 45 69 42 70 38 71 39 72 40 73 41 74 67 75
REMARK SMILES IDX 68 76 76 77 69 78 75 79 77 80 74 81 70 82 71 83 72 84 73 85
REMARK SMILES IDX 52 86 53 87 61 88 54 89 60 90 62 91 59 92 55 93 56 94 57 95
REMARK SMILES IDX 58 96
REMARK H PARENT 82 49 50 60
REMARK Flexibility Score: inf
ROOT
ATOM      1  C   UNL A   1      40.849  22.225  26.188  1.00  0.00     0.188 C 
ENDROOT
BRANCH   1   2
ATOM      2  C   UNL A   1      40.352  23.321  27.153  1.00  0.00     0.188 C 
BRANCH   2   3
ATOM      3  O   UNL A   1      38.991  23.727  27.140  1.00  0.00    -0.376 OA
BRANCH   3   4
ATOM      4  C   UNL A   1      38.049  23.038  26.334  1.00  0.00     0.202 C 
BRANCH   4   5
ATOM      5  C   UNL A   1      37.459  23.720  25.095  1.00  0.00     0.261 C 
BRANCH   5   6
ATOM      6  O   UNL A   1      36.074  23.412  24.880  1.00  0.00    -0.460 OA
BRANCH   6   7
ATOM      7  C   UNL A   1      35.706  23.298  23.582  1.00  0.00     0.338 C 
ATOM      8  O   UNL A   1      36.374  22.840  22.670  1.00  0.00    -0.246 OA
BRANCH   7   9
ATOM      9  C   UNL A   1      34.302  23.722  23.428  1.00  0.00     0.087 C 
ATOM     10  C   UNL A   1      28.528  26.587  23.919  1.00  0.00     0.046 C 
ATOM     11  C   UNL A   1      29.984  26.264  23.708  1.00  0.00    -0.028 A 
ATOM     12  C   UNL A   1      30.339  24.924  23.508  1.00  0.00     0.052 A 
ATOM     13  C   UNL A   1      30.991  27.247  23.665  1.00  0.00     0.047 A 
ATOM     14  C   UNL A   1      31.674  24.550  23.381  1.00  0.00     0.128 A 
ATOM     15  C   UNL A   1      32.353  26.889  23.520  1.00  0.00    -0.021 A 
ATOM     16  Cl  UNL A   1      30.527  28.915  23.808  1.00  0.00    -0.084 Cl
ATOM     17  C   UNL A   1      32.688  25.513  23.437  1.00  0.00     0.022 A 
ATOM     18  O   UNL A   1      31.881  23.211  23.215  1.00  0.00    -0.475 OA
ATOM     19  C   UNL A   1      33.448  27.932  23.464  1.00  0.00     0.047 C 
ATOM     20  C   UNL A   1      34.069  25.040  23.481  1.00  0.00     0.027 C 
ATOM     21  C   UNL A   1      33.234  22.688  23.240  1.00  0.00     0.316 C 
BRANCH  21  22
ATOM     22  C   UNL A   1      33.287  21.574  24.296  1.00  0.00     0.430 C 
ATOM     23  F   UNL A   1      32.211  20.753  24.197  1.00  0.00    -0.167 F 
ATOM     24  F   UNL A   1      34.380  20.788  24.150  1.00  0.00    -0.167 F 
ATOM     25  F   UNL A   1      33.305  22.062  25.556  1.00  0.00    -0.167 F 
ENDBRANCH  21  22
ENDBRANCH   7   9
ENDBRANCH   6   7
ENDBRANCH   5   6
ENDBRANCH   4   5
ENDBRANCH   3   4
ENDBRANCH   2   3
ENDBRANCH   1   2
BRANCH   1  26
ATOM     26  O   UNL A   1      42.169  22.298  25.705  1.00  0.00    -0.376 OA
BRANCH  26  27
ATOM     27  C   UNL A   1      43.013  21.160  25.681  1.00  0.00     0.202 C 
BRANCH  27  28
ATOM     28  C   UNL A   1      44.527  21.140  25.406  1.00  0.00     0.261 C 
BRANCH  28  29
ATOM     29  O   UNL A   1      45.306  22.258  25.823  1.00  0.00    -0.460 OA
BRANCH  29  30
ATOM     30  C   UNL A   1      45.334  23.300  24.954  1.00  0.00     0.338 C 
ATOM     31  O   UNL A   1      45.503  23.247  23.749  1.00  0.00    -0.246 OA
BRANCH  30  32
ATOM     32  C   UNL A   1      44.942  24.519  25.683  1.00  0.00     0.060 A 
ATOM     33  C   UNL A   1      44.496  25.624  24.948  1.00  0.00     0.016 A 
ATOM     34  C   UNL A   1      45.029  24.573  27.075  1.00  0.00     0.016 A 
ATOM     35  C   UNL A   1      44.150  26.802  25.609  1.00  0.00     0.010 A 
ATOM     36  C   UNL A   1      44.706  25.763  27.733  1.00  0.00     0.010 A 
ATOM     37  C   UNL A   1      44.289  26.888  27.002  1.00  0.00    -0.014 A 
BRANCH  37  38
ATOM     38  C   UNL A   1      44.163  28.201  27.677  1.00  0.00     0.031 A 
ATOM     39  C   UNL A   1      45.394  29.054  27.817  1.00  0.00     0.074 A 
ATOM     40  C   UNL A   1      42.977  28.635  28.139  1.00  0.00     0.049 A 
ATOM     41  N   UNL A   1      45.545  30.194  28.437  1.00  0.00    -0.248 NA
ATOM     42  C   UNL A   1      46.616  28.551  27.167  1.00  0.00     0.031 C 
ATOM     43  C   UNL A   1      41.704  27.930  27.998  1.00  0.00     0.029 A 
ATOM     44  N   UNL A   1      42.655  29.781  28.822  1.00  0.00    -0.354 N 
ATOM     45  C   UNL A   1      46.874  30.552  28.244  1.00  0.00     0.074 A 
ATOM     46  C   UNL A   1      47.493  29.494  27.475  1.00  0.00     0.031 C 
ATOM     47  C   UNL A   1      40.737  28.659  28.586  1.00  0.00     0.029 A 
ATOM     48  C   UNL A   1      41.329  29.859  29.176  1.00  0.00     0.049 A 
ATOM     49  H   UNL A   1      43.312  30.482  29.039  1.00  0.00     0.167 HD
ATOM     50  C   UNL A   1      47.518  31.666  28.668  1.00  0.00     0.034 A 
ATOM     51  C   UNL A   1      40.676  30.779  29.915  1.00  0.00     0.034 A 
ATOM     52  C   UNL A   1      46.902  32.702  29.456  1.00  0.00     0.049 A 
ATOM     53  C   UNL A   1      41.441  31.954  30.474  1.00  0.00     0.074 A 
ATOM     54  C   UNL A   1      47.476  33.854  29.964  1.00  0.00     0.029 A 
ATOM     55  N   UNL A   1      45.572  32.711  29.853  1.00  0.00    -0.354 N 
ATOM     56  N   UNL A   1      42.712  32.253  30.337  1.00  0.00    -0.248 NA
ATOM     57  C   UNL A   1      40.684  32.912  31.294  1.00  0.00     0.031 C 
ATOM     58  C   UNL A   1      46.511  34.529  30.717  1.00  0.00     0.029 A 
ATOM     59  C   UNL A   1      45.315  33.836  30.618  1.00  0.00     0.049 A 
ATOM     60  H   UNL A   1      44.910  32.019  29.626  1.00  0.00     0.167 HD
ATOM     61  C   UNL A   1      42.898  33.449  31.025  1.00  0.00     0.074 A 
ATOM     62  C   UNL A   1      41.612  33.816  31.581  1.00  0.00     0.031 C 
ATOM     63  C   UNL A   1      44.029  34.185  31.173  1.00  0.00     0.034 A 
BRANCH  50  64
ATOM     64  C   UNL A   1      48.977  31.795  28.324  1.00  0.00     0.023 A 
ATOM     65  C   UNL A   1      49.403  32.487  27.178  1.00  0.00     0.031 A 
ATOM     66  C   UNL A   1      49.954  31.227  29.160  1.00  0.00     0.131 A 
ATOM     67  C   UNL A   1      50.771  32.563  26.879  1.00  0.00     0.055 A 
ATOM     68  C   UNL A   1      51.317  31.357  28.889  1.00  0.00     0.041 A 
ATOM     69  F   UNL A   1      49.598  30.537  30.255  1.00  0.00    -0.206 F 
ATOM     70  C   UNL A   1      51.732  32.023  27.739  1.00  0.00     0.022 A 
BRANCH  67  71
ATOM     71  S   UNL A   1      51.281  33.313  25.309  1.00  0.00     0.124 S 
ATOM     72  O   UNL A   1      51.461  32.134  24.465  1.00  0.00    -0.237 OA
ATOM     73  O   UNL A   1      50.145  34.166  24.980  1.00  0.00    -0.237 OA
ATOM     74  O   UNL A   1      52.512  34.022  25.652  1.00  0.00    -0.744 OA
ENDBRANCH  67  71
ENDBRANCH  50  64
BRANCH  51  75
ATOM     75  C   UNL A   1      39.225  30.615  30.204  1.00  0.00     0.023 A 
ATOM     76  C   UNL A   1      38.252  31.222  29.395  1.00  0.00     0.031 A 
ATOM     77  C   UNL A   1      38.792  29.872  31.317  1.00  0.00     0.131 A 
ATOM     78  C   UNL A   1      36.893  31.095  29.724  1.00  0.00     0.055 A 
ATOM     79  C   UNL A   1      37.438  29.716  31.617  1.00  0.00     0.041 A 
ATOM     80  F   UNL A   1      39.685  29.275  32.122  1.00  0.00    -0.206 F 
ATOM     81  C   UNL A   1      36.479  30.336  30.822  1.00  0.00     0.022 A 
BRANCH  78  82
ATOM     82  S   UNL A   1      35.666  31.970  28.715  1.00  0.00     0.124 S 
ATOM     83  O   UNL A   1      34.662  32.325  29.712  1.00  0.00    -0.237 OA
ATOM     84  O   UNL A   1      36.450  33.074  28.171  1.00  0.00    -0.237 OA
ATOM     85  O   UNL A   1      35.251  30.966  27.738  1.00  0.00    -0.744 OA
ENDBRANCH  78  82
ENDBRANCH  51  75
BRANCH  63  86
ATOM     86  C   UNL A   1      43.922  35.487  31.924  1.00  0.00     0.023 A 
ATOM     87  C   UNL A   1      43.837  36.720  31.259  1.00  0.00     0.031 A 
ATOM     88  C   UNL A   1      43.859  35.482  33.330  1.00  0.00     0.131 A 
ATOM     89  C   UNL A   1      43.725  37.906  32.002  1.00  0.00     0.055 A 
ATOM     90  C   UNL A   1      43.700  36.659  34.060  1.00  0.00     0.041 A 
ATOM     91  F   UNL A   1      43.930  34.328  34.011  1.00  0.00    -0.206 F 
ATOM     92  C   UNL A   1      43.639  37.881  33.397  1.00  0.00     0.022 A 
BRANCH  89  93
ATOM     93  S   UNL A   1      43.732  39.493  31.123  1.00  0.00     0.124 S 
ATOM     94  O   UNL A   1      45.131  39.891  31.227  1.00  0.00    -0.237 OA
ATOM     95  O   UNL A   1      43.273  39.116  29.790  1.00  0.00    -0.237 OA
ATOM     96  O   UNL A   1      42.794  40.313  31.889  1.00  0.00    -0.744 OA
ENDBRANCH  89  93
ENDBRANCH  63  86
ENDBRANCH  37  38
ENDBRANCH  30  32
ENDBRANCH  29  30
ENDBRANCH  28  29
ENDBRANCH  27  28
ENDBRANCH  26  27
ENDBRANCH   1  26
TORSDOF 21
ENDMDL
