MODEL 1
REMARK VINA RESULT:     -11.3      0.000      0.000
REMARK SMILES Cc1ccc(C(=O)OCCOCCOCCOC(=O)c2ccc(-c3c4nc(c(-c5cc(S(=O)(=O)[O-])ccc5F)c5ccc([nH]5)c(-c5cc(S(=O)(=O)[O-])ccc5F)c5nc(c(-c6cc(S(=O)(=O)[O-])ccc6F)c6ccc3[nH]6)C=C5)C=C4)cc2)cc1S(=O)(=O)N(C)[C@H]1CCSC1
REMARK SMILES IDX 12 1 11 2 10 3 9 4 8 5 6 6 7 7 5 8 1 9 2 10 3 11 84 12 4 13
REMARK SMILES IDX 83 14 85 15 86 16 87 17 88 18 89 19 90 20 91 21 94 22 92 23
REMARK SMILES IDX 93 24 13 25 14 26 15 27 16 28 17 29 18 30 19 31 20 32 21 33
REMARK SMILES IDX 82 34 22 35 81 36 23 37 24 38 25 39 75 40 26 41 80 42 74 43
REMARK SMILES IDX 76 44 27 45 79 46 73 47 72 48 28 50 60 51 40 52 59 53 41 54
REMARK SMILES IDX 44 55 58 56 77 57 42 58 43 59 57 61 78 62 45 63 29 64 30 65
REMARK SMILES IDX 38 66 31 67 37 68 39 69 36 70 32 71 33 72 34 73 35 74 61 75
REMARK SMILES IDX 62 76 70 77 63 78 69 79 71 80 68 81 64 82 65 83 66 84 67 85
REMARK SMILES IDX 46 86 47 87 55 88 48 89 54 90 56 91 53 92 49 93 50 94 51 95
REMARK SMILES IDX 52 96
REMARK H PARENT 76 49 44 60
REMARK Flexibility Score: inf
ROOT
ATOM      1  C   UNL A   1      32.832  27.998  25.540  1.00  0.00     0.188 C 
ENDROOT
BRANCH   1   2
ATOM      2  O   UNL A   1      33.696  28.637  24.602  1.00  0.00    -0.376 OA
BRANCH   2   3
ATOM      3  C   UNL A   1      33.258  28.752  23.241  1.00  0.00     0.202 C 
BRANCH   3   4
ATOM      4  C   UNL A   1      34.005  28.002  22.093  1.00  0.00     0.261 C 
BRANCH   4   5
ATOM      5  O   UNL A   1      33.232  27.205  21.099  1.00  0.00    -0.460 OA
BRANCH   5   6
ATOM      6  C   UNL A   1      32.922  25.842  21.040  1.00  0.00     0.338 C 
ATOM      7  O   UNL A   1      33.054  25.191  20.016  1.00  0.00    -0.246 OA
BRANCH   6   8
ATOM      8  C   UNL A   1      32.365  25.147  22.483  1.00  0.00     0.061 A 
ATOM      9  C   UNL A   1      30.846  22.551  25.669  1.00  0.00     0.046 C 
ATOM     10  C   UNL A   1      31.504  23.590  24.816  1.00  0.00    -0.031 A 
ATOM     11  C   UNL A   1      30.611  24.364  24.144  1.00  0.00     0.006 A 
ATOM     12  C   UNL A   1      32.856  23.822  24.482  1.00  0.00     0.086 A 
ATOM     13  C   UNL A   1      31.062  25.115  23.067  1.00  0.00     0.016 A 
ATOM     14  C   UNL A   1      33.276  24.528  23.298  1.00  0.00     0.037 A 
BRANCH  12  15
ATOM     15  S   UNL A   1      34.181  23.686  25.655  1.00  0.00     0.243 S 
ATOM     16  O   UNL A   1      35.018  24.849  25.451  1.00  0.00    -0.207 OA
ATOM     17  O   UNL A   1      33.557  23.420  26.935  1.00  0.00    -0.207 OA
BRANCH  15  18
ATOM     18  N   UNL A   1      35.057  22.297  25.252  1.00  0.00    -0.197 NA
ATOM     19  C   UNL A   1      34.280  21.245  24.593  1.00  0.00     0.125 C 
BRANCH  18  20
ATOM     20  C   UNL A   1      36.413  22.083  25.856  1.00  0.00     0.083 C 
ATOM     21  C   UNL A   1      37.442  21.403  24.946  1.00  0.00     0.032 C 
ATOM     22  C   UNL A   1      37.048  23.416  26.267  1.00  0.00     0.089 C 
ATOM     23  C   UNL A   1      38.772  21.445  25.679  1.00  0.00     0.071 C 
ATOM     24  S   UNL A   1      38.847  23.129  26.335  1.00  0.00    -0.160 SA
ENDBRANCH  18  20
ENDBRANCH  15  18
ENDBRANCH  12  15
ENDBRANCH   6   8
ENDBRANCH   5   6
ENDBRANCH   4   5
ENDBRANCH   3   4
ENDBRANCH   2   3
ENDBRANCH   1   2
BRANCH   1  25
ATOM     25  C   UNL A   1      32.870  28.484  26.979  1.00  0.00     0.188 C 
BRANCH  25  26
ATOM     26  O   UNL A   1      32.274  29.780  27.032  1.00  0.00    -0.376 OA
BRANCH  26  27
ATOM     27  C   UNL A   1      33.193  30.834  27.273  1.00  0.00     0.202 C 
BRANCH  27  28
ATOM     28  C   UNL A   1      34.610  30.337  27.598  1.00  0.00     0.261 C 
BRANCH  28  29
ATOM     29  O   UNL A   1      35.482  31.462  27.829  1.00  0.00    -0.460 OA
BRANCH  29  30
ATOM     30  C   UNL A   1      36.381  31.338  28.873  1.00  0.00     0.338 C 
ATOM     31  O   UNL A   1      36.576  32.169  29.702  1.00  0.00    -0.246 OA
BRANCH  30  32
ATOM     32  C   UNL A   1      37.085  30.010  28.703  1.00  0.00     0.060 A 
ATOM     33  C   UNL A   1      37.371  29.102  29.719  1.00  0.00     0.016 A 
ATOM     34  C   UNL A   1      37.764  29.832  27.547  1.00  0.00     0.016 A 
ATOM     35  C   UNL A   1      38.504  28.194  29.627  1.00  0.00     0.010 A 
ATOM     36  C   UNL A   1      39.000  29.190  27.659  1.00  0.00     0.010 A 
ATOM     37  C   UNL A   1      39.509  28.317  28.651  1.00  0.00    -0.014 A 
BRANCH  37  38
ATOM     38  C   UNL A   1      41.101  27.753  28.835  1.00  0.00     0.031 A 
ATOM     39  C   UNL A   1      41.966  26.305  28.386  1.00  0.00     0.074 A 
ATOM     40  C   UNL A   1      41.913  28.560  29.549  1.00  0.00     0.049 A 
ATOM     41  N   UNL A   1      42.752  25.612  29.194  1.00  0.00    -0.248 NA
ATOM     42  C   UNL A   1      41.858  25.420  27.161  1.00  0.00     0.031 C 
ATOM     43  C   UNL A   1      43.358  28.444  29.687  1.00  0.00     0.029 A 
ATOM     44  N   UNL A   1      41.625  29.643  30.362  1.00  0.00    -0.354 N 
ATOM     45  C   UNL A   1      43.241  24.535  28.414  1.00  0.00     0.074 A 
ATOM     46  C   UNL A   1      42.185  24.197  27.560  1.00  0.00     0.031 C 
ATOM     47  C   UNL A   1      43.745  29.190  30.735  1.00  0.00     0.029 A 
ATOM     48  C   UNL A   1      42.541  29.651  31.396  1.00  0.00     0.049 A 
ATOM     49  H   UNL A   1      40.896  30.291  30.226  1.00  0.00     0.167 HD
ATOM     50  C   UNL A   1      44.570  24.334  28.123  1.00  0.00     0.034 A 
ATOM     51  C   UNL A   1      42.179  29.424  32.694  1.00  0.00     0.034 A 
ATOM     52  C   UNL A   1      45.335  24.969  29.157  1.00  0.00     0.049 A 
ATOM     53  C   UNL A   1      42.922  28.218  33.252  1.00  0.00     0.074 A 
ATOM     54  C   UNL A   1      46.159  26.070  29.233  1.00  0.00     0.029 A 
ATOM     55  N   UNL A   1      44.992  24.625  30.446  1.00  0.00    -0.354 N 
ATOM     56  N   UNL A   1      43.561  27.363  32.498  1.00  0.00    -0.248 NA
ATOM     57  C   UNL A   1      43.058  27.891  34.667  1.00  0.00     0.031 C 
ATOM     58  C   UNL A   1      46.137  26.496  30.598  1.00  0.00     0.029 A 
ATOM     59  C   UNL A   1      45.365  25.604  31.328  1.00  0.00     0.049 A 
ATOM     60  H   UNL A   1      44.539  23.789  30.698  1.00  0.00     0.167 HD
ATOM     61  C   UNL A   1      44.202  26.431  33.262  1.00  0.00     0.074 A 
ATOM     62  C   UNL A   1      43.844  26.798  34.619  1.00  0.00     0.031 C 
ATOM     63  C   UNL A   1      44.960  25.434  32.712  1.00  0.00     0.034 A 
BRANCH  50  64
ATOM     64  C   UNL A   1      45.191  23.746  26.816  1.00  0.00     0.023 A 
ATOM     65  C   UNL A   1      44.783  22.455  26.404  1.00  0.00     0.031 A 
ATOM     66  C   UNL A   1      46.231  24.289  26.003  1.00  0.00     0.131 A 
ATOM     67  C   UNL A   1      45.382  21.785  25.303  1.00  0.00     0.055 A 
ATOM     68  C   UNL A   1      46.780  23.648  24.876  1.00  0.00     0.041 A 
ATOM     69  F   UNL A   1      46.852  25.442  26.262  1.00  0.00    -0.206 F 
ATOM     70  C   UNL A   1      46.366  22.383  24.524  1.00  0.00     0.022 A 
BRANCH  67  71
ATOM     71  S   UNL A   1      44.910  20.074  24.927  1.00  0.00     0.124 S 
ATOM     72  O   UNL A   1      44.620  20.149  23.499  1.00  0.00    -0.237 OA
ATOM     73  O   UNL A   1      46.104  19.329  25.309  1.00  0.00    -0.237 OA
ATOM     74  O   UNL A   1      43.743  19.843  25.779  1.00  0.00    -0.744 OA
ENDBRANCH  67  71
ENDBRANCH  50  64
BRANCH  51  75
ATOM     75  C   UNL A   1      40.822  29.956  33.057  1.00  0.00     0.023 A 
ATOM     76  C   UNL A   1      40.721  31.369  33.140  1.00  0.00     0.031 A 
ATOM     77  C   UNL A   1      39.621  29.240  32.939  1.00  0.00     0.131 A 
ATOM     78  C   UNL A   1      39.500  32.025  32.920  1.00  0.00     0.055 A 
ATOM     79  C   UNL A   1      38.381  29.902  32.812  1.00  0.00     0.041 A 
ATOM     80  F   UNL A   1      39.630  27.909  32.789  1.00  0.00    -0.206 F 
ATOM     81  C   UNL A   1      38.322  31.298  32.763  1.00  0.00     0.022 A 
BRANCH  78  82
ATOM     82  S   UNL A   1      39.528  33.797  32.472  1.00  0.00     0.124 S 
ATOM     83  O   UNL A   1      38.838  33.797  31.188  1.00  0.00    -0.237 OA
ATOM     84  O   UNL A   1      38.821  34.425  33.585  1.00  0.00    -0.237 OA
ATOM     85  O   UNL A   1      40.957  34.091  32.430  1.00  0.00    -0.744 OA
ENDBRANCH  78  82
ENDBRANCH  51  75
BRANCH  63  86
ATOM     86  C   UNL A   1      45.331  24.138  33.405  1.00  0.00     0.023 A 
ATOM     87  C   UNL A   1      46.557  23.963  34.046  1.00  0.00     0.031 A 
ATOM     88  C   UNL A   1      44.386  23.092  33.585  1.00  0.00     0.131 A 
ATOM     89  C   UNL A   1      46.842  22.780  34.745  1.00  0.00     0.055 A 
ATOM     90  C   UNL A   1      44.625  21.980  34.396  1.00  0.00     0.041 A 
ATOM     91  F   UNL A   1      43.178  23.116  33.002  1.00  0.00    -0.206 F 
ATOM     92  C   UNL A   1      45.873  21.805  34.964  1.00  0.00     0.022 A 
BRANCH  89  93
ATOM     93  S   UNL A   1      48.561  22.496  35.225  1.00  0.00     0.124 S 
ATOM     94  O   UNL A   1      49.284  23.038  34.076  1.00  0.00    -0.237 OA
ATOM     95  O   UNL A   1      48.670  23.263  36.460  1.00  0.00    -0.237 OA
ATOM     96  O   UNL A   1      48.639  21.046  35.377  1.00  0.00    -0.744 OA
ENDBRANCH  89  93
ENDBRANCH  63  86
ENDBRANCH  37  38
ENDBRANCH  30  32
ENDBRANCH  29  30
ENDBRANCH  28  29
ENDBRANCH  27  28
ENDBRANCH  26  27
ENDBRANCH  25  26
ENDBRANCH   1  25
TORSDOF 23
ENDMDL
MODEL 2
REMARK VINA RESULT:     -10.6      2.125      2.458
REMARK SMILES Cc1ccc(C(=O)OCCOCCOCCOC(=O)c2ccc(-c3c4nc(c(-c5cc(S(=O)(=O)[O-])ccc5F)c5ccc([nH]5)c(-c5cc(S(=O)(=O)[O-])ccc5F)c5nc(c(-c6cc(S(=O)(=O)[O-])ccc6F)c6ccc3[nH]6)C=C5)C=C4)cc2)cc1S(=O)(=O)N(C)[C@H]1CCSC1
REMARK SMILES IDX 12 1 11 2 10 3 9 4 8 5 6 6 7 7 5 8 1 9 2 10 3 11 84 12 4 13
REMARK SMILES IDX 83 14 85 15 86 16 87 17 88 18 89 19 90 20 91 21 94 22 92 23
REMARK SMILES IDX 93 24 13 25 14 26 15 27 16 28 17 29 18 30 19 31 20 32 21 33
REMARK SMILES IDX 82 34 22 35 81 36 23 37 24 38 25 39 75 40 26 41 80 42 74 43
REMARK SMILES IDX 76 44 27 45 79 46 73 47 72 48 28 50 60 51 40 52 59 53 41 54
REMARK SMILES IDX 44 55 58 56 77 57 42 58 43 59 57 61 78 62 45 63 29 64 30 65
REMARK SMILES IDX 38 66 31 67 37 68 39 69 36 70 32 71 33 72 34 73 35 74 61 75
REMARK SMILES IDX 62 76 70 77 63 78 69 79 71 80 68 81 64 82 65 83 66 84 67 85
REMARK SMILES IDX 46 86 47 87 55 88 48 89 54 90 56 91 53 92 49 93 50 94 51 95
REMARK SMILES IDX 52 96
REMARK H PARENT 76 49 44 60
REMARK Flexibility Score: inf
ROOT
ATOM      1  C   UNL A   1      32.813  27.695  25.396  1.00  0.00     0.188 C 
ENDROOT
BRANCH   1   2
ATOM      2  O   UNL A   1      33.662  28.486  24.567  1.00  0.00    -0.376 OA
BRANCH   2   3
ATOM      3  C   UNL A   1      33.337  28.603  23.174  1.00  0.00     0.202 C 
BRANCH   3   4
ATOM      4  C   UNL A   1      34.125  27.793  22.097  1.00  0.00     0.261 C 
BRANCH   4   5
ATOM      5  O   UNL A   1      33.386  27.017  21.061  1.00  0.00    -0.460 OA
BRANCH   5   6
ATOM      6  C   UNL A   1      32.948  25.687  21.032  1.00  0.00     0.338 C 
ATOM      7  O   UNL A   1      33.035  25.000  20.028  1.00  0.00    -0.246 OA
BRANCH   6   8
ATOM      8  C   UNL A   1      32.306  25.088  22.482  1.00  0.00     0.061 A 
ATOM      9  C   UNL A   1      30.585  22.709  25.733  1.00  0.00     0.046 C 
ATOM     10  C   UNL A   1      31.300  23.686  24.856  1.00  0.00    -0.031 A 
ATOM     11  C   UNL A   1      30.454  24.424  24.089  1.00  0.00     0.006 A 
ATOM     12  C   UNL A   1      32.672  23.887  24.584  1.00  0.00     0.086 A 
ATOM     13  C   UNL A   1      30.972  25.103  22.994  1.00  0.00     0.016 A 
ATOM     14  C   UNL A   1      33.164  24.514  23.383  1.00  0.00     0.037 A 
BRANCH  12  15
ATOM     15  S   UNL A   1      33.928  23.813  25.834  1.00  0.00     0.243 S 
ATOM     16  O   UNL A   1      34.985  24.699  25.393  1.00  0.00    -0.207 OA
ATOM     17  O   UNL A   1      33.249  24.020  27.097  1.00  0.00    -0.207 OA
BRANCH  15  18
ATOM     18  N   UNL A   1      34.510  22.226  25.858  1.00  0.00    -0.197 NA
ATOM     19  C   UNL A   1      33.813  21.326  26.780  1.00  0.00     0.125 C 
BRANCH  18  20
ATOM     20  C   UNL A   1      35.839  21.922  25.234  1.00  0.00     0.083 C 
ATOM     21  C   UNL A   1      37.065  22.295  26.075  1.00  0.00     0.032 C 
ATOM     22  C   UNL A   1      35.980  20.423  24.946  1.00  0.00     0.089 C 
ATOM     23  C   UNL A   1      38.280  21.747  25.345  1.00  0.00     0.071 C 
ATOM     24  S   UNL A   1      37.769  20.086  24.848  1.00  0.00    -0.160 SA
ENDBRANCH  18  20
ENDBRANCH  15  18
ENDBRANCH  12  15
ENDBRANCH   6   8
ENDBRANCH   5   6
ENDBRANCH   4   5
ENDBRANCH   3   4
ENDBRANCH   2   3
ENDBRANCH   1   2
BRANCH   1  25
ATOM     25  C   UNL A   1      32.711  28.072  26.864  1.00  0.00     0.188 C 
BRANCH  25  26
ATOM     26  O   UNL A   1      31.797  29.162  26.986  1.00  0.00    -0.376 OA
BRANCH  26  27
ATOM     27  C   UNL A   1      32.413  30.410  27.266  1.00  0.00     0.202 C 
BRANCH  27  28
ATOM     28  C   UNL A   1      33.946  30.326  27.327  1.00  0.00     0.261 C 
BRANCH  28  29
ATOM     29  O   UNL A   1      34.491  31.608  27.700  1.00  0.00    -0.460 OA
BRANCH  29  30
ATOM     30  C   UNL A   1      35.389  31.611  28.753  1.00  0.00     0.338 C 
ATOM     31  O   UNL A   1      35.450  32.455  29.589  1.00  0.00    -0.246 OA
BRANCH  30  32
ATOM     32  C   UNL A   1      36.284  30.404  28.581  1.00  0.00     0.060 A 
ATOM     33  C   UNL A   1      36.573  29.456  29.560  1.00  0.00     0.016 A 
ATOM     34  C   UNL A   1      37.110  30.413  27.511  1.00  0.00     0.016 A 
ATOM     35  C   UNL A   1      37.823  28.712  29.550  1.00  0.00     0.010 A 
ATOM     36  C   UNL A   1      38.402  29.929  27.734  1.00  0.00     0.010 A 
ATOM     37  C   UNL A   1      38.907  29.046  28.719  1.00  0.00    -0.014 A 
BRANCH  37  38
ATOM     38  C   UNL A   1      40.530  28.678  29.063  1.00  0.00     0.031 A 
ATOM     39  C   UNL A   1      41.628  27.389  28.639  1.00  0.00     0.074 A 
ATOM     40  C   UNL A   1      41.139  29.527  29.917  1.00  0.00     0.049 A 
ATOM     41  N   UNL A   1      42.404  26.744  29.497  1.00  0.00    -0.248 NA
ATOM     42  C   UNL A   1      41.780  26.591  27.361  1.00  0.00     0.031 C 
ATOM     43  C   UNL A   1      42.562  29.586  30.224  1.00  0.00     0.029 A 
ATOM     44  N   UNL A   1      40.617  30.501  30.750  1.00  0.00    -0.354 N 
ATOM     45  C   UNL A   1      43.120  25.798  28.720  1.00  0.00     0.074 A 
ATOM     46  C   UNL A   1      42.223  25.393  27.725  1.00  0.00     0.031 C 
ATOM     47  C   UNL A   1      42.723  30.296  31.352  1.00  0.00     0.029 A 
ATOM     48  C   UNL A   1      41.400  30.550  31.887  1.00  0.00     0.049 A 
ATOM     49  H   UNL A   1      39.828  31.059  30.564  1.00  0.00     0.167 HD
ATOM     50  C   UNL A   1      44.488  25.791  28.583  1.00  0.00     0.034 A 
ATOM     51  C   UNL A   1      40.927  30.183  33.116  1.00  0.00     0.034 A 
ATOM     52  C   UNL A   1      45.037  26.440  29.737  1.00  0.00     0.049 A 
ATOM     53  C   UNL A   1      41.758  29.044  33.689  1.00  0.00     0.074 A 
ATOM     54  C   UNL A   1      45.691  27.628  29.978  1.00  0.00     0.029 A 
ATOM     55  N   UNL A   1      44.600  25.961  30.953  1.00  0.00    -0.354 N 
ATOM     56  N   UNL A   1      42.589  28.335  32.970  1.00  0.00    -0.248 NA
ATOM     57  C   UNL A   1      41.776  28.633  35.089  1.00  0.00     0.031 C 
ATOM     58  C   UNL A   1      45.457  27.946  31.352  1.00  0.00     0.029 A 
ATOM     59  C   UNL A   1      44.735  26.912  31.930  1.00  0.00     0.049 A 
ATOM     60  H   UNL A   1      44.238  25.057  31.099  1.00  0.00     0.167 HD
ATOM     61  C   UNL A   1      43.259  27.439  33.751  1.00  0.00     0.074 A 
ATOM     62  C   UNL A   1      42.703  27.656  35.074  1.00  0.00     0.031 C 
ATOM     63  C   UNL A   1      44.201  26.589  33.241  1.00  0.00     0.034 A 
BRANCH  50  64
ATOM     64  C   UNL A   1      45.327  25.385  27.330  1.00  0.00     0.023 A 
ATOM     65  C   UNL A   1      46.105  26.382  26.694  1.00  0.00     0.031 A 
ATOM     66  C   UNL A   1      45.343  24.138  26.636  1.00  0.00     0.131 A 
ATOM     67  C   UNL A   1      46.800  26.142  25.478  1.00  0.00     0.055 A 
ATOM     68  C   UNL A   1      46.082  23.886  25.464  1.00  0.00     0.041 A 
ATOM     69  F   UNL A   1      44.599  23.084  26.982  1.00  0.00    -0.206 F 
ATOM     70  C   UNL A   1      46.809  24.892  24.870  1.00  0.00     0.022 A 
BRANCH  67  71
ATOM     71  S   UNL A   1      47.654  27.510  24.645  1.00  0.00     0.124 S 
ATOM     72  O   UNL A   1      46.909  27.611  23.395  1.00  0.00    -0.237 OA
ATOM     73  O   UNL A   1      47.486  28.606  25.593  1.00  0.00    -0.237 OA
ATOM     74  O   UNL A   1      49.027  27.024  24.504  1.00  0.00    -0.744 OA
ENDBRANCH  67  71
ENDBRANCH  50  64
BRANCH  51  75
ATOM     75  C   UNL A   1      39.479  30.510  33.340  1.00  0.00     0.023 A 
ATOM     76  C   UNL A   1      39.175  31.889  33.475  1.00  0.00     0.031 A 
ATOM     77  C   UNL A   1      38.408  29.651  33.050  1.00  0.00     0.131 A 
ATOM     78  C   UNL A   1      37.908  32.392  33.142  1.00  0.00     0.055 A 
ATOM     79  C   UNL A   1      37.110  30.150  32.808  1.00  0.00     0.041 A 
ATOM     80  F   UNL A   1      38.615  28.344  32.842  1.00  0.00    -0.206 F 
ATOM     81  C   UNL A   1      36.866  31.527  32.816  1.00  0.00     0.022 A 
BRANCH  78  82
ATOM     82  S   UNL A   1      37.742  34.176  32.781  1.00  0.00     0.124 S 
ATOM     83  O   UNL A   1      38.179  34.781  34.032  1.00  0.00    -0.237 OA
ATOM     84  O   UNL A   1      38.623  34.359  31.631  1.00  0.00    -0.237 OA
ATOM     85  O   UNL A   1      36.321  34.305  32.470  1.00  0.00    -0.744 OA
ENDBRANCH  78  82
ENDBRANCH  51  75
BRANCH  63  86
ATOM     86  C   UNL A   1      44.663  25.304  33.898  1.00  0.00     0.023 A 
ATOM     87  C   UNL A   1      45.477  25.298  35.031  1.00  0.00     0.031 A 
ATOM     88  C   UNL A   1      44.156  24.039  33.498  1.00  0.00     0.131 A 
ATOM     89  C   UNL A   1      45.826  24.095  35.662  1.00  0.00     0.055 A 
ATOM     90  C   UNL A   1      44.394  22.861  34.210  1.00  0.00     0.041 A 
ATOM     91  F   UNL A   1      43.385  23.893  32.410  1.00  0.00    -0.206 F 
ATOM     92  C   UNL A   1      45.257  22.880  35.290  1.00  0.00     0.022 A 
BRANCH  89  93
ATOM     93  S   UNL A   1      47.158  24.155  36.882  1.00  0.00     0.124 S 
ATOM     94  O   UNL A   1      46.553  24.959  37.941  1.00  0.00    -0.237 OA
ATOM     95  O   UNL A   1      47.360  22.745  37.193  1.00  0.00    -0.237 OA
ATOM     96  O   UNL A   1      48.252  24.803  36.163  1.00  0.00    -0.744 OA
ENDBRANCH  89  93
ENDBRANCH  63  86
ENDBRANCH  37  38
ENDBRANCH  30  32
ENDBRANCH  29  30
ENDBRANCH  28  29
ENDBRANCH  27  28
ENDBRANCH  26  27
ENDBRANCH  25  26
ENDBRANCH   1  25
TORSDOF 23
ENDMDL
MODEL 3
REMARK VINA RESULT:     -10.2      4.626      7.780
REMARK SMILES Cc1ccc(C(=O)OCCOCCOCCOC(=O)c2ccc(-c3c4nc(c(-c5cc(S(=O)(=O)[O-])ccc5F)c5ccc([nH]5)c(-c5cc(S(=O)(=O)[O-])ccc5F)c5nc(c(-c6cc(S(=O)(=O)[O-])ccc6F)c6ccc3[nH]6)C=C5)C=C4)cc2)cc1S(=O)(=O)N(C)[C@H]1CCSC1
REMARK SMILES IDX 12 1 11 2 10 3 9 4 8 5 6 6 7 7 5 8 1 9 2 10 3 11 84 12 4 13
REMARK SMILES IDX 83 14 85 15 86 16 87 17 88 18 89 19 90 20 91 21 94 22 92 23
REMARK SMILES IDX 93 24 13 25 14 26 15 27 16 28 17 29 18 30 19 31 20 32 21 33
REMARK SMILES IDX 82 34 22 35 81 36 23 37 24 38 25 39 75 40 26 41 80 42 74 43
REMARK SMILES IDX 76 44 27 45 79 46 73 47 72 48 28 50 60 51 40 52 59 53 41 54
REMARK SMILES IDX 44 55 58 56 77 57 42 58 43 59 57 61 78 62 45 63 29 64 30 65
REMARK SMILES IDX 38 66 31 67 37 68 39 69 36 70 32 71 33 72 34 73 35 74 61 75
REMARK SMILES IDX 62 76 70 77 63 78 69 79 71 80 68 81 64 82 65 83 66 84 67 85
REMARK SMILES IDX 46 86 47 87 55 88 48 89 54 90 56 91 53 92 49 93 50 94 51 95
REMARK SMILES IDX 52 96
REMARK H PARENT 76 49 44 60
REMARK Flexibility Score: inf
ROOT
ATOM      1  C   UNL A   1      33.058  35.955  29.156  1.00  0.00     0.188 C 
ENDROOT
BRANCH   1   2
ATOM      2  O   UNL A   1      33.303  36.617  30.396  1.00  0.00    -0.376 OA
BRANCH   2   3
ATOM      3  C   UNL A   1      33.271  35.840  31.601  1.00  0.00     0.202 C 
BRANCH   3   4
ATOM      4  C   UNL A   1      33.985  36.342  32.897  1.00  0.00     0.261 C 
BRANCH   4   5
ATOM      5  O   UNL A   1      35.268  35.719  33.327  1.00  0.00    -0.460 OA
BRANCH   5   6
ATOM      6  C   UNL A   1      35.590  34.404  33.683  1.00  0.00     0.338 C 
ATOM      7  O   UNL A   1      34.733  33.555  33.864  1.00  0.00    -0.246 OA
BRANCH   6   8
ATOM      8  C   UNL A   1      37.244  34.061  33.829  1.00  0.00     0.061 A 
ATOM      9  C   UNL A   1      41.466  33.780  34.964  1.00  0.00     0.046 C 
ATOM     10  C   UNL A   1      40.069  33.587  34.467  1.00  0.00    -0.031 A 
ATOM     11  C   UNL A   1      39.728  34.474  33.494  1.00  0.00     0.006 A 
ATOM     12  C   UNL A   1      39.014  32.757  34.906  1.00  0.00     0.086 A 
ATOM     13  C   UNL A   1      38.383  34.646  33.195  1.00  0.00     0.016 A 
ATOM     14  C   UNL A   1      37.623  33.031  34.650  1.00  0.00     0.037 A 
BRANCH  12  15
ATOM     15  S   UNL A   1      39.255  31.077  35.425  1.00  0.00     0.243 S 
ATOM     16  O   UNL A   1      40.111  31.137  36.591  1.00  0.00    -0.207 OA
ATOM     17  O   UNL A   1      37.934  30.485  35.489  1.00  0.00    -0.207 OA
BRANCH  15  18
ATOM     18  N   UNL A   1      40.074  30.286  34.176  1.00  0.00    -0.197 NA
ATOM     19  C   UNL A   1      39.358  30.238  32.899  1.00  0.00     0.125 C 
BRANCH  18  20
ATOM     20  C   UNL A   1      41.261  29.430  34.503  1.00  0.00     0.083 C 
ATOM     21  C   UNL A   1      41.516  28.260  33.547  1.00  0.00     0.032 C 
ATOM     22  C   UNL A   1      42.553  30.255  34.495  1.00  0.00     0.089 C 
ATOM     23  C   UNL A   1      42.844  27.643  33.952  1.00  0.00     0.071 C 
ATOM     24  S   UNL A   1      43.915  29.073  34.229  1.00  0.00    -0.160 SA
ENDBRANCH  18  20
ENDBRANCH  15  18
ENDBRANCH  12  15
ENDBRANCH   6   8
ENDBRANCH   5   6
ENDBRANCH   4   5
ENDBRANCH   3   4
ENDBRANCH   2   3
ENDBRANCH   1   2
BRANCH   1  25
ATOM     25  C   UNL A   1      33.242  34.447  29.113  1.00  0.00     0.188 C 
BRANCH  25  26
ATOM     26  O   UNL A   1      33.906  34.109  27.894  1.00  0.00    -0.376 OA
BRANCH  26  27
ATOM     27  C   UNL A   1      35.299  33.880  28.036  1.00  0.00     0.202 C 
BRANCH  27  28
ATOM     28  C   UNL A   1      35.626  32.692  28.953  1.00  0.00     0.261 C 
BRANCH  28  29
ATOM     29  O   UNL A   1      36.579  31.824  28.308  1.00  0.00    -0.460 OA
BRANCH  29  30
ATOM     30  C   UNL A   1      36.455  30.471  28.573  1.00  0.00     0.338 C 
ATOM     31  O   UNL A   1      35.463  29.837  28.407  1.00  0.00    -0.246 OA
BRANCH  30  32
ATOM     32  C   UNL A   1      37.769  30.008  29.161  1.00  0.00     0.060 A 
ATOM     33  C   UNL A   1      38.954  30.739  29.188  1.00  0.00     0.016 A 
ATOM     34  C   UNL A   1      37.893  28.681  29.390  1.00  0.00     0.016 A 
ATOM     35  C   UNL A   1      40.252  30.081  29.203  1.00  0.00     0.010 A 
ATOM     36  C   UNL A   1      39.133  28.120  29.073  1.00  0.00     0.010 A 
ATOM     37  C   UNL A   1      40.417  28.706  28.958  1.00  0.00    -0.014 A 
BRANCH  37  38
ATOM     38  C   UNL A   1      41.840  28.003  28.351  1.00  0.00     0.031 A 
ATOM     39  C   UNL A   1      42.496  26.387  28.283  1.00  0.00     0.074 A 
ATOM     40  C   UNL A   1      42.736  28.876  27.845  1.00  0.00     0.049 A 
ATOM     41  N   UNL A   1      43.735  26.060  28.616  1.00  0.00    -0.248 NA
ATOM     42  C   UNL A   1      41.821  25.046  28.086  1.00  0.00     0.031 C 
ATOM     43  C   UNL A   1      43.930  28.554  27.075  1.00  0.00     0.029 A 
ATOM     44  N   UNL A   1      42.814  30.253  27.949  1.00  0.00    -0.354 N 
ATOM     45  C   UNL A   1      43.826  24.661  28.401  1.00  0.00     0.074 A 
ATOM     46  C   UNL A   1      42.564  24.160  28.739  1.00  0.00     0.031 C 
ATOM     47  C   UNL A   1      44.730  29.632  27.063  1.00  0.00     0.029 A 
ATOM     48  C   UNL A   1      44.152  30.600  27.973  1.00  0.00     0.049 A 
ATOM     49  H   UNL A   1      42.053  30.875  27.997  1.00  0.00     0.167 HD
ATOM     50  C   UNL A   1      44.679  24.074  27.497  1.00  0.00     0.034 A 
ATOM     51  C   UNL A   1      44.746  31.146  29.077  1.00  0.00     0.034 A 
ATOM     52  C   UNL A   1      45.776  24.975  27.295  1.00  0.00     0.049 A 
ATOM     53  C   UNL A   1      45.897  30.272  29.552  1.00  0.00     0.074 A 
ATOM     54  C   UNL A   1      46.221  25.765  26.259  1.00  0.00     0.029 A 
ATOM     55  N   UNL A   1      46.402  25.415  28.442  1.00  0.00    -0.354 N 
ATOM     56  N   UNL A   1      46.072  29.041  29.144  1.00  0.00    -0.248 NA
ATOM     57  C   UNL A   1      46.957  30.691  30.461  1.00  0.00     0.031 C 
ATOM     58  C   UNL A   1      46.979  26.822  26.854  1.00  0.00     0.029 A 
ATOM     59  C   UNL A   1      47.041  26.607  28.222  1.00  0.00     0.049 A 
ATOM     60  H   UNL A   1      46.390  24.938  29.302  1.00  0.00     0.167 HD
ATOM     61  C   UNL A   1      47.222  28.521  29.664  1.00  0.00     0.074 A 
ATOM     62  C   UNL A   1      47.736  29.592  30.496  1.00  0.00     0.031 C 
ATOM     63  C   UNL A   1      47.644  27.253  29.375  1.00  0.00     0.034 A 
BRANCH  50  64
ATOM     64  C   UNL A   1      44.439  22.789  26.641  1.00  0.00     0.023 A 
ATOM     65  C   UNL A   1      43.266  22.034  26.884  1.00  0.00     0.031 A 
ATOM     66  C   UNL A   1      45.310  22.178  25.691  1.00  0.00     0.131 A 
ATOM     67  C   UNL A   1      43.022  20.787  26.248  1.00  0.00     0.055 A 
ATOM     68  C   UNL A   1      45.037  20.971  25.018  1.00  0.00     0.041 A 
ATOM     69  F   UNL A   1      46.523  22.646  25.385  1.00  0.00    -0.206 F 
ATOM     70  C   UNL A   1      43.893  20.261  25.301  1.00  0.00     0.022 A 
BRANCH  67  71
ATOM     71  S   UNL A   1      41.571  19.806  26.721  1.00  0.00     0.124 S 
ATOM     72  O   UNL A   1      41.334  19.019  25.515  1.00  0.00    -0.237 OA
ATOM     73  O   UNL A   1      42.053  19.077  27.888  1.00  0.00    -0.237 OA
ATOM     74  O   UNL A   1      40.550  20.815  27.004  1.00  0.00    -0.744 OA
ENDBRANCH  67  71
ENDBRANCH  50  64
BRANCH  51  75
ATOM     75  C   UNL A   1      43.850  32.054  29.871  1.00  0.00     0.023 A 
ATOM     76  C   UNL A   1      43.709  33.372  29.366  1.00  0.00     0.031 A 
ATOM     77  C   UNL A   1      42.884  31.622  30.793  1.00  0.00     0.131 A 
ATOM     78  C   UNL A   1      42.558  34.131  29.624  1.00  0.00     0.055 A 
ATOM     79  C   UNL A   1      41.774  32.427  31.126  1.00  0.00     0.041 A 
ATOM     80  F   UNL A   1      42.905  30.370  31.271  1.00  0.00    -0.206 F 
ATOM     81  C   UNL A   1      41.588  33.669  30.512  1.00  0.00     0.022 A 
BRANCH  78  82
ATOM     82  S   UNL A   1      42.168  35.534  28.520  1.00  0.00     0.124 S 
ATOM     83  O   UNL A   1      42.709  36.665  29.263  1.00  0.00    -0.237 OA
ATOM     84  O   UNL A   1      42.863  35.179  27.285  1.00  0.00    -0.237 OA
ATOM     85  O   UNL A   1      40.713  35.468  28.425  1.00  0.00    -0.744 OA
ENDBRANCH  78  82
ENDBRANCH  51  75
BRANCH  63  86
ATOM     86  C   UNL A   1      48.620  26.447  30.209  1.00  0.00     0.023 A 
ATOM     87  C   UNL A   1      48.342  26.072  31.523  1.00  0.00     0.031 A 
ATOM     88  C   UNL A   1      49.797  25.887  29.644  1.00  0.00     0.131 A 
ATOM     89  C   UNL A   1      49.232  25.262  32.245  1.00  0.00     0.055 A 
ATOM     90  C   UNL A   1      50.606  24.971  30.320  1.00  0.00     0.041 A 
ATOM     91  F   UNL A   1      50.200  26.184  28.399  1.00  0.00    -0.206 F 
ATOM     92  C   UNL A   1      50.339  24.671  31.643  1.00  0.00     0.022 A 
BRANCH  89  93
ATOM     93  S   UNL A   1      48.972  25.131  34.028  1.00  0.00     0.124 S 
ATOM     94  O   UNL A   1      48.268  26.378  34.318  1.00  0.00    -0.237 OA
ATOM     95  O   UNL A   1      48.175  23.914  34.139  1.00  0.00    -0.237 OA
ATOM     96  O   UNL A   1      50.327  25.046  34.566  1.00  0.00    -0.744 OA
ENDBRANCH  89  93
ENDBRANCH  63  86
ENDBRANCH  37  38
ENDBRANCH  30  32
ENDBRANCH  29  30
ENDBRANCH  28  29
ENDBRANCH  27  28
ENDBRANCH  26  27
ENDBRANCH  25  26
ENDBRANCH   1  25
TORSDOF 23
ENDMDL
