MODEL 1
REMARK VINA RESULT:      -9.1      0.000      0.000
REMARK SMILES O=C(C[C@H](c1ccsc1)n1cccc1)OCCOCCOCCOC(=O)c1ccc(-c2c3nc(c(-c4cc(S(=O)(=O)[O-])ccc4F)c4ccc([nH]4)c(-c4cc(S(=O)(=O)[O-])ccc4F)c4nc(c(-c5cc(S(=O)(=O)[O-])ccc5F)c5ccc2[nH]5)C=C4)C=C3)cc1
REMARK SMILES IDX 20 1 19 2 18 3 17 4 16 5 15 6 2 7 1 8 3 9 4 10 10 11 11 12
REMARK SMILES IDX 14 13 12 14 13 15 5 16 6 17 9 18 7 19 8 20 21 21 22 22 23 23
REMARK SMILES IDX 24 24 25 25 26 26 27 27 28 28 89 29 29 30 88 31 30 32 31 33
REMARK SMILES IDX 32 34 82 35 33 36 87 37 81 38 83 39 34 40 86 41 80 42 79 43
REMARK SMILES IDX 35 45 67 46 47 47 66 48 48 49 51 50 65 51 84 52 49 53 50 54
REMARK SMILES IDX 64 56 85 57 52 58 36 59 37 60 45 61 38 62 44 63 46 64 43 65
REMARK SMILES IDX 39 66 40 67 41 68 42 69 68 70 69 71 77 72 70 73 76 74 78 75
REMARK SMILES IDX 75 76 71 77 72 78 73 79 74 80 53 81 54 82 62 83 55 84 61 85
REMARK SMILES IDX 63 86 60 87 56 88 57 89 58 90 59 91
REMARK H PARENT 83 44 51 55
REMARK Flexibility Score: inf
ROOT
ATOM      1  C   UNL A   1      32.395  28.646  26.609  1.00  0.00     0.188 C 
ENDROOT
BRANCH   1   2
ATOM      2  C   UNL A   1      33.552  27.636  26.528  1.00  0.00     0.188 C 
BRANCH   2   3
ATOM      3  O   UNL A   1      33.571  26.623  25.534  1.00  0.00    -0.376 OA
BRANCH   3   4
ATOM      4  C   UNL A   1      33.615  25.249  25.882  1.00  0.00     0.202 C 
BRANCH   4   5
ATOM      5  C   UNL A   1      32.331  24.421  26.007  1.00  0.00     0.261 C 
BRANCH   5   6
ATOM      6  O   UNL A   1      31.216  24.737  25.156  1.00  0.00    -0.463 OA
BRANCH   6   7
ATOM      7  C   UNL A   1      30.269  25.674  25.351  1.00  0.00     0.308 C 
ATOM      8  O   UNL A   1      29.947  25.976  26.497  1.00  0.00    -0.252 OA
BRANCH   7   9
ATOM      9  C   UNL A   1      29.591  26.287  24.163  1.00  0.00     0.153 C 
BRANCH   9  10
ATOM     10  C   UNL A   1      30.361  27.478  23.590  1.00  0.00     0.128 C 
BRANCH  10  11
ATOM     11  N   UNL A   1      31.523  27.075  22.777  1.00  0.00    -0.346 N 
ATOM     12  C   UNL A   1      32.698  27.800  22.738  1.00  0.00     0.086 A 
ATOM     13  C   UNL A   1      31.652  26.008  21.927  1.00  0.00     0.086 A 
ATOM     14  C   UNL A   1      33.609  27.109  21.973  1.00  0.00     0.019 A 
ATOM     15  C   UNL A   1      32.947  25.974  21.462  1.00  0.00     0.019 A 
ENDBRANCH  10  11
BRANCH  10  16
ATOM     16  C   UNL A   1      29.423  28.498  22.954  1.00  0.00    -0.014 A 
ATOM     17  C   UNL A   1      28.000  28.608  23.166  1.00  0.00     0.017 A 
ATOM     18  C   UNL A   1      29.863  29.553  22.168  1.00  0.00     0.070 A 
ATOM     19  C   UNL A   1      27.443  29.702  22.542  1.00  0.00     0.065 A 
ATOM     20  S   UNL A   1      28.608  30.613  21.691  1.00  0.00    -0.152 S 
ENDBRANCH  10  16
ENDBRANCH   9  10
ENDBRANCH   7   9
ENDBRANCH   6   7
ENDBRANCH   5   6
ENDBRANCH   4   5
ENDBRANCH   3   4
ENDBRANCH   2   3
ENDBRANCH   1   2
BRANCH   1  21
ATOM     21  O   UNL A   1      32.680  29.919  26.044  1.00  0.00    -0.376 OA
BRANCH  21  22
ATOM     22  C   UNL A   1      31.886  31.007  26.490  1.00  0.00     0.202 C 
BRANCH  22  23
ATOM     23  C   UNL A   1      32.540  31.867  27.575  1.00  0.00     0.261 C 
BRANCH  23  24
ATOM     24  O   UNL A   1      33.962  31.795  27.642  1.00  0.00    -0.460 OA
BRANCH  24  25
ATOM     25  C   UNL A   1      34.462  31.980  28.867  1.00  0.00     0.338 C 
ATOM     26  O   UNL A   1      34.089  32.803  29.716  1.00  0.00    -0.246 OA
BRANCH  25  27
ATOM     27  C   UNL A   1      35.640  31.165  29.062  1.00  0.00     0.060 A 
ATOM     28  C   UNL A   1      36.001  30.823  30.370  1.00  0.00     0.016 A 
ATOM     29  C   UNL A   1      36.535  31.106  27.989  1.00  0.00     0.016 A 
ATOM     30  C   UNL A   1      37.326  30.560  30.636  1.00  0.00     0.010 A 
ATOM     31  C   UNL A   1      37.867  30.903  28.268  1.00  0.00     0.010 A 
ATOM     32  C   UNL A   1      38.256  30.684  29.597  1.00  0.00    -0.014 A 
BRANCH  32  33
ATOM     33  C   UNL A   1      39.684  30.550  29.908  1.00  0.00     0.031 A 
ATOM     34  C   UNL A   1      40.268  31.861  30.434  1.00  0.00     0.074 A 
ATOM     35  C   UNL A   1      40.219  29.310  29.675  1.00  0.00     0.049 A 
ATOM     36  N   UNL A   1      41.496  32.270  30.465  1.00  0.00    -0.248 NA
ATOM     37  C   UNL A   1      39.341  32.923  30.929  1.00  0.00     0.031 C 
ATOM     38  C   UNL A   1      39.472  28.148  29.125  1.00  0.00     0.029 A 
ATOM     39  N   UNL A   1      41.472  28.763  29.843  1.00  0.00    -0.354 N 
ATOM     40  C   UNL A   1      41.515  33.469  31.208  1.00  0.00     0.074 A 
ATOM     41  C   UNL A   1      40.158  33.898  31.326  1.00  0.00     0.031 C 
ATOM     42  C   UNL A   1      40.288  27.085  28.942  1.00  0.00     0.029 A 
ATOM     43  C   UNL A   1      41.623  27.421  29.394  1.00  0.00     0.049 A 
ATOM     44  H   UNL A   1      42.215  29.267  30.249  1.00  0.00     0.167 HD
ATOM     45  C   UNL A   1      42.633  33.946  31.824  1.00  0.00     0.034 A 
ATOM     46  C   UNL A   1      42.748  26.639  29.371  1.00  0.00     0.034 A 
ATOM     47  C   UNL A   1      43.745  33.104  31.535  1.00  0.00     0.049 A 
ATOM     48  C   UNL A   1      43.758  27.421  30.102  1.00  0.00     0.074 A 
ATOM     49  C   UNL A   1      44.482  32.887  30.402  1.00  0.00     0.029 A 
ATOM     50  N   UNL A   1      44.038  32.122  32.453  1.00  0.00    -0.354 N 
ATOM     51  N   UNL A   1      43.772  27.590  31.389  1.00  0.00    -0.248 NA
ATOM     52  C   UNL A   1      44.797  28.122  29.341  1.00  0.00     0.031 C 
ATOM     53  C   UNL A   1      44.869  31.536  30.506  1.00  0.00     0.029 A 
ATOM     54  C   UNL A   1      44.467  31.025  31.748  1.00  0.00     0.049 A 
ATOM     55  H   UNL A   1      43.957  32.193  33.431  1.00  0.00     0.167 HD
ATOM     56  C   UNL A   1      44.619  28.658  31.545  1.00  0.00     0.074 A 
ATOM     57  C   UNL A   1      45.436  28.708  30.351  1.00  0.00     0.031 C 
ATOM     58  C   UNL A   1      44.238  29.709  32.316  1.00  0.00     0.034 A 
BRANCH  45  59
ATOM     59  C   UNL A   1      42.829  34.997  32.883  1.00  0.00     0.023 A 
ATOM     60  C   UNL A   1      42.127  34.790  34.095  1.00  0.00     0.031 A 
ATOM     61  C   UNL A   1      43.368  36.275  32.685  1.00  0.00     0.131 A 
ATOM     62  C   UNL A   1      41.867  35.841  34.980  1.00  0.00     0.055 A 
ATOM     63  C   UNL A   1      43.172  37.309  33.613  1.00  0.00     0.041 A 
ATOM     64  F   UNL A   1      44.019  36.601  31.561  1.00  0.00    -0.206 F 
ATOM     65  C   UNL A   1      42.387  37.107  34.747  1.00  0.00     0.022 A 
BRANCH  62  66
ATOM     66  S   UNL A   1      40.682  35.548  36.324  1.00  0.00     0.124 S 
ATOM     67  O   UNL A   1      39.875  36.763  36.295  1.00  0.00    -0.237 OA
ATOM     68  O   UNL A   1      40.014  34.328  35.877  1.00  0.00    -0.237 OA
ATOM     69  O   UNL A   1      41.536  35.395  37.499  1.00  0.00    -0.744 OA
ENDBRANCH  62  66
ENDBRANCH  45  59
BRANCH  46  70
ATOM     70  C   UNL A   1      43.218  25.301  28.821  1.00  0.00     0.023 A 
ATOM     71  C   UNL A   1      43.167  24.882  27.480  1.00  0.00     0.031 A 
ATOM     72  C   UNL A   1      43.835  24.363  29.711  1.00  0.00     0.131 A 
ATOM     73  C   UNL A   1      43.756  23.644  27.091  1.00  0.00     0.055 A 
ATOM     74  C   UNL A   1      44.475  23.190  29.312  1.00  0.00     0.041 A 
ATOM     75  F   UNL A   1      43.858  24.542  31.038  1.00  0.00    -0.206 F 
ATOM     76  C   UNL A   1      44.449  22.828  27.989  1.00  0.00     0.022 A 
BRANCH  73  77
ATOM     77  S   UNL A   1      43.669  23.034  25.381  1.00  0.00     0.124 S 
ATOM     78  O   UNL A   1      45.020  22.525  25.173  1.00  0.00    -0.237 OA
ATOM     79  O   UNL A   1      42.609  22.033  25.435  1.00  0.00    -0.237 OA
ATOM     80  O   UNL A   1      43.337  24.240  24.622  1.00  0.00    -0.744 OA
ENDBRANCH  73  77
ENDBRANCH  46  70
BRANCH  58  81
ATOM     81  C   UNL A   1      43.228  29.351  33.404  1.00  0.00     0.023 A 
ATOM     82  C   UNL A   1      41.900  29.819  33.331  1.00  0.00     0.031 A 
ATOM     83  C   UNL A   1      43.568  28.658  34.580  1.00  0.00     0.131 A 
ATOM     84  C   UNL A   1      41.000  29.615  34.398  1.00  0.00     0.055 A 
ATOM     85  C   UNL A   1      42.676  28.445  35.637  1.00  0.00     0.041 A 
ATOM     86  F   UNL A   1      44.793  28.166  34.753  1.00  0.00    -0.206 F 
ATOM     87  C   UNL A   1      41.382  28.930  35.552  1.00  0.00     0.022 A 
BRANCH  84  88
ATOM     88  S   UNL A   1      39.298  30.229  34.260  1.00  0.00     0.124 S 
ATOM     89  O   UNL A   1      38.705  29.320  33.287  1.00  0.00    -0.237 OA
ATOM     90  O   UNL A   1      38.807  30.110  35.630  1.00  0.00    -0.237 OA
ATOM     91  O   UNL A   1      39.470  31.606  33.793  1.00  0.00    -0.744 OA
ENDBRANCH  84  88
ENDBRANCH  58  81
ENDBRANCH  32  33
ENDBRANCH  25  27
ENDBRANCH  24  25
ENDBRANCH  23  24
ENDBRANCH  22  23
ENDBRANCH  21  22
ENDBRANCH   1  21
TORSDOF 23
ENDMDL
MODEL 2
REMARK VINA RESULT:      -9.0      3.571      5.019
REMARK SMILES O=C(C[C@H](c1ccsc1)n1cccc1)OCCOCCOCCOC(=O)c1ccc(-c2c3nc(c(-c4cc(S(=O)(=O)[O-])ccc4F)c4ccc([nH]4)c(-c4cc(S(=O)(=O)[O-])ccc4F)c4nc(c(-c5cc(S(=O)(=O)[O-])ccc5F)c5ccc2[nH]5)C=C4)C=C3)cc1
REMARK SMILES IDX 20 1 19 2 18 3 17 4 16 5 15 6 2 7 1 8 3 9 4 10 10 11 11 12
REMARK SMILES IDX 14 13 12 14 13 15 5 16 6 17 9 18 7 19 8 20 21 21 22 22 23 23
REMARK SMILES IDX 24 24 25 25 26 26 27 27 28 28 89 29 29 30 88 31 30 32 31 33
REMARK SMILES IDX 32 34 82 35 33 36 87 37 81 38 83 39 34 40 86 41 80 42 79 43
REMARK SMILES IDX 35 45 67 46 47 47 66 48 48 49 51 50 65 51 84 52 49 53 50 54
REMARK SMILES IDX 64 56 85 57 52 58 36 59 37 60 45 61 38 62 44 63 46 64 43 65
REMARK SMILES IDX 39 66 40 67 41 68 42 69 68 70 69 71 77 72 70 73 76 74 78 75
REMARK SMILES IDX 75 76 71 77 72 78 73 79 74 80 53 81 54 82 62 83 55 84 61 85
REMARK SMILES IDX 63 86 60 87 56 88 57 89 58 90 59 91
REMARK H PARENT 83 44 51 55
REMARK Flexibility Score: inf
ROOT
ATOM      1  C   UNL A   1      31.723  29.464  26.311  1.00  0.00     0.188 C 
ENDROOT
BRANCH   1   2
ATOM      2  C   UNL A   1      31.877  28.776  24.944  1.00  0.00     0.188 C 
BRANCH   2   3
ATOM      3  O   UNL A   1      30.741  28.400  24.181  1.00  0.00    -0.376 OA
BRANCH   3   4
ATOM      4  C   UNL A   1      30.871  27.891  22.865  1.00  0.00     0.202 C 
BRANCH   4   5
ATOM      5  C   UNL A   1      32.149  27.174  22.415  1.00  0.00     0.261 C 
BRANCH   5   6
ATOM      6  O   UNL A   1      32.164  25.736  22.382  1.00  0.00    -0.463 OA
BRANCH   6   7
ATOM      7  C   UNL A   1      33.231  24.924  22.260  1.00  0.00     0.308 C 
ATOM      8  O   UNL A   1      33.373  24.268  21.231  1.00  0.00    -0.252 OA
BRANCH   7   9
ATOM      9  C   UNL A   1      34.189  24.799  23.404  1.00  0.00     0.153 C 
BRANCH   9  10
ATOM     10  C   UNL A   1      34.178  23.406  24.036  1.00  0.00     0.128 C 
BRANCH  10  11
ATOM     11  N   UNL A   1      35.474  23.030  24.629  1.00  0.00    -0.346 N 
ATOM     12  C   UNL A   1      36.384  23.960  25.094  1.00  0.00     0.086 A 
ATOM     13  C   UNL A   1      36.018  21.783  24.791  1.00  0.00     0.086 A 
ATOM     14  C   UNL A   1      37.435  23.287  25.673  1.00  0.00     0.019 A 
ATOM     15  C   UNL A   1      37.203  21.910  25.483  1.00  0.00     0.019 A 
ENDBRANCH  10  11
BRANCH  10  16
ATOM     16  C   UNL A   1      32.955  23.204  24.925  1.00  0.00    -0.014 A 
ATOM     17  C   UNL A   1      31.800  22.392  24.628  1.00  0.00     0.017 A 
ATOM     18  C   UNL A   1      32.862  23.696  26.219  1.00  0.00     0.070 A 
ATOM     19  C   UNL A   1      30.908  22.315  25.675  1.00  0.00     0.065 A 
ATOM     20  S   UNL A   1      31.434  23.214  27.027  1.00  0.00    -0.152 S 
ENDBRANCH  10  16
ENDBRANCH   9  10
ENDBRANCH   7   9
ENDBRANCH   6   7
ENDBRANCH   5   6
ENDBRANCH   4   5
ENDBRANCH   3   4
ENDBRANCH   2   3
ENDBRANCH   1   2
BRANCH   1  21
ATOM     21  O   UNL A   1      32.944  29.904  26.893  1.00  0.00    -0.376 OA
BRANCH  21  22
ATOM     22  C   UNL A   1      33.013  31.269  27.271  1.00  0.00     0.202 C 
BRANCH  22  23
ATOM     23  C   UNL A   1      34.284  31.652  28.035  1.00  0.00     0.261 C 
BRANCH  23  24
ATOM     24  O   UNL A   1      35.041  30.562  28.554  1.00  0.00    -0.460 OA
BRANCH  24  25
ATOM     25  C   UNL A   1      36.232  30.910  29.050  1.00  0.00     0.338 C 
ATOM     26  O   UNL A   1      36.572  32.021  29.482  1.00  0.00    -0.246 OA
BRANCH  25  27
ATOM     27  C   UNL A   1      37.180  29.829  28.896  1.00  0.00     0.060 A 
ATOM     28  C   UNL A   1      37.605  29.152  30.045  1.00  0.00     0.016 A 
ATOM     29  C   UNL A   1      37.888  29.795  27.691  1.00  0.00     0.016 A 
ATOM     30  C   UNL A   1      38.843  28.549  30.028  1.00  0.00     0.010 A 
ATOM     31  C   UNL A   1      39.150  29.246  27.696  1.00  0.00     0.010 A 
ATOM     32  C   UNL A   1      39.636  28.674  28.881  1.00  0.00    -0.014 A 
BRANCH  32  33
ATOM     33  C   UNL A   1      41.010  28.162  28.913  1.00  0.00     0.031 A 
ATOM     34  C   UNL A   1      42.005  29.253  29.311  1.00  0.00     0.074 A 
ATOM     35  C   UNL A   1      41.149  26.839  28.588  1.00  0.00     0.049 A 
ATOM     36  N   UNL A   1      43.280  29.330  29.104  1.00  0.00    -0.248 NA
ATOM     37  C   UNL A   1      41.497  30.494  29.970  1.00  0.00     0.031 C 
ATOM     38  C   UNL A   1      40.035  25.935  28.196  1.00  0.00     0.029 A 
ATOM     39  N   UNL A   1      42.223  25.980  28.514  1.00  0.00    -0.354 N 
ATOM     40  C   UNL A   1      43.751  30.448  29.823  1.00  0.00     0.074 A 
ATOM     41  C   UNL A   1      42.600  31.207  30.197  1.00  0.00     0.031 C 
ATOM     42  C   UNL A   1      40.494  24.706  27.865  1.00  0.00     0.029 A 
ATOM     43  C   UNL A   1      41.931  24.666  28.051  1.00  0.00     0.049 A 
ATOM     44  H   UNL A   1      43.134  26.256  28.768  1.00  0.00     0.167 HD
ATOM     45  C   UNL A   1      45.050  30.591  30.211  1.00  0.00     0.034 A 
ATOM     46  C   UNL A   1      42.787  23.623  27.817  1.00  0.00     0.034 A 
ATOM     47  C   UNL A   1      45.828  29.505  29.718  1.00  0.00     0.049 A 
ATOM     48  C   UNL A   1      44.084  24.083  28.337  1.00  0.00     0.074 A 
ATOM     49  C   UNL A   1      46.258  29.158  28.466  1.00  0.00     0.029 A 
ATOM     50  N   UNL A   1      46.019  28.440  30.567  1.00  0.00    -0.354 N 
ATOM     51  N   UNL A   1      44.382  24.184  29.596  1.00  0.00    -0.248 NA
ATOM     52  C   UNL A   1      45.110  24.526  27.387  1.00  0.00     0.031 C 
ATOM     53  C   UNL A   1      46.290  27.749  28.500  1.00  0.00     0.029 A 
ATOM     54  C   UNL A   1      46.007  27.303  29.799  1.00  0.00     0.049 A 
ATOM     55  H   UNL A   1      46.143  28.484  31.543  1.00  0.00     0.167 HD
ATOM     56  C   UNL A   1      45.493  24.989  29.581  1.00  0.00     0.074 A 
ATOM     57  C   UNL A   1      46.056  24.880  28.253  1.00  0.00     0.031 C 
ATOM     58  C   UNL A   1      45.550  26.066  30.406  1.00  0.00     0.034 A 
BRANCH  45  59
ATOM     59  C   UNL A   1      45.707  31.506  31.208  1.00  0.00     0.023 A 
ATOM     60  C   UNL A   1      46.986  31.994  30.847  1.00  0.00     0.031 A 
ATOM     61  C   UNL A   1      45.333  31.670  32.548  1.00  0.00     0.131 A 
ATOM     62  C   UNL A   1      47.880  32.485  31.804  1.00  0.00     0.055 A 
ATOM     63  C   UNL A   1      46.203  32.236  33.493  1.00  0.00     0.041 A 
ATOM     64  F   UNL A   1      44.164  31.215  33.016  1.00  0.00    -0.206 F 
ATOM     65  C   UNL A   1      47.496  32.610  33.133  1.00  0.00     0.022 A 
BRANCH  62  66
ATOM     66  S   UNL A   1      49.600  32.768  31.296  1.00  0.00     0.124 S 
ATOM     67  O   UNL A   1      50.322  32.624  32.555  1.00  0.00    -0.237 OA
ATOM     68  O   UNL A   1      49.805  31.704  30.317  1.00  0.00    -0.237 OA
ATOM     69  O   UNL A   1      49.571  34.121  30.746  1.00  0.00    -0.744 OA
ENDBRANCH  62  66
ENDBRANCH  45  59
BRANCH  46  70
ATOM     70  C   UNL A   1      42.779  22.235  27.193  1.00  0.00     0.023 A 
ATOM     71  C   UNL A   1      43.729  21.714  26.297  1.00  0.00     0.031 A 
ATOM     72  C   UNL A   1      41.754  21.309  27.572  1.00  0.00     0.131 A 
ATOM     73  C   UNL A   1      43.658  20.352  25.886  1.00  0.00     0.055 A 
ATOM     74  C   UNL A   1      41.734  19.958  27.227  1.00  0.00     0.041 A 
ATOM     75  F   UNL A   1      40.702  21.670  28.318  1.00  0.00    -0.206 F 
ATOM     76  C   UNL A   1      42.699  19.467  26.386  1.00  0.00     0.022 A 
BRANCH  73  77
ATOM     77  S   UNL A   1      44.829  19.647  24.687  1.00  0.00     0.124 S 
ATOM     78  O   UNL A   1      46.114  20.053  25.248  1.00  0.00    -0.237 OA
ATOM     79  O   UNL A   1      44.535  18.219  24.730  1.00  0.00    -0.237 OA
ATOM     80  O   UNL A   1      44.459  20.314  23.440  1.00  0.00    -0.744 OA
ENDBRANCH  73  77
ENDBRANCH  46  70
BRANCH  58  81
ATOM     81  C   UNL A   1      44.704  25.931  31.670  1.00  0.00     0.023 A 
ATOM     82  C   UNL A   1      43.723  26.895  31.981  1.00  0.00     0.031 A 
ATOM     83  C   UNL A   1      44.917  24.939  32.644  1.00  0.00     0.131 A 
ATOM     84  C   UNL A   1      43.035  26.859  33.212  1.00  0.00     0.055 A 
ATOM     85  C   UNL A   1      44.230  24.894  33.863  1.00  0.00     0.041 A 
ATOM     86  F   UNL A   1      45.814  23.975  32.452  1.00  0.00    -0.206 F 
ATOM     87  C   UNL A   1      43.286  25.862  34.157  1.00  0.00     0.022 A 
BRANCH  84  88
ATOM     88  S   UNL A   1      41.778  28.116  33.570  1.00  0.00     0.124 S 
ATOM     89  O   UNL A   1      40.838  27.398  34.423  1.00  0.00    -0.237 OA
ATOM     90  O   UNL A   1      42.557  29.167  34.219  1.00  0.00    -0.237 OA
ATOM     91  O   UNL A   1      41.263  28.470  32.247  1.00  0.00    -0.744 OA
ENDBRANCH  84  88
ENDBRANCH  58  81
ENDBRANCH  32  33
ENDBRANCH  25  27
ENDBRANCH  24  25
ENDBRANCH  23  24
ENDBRANCH  22  23
ENDBRANCH  21  22
ENDBRANCH   1  21
TORSDOF 23
ENDMDL
MODEL 3
REMARK VINA RESULT:      -9.0      3.675      5.303
REMARK SMILES O=C(C[C@H](c1ccsc1)n1cccc1)OCCOCCOCCOC(=O)c1ccc(-c2c3nc(c(-c4cc(S(=O)(=O)[O-])ccc4F)c4ccc([nH]4)c(-c4cc(S(=O)(=O)[O-])ccc4F)c4nc(c(-c5cc(S(=O)(=O)[O-])ccc5F)c5ccc2[nH]5)C=C4)C=C3)cc1
REMARK SMILES IDX 20 1 19 2 18 3 17 4 16 5 15 6 2 7 1 8 3 9 4 10 10 11 11 12
REMARK SMILES IDX 14 13 12 14 13 15 5 16 6 17 9 18 7 19 8 20 21 21 22 22 23 23
REMARK SMILES IDX 24 24 25 25 26 26 27 27 28 28 89 29 29 30 88 31 30 32 31 33
REMARK SMILES IDX 32 34 82 35 33 36 87 37 81 38 83 39 34 40 86 41 80 42 79 43
REMARK SMILES IDX 35 45 67 46 47 47 66 48 48 49 51 50 65 51 84 52 49 53 50 54
REMARK SMILES IDX 64 56 85 57 52 58 36 59 37 60 45 61 38 62 44 63 46 64 43 65
REMARK SMILES IDX 39 66 40 67 41 68 42 69 68 70 69 71 77 72 70 73 76 74 78 75
REMARK SMILES IDX 75 76 71 77 72 78 73 79 74 80 53 81 54 82 62 83 55 84 61 85
REMARK SMILES IDX 63 86 60 87 56 88 57 89 58 90 59 91
REMARK H PARENT 83 44 51 55
REMARK Flexibility Score: inf
ROOT
ATOM      1  C   UNL A   1      31.474  29.329  25.270  1.00  0.00     0.188 C 
ENDROOT
BRANCH   1   2
ATOM      2  C   UNL A   1      31.819  27.938  25.829  1.00  0.00     0.188 C 
BRANCH   2   3
ATOM      3  O   UNL A   1      32.356  26.925  24.992  1.00  0.00    -0.376 OA
BRANCH   3   4
ATOM      4  C   UNL A   1      31.532  26.182  24.110  1.00  0.00     0.202 C 
BRANCH   4   5
ATOM      5  C   UNL A   1      31.727  24.673  23.924  1.00  0.00     0.261 C 
BRANCH   5   6
ATOM      6  O   UNL A   1      32.330  23.915  24.987  1.00  0.00    -0.463 OA
BRANCH   6   7
ATOM      7  C   UNL A   1      31.881  22.774  25.543  1.00  0.00     0.308 C 
ATOM      8  O   UNL A   1      31.344  22.812  26.647  1.00  0.00    -0.252 OA
BRANCH   7   9
ATOM      9  C   UNL A   1      32.097  21.476  24.826  1.00  0.00     0.153 C 
BRANCH   9  10
ATOM     10  C   UNL A   1      33.291  20.690  25.372  1.00  0.00     0.128 C 
BRANCH  10  11
ATOM     11  N   UNL A   1      33.193  19.241  25.115  1.00  0.00    -0.346 N 
ATOM     12  C   UNL A   1      33.580  18.663  23.922  1.00  0.00     0.086 A 
ATOM     13  C   UNL A   1      32.701  18.254  25.928  1.00  0.00     0.086 A 
ATOM     14  C   UNL A   1      33.458  17.298  24.041  1.00  0.00     0.019 A 
ATOM     15  C   UNL A   1      32.903  17.039  25.311  1.00  0.00     0.019 A 
ENDBRANCH  10  11
BRANCH  10  16
ATOM     16  C   UNL A   1      34.615  21.346  24.993  1.00  0.00    -0.014 A 
ATOM     17  C   UNL A   1      35.893  21.134  25.629  1.00  0.00     0.017 A 
ATOM     18  C   UNL A   1      34.773  22.157  23.879  1.00  0.00     0.070 A 
ATOM     19  C   UNL A   1      36.928  21.781  24.991  1.00  0.00     0.065 A 
ATOM     20  S   UNL A   1      36.391  22.654  23.627  1.00  0.00    -0.152 S 
ENDBRANCH  10  16
ENDBRANCH   9  10
ENDBRANCH   7   9
ENDBRANCH   6   7
ENDBRANCH   5   6
ENDBRANCH   4   5
ENDBRANCH   3   4
ENDBRANCH   2   3
ENDBRANCH   1   2
BRANCH   1  21
ATOM     21  O   UNL A   1      32.353  30.367  25.684  1.00  0.00    -0.376 OA
BRANCH  21  22
ATOM     22  C   UNL A   1      32.630  30.452  27.073  1.00  0.00     0.202 C 
BRANCH  22  23
ATOM     23  C   UNL A   1      34.030  30.970  27.410  1.00  0.00     0.261 C 
BRANCH  23  24
ATOM     24  O   UNL A   1      34.589  30.483  28.627  1.00  0.00    -0.460 OA
BRANCH  24  25
ATOM     25  C   UNL A   1      35.817  30.940  28.886  1.00  0.00     0.338 C 
ATOM     26  O   UNL A   1      36.156  32.113  29.100  1.00  0.00    -0.246 OA
BRANCH  25  27
ATOM     27  C   UNL A   1      36.791  29.880  28.749  1.00  0.00     0.060 A 
ATOM     28  C   UNL A   1      37.247  29.245  29.909  1.00  0.00     0.016 A 
ATOM     29  C   UNL A   1      37.485  29.831  27.536  1.00  0.00     0.016 A 
ATOM     30  C   UNL A   1      38.500  28.673  29.893  1.00  0.00     0.010 A 
ATOM     31  C   UNL A   1      38.760  29.314  27.539  1.00  0.00     0.010 A 
ATOM     32  C   UNL A   1      39.275  28.787  28.732  1.00  0.00    -0.014 A 
BRANCH  32  33
ATOM     33  C   UNL A   1      40.663  28.311  28.761  1.00  0.00     0.031 A 
ATOM     34  C   UNL A   1      41.634  29.438  29.110  1.00  0.00     0.074 A 
ATOM     35  C   UNL A   1      40.830  26.982  28.474  1.00  0.00     0.049 A 
ATOM     36  N   UNL A   1      42.905  29.541  28.882  1.00  0.00    -0.248 NA
ATOM     37  C   UNL A   1      41.105  30.687  29.738  1.00  0.00     0.031 C 
ATOM     38  C   UNL A   1      39.735  26.039  28.127  1.00  0.00     0.029 A 
ATOM     39  N   UNL A   1      41.925  26.148  28.412  1.00  0.00    -0.354 N 
ATOM     40  C   UNL A   1      43.357  30.692  29.560  1.00  0.00     0.074 A 
ATOM     41  C   UNL A   1      42.192  31.433  29.927  1.00  0.00     0.031 C 
ATOM     42  C   UNL A   1      40.221  24.813  27.827  1.00  0.00     0.029 A 
ATOM     43  C   UNL A   1      41.660  24.814  27.993  1.00  0.00     0.049 A 
ATOM     44  H   UNL A   1      42.833  26.455  28.643  1.00  0.00     0.167 HD
ATOM     45  C   UNL A   1      44.656  30.880  29.925  1.00  0.00     0.034 A 
ATOM     46  C   UNL A   1      42.539  23.786  27.779  1.00  0.00     0.034 A 
ATOM     47  C   UNL A   1      45.455  29.799  29.454  1.00  0.00     0.049 A 
ATOM     48  C   UNL A   1      43.832  24.294  28.266  1.00  0.00     0.074 A 
ATOM     49  C   UNL A   1      45.876  29.424  28.206  1.00  0.00     0.029 A 
ATOM     50  N   UNL A   1      45.685  28.765  30.333  1.00  0.00    -0.354 N 
ATOM     51  N   UNL A   1      44.144  24.442  29.517  1.00  0.00    -0.248 NA
ATOM     52  C   UNL A   1      44.833  24.733  27.288  1.00  0.00     0.031 C 
ATOM     53  C   UNL A   1      45.945  28.017  28.284  1.00  0.00     0.029 A 
ATOM     54  C   UNL A   1      45.691  27.605  29.600  1.00  0.00     0.049 A 
ATOM     55  H   UNL A   1      45.821  28.844  31.304  1.00  0.00     0.167 HD
ATOM     56  C   UNL A   1      45.234  25.273  29.461  1.00  0.00     0.074 A 
ATOM     57  C   UNL A   1      45.781  25.138  28.129  1.00  0.00     0.031 C 
ATOM     58  C   UNL A   1      45.275  26.377  30.252  1.00  0.00     0.034 A 
BRANCH  45  59
ATOM     59  C   UNL A   1      45.304  31.842  30.883  1.00  0.00     0.023 A 
ATOM     60  C   UNL A   1      45.995  32.928  30.294  1.00  0.00     0.031 A 
ATOM     61  C   UNL A   1      45.551  31.610  32.242  1.00  0.00     0.131 A 
ATOM     62  C   UNL A   1      46.973  33.641  30.994  1.00  0.00     0.055 A 
ATOM     63  C   UNL A   1      46.476  32.378  32.965  1.00  0.00     0.041 A 
ATOM     64  F   UNL A   1      44.985  30.589  32.899  1.00  0.00    -0.206 F 
ATOM     65  C   UNL A   1      47.220  33.373  32.334  1.00  0.00     0.022 A 
BRANCH  62  66
ATOM     66  S   UNL A   1      48.029  34.782  30.057  1.00  0.00     0.124 S 
ATOM     67  O   UNL A   1      49.035  33.884  29.499  1.00  0.00    -0.237 OA
ATOM     68  O   UNL A   1      47.084  35.353  29.101  1.00  0.00    -0.237 OA
ATOM     69  O   UNL A   1      48.518  35.706  31.078  1.00  0.00    -0.744 OA
ENDBRANCH  62  66
ENDBRANCH  45  59
BRANCH  46  70
ATOM     70  C   UNL A   1      42.559  22.379  27.199  1.00  0.00     0.023 A 
ATOM     71  C   UNL A   1      43.582  21.808  26.423  1.00  0.00     0.031 A 
ATOM     72  C   UNL A   1      41.474  21.491  27.494  1.00  0.00     0.131 A 
ATOM     73  C   UNL A   1      43.517  20.435  26.047  1.00  0.00     0.055 A 
ATOM     74  C   UNL A   1      41.453  20.131  27.189  1.00  0.00     0.041 A 
ATOM     75  F   UNL A   1      40.360  21.902  28.115  1.00  0.00    -0.206 F 
ATOM     76  C   UNL A   1      42.487  19.590  26.468  1.00  0.00     0.022 A 
BRANCH  73  77
ATOM     77  S   UNL A   1      44.787  19.664  24.999  1.00  0.00     0.124 S 
ATOM     78  O   UNL A   1      44.191  19.776  23.672  1.00  0.00    -0.237 OA
ATOM     79  O   UNL A   1      45.967  20.486  25.243  1.00  0.00    -0.237 OA
ATOM     80  O   UNL A   1      44.865  18.303  25.530  1.00  0.00    -0.744 OA
ENDBRANCH  73  77
ENDBRANCH  46  70
BRANCH  58  81
ATOM     81  C   UNL A   1      44.449  26.261  31.531  1.00  0.00     0.023 A 
ATOM     82  C   UNL A   1      43.421  27.185  31.806  1.00  0.00     0.031 A 
ATOM     83  C   UNL A   1      44.726  25.332  32.550  1.00  0.00     0.131 A 
ATOM     84  C   UNL A   1      42.748  27.173  33.046  1.00  0.00     0.055 A 
ATOM     85  C   UNL A   1      44.055  25.311  33.779  1.00  0.00     0.041 A 
ATOM     86  F   UNL A   1      45.673  24.409  32.396  1.00  0.00    -0.206 F 
ATOM     87  C   UNL A   1      43.062  26.241  34.036  1.00  0.00     0.022 A 
BRANCH  84  88
ATOM     88  S   UNL A   1      41.427  28.377  33.357  1.00  0.00     0.124 S 
ATOM     89  O   UNL A   1      41.115  28.157  34.764  1.00  0.00    -0.237 OA
ATOM     90  O   UNL A   1      42.075  29.646  33.036  1.00  0.00    -0.237 OA
ATOM     91  O   UNL A   1      40.375  27.978  32.422  1.00  0.00    -0.744 OA
ENDBRANCH  84  88
ENDBRANCH  58  81
ENDBRANCH  32  33
ENDBRANCH  25  27
ENDBRANCH  24  25
ENDBRANCH  23  24
ENDBRANCH  22  23
ENDBRANCH  21  22
ENDBRANCH   1  21
TORSDOF 23
ENDMDL
