MODEL 1
REMARK VINA RESULT:      -9.9      0.000      0.000
REMARK SMILES O=C(OCCOCCOCCOC(=O)[C@@H](Cc1ccccc1F)C1CCOCC1)c1ccc(-c2c3nc(c(-c4cc(S(=O)(=O)[O-])ccc4F)c4ccc([nH]4)c(-c4cc(S(=O)(=O)[O-])ccc4F)c4nc(c(-c5cc(S(=O)(=O)[O-])ccc5F)c5ccc2[nH]5)C=C4)C=C3)cc1
REMARK SMILES IDX 7 1 6 2 5 3 4 4 3 5 2 6 1 7 30 8 31 9 92 10 32 11 91 12
REMARK SMILES IDX 33 13 34 14 35 15 85 16 36 17 90 18 84 19 86 20 37 21 89 22
REMARK SMILES IDX 83 23 82 24 38 26 70 27 50 28 69 29 51 30 54 31 68 32 87 33
REMARK SMILES IDX 52 34 53 35 67 37 88 38 55 39 39 40 40 41 48 42 41 43 47 44
REMARK SMILES IDX 49 45 46 46 42 47 43 48 44 49 45 50 71 51 72 52 80 53 73 54
REMARK SMILES IDX 79 55 81 56 78 57 74 58 75 59 76 60 77 61 56 62 57 63 65 64
REMARK SMILES IDX 58 65 64 66 66 67 63 68 59 69 60 70 61 71 62 72 8 73 9 74
REMARK SMILES IDX 10 75 11 76 12 77 13 78 14 79 15 80 16 81 17 82 18 83 22 84
REMARK SMILES IDX 19 85 21 86 23 87 20 88 24 89 25 90 29 91 26 92 28 93 27 94
REMARK H PARENT 86 25 54 36
REMARK Flexibility Score: inf
ROOT
ATOM      1  C   UNL A   1      34.781  21.392  25.768  1.00  0.00     0.188 C 
ENDROOT
BRANCH   1   2
ATOM      2  O   UNL A   1      35.877  20.922  24.979  1.00  0.00    -0.376 OA
BRANCH   2   3
ATOM      3  C   UNL A   1      37.085  21.669  25.107  1.00  0.00     0.202 C 
BRANCH   3   4
ATOM      4  C   UNL A   1      38.377  20.903  25.441  1.00  0.00     0.261 C 
BRANCH   4   5
ATOM      5  O   UNL A   1      39.544  21.697  25.711  1.00  0.00    -0.460 OA
BRANCH   5   6
ATOM      6  C   UNL A   1      40.122  22.083  26.871  1.00  0.00     0.338 C 
ATOM      7  O   UNL A   1      40.398  21.202  27.687  1.00  0.00    -0.246 OA
BRANCH   6   8
ATOM      8  C   UNL A   1      40.402  23.503  27.260  1.00  0.00     0.060 A 
ATOM      9  C   UNL A   1      39.887  24.626  26.626  1.00  0.00     0.016 A 
ATOM     10  C   UNL A   1      41.282  23.714  28.345  1.00  0.00     0.016 A 
ATOM     11  C   UNL A   1      40.230  25.907  27.049  1.00  0.00     0.010 A 
ATOM     12  C   UNL A   1      41.645  25.003  28.766  1.00  0.00     0.010 A 
ATOM     13  C   UNL A   1      41.121  26.111  28.108  1.00  0.00    -0.014 A 
BRANCH  13  14
ATOM     14  C   UNL A   1      41.594  27.498  28.335  1.00  0.00     0.031 A 
ATOM     15  C   UNL A   1      40.612  28.464  28.928  1.00  0.00     0.074 A 
ATOM     16  C   UNL A   1      42.898  27.820  28.219  1.00  0.00     0.049 A 
ATOM     17  N   UNL A   1      40.801  29.698  29.303  1.00  0.00    -0.248 NA
ATOM     18  C   UNL A   1      39.239  27.969  29.148  1.00  0.00     0.031 C 
ATOM     19  C   UNL A   1      43.942  26.909  27.757  1.00  0.00     0.029 A 
ATOM     20  N   UNL A   1      43.589  28.953  28.571  1.00  0.00    -0.354 N 
ATOM     21  C   UNL A   1      39.570  30.133  29.776  1.00  0.00     0.074 A 
ATOM     22  C   UNL A   1      38.657  29.018  29.706  1.00  0.00     0.031 C 
ATOM     23  C   UNL A   1      45.143  27.463  27.993  1.00  0.00     0.029 A 
ATOM     24  C   UNL A   1      44.962  28.822  28.489  1.00  0.00     0.049 A 
ATOM     25  H   UNL A   1      43.146  29.785  28.857  1.00  0.00     0.167 HD
ATOM     26  C   UNL A   1      39.226  31.378  30.171  1.00  0.00     0.034 A 
ATOM     27  C   UNL A   1      45.948  29.710  28.754  1.00  0.00     0.034 A 
ATOM     28  C   UNL A   1      40.136  32.487  30.144  1.00  0.00     0.049 A 
ATOM     29  C   UNL A   1      45.514  31.117  29.104  1.00  0.00     0.074 A 
ATOM     30  C   UNL A   1      39.867  33.830  30.326  1.00  0.00     0.029 A 
ATOM     31  N   UNL A   1      41.499  32.375  29.911  1.00  0.00    -0.354 N 
ATOM     32  N   UNL A   1      44.310  31.564  29.384  1.00  0.00    -0.248 NA
ATOM     33  C   UNL A   1      46.555  32.152  29.104  1.00  0.00     0.031 C 
ATOM     34  C   UNL A   1      41.063  34.535  30.155  1.00  0.00     0.029 A 
ATOM     35  C   UNL A   1      42.087  33.625  29.938  1.00  0.00     0.049 A 
ATOM     36  H   UNL A   1      41.977  31.530  29.751  1.00  0.00     0.167 HD
ATOM     37  C   UNL A   1      44.448  32.937  29.563  1.00  0.00     0.074 A 
ATOM     38  C   UNL A   1      45.860  33.233  29.428  1.00  0.00     0.031 C 
ATOM     39  C   UNL A   1      43.497  33.879  29.784  1.00  0.00     0.034 A 
BRANCH  26  40
ATOM     40  C   UNL A   1      37.785  31.609  30.513  1.00  0.00     0.023 A 
ATOM     41  C   UNL A   1      36.855  32.021  29.548  1.00  0.00     0.031 A 
ATOM     42  C   UNL A   1      37.351  31.449  31.840  1.00  0.00     0.131 A 
ATOM     43  C   UNL A   1      35.532  32.280  29.930  1.00  0.00     0.055 A 
ATOM     44  C   UNL A   1      36.021  31.658  32.204  1.00  0.00     0.041 A 
ATOM     45  F   UNL A   1      38.218  31.100  32.804  1.00  0.00    -0.206 F 
ATOM     46  C   UNL A   1      35.103  32.078  31.247  1.00  0.00     0.022 A 
BRANCH  43  47
ATOM     47  S   UNL A   1      34.380  32.946  28.699  1.00  0.00     0.124 S 
ATOM     48  O   UNL A   1      33.607  31.757  28.349  1.00  0.00    -0.237 OA
ATOM     49  O   UNL A   1      33.664  33.972  29.449  1.00  0.00    -0.237 OA
ATOM     50  O   UNL A   1      35.260  33.447  27.644  1.00  0.00    -0.744 OA
ENDBRANCH  43  47
ENDBRANCH  26  40
BRANCH  27  51
ATOM     51  C   UNL A   1      47.407  29.386  28.591  1.00  0.00     0.023 A 
ATOM     52  C   UNL A   1      48.225  29.103  29.703  1.00  0.00     0.031 A 
ATOM     53  C   UNL A   1      48.042  29.462  27.336  1.00  0.00     0.131 A 
ATOM     54  C   UNL A   1      49.617  28.954  29.544  1.00  0.00     0.055 A 
ATOM     55  C   UNL A   1      49.412  29.237  27.172  1.00  0.00     0.041 A 
ATOM     56  F   UNL A   1      47.341  29.772  26.234  1.00  0.00    -0.206 F 
ATOM     57  C   UNL A   1      50.211  28.997  28.281  1.00  0.00     0.022 A 
BRANCH  54  58
ATOM     58  S   UNL A   1      50.669  28.828  31.022  1.00  0.00     0.124 S 
ATOM     59  O   UNL A   1      51.551  27.723  30.662  1.00  0.00    -0.237 OA
ATOM     60  O   UNL A   1      51.283  30.150  31.071  1.00  0.00    -0.237 OA
ATOM     61  O   UNL A   1      49.719  28.543  32.095  1.00  0.00    -0.744 OA
ENDBRANCH  54  58
ENDBRANCH  27  51
BRANCH  39  62
ATOM     62  C   UNL A   1      43.962  35.304  29.893  1.00  0.00     0.023 A 
ATOM     63  C   UNL A   1      43.838  36.193  28.813  1.00  0.00     0.031 A 
ATOM     64  C   UNL A   1      44.517  35.781  31.093  1.00  0.00     0.131 A 
ATOM     65  C   UNL A   1      44.314  37.505  28.935  1.00  0.00     0.055 A 
ATOM     66  C   UNL A   1      44.934  37.103  31.229  1.00  0.00     0.041 A 
ATOM     67  F   UNL A   1      44.649  34.969  32.154  1.00  0.00    -0.206 F 
ATOM     68  C   UNL A   1      44.845  37.971  30.141  1.00  0.00     0.022 A 
BRANCH  65  69
ATOM     69  S   UNL A   1      44.298  38.571  27.470  1.00  0.00     0.124 S 
ATOM     70  O   UNL A   1      43.997  39.875  28.051  1.00  0.00    -0.237 OA
ATOM     71  O   UNL A   1      45.650  38.404  26.946  1.00  0.00    -0.237 OA
ATOM     72  O   UNL A   1      43.238  38.000  26.643  1.00  0.00    -0.744 OA
ENDBRANCH  65  69
ENDBRANCH  39  62
ENDBRANCH  13  14
ENDBRANCH   6   8
ENDBRANCH   5   6
ENDBRANCH   4   5
ENDBRANCH   3   4
ENDBRANCH   2   3
ENDBRANCH   1   2
BRANCH   1  73
ATOM     73  C   UNL A   1      33.882  22.394  25.042  1.00  0.00     0.188 C 
BRANCH  73  74
ATOM     74  O   UNL A   1      33.968  22.418  23.617  1.00  0.00    -0.376 OA
BRANCH  74  75
ATOM     75  C   UNL A   1      32.761  22.272  22.882  1.00  0.00     0.202 C 
BRANCH  75  76
ATOM     76  C   UNL A   1      31.490  22.874  23.478  1.00  0.00     0.261 C 
BRANCH  76  77
ATOM     77  O   UNL A   1      31.351  24.279  23.249  1.00  0.00    -0.463 OA
BRANCH  77  78
ATOM     78  C   UNL A   1      31.038  25.020  24.340  1.00  0.00     0.309 C 
ATOM     79  O   UNL A   1      30.987  24.560  25.480  1.00  0.00    -0.252 OA
BRANCH  78  80
ATOM     80  C   UNL A   1      30.850  26.503  24.038  1.00  0.00     0.107 C 
BRANCH  80  81
ATOM     81  C   UNL A   1      29.392  26.925  23.739  1.00  0.00     0.054 C 
BRANCH  81  82
ATOM     82  C   UNL A   1      29.034  28.262  23.120  1.00  0.00    -0.011 A 
ATOM     83  C   UNL A   1      30.047  28.943  22.428  1.00  0.00     0.007 A 
ATOM     84  C   UNL A   1      27.766  28.840  23.092  1.00  0.00     0.126 A 
ATOM     85  C   UNL A   1      29.801  30.091  21.673  1.00  0.00     0.000 A 
ATOM     86  C   UNL A   1      27.499  29.982  22.333  1.00  0.00     0.039 A 
ATOM     87  F   UNL A   1      26.757  28.329  23.810  1.00  0.00    -0.207 F 
ATOM     88  C   UNL A   1      28.513  30.598  21.604  1.00  0.00     0.003 A 
ENDBRANCH  81  82
ENDBRANCH  80  81
BRANCH  80  89
ATOM     89  C   UNL A   1      31.539  27.480  25.032  1.00  0.00     0.008 C 
ATOM     90  C   UNL A   1      33.073  27.310  25.001  1.00  0.00     0.033 C 
ATOM     91  C   UNL A   1      31.086  27.351  26.493  1.00  0.00     0.033 C 
ATOM     92  C   UNL A   1      33.741  28.289  25.962  1.00  0.00     0.160 C 
ATOM     93  C   UNL A   1      31.852  28.323  27.379  1.00  0.00     0.160 C 
ATOM     94  O   UNL A   1      33.255  28.083  27.288  1.00  0.00    -0.381 OA
ENDBRANCH  80  89
ENDBRANCH  78  80
ENDBRANCH  77  78
ENDBRANCH  76  77
ENDBRANCH  75  76
ENDBRANCH  74  75
ENDBRANCH  73  74
ENDBRANCH   1  73
TORSDOF 23
ENDMDL
MODEL 2
REMARK VINA RESULT:      -9.8      5.837     10.296
REMARK SMILES O=C(OCCOCCOCCOC(=O)[C@@H](Cc1ccccc1F)C1CCOCC1)c1ccc(-c2c3nc(c(-c4cc(S(=O)(=O)[O-])ccc4F)c4ccc([nH]4)c(-c4cc(S(=O)(=O)[O-])ccc4F)c4nc(c(-c5cc(S(=O)(=O)[O-])ccc5F)c5ccc2[nH]5)C=C4)C=C3)cc1
REMARK SMILES IDX 7 1 6 2 5 3 4 4 3 5 2 6 1 7 30 8 31 9 92 10 32 11 91 12
REMARK SMILES IDX 33 13 34 14 35 15 85 16 36 17 90 18 84 19 86 20 37 21 89 22
REMARK SMILES IDX 83 23 82 24 38 26 70 27 50 28 69 29 51 30 54 31 68 32 87 33
REMARK SMILES IDX 52 34 53 35 67 37 88 38 55 39 39 40 40 41 48 42 41 43 47 44
REMARK SMILES IDX 49 45 46 46 42 47 43 48 44 49 45 50 71 51 72 52 80 53 73 54
REMARK SMILES IDX 79 55 81 56 78 57 74 58 75 59 76 60 77 61 56 62 57 63 65 64
REMARK SMILES IDX 58 65 64 66 66 67 63 68 59 69 60 70 61 71 62 72 8 73 9 74
REMARK SMILES IDX 10 75 11 76 12 77 13 78 14 79 15 80 16 81 17 82 18 83 22 84
REMARK SMILES IDX 19 85 21 86 23 87 20 88 24 89 25 90 29 91 26 92 28 93 27 94
REMARK H PARENT 86 25 54 36
REMARK Flexibility Score: inf
ROOT
ATOM      1  C   UNL A   1      35.442  31.313  27.867  1.00  0.00     0.188 C 
ENDROOT
BRANCH   1   2
ATOM      2  O   UNL A   1      34.909  32.589  28.231  1.00  0.00    -0.376 OA
BRANCH   2   3
ATOM      3  C   UNL A   1      33.525  32.776  27.943  1.00  0.00     0.202 C 
BRANCH   3   4
ATOM      4  C   UNL A   1      32.958  34.204  28.014  1.00  0.00     0.261 C 
BRANCH   4   5
ATOM      5  O   UNL A   1      33.447  35.039  29.078  1.00  0.00    -0.460 OA
BRANCH   5   6
ATOM      6  C   UNL A   1      33.448  34.879  30.421  1.00  0.00     0.338 C 
ATOM      7  O   UNL A   1      32.452  35.260  31.036  1.00  0.00    -0.246 OA
BRANCH   6   8
ATOM      8  C   UNL A   1      34.589  34.325  31.218  1.00  0.00     0.060 A 
ATOM      9  C   UNL A   1      35.842  34.911  31.345  1.00  0.00     0.016 A 
ATOM     10  C   UNL A   1      34.378  33.092  31.875  1.00  0.00     0.016 A 
ATOM     11  C   UNL A   1      36.845  34.302  32.091  1.00  0.00     0.010 A 
ATOM     12  C   UNL A   1      35.393  32.462  32.615  1.00  0.00     0.010 A 
ATOM     13  C   UNL A   1      36.641  33.068  32.718  1.00  0.00    -0.014 A 
BRANCH  13  14
ATOM     14  C   UNL A   1      37.831  32.398  33.295  1.00  0.00     0.031 A 
ATOM     15  C   UNL A   1      38.605  31.486  32.390  1.00  0.00     0.074 A 
ATOM     16  C   UNL A   1      38.317  32.752  34.501  1.00  0.00     0.049 A 
ATOM     17  N   UNL A   1      39.722  30.856  32.622  1.00  0.00    -0.248 NA
ATOM     18  C   UNL A   1      38.062  31.273  31.035  1.00  0.00     0.031 C 
ATOM     19  C   UNL A   1      37.689  33.715  35.401  1.00  0.00     0.029 A 
ATOM     20  N   UNL A   1      39.492  32.433  35.137  1.00  0.00    -0.354 N 
ATOM     21  C   UNL A   1      40.000  30.154  31.457  1.00  0.00     0.074 A 
ATOM     22  C   UNL A   1      38.976  30.483  30.495  1.00  0.00     0.031 C 
ATOM     23  C   UNL A   1      38.547  34.016  36.391  1.00  0.00     0.029 A 
ATOM     24  C   UNL A   1      39.729  33.169  36.283  1.00  0.00     0.049 A 
ATOM     25  H   UNL A   1      40.110  31.742  34.807  1.00  0.00     0.167 HD
ATOM     26  C   UNL A   1      40.990  29.261  31.243  1.00  0.00     0.034 A 
ATOM     27  C   UNL A   1      40.764  33.133  37.152  1.00  0.00     0.034 A 
ATOM     28  C   UNL A   1      41.941  28.889  32.251  1.00  0.00     0.049 A 
ATOM     29  C   UNL A   1      41.803  32.057  36.923  1.00  0.00     0.074 A 
ATOM     30  C   UNL A   1      42.864  27.862  32.231  1.00  0.00     0.029 A 
ATOM     31  N   UNL A   1      42.080  29.535  33.471  1.00  0.00    -0.354 N 
ATOM     32  N   UNL A   1      41.958  31.267  35.884  1.00  0.00    -0.248 NA
ATOM     33  C   UNL A   1      42.761  31.816  38.009  1.00  0.00     0.031 C 
ATOM     34  C   UNL A   1      43.529  27.858  33.461  1.00  0.00     0.029 A 
ATOM     35  C   UNL A   1      43.070  28.926  34.217  1.00  0.00     0.049 A 
ATOM     36  H   UNL A   1      41.551  30.313  33.762  1.00  0.00     0.167 HD
ATOM     37  C   UNL A   1      43.012  30.418  36.206  1.00  0.00     0.074 A 
ATOM     38  C   UNL A   1      43.498  30.837  37.506  1.00  0.00     0.031 C 
ATOM     39  C   UNL A   1      43.515  29.365  35.515  1.00  0.00     0.034 A 
BRANCH  26  40
ATOM     40  C   UNL A   1      40.984  28.542  29.927  1.00  0.00     0.023 A 
ATOM     41  C   UNL A   1      41.849  28.905  28.885  1.00  0.00     0.031 A 
ATOM     42  C   UNL A   1      40.067  27.500  29.708  1.00  0.00     0.131 A 
ATOM     43  C   UNL A   1      41.764  28.240  27.654  1.00  0.00     0.055 A 
ATOM     44  C   UNL A   1      40.024  26.807  28.498  1.00  0.00     0.041 A 
ATOM     45  F   UNL A   1      39.191  27.151  30.663  1.00  0.00    -0.206 F 
ATOM     46  C   UNL A   1      40.875  27.178  27.462  1.00  0.00     0.022 A 
BRANCH  43  47
ATOM     47  S   UNL A   1      42.791  28.817  26.276  1.00  0.00     0.124 S 
ATOM     48  O   UNL A   1      43.746  27.718  26.143  1.00  0.00    -0.237 OA
ATOM     49  O   UNL A   1      41.827  28.955  25.192  1.00  0.00    -0.237 OA
ATOM     50  O   UNL A   1      43.355  30.071  26.772  1.00  0.00    -0.744 OA
ENDBRANCH  43  47
ENDBRANCH  26  40
BRANCH  27  51
ATOM     51  C   UNL A   1      40.842  34.014  38.369  1.00  0.00     0.023 A 
ATOM     52  C   UNL A   1      40.054  33.761  39.510  1.00  0.00     0.031 A 
ATOM     53  C   UNL A   1      41.619  35.188  38.379  1.00  0.00     0.131 A 
ATOM     54  C   UNL A   1      40.028  34.681  40.575  1.00  0.00     0.055 A 
ATOM     55  C   UNL A   1      41.649  36.060  39.472  1.00  0.00     0.041 A 
ATOM     56  F   UNL A   1      42.362  35.525  37.313  1.00  0.00    -0.206 F 
ATOM     57  C   UNL A   1      40.839  35.817  40.572  1.00  0.00     0.022 A 
BRANCH  54  58
ATOM     58  S   UNL A   1      38.825  34.446  41.920  1.00  0.00     0.124 S 
ATOM     59  O   UNL A   1      38.276  33.133  41.597  1.00  0.00    -0.237 OA
ATOM     60  O   UNL A   1      39.675  34.514  43.103  1.00  0.00    -0.237 OA
ATOM     61  O   UNL A   1      37.901  35.566  41.752  1.00  0.00    -0.744 OA
ENDBRANCH  54  58
ENDBRANCH  27  51
BRANCH  39  62
ATOM     62  C   UNL A   1      44.643  28.606  36.156  1.00  0.00     0.023 A 
ATOM     63  C   UNL A   1      44.394  27.558  37.057  1.00  0.00     0.031 A 
ATOM     64  C   UNL A   1      45.978  28.923  35.850  1.00  0.00     0.131 A 
ATOM     65  C   UNL A   1      45.468  26.894  37.665  1.00  0.00     0.055 A 
ATOM     66  C   UNL A   1      47.041  28.220  36.411  1.00  0.00     0.041 A 
ATOM     67  F   UNL A   1      46.263  29.913  34.989  1.00  0.00    -0.206 F 
ATOM     68  C   UNL A   1      46.789  27.206  37.334  1.00  0.00     0.022 A 
BRANCH  65  69
ATOM     69  S   UNL A   1      45.112  25.668  38.950  1.00  0.00     0.124 S 
ATOM     70  O   UNL A   1      44.359  24.663  38.207  1.00  0.00    -0.237 OA
ATOM     71  O   UNL A   1      46.447  25.272  39.385  1.00  0.00    -0.237 OA
ATOM     72  O   UNL A   1      44.337  26.420  39.935  1.00  0.00    -0.744 OA
ENDBRANCH  65  69
ENDBRANCH  39  62
ENDBRANCH  13  14
ENDBRANCH   6   8
ENDBRANCH   5   6
ENDBRANCH   4   5
ENDBRANCH   3   4
ENDBRANCH   2   3
ENDBRANCH   1   2
BRANCH   1  73
ATOM     73  C   UNL A   1      34.420  30.380  27.215  1.00  0.00     0.188 C 
BRANCH  73  74
ATOM     74  O   UNL A   1      34.654  28.978  27.350  1.00  0.00    -0.376 OA
BRANCH  74  75
ATOM     75  C   UNL A   1      33.691  28.094  26.793  1.00  0.00     0.202 C 
BRANCH  75  76
ATOM     76  C   UNL A   1      33.518  28.096  25.276  1.00  0.00     0.261 C 
BRANCH  76  77
ATOM     77  O   UNL A   1      32.179  28.354  24.845  1.00  0.00    -0.463 OA
BRANCH  77  78
ATOM     78  C   UNL A   1      31.925  28.089  23.540  1.00  0.00     0.309 C 
ATOM     79  O   UNL A   1      32.791  28.093  22.665  1.00  0.00    -0.252 OA
BRANCH  78  80
ATOM     80  C   UNL A   1      30.479  27.686  23.269  1.00  0.00     0.107 C 
BRANCH  80  81
ATOM     81  C   UNL A   1      29.852  26.757  24.335  1.00  0.00     0.054 C 
BRANCH  81  82
ATOM     82  C   UNL A   1      30.435  25.403  24.689  1.00  0.00    -0.011 A 
ATOM     83  C   UNL A   1      30.390  25.015  26.038  1.00  0.00     0.007 A 
ATOM     84  C   UNL A   1      30.931  24.461  23.789  1.00  0.00     0.126 A 
ATOM     85  C   UNL A   1      30.735  23.732  26.462  1.00  0.00     0.000 A 
ATOM     86  C   UNL A   1      31.269  23.168  24.194  1.00  0.00     0.039 A 
ATOM     87  F   UNL A   1      31.117  24.770  22.499  1.00  0.00    -0.207 F 
ATOM     88  C   UNL A   1      31.152  22.794  25.530  1.00  0.00     0.003 A 
ENDBRANCH  81  82
ENDBRANCH  80  81
BRANCH  80  89
ATOM     89  C   UNL A   1      29.522  28.851  22.888  1.00  0.00     0.008 C 
ATOM     90  C   UNL A   1      29.784  30.094  23.765  1.00  0.00     0.033 C 
ATOM     91  C   UNL A   1      28.025  28.523  22.980  1.00  0.00     0.033 C 
ATOM     92  C   UNL A   1      28.858  31.238  23.367  1.00  0.00     0.160 C 
ATOM     93  C   UNL A   1      27.187  29.743  22.624  1.00  0.00     0.160 C 
ATOM     94  O   UNL A   1      27.494  30.832  23.492  1.00  0.00    -0.381 OA
ENDBRANCH  80  89
ENDBRANCH  78  80
ENDBRANCH  77  78
ENDBRANCH  76  77
ENDBRANCH  75  76
ENDBRANCH  74  75
ENDBRANCH  73  74
ENDBRANCH   1  73
TORSDOF 23
ENDMDL
MODEL 3
REMARK VINA RESULT:      -9.8      2.927      7.930
REMARK SMILES O=C(OCCOCCOCCOC(=O)[C@@H](Cc1ccccc1F)C1CCOCC1)c1ccc(-c2c3nc(c(-c4cc(S(=O)(=O)[O-])ccc4F)c4ccc([nH]4)c(-c4cc(S(=O)(=O)[O-])ccc4F)c4nc(c(-c5cc(S(=O)(=O)[O-])ccc5F)c5ccc2[nH]5)C=C4)C=C3)cc1
REMARK SMILES IDX 7 1 6 2 5 3 4 4 3 5 2 6 1 7 30 8 31 9 92 10 32 11 91 12
REMARK SMILES IDX 33 13 34 14 35 15 85 16 36 17 90 18 84 19 86 20 37 21 89 22
REMARK SMILES IDX 83 23 82 24 38 26 70 27 50 28 69 29 51 30 54 31 68 32 87 33
REMARK SMILES IDX 52 34 53 35 67 37 88 38 55 39 39 40 40 41 48 42 41 43 47 44
REMARK SMILES IDX 49 45 46 46 42 47 43 48 44 49 45 50 71 51 72 52 80 53 73 54
REMARK SMILES IDX 79 55 81 56 78 57 74 58 75 59 76 60 77 61 56 62 57 63 65 64
REMARK SMILES IDX 58 65 64 66 66 67 63 68 59 69 60 70 61 71 62 72 8 73 9 74
REMARK SMILES IDX 10 75 11 76 12 77 13 78 14 79 15 80 16 81 17 82 18 83 22 84
REMARK SMILES IDX 19 85 21 86 23 87 20 88 24 89 25 90 29 91 26 92 28 93 27 94
REMARK H PARENT 86 25 54 36
REMARK Flexibility Score: inf
ROOT
ATOM      1  C   UNL A   1      35.562  21.313  25.389  1.00  0.00     0.188 C 
ENDROOT
BRANCH   1   2
ATOM      2  O   UNL A   1      36.229  20.203  24.782  1.00  0.00    -0.376 OA
BRANCH   2   3
ATOM      3  C   UNL A   1      37.652  20.293  24.744  1.00  0.00     0.202 C 
BRANCH   3   4
ATOM      4  C   UNL A   1      38.465  19.174  25.414  1.00  0.00     0.261 C 
BRANCH   4   5
ATOM      5  O   UNL A   1      39.896  19.316  25.394  1.00  0.00    -0.460 OA
BRANCH   5   6
ATOM      6  C   UNL A   1      40.775  19.721  26.338  1.00  0.00     0.338 C 
ATOM      7  O   UNL A   1      41.172  18.876  27.141  1.00  0.00    -0.246 OA
BRANCH   6   8
ATOM      8  C   UNL A   1      41.258  21.129  26.514  1.00  0.00     0.060 A 
ATOM      9  C   UNL A   1      42.542  21.497  26.894  1.00  0.00     0.016 A 
ATOM     10  C   UNL A   1      40.320  22.164  26.301  1.00  0.00     0.016 A 
ATOM     11  C   UNL A   1      42.885  22.835  27.055  1.00  0.00     0.010 A 
ATOM     12  C   UNL A   1      40.655  23.516  26.479  1.00  0.00     0.010 A 
ATOM     13  C   UNL A   1      41.947  23.856  26.867  1.00  0.00    -0.014 A 
BRANCH  13  14
ATOM     14  C   UNL A   1      42.344  25.224  27.279  1.00  0.00     0.031 A 
ATOM     15  C   UNL A   1      43.605  25.776  26.681  1.00  0.00     0.074 A 
ATOM     16  C   UNL A   1      41.509  26.013  27.984  1.00  0.00     0.049 A 
ATOM     17  N   UNL A   1      44.118  26.967  26.808  1.00  0.00    -0.248 NA
ATOM     18  C   UNL A   1      44.379  24.875  25.806  1.00  0.00     0.031 C 
ATOM     19  C   UNL A   1      40.213  25.592  28.509  1.00  0.00     0.029 A 
ATOM     20  N   UNL A   1      41.566  27.349  28.294  1.00  0.00    -0.354 N 
ATOM     21  C   UNL A   1      45.284  26.950  26.055  1.00  0.00     0.074 A 
ATOM     22  C   UNL A   1      45.373  25.657  25.419  1.00  0.00     0.031 C 
ATOM     23  C   UNL A   1      39.541  26.674  28.939  1.00  0.00     0.029 A 
ATOM     24  C   UNL A   1      40.405  27.846  28.856  1.00  0.00     0.049 A 
ATOM     25  H   UNL A   1      42.362  27.905  28.130  1.00  0.00     0.167 HD
ATOM     26  C   UNL A   1      46.226  27.913  25.962  1.00  0.00     0.034 A 
ATOM     27  C   UNL A   1      40.097  29.093  29.280  1.00  0.00     0.034 A 
ATOM     28  C   UNL A   1      46.151  29.154  26.677  1.00  0.00     0.049 A 
ATOM     29  C   UNL A   1      41.212  30.115  29.241  1.00  0.00     0.074 A 
ATOM     30  C   UNL A   1      47.122  30.124  26.829  1.00  0.00     0.029 A 
ATOM     31  N   UNL A   1      45.031  29.589  27.373  1.00  0.00    -0.354 N 
ATOM     32  N   UNL A   1      42.393  30.028  28.670  1.00  0.00    -0.248 NA
ATOM     33  C   UNL A   1      40.985  31.374  29.962  1.00  0.00     0.031 C 
ATOM     34  C   UNL A   1      46.604  31.125  27.657  1.00  0.00     0.029 A 
ATOM     35  C   UNL A   1      45.288  30.812  27.962  1.00  0.00     0.049 A 
ATOM     36  H   UNL A   1      44.181  29.099  27.437  1.00  0.00     0.167 HD
ATOM     37  C   UNL A   1      43.057  31.208  28.989  1.00  0.00     0.074 A 
ATOM     38  C   UNL A   1      42.123  32.018  29.745  1.00  0.00     0.031 C 
ATOM     39  C   UNL A   1      44.333  31.581  28.719  1.00  0.00     0.034 A 
BRANCH  26  40
ATOM     40  C   UNL A   1      47.461  27.583  25.177  1.00  0.00     0.023 A 
ATOM     41  C   UNL A   1      47.552  27.844  23.802  1.00  0.00     0.031 A 
ATOM     42  C   UNL A   1      48.546  26.961  25.817  1.00  0.00     0.131 A 
ATOM     43  C   UNL A   1      48.705  27.463  23.102  1.00  0.00     0.055 A 
ATOM     44  C   UNL A   1      49.711  26.633  25.125  1.00  0.00     0.041 A 
ATOM     45  F   UNL A   1      48.482  26.652  27.122  1.00  0.00    -0.206 F 
ATOM     46  C   UNL A   1      49.795  26.882  23.759  1.00  0.00     0.022 A 
BRANCH  43  47
ATOM     47  S   UNL A   1      48.747  27.680  21.303  1.00  0.00     0.124 S 
ATOM     48  O   UNL A   1      49.577  28.877  21.172  1.00  0.00    -0.237 OA
ATOM     49  O   UNL A   1      49.351  26.435  20.843  1.00  0.00    -0.237 OA
ATOM     50  O   UNL A   1      47.340  27.859  20.948  1.00  0.00    -0.744 OA
ENDBRANCH  43  47
ENDBRANCH  26  40
BRANCH  27  51
ATOM     51  C   UNL A   1      38.767  29.446  29.887  1.00  0.00     0.023 A 
ATOM     52  C   UNL A   1      37.840  30.257  29.203  1.00  0.00     0.031 A 
ATOM     53  C   UNL A   1      38.440  29.077  31.206  1.00  0.00     0.131 A 
ATOM     54  C   UNL A   1      36.670  30.701  29.848  1.00  0.00     0.055 A 
ATOM     55  C   UNL A   1      37.240  29.456  31.816  1.00  0.00     0.041 A 
ATOM     56  F   UNL A   1      39.290  28.344  31.942  1.00  0.00    -0.206 F 
ATOM     57  C   UNL A   1      36.354  30.286  31.143  1.00  0.00     0.022 A 
BRANCH  54  58
ATOM     58  S   UNL A   1      35.617  31.934  29.024  1.00  0.00     0.124 S 
ATOM     59  O   UNL A   1      36.570  33.010  28.768  1.00  0.00    -0.237 OA
ATOM     60  O   UNL A   1      35.148  31.200  27.855  1.00  0.00    -0.237 OA
ATOM     61  O   UNL A   1      34.594  32.233  30.024  1.00  0.00    -0.744 OA
ENDBRANCH  54  58
ENDBRANCH  27  51
BRANCH  39  62
ATOM     62  C   UNL A   1      44.777  32.917  29.243  1.00  0.00     0.023 A 
ATOM     63  C   UNL A   1      44.621  34.086  28.479  1.00  0.00     0.031 A 
ATOM     64  C   UNL A   1      45.343  33.026  30.525  1.00  0.00     0.131 A 
ATOM     65  C   UNL A   1      45.078  35.311  28.982  1.00  0.00     0.055 A 
ATOM     66  C   UNL A   1      45.741  34.256  31.045  1.00  0.00     0.041 A 
ATOM     67  F   UNL A   1      45.505  31.937  31.294  1.00  0.00    -0.206 F 
ATOM     68  C   UNL A   1      45.620  35.407  30.267  1.00  0.00     0.022 A 
BRANCH  65  69
ATOM     69  S   UNL A   1      45.021  36.765  27.903  1.00  0.00     0.124 S 
ATOM     70  O   UNL A   1      46.141  36.515  27.001  1.00  0.00    -0.237 OA
ATOM     71  O   UNL A   1      43.691  36.665  27.311  1.00  0.00    -0.237 OA
ATOM     72  O   UNL A   1      45.205  37.883  28.826  1.00  0.00    -0.744 OA
ENDBRANCH  65  69
ENDBRANCH  39  62
ENDBRANCH  13  14
ENDBRANCH   6   8
ENDBRANCH   5   6
ENDBRANCH   4   5
ENDBRANCH   3   4
ENDBRANCH   2   3
ENDBRANCH   1   2
BRANCH   1  73
ATOM     73  C   UNL A   1      35.286  22.469  24.426  1.00  0.00     0.188 C 
BRANCH  73  74
ATOM     74  O   UNL A   1      34.350  22.220  23.377  1.00  0.00    -0.376 OA
BRANCH  74  75
ATOM     75  C   UNL A   1      33.582  23.319  22.906  1.00  0.00     0.202 C 
BRANCH  75  76
ATOM     76  C   UNL A   1      34.139  24.723  23.131  1.00  0.00     0.261 C 
BRANCH  76  77
ATOM     77  O   UNL A   1      33.152  25.684  23.512  1.00  0.00    -0.463 OA
BRANCH  77  78
ATOM     78  C   UNL A   1      33.475  26.462  24.575  1.00  0.00     0.309 C 
ATOM     79  O   UNL A   1      34.354  27.324  24.541  1.00  0.00    -0.252 OA
BRANCH  78  80
ATOM     80  C   UNL A   1      32.581  26.239  25.790  1.00  0.00     0.107 C 
BRANCH  80  81
ATOM     81  C   UNL A   1      31.450  27.279  25.964  1.00  0.00     0.054 C 
BRANCH  81  82
ATOM     82  C   UNL A   1      30.731  27.915  24.791  1.00  0.00    -0.011 A 
ATOM     83  C   UNL A   1      31.038  29.253  24.495  1.00  0.00     0.007 A 
ATOM     84  C   UNL A   1      29.859  27.271  23.915  1.00  0.00     0.126 A 
ATOM     85  C   UNL A   1      30.577  29.894  23.345  1.00  0.00     0.000 A 
ATOM     86  C   UNL A   1      29.396  27.893  22.753  1.00  0.00     0.039 A 
ATOM     87  F   UNL A   1      29.417  26.031  24.166  1.00  0.00    -0.207 F 
ATOM     88  C   UNL A   1      29.772  29.200  22.454  1.00  0.00     0.003 A 
ENDBRANCH  81  82
ENDBRANCH  80  81
BRANCH  80  89
ATOM     89  C   UNL A   1      32.061  24.786  25.977  1.00  0.00     0.008 C 
ATOM     90  C   UNL A   1      30.718  24.772  26.738  1.00  0.00     0.033 C 
ATOM     91  C   UNL A   1      33.021  23.839  26.710  1.00  0.00     0.033 C 
ATOM     92  C   UNL A   1      30.205  23.344  26.895  1.00  0.00     0.160 C 
ATOM     93  C   UNL A   1      32.395  22.461  26.872  1.00  0.00     0.160 C 
ATOM     94  O   UNL A   1      31.167  22.551  27.591  1.00  0.00    -0.381 OA
ENDBRANCH  80  89
ENDBRANCH  78  80
ENDBRANCH  77  78
ENDBRANCH  76  77
ENDBRANCH  75  76
ENDBRANCH  74  75
ENDBRANCH  73  74
ENDBRANCH   1  73
TORSDOF 23
ENDMDL
