MODEL 1
REMARK VINA RESULT:     -10.9      0.000      0.000
REMARK SMILES C#Cc1cc(Cl)c2c(c1)C=C(C(=O)OCCOCCOCCOC(=O)c1ccc(-c3c4nc(c(-c5cc(S(=O)(=O)[O-])ccc5F)c5ccc([nH]5)c(-c5cc(S(=O)(=O)[O-])ccc5F)c5nc(c(-c6cc(S(=O)(=O)[O-])ccc6F)c6ccc3[nH]6)C=C5)C=C4)cc1)[C@@H](C(F)(F)F)O2
REMARK SMILES IDX 19 1 18 2 17 3 16 4 15 5 14 6 12 7 13 8 11 9 3 10 4 11 9 12
REMARK SMILES IDX 5 13 8 14 6 15 7 16 10 17 94 18 89 19 2 20 1 21 90 22 91 23
REMARK SMILES IDX 92 24 93 25 20 26 21 27 22 28 23 29 24 30 25 31 26 32 27 33
REMARK SMILES IDX 88 34 28 35 87 36 29 37 30 38 31 39 81 40 32 41 86 42 80 43
REMARK SMILES IDX 82 44 33 45 85 46 79 47 78 48 34 50 66 51 46 52 65 53 47 54
REMARK SMILES IDX 50 55 64 56 83 57 48 58 49 59 63 61 84 62 51 63 35 64 36 65
REMARK SMILES IDX 44 66 37 67 43 68 45 69 42 70 38 71 39 72 40 73 41 74 67 75
REMARK SMILES IDX 68 76 76 77 69 78 75 79 77 80 74 81 70 82 71 83 72 84 73 85
REMARK SMILES IDX 52 86 53 87 61 88 54 89 60 90 62 91 59 92 55 93 56 94 57 95
REMARK SMILES IDX 58 96
REMARK H PARENT 82 49 50 60
REMARK Flexibility Score: inf
ROOT
ATOM      1  C   UNL A   1      36.072  20.238  25.078  1.00  0.00     0.188 C 
ENDROOT
BRANCH   1   2
ATOM      2  C   UNL A   1      36.428  21.695  25.438  1.00  0.00     0.188 C 
BRANCH   2   3
ATOM      3  O   UNL A   1      35.547  22.393  26.291  1.00  0.00    -0.376 OA
BRANCH   3   4
ATOM      4  C   UNL A   1      34.387  21.766  26.809  1.00  0.00     0.202 C 
BRANCH   4   5
ATOM      5  C   UNL A   1      33.129  22.493  27.331  1.00  0.00     0.261 C 
BRANCH   5   6
ATOM      6  O   UNL A   1      31.909  22.318  26.604  1.00  0.00    -0.460 OA
BRANCH   6   7
ATOM      7  C   UNL A   1      31.041  23.357  26.650  1.00  0.00     0.338 C 
ATOM      8  O   UNL A   1      29.984  23.395  27.255  1.00  0.00    -0.246 OA
BRANCH   7   9
ATOM      9  C   UNL A   1      31.639  24.523  25.963  1.00  0.00     0.087 C 
ATOM     10  C   UNL A   1      32.162  29.299  25.638  1.00  0.00     0.027 A 
ATOM     11  C   UNL A   1      32.724  29.154  24.371  1.00  0.00     0.041 A 
ATOM     12  C   UNL A   1      31.820  28.168  26.385  1.00  0.00     0.029 A 
ATOM     13  C   UNL A   1      32.965  27.879  23.861  1.00  0.00     0.084 A 
ATOM     14  C   UNL A   1      32.017  26.886  25.853  1.00  0.00     0.020 A 
ATOM     15  Cl  UNL A   1      33.647  27.745  22.278  1.00  0.00    -0.080 Cl
ATOM     16  C   UNL A   1      32.619  26.737  24.599  1.00  0.00     0.146 A 
ATOM     17  C   UNL A   1      31.517  25.717  26.561  1.00  0.00     0.027 C 
ATOM     18  O   UNL A   1      32.886  25.514  24.045  1.00  0.00    -0.474 OA
ATOM     19  C   UNL A   1      32.358  24.312  24.659  1.00  0.00     0.316 C 
BRANCH  10  20
ATOM     20  C   UNL A   1      31.889  30.605  26.151  1.00  0.00    -0.070 C 
ATOM     21  C   UNL A   1      31.651  31.695  26.600  1.00  0.00     0.010 C 
ENDBRANCH  10  20
BRANCH  19  22
ATOM     22  C   UNL A   1      31.483  23.587  23.629  1.00  0.00     0.430 C 
ATOM     23  F   UNL A   1      30.355  23.094  24.196  1.00  0.00    -0.167 F 
ATOM     24  F   UNL A   1      31.079  24.420  22.639  1.00  0.00    -0.167 F 
ATOM     25  F   UNL A   1      32.132  22.555  23.049  1.00  0.00    -0.167 F 
ENDBRANCH  19  22
ENDBRANCH   7   9
ENDBRANCH   6   7
ENDBRANCH   5   6
ENDBRANCH   4   5
ENDBRANCH   3   4
ENDBRANCH   2   3
ENDBRANCH   1   2
BRANCH   1  26
ATOM     26  O   UNL A   1      37.138  19.345  24.858  1.00  0.00    -0.376 OA
BRANCH  26  27
ATOM     27  C   UNL A   1      38.466  19.846  24.832  1.00  0.00     0.202 C 
BRANCH  27  28
ATOM     28  C   UNL A   1      39.541  19.647  25.930  1.00  0.00     0.261 C 
BRANCH  28  29
ATOM     29  O   UNL A   1      40.786  19.030  25.585  1.00  0.00    -0.460 OA
BRANCH  29  30
ATOM     30  C   UNL A   1      41.832  19.282  26.415  1.00  0.00     0.338 C 
ATOM     31  O   UNL A   1      42.681  18.489  26.779  1.00  0.00    -0.246 OA
BRANCH  30  32
ATOM     32  C   UNL A   1      41.910  20.743  26.648  1.00  0.00     0.060 A 
ATOM     33  C   UNL A   1      42.190  21.597  25.570  1.00  0.00     0.016 A 
ATOM     34  C   UNL A   1      41.716  21.265  27.926  1.00  0.00     0.016 A 
ATOM     35  C   UNL A   1      42.269  22.976  25.765  1.00  0.00     0.010 A 
ATOM     36  C   UNL A   1      41.837  22.645  28.128  1.00  0.00     0.010 A 
ATOM     37  C   UNL A   1      42.135  23.506  27.054  1.00  0.00    -0.014 A 
BRANCH  37  38
ATOM     38  C   UNL A   1      42.502  24.921  27.311  1.00  0.00     0.031 A 
ATOM     39  C   UNL A   1      43.888  25.375  26.933  1.00  0.00     0.074 A 
ATOM     40  C   UNL A   1      41.623  25.797  27.833  1.00  0.00     0.049 A 
ATOM     41  N   UNL A   1      44.461  26.534  27.124  1.00  0.00    -0.248 NA
ATOM     42  C   UNL A   1      44.739  24.389  26.244  1.00  0.00     0.031 C 
ATOM     43  C   UNL A   1      40.232  25.499  28.174  1.00  0.00     0.029 A 
ATOM     44  N   UNL A   1      41.772  27.122  28.167  1.00  0.00    -0.354 N 
ATOM     45  C   UNL A   1      45.735  26.418  26.582  1.00  0.00     0.074 A 
ATOM     46  C   UNL A   1      45.865  25.067  26.085  1.00  0.00     0.031 C 
ATOM     47  C   UNL A   1      39.658  26.609  28.672  1.00  0.00     0.029 A 
ATOM     48  C   UNL A   1      40.648  27.684  28.729  1.00  0.00     0.049 A 
ATOM     49  H   UNL A   1      42.607  27.623  28.020  1.00  0.00     0.167 HD
ATOM     50  C   UNL A   1      46.704  27.359  26.495  1.00  0.00     0.034 A 
ATOM     51  C   UNL A   1      40.450  28.914  29.250  1.00  0.00     0.034 A 
ATOM     52  C   UNL A   1      46.566  28.704  26.989  1.00  0.00     0.049 A 
ATOM     53  C   UNL A   1      41.588  29.909  29.246  1.00  0.00     0.074 A 
ATOM     54  C   UNL A   1      47.494  29.729  26.944  1.00  0.00     0.029 A 
ATOM     55  N   UNL A   1      45.439  29.211  27.616  1.00  0.00    -0.354 N 
ATOM     56  N   UNL A   1      42.797  29.778  28.749  1.00  0.00    -0.248 NA
ATOM     57  C   UNL A   1      41.339  31.216  29.872  1.00  0.00     0.031 C 
ATOM     58  C   UNL A   1      46.957  30.832  27.610  1.00  0.00     0.029 A 
ATOM     59  C   UNL A   1      45.661  30.525  27.994  1.00  0.00     0.049 A 
ATOM     60  H   UNL A   1      44.604  28.713  27.768  1.00  0.00     0.167 HD
ATOM     61  C   UNL A   1      43.437  30.994  28.978  1.00  0.00     0.074 A 
ATOM     62  C   UNL A   1      42.481  31.850  29.648  1.00  0.00     0.031 C 
ATOM     63  C   UNL A   1      44.702  31.369  28.660  1.00  0.00     0.034 A 
BRANCH  50  64
ATOM     64  C   UNL A   1      48.013  26.973  25.861  1.00  0.00     0.023 A 
ATOM     65  C   UNL A   1      48.309  27.311  24.531  1.00  0.00     0.031 A 
ATOM     66  C   UNL A   1      49.003  26.326  26.621  1.00  0.00     0.131 A 
ATOM     67  C   UNL A   1      49.563  26.987  23.995  1.00  0.00     0.055 A 
ATOM     68  C   UNL A   1      50.268  26.058  26.099  1.00  0.00     0.041 A 
ATOM     69  F   UNL A   1      48.762  25.966  27.891  1.00  0.00    -0.206 F 
ATOM     70  C   UNL A   1      50.554  26.388  24.778  1.00  0.00     0.022 A 
BRANCH  67  71
ATOM     71  S   UNL A   1      49.870  27.322  22.239  1.00  0.00     0.124 S 
ATOM     72  O   UNL A   1      51.328  27.261  22.179  1.00  0.00    -0.237 OA
ATOM     73  O   UNL A   1      49.158  26.233  21.581  1.00  0.00    -0.237 OA
ATOM     74  O   UNL A   1      49.299  28.652  22.039  1.00  0.00    -0.744 OA
ENDBRANCH  67  71
ENDBRANCH  50  64
BRANCH  51  75
ATOM     75  C   UNL A   1      39.135  29.278  29.855  1.00  0.00     0.023 A 
ATOM     76  C   UNL A   1      38.225  30.097  29.167  1.00  0.00     0.031 A 
ATOM     77  C   UNL A   1      38.787  28.848  31.148  1.00  0.00     0.131 A 
ATOM     78  C   UNL A   1      37.026  30.486  29.786  1.00  0.00     0.055 A 
ATOM     79  C   UNL A   1      37.571  29.198  31.740  1.00  0.00     0.041 A 
ATOM     80  F   UNL A   1      39.623  28.072  31.854  1.00  0.00    -0.206 F 
ATOM     81  C   UNL A   1      36.686  30.030  31.062  1.00  0.00     0.022 A 
BRANCH  78  82
ATOM     82  S   UNL A   1      35.939  31.651  28.920  1.00  0.00     0.124 S 
ATOM     83  O   UNL A   1      35.608  30.904  27.712  1.00  0.00    -0.237 OA
ATOM     84  O   UNL A   1      34.856  31.829  29.883  1.00  0.00    -0.237 OA
ATOM     85  O   UNL A   1      36.788  32.823  28.718  1.00  0.00    -0.744 OA
ENDBRANCH  78  82
ENDBRANCH  51  75
BRANCH  63  86
ATOM     86  C   UNL A   1      45.129  32.774  28.996  1.00  0.00     0.023 A 
ATOM     87  C   UNL A   1      44.789  33.861  28.174  1.00  0.00     0.031 A 
ATOM     88  C   UNL A   1      45.822  33.039  30.191  1.00  0.00     0.131 A 
ATOM     89  C   UNL A   1      45.166  35.161  28.544  1.00  0.00     0.055 A 
ATOM     90  C   UNL A   1      46.147  34.337  30.582  1.00  0.00     0.041 A 
ATOM     91  F   UNL A   1      46.165  32.036  31.017  1.00  0.00    -0.206 F 
ATOM     92  C   UNL A   1      45.824  35.408  29.754  1.00  0.00     0.022 A 
BRANCH  89  93
ATOM     93  S   UNL A   1      44.816  36.527  27.405  1.00  0.00     0.124 S 
ATOM     94  O   UNL A   1      43.517  36.140  26.861  1.00  0.00    -0.237 OA
ATOM     95  O   UNL A   1      44.815  37.685  28.292  1.00  0.00    -0.237 OA
ATOM     96  O   UNL A   1      45.926  36.475  26.456  1.00  0.00    -0.744 OA
ENDBRANCH  89  93
ENDBRANCH  63  86
ENDBRANCH  37  38
ENDBRANCH  30  32
ENDBRANCH  29  30
ENDBRANCH  28  29
ENDBRANCH  27  28
ENDBRANCH  26  27
ENDBRANCH   1  26
TORSDOF 22
ENDMDL
MODEL 2
REMARK VINA RESULT:     -10.8      0.875      7.278
REMARK SMILES C#Cc1cc(Cl)c2c(c1)C=C(C(=O)OCCOCCOCCOC(=O)c1ccc(-c3c4nc(c(-c5cc(S(=O)(=O)[O-])ccc5F)c5ccc([nH]5)c(-c5cc(S(=O)(=O)[O-])ccc5F)c5nc(c(-c6cc(S(=O)(=O)[O-])ccc6F)c6ccc3[nH]6)C=C5)C=C4)cc1)[C@@H](C(F)(F)F)O2
REMARK SMILES IDX 19 1 18 2 17 3 16 4 15 5 14 6 12 7 13 8 11 9 3 10 4 11 9 12
REMARK SMILES IDX 5 13 8 14 6 15 7 16 10 17 94 18 89 19 2 20 1 21 90 22 91 23
REMARK SMILES IDX 92 24 93 25 20 26 21 27 22 28 23 29 24 30 25 31 26 32 27 33
REMARK SMILES IDX 88 34 28 35 87 36 29 37 30 38 31 39 81 40 32 41 86 42 80 43
REMARK SMILES IDX 82 44 33 45 85 46 79 47 78 48 34 50 66 51 46 52 65 53 47 54
REMARK SMILES IDX 50 55 64 56 83 57 48 58 49 59 63 61 84 62 51 63 35 64 36 65
REMARK SMILES IDX 44 66 37 67 43 68 45 69 42 70 38 71 39 72 40 73 41 74 67 75
REMARK SMILES IDX 68 76 76 77 69 78 75 79 77 80 74 81 70 82 71 83 72 84 73 85
REMARK SMILES IDX 52 86 53 87 61 88 54 89 60 90 62 91 59 92 55 93 56 94 57 95
REMARK SMILES IDX 58 96
REMARK H PARENT 82 49 50 60
REMARK Flexibility Score: inf
ROOT
ATOM      1  C   UNL A   1      36.375  20.948  25.061  1.00  0.00     0.188 C 
ENDROOT
BRANCH   1   2
ATOM      2  C   UNL A   1      36.532  22.393  25.578  1.00  0.00     0.188 C 
BRANCH   2   3
ATOM      3  O   UNL A   1      35.534  22.893  26.439  1.00  0.00    -0.376 OA
BRANCH   3   4
ATOM      4  C   UNL A   1      34.517  22.046  26.942  1.00  0.00     0.202 C 
BRANCH   4   5
ATOM      5  C   UNL A   1      33.136  22.505  27.456  1.00  0.00     0.261 C 
BRANCH   5   6
ATOM      6  O   UNL A   1      32.033  22.449  26.546  1.00  0.00    -0.460 OA
BRANCH   6   7
ATOM      7  C   UNL A   1      31.149  23.472  26.626  1.00  0.00     0.338 C 
ATOM      8  O   UNL A   1      30.103  23.482  27.252  1.00  0.00    -0.246 OA
BRANCH   7   9
ATOM      9  C   UNL A   1      31.714  24.658  25.946  1.00  0.00     0.087 C 
ATOM     10  C   UNL A   1      32.062  29.450  25.621  1.00  0.00     0.027 A 
ATOM     11  C   UNL A   1      32.649  29.325  24.362  1.00  0.00     0.041 A 
ATOM     12  C   UNL A   1      31.752  28.307  26.364  1.00  0.00     0.029 A 
ATOM     13  C   UNL A   1      32.946  28.058  23.859  1.00  0.00     0.084 A 
ATOM     14  C   UNL A   1      32.005  27.033  25.838  1.00  0.00     0.020 A 
ATOM     15  Cl  UNL A   1      33.657  27.948  22.287  1.00  0.00    -0.080 Cl
ATOM     16  C   UNL A   1      32.631  26.906  24.593  1.00  0.00     0.146 A 
ATOM     17  C   UNL A   1      31.537  25.847  26.540  1.00  0.00     0.027 C 
ATOM     18  O   UNL A   1      32.953  25.693  24.047  1.00  0.00    -0.474 OA
ATOM     19  C   UNL A   1      32.460  24.473  24.655  1.00  0.00     0.316 C 
BRANCH  10  20
ATOM     20  C   UNL A   1      31.733  30.745  26.127  1.00  0.00    -0.070 C 
ATOM     21  C   UNL A   1      31.476  31.842  26.550  1.00  0.00     0.010 C 
ENDBRANCH  10  20
BRANCH  19  22
ATOM     22  C   UNL A   1      31.629  23.714  23.612  1.00  0.00     0.430 C 
ATOM     23  F   UNL A   1      30.305  23.767  23.899  1.00  0.00    -0.167 F 
ATOM     24  F   UNL A   1      31.772  24.245  22.373  1.00  0.00    -0.167 F 
ATOM     25  F   UNL A   1      31.977  22.411  23.536  1.00  0.00    -0.167 F 
ENDBRANCH  19  22
ENDBRANCH   7   9
ENDBRANCH   6   7
ENDBRANCH   5   6
ENDBRANCH   4   5
ENDBRANCH   3   4
ENDBRANCH   2   3
ENDBRANCH   1   2
BRANCH   1  26
ATOM     26  O   UNL A   1      37.526  20.138  25.035  1.00  0.00    -0.376 OA
BRANCH  26  27
ATOM     27  C   UNL A   1      38.772  20.695  25.426  1.00  0.00     0.202 C 
BRANCH  27  28
ATOM     28  C   UNL A   1      39.937  19.939  26.113  1.00  0.00     0.261 C 
BRANCH  28  29
ATOM     29  O   UNL A   1      41.167  19.756  25.403  1.00  0.00    -0.460 OA
BRANCH  29  30
ATOM     30  C   UNL A   1      42.307  19.876  26.133  1.00  0.00     0.338 C 
ATOM     31  O   UNL A   1      43.157  19.022  26.303  1.00  0.00    -0.246 OA
BRANCH  30  32
ATOM     32  C   UNL A   1      42.470  21.294  26.529  1.00  0.00     0.060 A 
ATOM     33  C   UNL A   1      42.465  22.288  25.537  1.00  0.00     0.016 A 
ATOM     34  C   UNL A   1      42.633  21.640  27.869  1.00  0.00     0.016 A 
ATOM     35  C   UNL A   1      42.618  23.631  25.884  1.00  0.00     0.010 A 
ATOM     36  C   UNL A   1      42.828  22.983  28.212  1.00  0.00     0.010 A 
ATOM     37  C   UNL A   1      42.842  23.983  27.221  1.00  0.00    -0.014 A 
BRANCH  37  38
ATOM     38  C   UNL A   1      43.289  25.359  27.556  1.00  0.00     0.031 A 
ATOM     39  C   UNL A   1      42.269  26.322  28.105  1.00  0.00     0.074 A 
ATOM     40  C   UNL A   1      44.572  25.742  27.413  1.00  0.00     0.049 A 
ATOM     41  N   UNL A   1      42.400  27.588  28.401  1.00  0.00    -0.248 NA
ATOM     42  C   UNL A   1      40.921  25.782  28.356  1.00  0.00     0.031 C 
ATOM     43  C   UNL A   1      45.665  24.883  26.960  1.00  0.00     0.029 A 
ATOM     44  N   UNL A   1      45.172  26.958  27.638  1.00  0.00    -0.354 N 
ATOM     45  C   UNL A   1      41.158  27.996  28.871  1.00  0.00     0.074 A 
ATOM     46  C   UNL A   1      40.276  26.854  28.790  1.00  0.00     0.031 C 
ATOM     47  C   UNL A   1      46.803  25.601  26.937  1.00  0.00     0.029 A 
ATOM     48  C   UNL A   1      46.513  26.981  27.330  1.00  0.00     0.049 A 
ATOM     49  H   UNL A   1      44.687  27.741  27.986  1.00  0.00     0.167 HD
ATOM     50  C   UNL A   1      40.792  29.211  29.341  1.00  0.00     0.034 A 
ATOM     51  C   UNL A   1      47.398  28.002  27.339  1.00  0.00     0.034 A 
ATOM     52  C   UNL A   1      41.676  30.343  29.423  1.00  0.00     0.049 A 
ATOM     53  C   UNL A   1      46.932  29.377  27.758  1.00  0.00     0.074 A 
ATOM     54  C   UNL A   1      41.394  31.616  29.887  1.00  0.00     0.029 A 
ATOM     55  N   UNL A   1      43.006  30.345  29.033  1.00  0.00    -0.354 N 
ATOM     56  N   UNL A   1      45.747  29.754  28.179  1.00  0.00    -0.248 NA
ATOM     57  C   UNL A   1      47.919  30.466  27.701  1.00  0.00     0.031 C 
ATOM     58  C   UNL A   1      42.531  32.406  29.709  1.00  0.00     0.029 A 
ATOM     59  C   UNL A   1      43.548  31.607  29.214  1.00  0.00     0.049 A 
ATOM     60  H   UNL A   1      43.494  29.565  28.681  1.00  0.00     0.167 HD
ATOM     61  C   UNL A   1      45.858  31.113  28.465  1.00  0.00     0.074 A 
ATOM     62  C   UNL A   1      47.225  31.490  28.178  1.00  0.00     0.031 C 
ATOM     63  C   UNL A   1      44.912  31.971  28.926  1.00  0.00     0.034 A 
BRANCH  50  64
ATOM     64  C   UNL A   1      39.367  29.398  29.789  1.00  0.00     0.023 A 
ATOM     65  C   UNL A   1      38.413  30.007  28.958  1.00  0.00     0.031 A 
ATOM     66  C   UNL A   1      38.944  28.890  31.030  1.00  0.00     0.131 A 
ATOM     67  C   UNL A   1      37.082  30.107  29.386  1.00  0.00     0.055 A 
ATOM     68  C   UNL A   1      37.607  28.942  31.425  1.00  0.00     0.041 A 
ATOM     69  F   UNL A   1      39.821  28.315  31.867  1.00  0.00    -0.206 F 
ATOM     70  C   UNL A   1      36.667  29.554  30.601  1.00  0.00     0.022 A 
BRANCH  67  71
ATOM     71  S   UNL A   1      35.901  31.010  28.348  1.00  0.00     0.124 S 
ATOM     72  O   UNL A   1      35.692  30.068  27.252  1.00  0.00    -0.237 OA
ATOM     73  O   UNL A   1      34.771  31.202  29.249  1.00  0.00    -0.237 OA
ATOM     74  O   UNL A   1      36.624  32.228  27.987  1.00  0.00    -0.744 OA
ENDBRANCH  67  71
ENDBRANCH  50  64
BRANCH  51  75
ATOM     75  C   UNL A   1      48.811  27.784  26.910  1.00  0.00     0.023 A 
ATOM     76  C   UNL A   1      49.207  28.024  25.584  1.00  0.00     0.031 A 
ATOM     77  C   UNL A   1      49.775  27.290  27.806  1.00  0.00     0.131 A 
ATOM     78  C   UNL A   1      50.524  27.742  25.185  1.00  0.00     0.055 A 
ATOM     79  C   UNL A   1      51.096  27.058  27.416  1.00  0.00     0.041 A 
ATOM     80  F   UNL A   1      49.448  27.035  29.083  1.00  0.00    -0.206 F 
ATOM     81  C   UNL A   1      51.474  27.275  26.096  1.00  0.00     0.022 A 
BRANCH  78  82
ATOM     82  S   UNL A   1      50.962  27.938  23.436  1.00  0.00     0.124 S 
ATOM     83  O   UNL A   1      51.694  26.703  23.175  1.00  0.00    -0.237 OA
ATOM     84  O   UNL A   1      49.650  28.053  22.806  1.00  0.00    -0.237 OA
ATOM     85  O   UNL A   1      51.767  29.157  23.421  1.00  0.00    -0.744 OA
ENDBRANCH  78  82
ENDBRANCH  51  75
BRANCH  63  86
ATOM     86  C   UNL A   1      45.319  33.399  29.185  1.00  0.00     0.023 A 
ATOM     87  C   UNL A   1      45.153  34.397  28.212  1.00  0.00     0.031 A 
ATOM     88  C   UNL A   1      45.811  33.778  30.447  1.00  0.00     0.131 A 
ATOM     89  C   UNL A   1      45.502  35.725  28.507  1.00  0.00     0.055 A 
ATOM     90  C   UNL A   1      46.104  35.107  30.754  1.00  0.00     0.041 A 
ATOM     91  F   UNL A   1      45.981  32.864  31.416  1.00  0.00    -0.206 F 
ATOM     92  C   UNL A   1      45.955  36.088  29.779  1.00  0.00     0.022 A 
BRANCH  89  93
ATOM     93  S   UNL A   1      45.387  36.968  27.192  1.00  0.00     0.124 S 
ATOM     94  O   UNL A   1      43.946  37.195  27.117  1.00  0.00    -0.237 OA
ATOM     95  O   UNL A   1      46.178  38.068  27.730  1.00  0.00    -0.237 OA
ATOM     96  O   UNL A   1      45.970  36.295  26.033  1.00  0.00    -0.744 OA
ENDBRANCH  89  93
ENDBRANCH  63  86
ENDBRANCH  37  38
ENDBRANCH  30  32
ENDBRANCH  29  30
ENDBRANCH  28  29
ENDBRANCH  27  28
ENDBRANCH  26  27
ENDBRANCH   1  26
TORSDOF 22
ENDMDL
MODEL 3
REMARK VINA RESULT:     -10.8      5.376     11.099
REMARK SMILES C#Cc1cc(Cl)c2c(c1)C=C(C(=O)OCCOCCOCCOC(=O)c1ccc(-c3c4nc(c(-c5cc(S(=O)(=O)[O-])ccc5F)c5ccc([nH]5)c(-c5cc(S(=O)(=O)[O-])ccc5F)c5nc(c(-c6cc(S(=O)(=O)[O-])ccc6F)c6ccc3[nH]6)C=C5)C=C4)cc1)[C@@H](C(F)(F)F)O2
REMARK SMILES IDX 19 1 18 2 17 3 16 4 15 5 14 6 12 7 13 8 11 9 3 10 4 11 9 12
REMARK SMILES IDX 5 13 8 14 6 15 7 16 10 17 94 18 89 19 2 20 1 21 90 22 91 23
REMARK SMILES IDX 92 24 93 25 20 26 21 27 22 28 23 29 24 30 25 31 26 32 27 33
REMARK SMILES IDX 88 34 28 35 87 36 29 37 30 38 31 39 81 40 32 41 86 42 80 43
REMARK SMILES IDX 82 44 33 45 85 46 79 47 78 48 34 50 66 51 46 52 65 53 47 54
REMARK SMILES IDX 50 55 64 56 83 57 48 58 49 59 63 61 84 62 51 63 35 64 36 65
REMARK SMILES IDX 44 66 37 67 43 68 45 69 42 70 38 71 39 72 40 73 41 74 67 75
REMARK SMILES IDX 68 76 76 77 69 78 75 79 77 80 74 81 70 82 71 83 72 84 73 85
REMARK SMILES IDX 52 86 53 87 61 88 54 89 60 90 62 91 59 92 55 93 56 94 57 95
REMARK SMILES IDX 58 96
REMARK H PARENT 82 49 50 60
REMARK Flexibility Score: inf
ROOT
ATOM      1  C   UNL A   1      33.111  29.886  26.960  1.00  0.00     0.188 C 
ENDROOT
BRANCH   1   2
ATOM      2  C   UNL A   1      31.885  28.958  27.087  1.00  0.00     0.188 C 
BRANCH   2   3
ATOM      3  O   UNL A   1      32.122  27.582  27.284  1.00  0.00    -0.376 OA
BRANCH   3   4
ATOM      4  C   UNL A   1      31.488  26.611  26.470  1.00  0.00     0.202 C 
BRANCH   4   5
ATOM      5  C   UNL A   1      31.583  25.081  26.656  1.00  0.00     0.261 C 
BRANCH   5   6
ATOM      6  O   UNL A   1      31.869  24.286  25.502  1.00  0.00    -0.460 OA
BRANCH   6   7
ATOM      7  C   UNL A   1      32.931  23.452  25.608  1.00  0.00     0.338 C 
ATOM      8  O   UNL A   1      33.902  23.600  26.330  1.00  0.00    -0.246 OA
BRANCH   7   9
ATOM      9  C   UNL A   1      32.675  22.232  24.811  1.00  0.00     0.087 C 
ATOM     10  C   UNL A   1      32.681  17.426  24.509  1.00  0.00     0.027 A 
ATOM     11  C   UNL A   1      32.529  17.510  23.126  1.00  0.00     0.041 A 
ATOM     12  C   UNL A   1      32.679  18.589  25.284  1.00  0.00     0.029 A 
ATOM     13  C   UNL A   1      32.352  18.755  22.522  1.00  0.00     0.084 A 
ATOM     14  C   UNL A   1      32.549  19.844  24.673  1.00  0.00     0.020 A 
ATOM     15  Cl  UNL A   1      32.184  18.815  20.802  1.00  0.00    -0.080 Cl
ATOM     16  C   UNL A   1      32.355  19.929  23.290  1.00  0.00     0.146 A 
ATOM     17  C   UNL A   1      32.706  21.059  25.459  1.00  0.00     0.027 C 
ATOM     18  O   UNL A   1      32.171  21.118  22.639  1.00  0.00    -0.474 OA
ATOM     19  C   UNL A   1      32.380  22.368  23.344  1.00  0.00     0.316 C 
BRANCH  10  20
ATOM     20  C   UNL A   1      32.890  16.154  25.126  1.00  0.00    -0.070 C 
ATOM     21  C   UNL A   1      33.084  15.082  25.636  1.00  0.00     0.010 C 
ENDBRANCH  10  20
BRANCH  19  22
ATOM     22  C   UNL A   1      33.468  23.161  22.608  1.00  0.00     0.430 C 
ATOM     23  F   UNL A   1      34.699  22.641  22.833  1.00  0.00    -0.167 F 
ATOM     24  F   UNL A   1      33.283  23.138  21.265  1.00  0.00    -0.167 F 
ATOM     25  F   UNL A   1      33.496  24.457  22.990  1.00  0.00    -0.167 F 
ENDBRANCH  19  22
ENDBRANCH   7   9
ENDBRANCH   6   7
ENDBRANCH   5   6
ENDBRANCH   4   5
ENDBRANCH   3   4
ENDBRANCH   2   3
ENDBRANCH   1   2
BRANCH   1  26
ATOM     26  O   UNL A   1      33.060  31.123  27.629  1.00  0.00    -0.376 OA
BRANCH  26  27
ATOM     27  C   UNL A   1      32.860  32.309  26.874  1.00  0.00     0.202 C 
BRANCH  27  28
ATOM     28  C   UNL A   1      32.150  33.596  27.363  1.00  0.00     0.261 C 
BRANCH  28  29
ATOM     29  O   UNL A   1      32.511  34.154  28.632  1.00  0.00    -0.460 OA
BRANCH  29  30
ATOM     30  C   UNL A   1      33.693  34.822  28.680  1.00  0.00     0.338 C 
ATOM     31  O   UNL A   1      33.854  36.026  28.599  1.00  0.00    -0.246 OA
BRANCH  30  32
ATOM     32  C   UNL A   1      34.761  33.869  29.064  1.00  0.00     0.060 A 
ATOM     33  C   UNL A   1      34.485  32.878  30.020  1.00  0.00     0.016 A 
ATOM     34  C   UNL A   1      36.028  33.958  28.489  1.00  0.00     0.016 A 
ATOM     35  C   UNL A   1      35.474  31.970  30.399  1.00  0.00     0.010 A 
ATOM     36  C   UNL A   1      37.030  33.072  28.901  1.00  0.00     0.010 A 
ATOM     37  C   UNL A   1      36.766  32.088  29.872  1.00  0.00    -0.014 A 
BRANCH  37  38
ATOM     38  C   UNL A   1      37.882  31.319  30.479  1.00  0.00     0.031 A 
ATOM     39  C   UNL A   1      38.253  31.616  31.909  1.00  0.00     0.074 A 
ATOM     40  C   UNL A   1      38.531  30.356  29.799  1.00  0.00     0.049 A 
ATOM     41  N   UNL A   1      39.231  31.132  32.629  1.00  0.00    -0.248 NA
ATOM     42  C   UNL A   1      37.405  32.588  32.621  1.00  0.00     0.031 C 
ATOM     43  C   UNL A   1      38.220  29.926  28.436  1.00  0.00     0.029 A 
ATOM     44  N   UNL A   1      39.592  29.562  30.166  1.00  0.00    -0.354 N 
ATOM     45  C   UNL A   1      39.117  31.737  33.875  1.00  0.00     0.074 A 
ATOM     46  C   UNL A   1      37.997  32.649  33.804  1.00  0.00     0.031 C 
ATOM     47  C   UNL A   1      39.073  28.949  28.081  1.00  0.00     0.029 A 
ATOM     48  C   UNL A   1      40.020  28.713  29.171  1.00  0.00     0.049 A 
ATOM     49  H   UNL A   1      40.007  29.598  31.058  1.00  0.00     0.167 HD
ATOM     50  C   UNL A   1      39.871  31.538  34.981  1.00  0.00     0.034 A 
ATOM     51  C   UNL A   1      41.069  27.862  29.136  1.00  0.00     0.034 A 
ATOM     52  C   UNL A   1      40.981  30.626  35.045  1.00  0.00     0.049 A 
ATOM     53  C   UNL A   1      41.966  27.747  30.347  1.00  0.00     0.074 A 
ATOM     54  C   UNL A   1      41.804  30.357  36.124  1.00  0.00     0.029 A 
ATOM     55  N   UNL A   1      41.428  29.839  33.996  1.00  0.00    -0.354 N 
ATOM     56  N   UNL A   1      41.859  28.342  31.513  1.00  0.00    -0.248 NA
ATOM     57  C   UNL A   1      43.124  26.847  30.241  1.00  0.00     0.031 C 
ATOM     58  C   UNL A   1      42.792  29.464  35.707  1.00  0.00     0.029 A 
ATOM     59  C   UNL A   1      42.536  29.109  34.392  1.00  0.00     0.049 A 
ATOM     60  H   UNL A   1      41.017  29.802  33.101  1.00  0.00     0.167 HD
ATOM     61  C   UNL A   1      42.918  27.866  32.283  1.00  0.00     0.074 A 
ATOM     62  C   UNL A   1      43.646  26.927  31.457  1.00  0.00     0.031 C 
ATOM     63  C   UNL A   1      43.254  28.176  33.561  1.00  0.00     0.034 A 
BRANCH  50  64
ATOM     64  C   UNL A   1      39.540  32.334  36.216  1.00  0.00     0.023 A 
ATOM     65  C   UNL A   1      40.167  33.561  36.485  1.00  0.00     0.031 A 
ATOM     66  C   UNL A   1      38.532  31.893  37.091  1.00  0.00     0.131 A 
ATOM     67  C   UNL A   1      39.788  34.302  37.612  1.00  0.00     0.055 A 
ATOM     68  C   UNL A   1      38.121  32.662  38.180  1.00  0.00     0.041 A 
ATOM     69  F   UNL A   1      37.916  30.719  36.887  1.00  0.00    -0.206 F 
ATOM     70  C   UNL A   1      38.751  33.874  38.447  1.00  0.00     0.022 A 
BRANCH  67  71
ATOM     71  S   UNL A   1      40.702  35.818  38.003  1.00  0.00     0.124 S 
ATOM     72  O   UNL A   1      41.929  35.629  37.232  1.00  0.00    -0.237 OA
ATOM     73  O   UNL A   1      39.803  36.861  37.524  1.00  0.00    -0.237 OA
ATOM     74  O   UNL A   1      40.868  35.755  39.453  1.00  0.00    -0.744 OA
ENDBRANCH  67  71
ENDBRANCH  50  64
BRANCH  51  75
ATOM     75  C   UNL A   1      41.362  27.070  27.905  1.00  0.00     0.023 A 
ATOM     76  C   UNL A   1      41.122  25.687  27.861  1.00  0.00     0.031 A 
ATOM     77  C   UNL A   1      41.927  27.677  26.769  1.00  0.00     0.131 A 
ATOM     78  C   UNL A   1      41.474  24.952  26.719  1.00  0.00     0.055 A 
ATOM     79  C   UNL A   1      42.230  26.948  25.616  1.00  0.00     0.041 A 
ATOM     80  F   UNL A   1      42.185  28.994  26.760  1.00  0.00    -0.206 F 
ATOM     81  C   UNL A   1      42.012  25.574  25.591  1.00  0.00     0.022 A 
BRANCH  78  82
ATOM     82  S   UNL A   1      41.273  23.149  26.750  1.00  0.00     0.124 S 
ATOM     83  O   UNL A   1      39.848  23.006  26.471  1.00  0.00    -0.237 OA
ATOM     84  O   UNL A   1      42.181  22.724  25.689  1.00  0.00    -0.237 OA
ATOM     85  O   UNL A   1      41.686  22.784  28.103  1.00  0.00    -0.744 OA
ENDBRANCH  78  82
ENDBRANCH  51  75
BRANCH  63  86
ATOM     86  C   UNL A   1      44.442  27.477  34.169  1.00  0.00     0.023 A 
ATOM     87  C   UNL A   1      44.338  26.182  34.701  1.00  0.00     0.031 A 
ATOM     88  C   UNL A   1      45.711  28.085  34.149  1.00  0.00     0.131 A 
ATOM     89  C   UNL A   1      45.477  25.545  35.218  1.00  0.00     0.055 A 
ATOM     90  C   UNL A   1      46.850  27.428  34.614  1.00  0.00     0.041 A 
ATOM     91  F   UNL A   1      45.867  29.320  33.644  1.00  0.00    -0.206 F 
ATOM     92  C   UNL A   1      46.736  26.152  35.157  1.00  0.00     0.022 A 
BRANCH  89  93
ATOM     93  S   UNL A   1      45.287  23.923  36.005  1.00  0.00     0.124 S 
ATOM     94  O   UNL A   1      45.246  24.278  37.420  1.00  0.00    -0.237 OA
ATOM     95  O   UNL A   1      44.035  23.441  35.432  1.00  0.00    -0.237 OA
ATOM     96  O   UNL A   1      46.482  23.195  35.582  1.00  0.00    -0.744 OA
ENDBRANCH  89  93
ENDBRANCH  63  86
ENDBRANCH  37  38
ENDBRANCH  30  32
ENDBRANCH  29  30
ENDBRANCH  28  29
ENDBRANCH  27  28
ENDBRANCH  26  27
ENDBRANCH   1  26
TORSDOF 22
ENDMDL
