MODEL 1
REMARK VINA RESULT:     -10.4      0.000      0.000
REMARK SMILES CSc1cccc(N2C[C@@H](C(=O)OCCOCCOCCOC(=O)c3ccc(-c4c5nc(c(-c6cc(S(=O)(=O)[O-])ccc6F)c6ccc([nH]6)c(-c6cc(S(=O)(=O)[O-])ccc6F)c6nc(c(-c7cc(S(=O)(=O)[O-])ccc7F)c7ccc4[nH]7)C=C6)C=C5)cc3)CC2=O)c1
REMARK SMILES IDX 18 1 17 2 16 3 15 4 14 5 13 6 11 7 12 8 10 9 8 10 9 11 89 12
REMARK SMILES IDX 88 13 90 14 7 15 3 16 4 17 91 18 5 19 6 20 2 21 1 22 19 23
REMARK SMILES IDX 20 24 21 25 22 26 23 27 24 28 25 29 26 30 87 31 27 32 86 33
REMARK SMILES IDX 28 34 29 35 30 36 80 37 31 38 85 39 79 40 81 41 32 42 84 43
REMARK SMILES IDX 78 44 77 45 33 47 65 48 45 49 64 50 46 51 49 52 63 53 82 54
REMARK SMILES IDX 47 55 48 56 62 58 83 59 50 60 34 61 35 62 43 63 36 64 42 65
REMARK SMILES IDX 44 66 41 67 37 68 38 69 39 70 40 71 66 72 67 73 75 74 68 75
REMARK SMILES IDX 74 76 76 77 73 78 69 79 70 80 71 81 72 82 51 83 52 84 60 85
REMARK SMILES IDX 53 86 59 87 61 88 58 89 54 90 55 91 56 92 57 93
REMARK H PARENT 81 46 49 57
REMARK Flexibility Score: inf
ROOT
ATOM      1  C   UNL A   1      36.536  22.482  25.328  1.00  0.00     0.188 C 
ENDROOT
BRANCH   1   2
ATOM      2  C   UNL A   1      35.338  22.982  26.148  1.00  0.00     0.188 C 
BRANCH   2   3
ATOM      3  O   UNL A   1      34.138  22.215  26.165  1.00  0.00    -0.376 OA
BRANCH   3   4
ATOM      4  C   UNL A   1      34.121  20.929  25.555  1.00  0.00     0.202 C 
BRANCH   4   5
ATOM      5  C   UNL A   1      32.791  20.390  25.003  1.00  0.00     0.261 C 
BRANCH   5   6
ATOM      6  O   UNL A   1      31.923  21.397  24.443  1.00  0.00    -0.463 OA
BRANCH   6   7
ATOM      7  C   UNL A   1      32.164  21.768  23.163  1.00  0.00     0.311 C 
ATOM      8  O   UNL A   1      31.792  21.135  22.180  1.00  0.00    -0.252 OA
BRANCH   7   9
ATOM      9  C   UNL A   1      32.882  23.097  23.026  1.00  0.00     0.128 C 
ATOM     10  N   UNL A   1      32.249  25.356  22.857  1.00  0.00    -0.311 N 
ATOM     11  C   UNL A   1      31.962  24.156  23.598  1.00  0.00     0.141 C 
ATOM     12  C   UNL A   1      32.930  25.093  21.678  1.00  0.00     0.227 C 
ATOM     13  C   UNL A   1      33.241  23.629  21.641  1.00  0.00     0.117 C 
ATOM     14  O   UNL A   1      33.274  25.868  20.798  1.00  0.00    -0.274 OA
BRANCH  10  15
ATOM     15  C   UNL A   1      31.697  26.600  23.215  1.00  0.00     0.045 A 
ATOM     16  C   UNL A   1      31.838  28.683  24.478  1.00  0.00     0.009 A 
ATOM     17  C   UNL A   1      30.648  29.104  23.882  1.00  0.00     0.015 A 
ATOM     18  C   UNL A   1      32.336  27.417  24.154  1.00  0.00     0.041 A 
ATOM     19  C   UNL A   1      29.985  28.287  22.962  1.00  0.00     0.003 A 
ATOM     20  C   UNL A   1      30.517  27.049  22.616  1.00  0.00     0.026 A 
BRANCH  16  21
ATOM     21  S   UNL A   1      32.805  29.637  25.641  1.00  0.00    -0.130 SA
ATOM     22  C   UNL A   1      31.999  29.288  27.218  1.00  0.00     0.091 C 
ENDBRANCH  16  21
ENDBRANCH  10  15
ENDBRANCH   7   9
ENDBRANCH   6   7
ENDBRANCH   5   6
ENDBRANCH   4   5
ENDBRANCH   3   4
ENDBRANCH   2   3
ENDBRANCH   1   2
BRANCH   1  23
ATOM     23  O   UNL A   1      37.237  21.398  25.893  1.00  0.00    -0.376 OA
BRANCH  23  24
ATOM     24  C   UNL A   1      37.784  20.444  25.003  1.00  0.00     0.202 C 
BRANCH  24  25
ATOM     25  C   UNL A   1      38.956  19.579  25.496  1.00  0.00     0.261 C 
BRANCH  25  26
ATOM     26  O   UNL A   1      40.234  20.229  25.635  1.00  0.00    -0.460 OA
BRANCH  26  27
ATOM     27  C   UNL A   1      40.770  20.281  26.877  1.00  0.00     0.338 C 
ATOM     28  O   UNL A   1      41.235  19.339  27.503  1.00  0.00    -0.246 OA
BRANCH  27  29
ATOM     29  C   UNL A   1      40.929  21.708  27.252  1.00  0.00     0.060 A 
ATOM     30  C   UNL A   1      40.312  22.697  26.469  1.00  0.00     0.016 A 
ATOM     31  C   UNL A   1      41.671  22.072  28.376  1.00  0.00     0.016 A 
ATOM     32  C   UNL A   1      40.460  24.050  26.794  1.00  0.00     0.010 A 
ATOM     33  C   UNL A   1      41.839  23.428  28.685  1.00  0.00     0.010 A 
ATOM     34  C   UNL A   1      41.260  24.428  27.880  1.00  0.00    -0.014 A 
BRANCH  34  35
ATOM     35  C   UNL A   1      41.657  25.851  28.059  1.00  0.00     0.031 A 
ATOM     36  C   UNL A   1      43.007  26.283  27.548  1.00  0.00     0.074 A 
ATOM     37  C   UNL A   1      40.846  26.748  28.650  1.00  0.00     0.049 A 
ATOM     38  N   UNL A   1      43.615  27.435  27.663  1.00  0.00    -0.248 NA
ATOM     39  C   UNL A   1      43.777  25.267  26.813  1.00  0.00     0.031 C 
ATOM     40  C   UNL A   1      39.496  26.476  29.138  1.00  0.00     0.029 A 
ATOM     41  N   UNL A   1      41.050  28.074  28.949  1.00  0.00    -0.354 N 
ATOM     42  C   UNL A   1      44.842  27.283  27.025  1.00  0.00     0.074 A 
ATOM     43  C   UNL A   1      44.905  25.913  26.560  1.00  0.00     0.031 C 
ATOM     44  C   UNL A   1      38.997  27.598  29.686  1.00  0.00     0.029 A 
ATOM     45  C   UNL A   1      40.006  28.655  29.633  1.00  0.00     0.049 A 
ATOM     46  H   UNL A   1      41.867  28.564  28.698  1.00  0.00     0.167 HD
ATOM     47  C   UNL A   1      45.822  28.200  26.838  1.00  0.00     0.034 A 
ATOM     48  C   UNL A   1      39.891  29.886  30.179  1.00  0.00     0.034 A 
ATOM     49  C   UNL A   1      45.754  29.559  27.316  1.00  0.00     0.049 A 
ATOM     50  C   UNL A   1      41.041  30.861  30.048  1.00  0.00     0.074 A 
ATOM     51  C   UNL A   1      46.686  30.571  27.170  1.00  0.00     0.029 A 
ATOM     52  N   UNL A   1      44.701  30.096  28.049  1.00  0.00    -0.354 N 
ATOM     53  N   UNL A   1      42.195  30.705  29.442  1.00  0.00    -0.248 NA
ATOM     54  C   UNL A   1      40.866  32.181  30.672  1.00  0.00     0.031 C 
ATOM     55  C   UNL A   1      46.240  31.688  27.883  1.00  0.00     0.029 A 
ATOM     56  C   UNL A   1      44.982  31.409  28.394  1.00  0.00     0.049 A 
ATOM     57  H   UNL A   1      43.877  29.613  28.287  1.00  0.00     0.167 HD
ATOM     58  C   UNL A   1      42.865  31.922  29.579  1.00  0.00     0.074 A 
ATOM     59  C   UNL A   1      41.981  32.801  30.313  1.00  0.00     0.031 C 
ATOM     60  C   UNL A   1      44.097  32.281  29.133  1.00  0.00     0.034 A 
BRANCH  47  61
ATOM     61  C   UNL A   1      47.077  27.742  26.132  1.00  0.00     0.023 A 
ATOM     62  C   UNL A   1      47.311  28.021  24.775  1.00  0.00     0.031 A 
ATOM     63  C   UNL A   1      48.044  26.990  26.824  1.00  0.00     0.131 A 
ATOM     64  C   UNL A   1      48.444  27.493  24.136  1.00  0.00     0.055 A 
ATOM     65  C   UNL A   1      49.212  26.542  26.205  1.00  0.00     0.041 A 
ATOM     66  F   UNL A   1      47.864  26.668  28.115  1.00  0.00    -0.206 F 
ATOM     67  C   UNL A   1      49.410  26.780  24.848  1.00  0.00     0.022 A 
BRANCH  64  68
ATOM     68  S   UNL A   1      48.560  27.622  22.330  1.00  0.00     0.124 S 
ATOM     69  O   UNL A   1      48.656  26.217  21.941  1.00  0.00    -0.237 OA
ATOM     70  O   UNL A   1      47.315  28.298  21.983  1.00  0.00    -0.237 OA
ATOM     71  O   UNL A   1      49.776  28.405  22.121  1.00  0.00    -0.744 OA
ENDBRANCH  64  68
ENDBRANCH  47  61
BRANCH  48  72
ATOM     72  C   UNL A   1      38.667  30.266  30.947  1.00  0.00     0.023 A 
ATOM     73  C   UNL A   1      37.609  30.958  30.335  1.00  0.00     0.031 A 
ATOM     74  C   UNL A   1      38.570  30.009  32.327  1.00  0.00     0.131 A 
ATOM     75  C   UNL A   1      36.528  31.414  31.107  1.00  0.00     0.055 A 
ATOM     76  C   UNL A   1      37.464  30.410  33.079  1.00  0.00     0.041 A 
ATOM     77  F   UNL A   1      39.556  29.362  32.967  1.00  0.00    -0.206 F 
ATOM     78  C   UNL A   1      36.441  31.129  32.472  1.00  0.00     0.022 A 
BRANCH  75  79
ATOM     79  S   UNL A   1      35.284  32.478  30.323  1.00  0.00     0.124 S 
ATOM     80  O   UNL A   1      36.067  33.669  30.015  1.00  0.00    -0.237 OA
ATOM     81  O   UNL A   1      34.870  31.668  29.182  1.00  0.00    -0.237 OA
ATOM     82  O   UNL A   1      34.274  32.645  31.365  1.00  0.00    -0.744 OA
ENDBRANCH  75  79
ENDBRANCH  48  72
BRANCH  60  83
ATOM     83  C   UNL A   1      44.537  33.708  29.373  1.00  0.00     0.023 A 
ATOM     84  C   UNL A   1      44.049  34.781  28.606  1.00  0.00     0.031 A 
ATOM     85  C   UNL A   1      45.470  33.996  30.386  1.00  0.00     0.131 A 
ATOM     86  C   UNL A   1      44.540  36.078  28.823  1.00  0.00     0.055 A 
ATOM     87  C   UNL A   1      45.901  35.298  30.645  1.00  0.00     0.041 A 
ATOM     88  F   UNL A   1      45.976  33.014  31.149  1.00  0.00    -0.206 F 
ATOM     89  C   UNL A   1      45.447  36.346  29.850  1.00  0.00     0.022 A 
BRANCH  86  90
ATOM     90  S   UNL A   1      44.061  37.395  27.671  1.00  0.00     0.124 S 
ATOM     91  O   UNL A   1      43.011  38.082  28.415  1.00  0.00    -0.237 OA
ATOM     92  O   UNL A   1      45.310  38.132  27.502  1.00  0.00    -0.237 OA
ATOM     93  O   UNL A   1      43.607  36.667  26.487  1.00  0.00    -0.744 OA
ENDBRANCH  86  90
ENDBRANCH  60  83
ENDBRANCH  34  35
ENDBRANCH  27  29
ENDBRANCH  26  27
ENDBRANCH  25  26
ENDBRANCH  24  25
ENDBRANCH  23  24
ENDBRANCH   1  23
TORSDOF 22
ENDMDL
MODEL 2
REMARK VINA RESULT:      -9.9      2.309      7.975
REMARK SMILES CSc1cccc(N2C[C@@H](C(=O)OCCOCCOCCOC(=O)c3ccc(-c4c5nc(c(-c6cc(S(=O)(=O)[O-])ccc6F)c6ccc([nH]6)c(-c6cc(S(=O)(=O)[O-])ccc6F)c6nc(c(-c7cc(S(=O)(=O)[O-])ccc7F)c7ccc4[nH]7)C=C6)C=C5)cc3)CC2=O)c1
REMARK SMILES IDX 18 1 17 2 16 3 15 4 14 5 13 6 11 7 12 8 10 9 8 10 9 11 89 12
REMARK SMILES IDX 88 13 90 14 7 15 3 16 4 17 91 18 5 19 6 20 2 21 1 22 19 23
REMARK SMILES IDX 20 24 21 25 22 26 23 27 24 28 25 29 26 30 87 31 27 32 86 33
REMARK SMILES IDX 28 34 29 35 30 36 80 37 31 38 85 39 79 40 81 41 32 42 84 43
REMARK SMILES IDX 78 44 77 45 33 47 65 48 45 49 64 50 46 51 49 52 63 53 82 54
REMARK SMILES IDX 47 55 48 56 62 58 83 59 50 60 34 61 35 62 43 63 36 64 42 65
REMARK SMILES IDX 44 66 41 67 37 68 38 69 39 70 40 71 66 72 67 73 75 74 68 75
REMARK SMILES IDX 74 76 76 77 73 78 69 79 70 80 71 81 72 82 51 83 52 84 60 85
REMARK SMILES IDX 53 86 59 87 61 88 58 89 54 90 55 91 56 92 57 93
REMARK H PARENT 81 46 49 57
REMARK Flexibility Score: inf
ROOT
ATOM      1  C   UNL A   1      36.559  21.658  24.896  1.00  0.00     0.188 C 
ENDROOT
BRANCH   1   2
ATOM      2  C   UNL A   1      35.737  22.198  26.076  1.00  0.00     0.188 C 
BRANCH   2   3
ATOM      3  O   UNL A   1      34.662  21.418  26.588  1.00  0.00    -0.376 OA
BRANCH   3   4
ATOM      4  C   UNL A   1      33.397  21.456  25.935  1.00  0.00     0.202 C 
BRANCH   4   5
ATOM      5  C   UNL A   1      33.271  20.841  24.531  1.00  0.00     0.261 C 
BRANCH   5   6
ATOM      6  O   UNL A   1      32.206  21.391  23.728  1.00  0.00    -0.463 OA
BRANCH   6   7
ATOM      7  C   UNL A   1      32.299  22.703  23.407  1.00  0.00     0.311 C 
ATOM      8  O   UNL A   1      33.234  23.197  22.785  1.00  0.00    -0.252 OA
BRANCH   7   9
ATOM      9  C   UNL A   1      31.094  23.529  23.815  1.00  0.00     0.128 C 
ATOM     10  N   UNL A   1      30.691  25.778  24.374  1.00  0.00    -0.311 N 
ATOM     11  C   UNL A   1      31.383  24.961  23.414  1.00  0.00     0.141 C 
ATOM     12  C   UNL A   1      30.338  25.065  25.511  1.00  0.00     0.227 C 
ATOM     13  C   UNL A   1      30.705  23.631  25.288  1.00  0.00     0.117 C 
ATOM     14  O   UNL A   1      29.797  25.462  26.532  1.00  0.00    -0.274 OA
BRANCH  10  15
ATOM     15  C   UNL A   1      30.597  27.175  24.231  1.00  0.00     0.045 A 
ATOM     16  C   UNL A   1      29.466  29.126  23.300  1.00  0.00     0.009 A 
ATOM     17  C   UNL A   1      30.356  29.949  23.993  1.00  0.00     0.015 A 
ATOM     18  C   UNL A   1      29.616  27.740  23.409  1.00  0.00     0.041 A 
ATOM     19  C   UNL A   1      31.356  29.399  24.797  1.00  0.00     0.003 A 
ATOM     20  C   UNL A   1      31.465  28.018  24.930  1.00  0.00     0.026 A 
BRANCH  16  21
ATOM     21  S   UNL A   1      28.122  29.696  22.267  1.00  0.00    -0.130 SA
ATOM     22  C   UNL A   1      27.719  31.305  22.980  1.00  0.00     0.091 C 
ENDBRANCH  16  21
ENDBRANCH  10  15
ENDBRANCH   7   9
ENDBRANCH   6   7
ENDBRANCH   5   6
ENDBRANCH   4   5
ENDBRANCH   3   4
ENDBRANCH   2   3
ENDBRANCH   1   2
BRANCH   1  23
ATOM     23  O   UNL A   1      36.842  20.279  24.945  1.00  0.00    -0.376 OA
BRANCH  23  24
ATOM     24  C   UNL A   1      38.204  19.897  24.980  1.00  0.00     0.202 C 
BRANCH  24  25
ATOM     25  C   UNL A   1      39.207  20.842  25.663  1.00  0.00     0.261 C 
BRANCH  25  26
ATOM     26  O   UNL A   1      40.152  20.245  26.570  1.00  0.00    -0.460 OA
BRANCH  26  27
ATOM     27  C   UNL A   1      41.415  20.062  26.116  1.00  0.00     0.338 C 
ATOM     28  O   UNL A   1      41.800  19.142  25.407  1.00  0.00    -0.246 OA
BRANCH  27  29
ATOM     29  C   UNL A   1      42.195  21.289  26.411  1.00  0.00     0.060 A 
ATOM     30  C   UNL A   1      42.551  21.574  27.739  1.00  0.00     0.016 A 
ATOM     31  C   UNL A   1      42.587  22.149  25.384  1.00  0.00     0.016 A 
ATOM     32  C   UNL A   1      43.274  22.732  28.044  1.00  0.00     0.010 A 
ATOM     33  C   UNL A   1      43.288  23.322  25.694  1.00  0.00     0.010 A 
ATOM     34  C   UNL A   1      43.611  23.637  27.028  1.00  0.00    -0.014 A 
BRANCH  34  35
ATOM     35  C   UNL A   1      44.116  24.994  27.371  1.00  0.00     0.031 A 
ATOM     36  C   UNL A   1      43.133  26.010  27.891  1.00  0.00     0.074 A 
ATOM     37  C   UNL A   1      45.414  25.327  27.236  1.00  0.00     0.049 A 
ATOM     38  N   UNL A   1      43.307  27.275  28.172  1.00  0.00    -0.248 NA
ATOM     39  C   UNL A   1      41.761  25.527  28.116  1.00  0.00     0.031 C 
ATOM     40  C   UNL A   1      46.477  24.426  26.799  1.00  0.00     0.029 A 
ATOM     41  N   UNL A   1      46.056  26.524  27.448  1.00  0.00    -0.354 N 
ATOM     42  C   UNL A   1      42.068  27.744  28.597  1.00  0.00     0.074 A 
ATOM     43  C   UNL A   1      41.144  26.633  28.499  1.00  0.00     0.031 C 
ATOM     44  C   UNL A   1      47.637  25.105  26.762  1.00  0.00     0.029 A 
ATOM     45  C   UNL A   1      47.394  26.500  27.128  1.00  0.00     0.049 A 
ATOM     46  H   UNL A   1      45.600  27.325  27.797  1.00  0.00     0.167 HD
ATOM     47  C   UNL A   1      41.733  28.982  29.036  1.00  0.00     0.034 A 
ATOM     48  C   UNL A   1      48.308  27.495  27.102  1.00  0.00     0.034 A 
ATOM     49  C   UNL A   1      42.659  30.084  29.118  1.00  0.00     0.049 A 
ATOM     50  C   UNL A   1      47.886  28.894  27.497  1.00  0.00     0.074 A 
ATOM     51  C   UNL A   1      42.425  31.375  29.558  1.00  0.00     0.029 A 
ATOM     52  N   UNL A   1      43.995  30.034  28.737  1.00  0.00    -0.354 N 
ATOM     53  N   UNL A   1      46.712  29.325  27.898  1.00  0.00    -0.248 NA
ATOM     54  C   UNL A   1      48.919  29.940  27.439  1.00  0.00     0.031 C 
ATOM     55  C   UNL A   1      43.588  32.125  29.364  1.00  0.00     0.029 A 
ATOM     56  C   UNL A   1      44.582  31.281  28.895  1.00  0.00     0.049 A 
ATOM     57  H   UNL A   1      44.456  29.231  28.404  1.00  0.00     0.167 HD
ATOM     58  C   UNL A   1      46.879  30.681  28.177  1.00  0.00     0.074 A 
ATOM     59  C   UNL A   1      48.267  30.992  27.911  1.00  0.00     0.031 C 
ATOM     60  C   UNL A   1      45.968  31.586  28.621  1.00  0.00     0.034 A 
BRANCH  47  61
ATOM     61  C   UNL A   1      40.287  29.220  29.405  1.00  0.00     0.023 A 
ATOM     62  C   UNL A   1      39.853  29.229  30.741  1.00  0.00     0.031 A 
ATOM     63  C   UNL A   1      39.323  29.417  28.399  1.00  0.00     0.131 A 
ATOM     64  C   UNL A   1      38.486  29.358  31.033  1.00  0.00     0.055 A 
ATOM     65  C   UNL A   1      37.977  29.632  28.700  1.00  0.00     0.041 A 
ATOM     66  F   UNL A   1      39.672  29.392  27.104  1.00  0.00    -0.206 F 
ATOM     67  C   UNL A   1      37.549  29.588  30.024  1.00  0.00     0.022 A 
BRANCH  64  68
ATOM     68  S   UNL A   1      37.931  29.068  32.736  1.00  0.00     0.124 S 
ATOM     69  O   UNL A   1      37.787  27.614  32.754  1.00  0.00    -0.237 OA
ATOM     70  O   UNL A   1      39.033  29.610  33.522  1.00  0.00    -0.237 OA
ATOM     71  O   UNL A   1      36.677  29.813  32.819  1.00  0.00    -0.744 OA
ENDBRANCH  64  68
ENDBRANCH  47  61
BRANCH  48  72
ATOM     72  C   UNL A   1      49.706  27.233  26.644  1.00  0.00     0.023 A 
ATOM     73  C   UNL A   1      50.101  27.500  25.323  1.00  0.00     0.031 A 
ATOM     74  C   UNL A   1      50.649  26.640  27.502  1.00  0.00     0.131 A 
ATOM     75  C   UNL A   1      51.383  27.128  24.885  1.00  0.00     0.055 A 
ATOM     76  C   UNL A   1      51.942  26.328  27.080  1.00  0.00     0.041 A 
ATOM     77  F   UNL A   1      50.323  26.352  28.773  1.00  0.00    -0.206 F 
ATOM     78  C   UNL A   1      52.311  26.560  25.759  1.00  0.00     0.022 A 
BRANCH  75  79
ATOM     79  S   UNL A   1      51.785  27.301  23.124  1.00  0.00     0.124 S 
ATOM     80  O   UNL A   1      50.518  26.951  22.495  1.00  0.00    -0.237 OA
ATOM     81  O   UNL A   1      52.179  28.704  23.040  1.00  0.00    -0.237 OA
ATOM     82  O   UNL A   1      52.868  26.340  22.926  1.00  0.00    -0.744 OA
ENDBRANCH  75  79
ENDBRANCH  48  72
BRANCH  60  83
ATOM     83  C   UNL A   1      46.460  32.988  28.905  1.00  0.00     0.023 A 
ATOM     84  C   UNL A   1      46.503  33.982  27.911  1.00  0.00     0.031 A 
ATOM     85  C   UNL A   1      46.901  33.333  30.197  1.00  0.00     0.131 A 
ATOM     86  C   UNL A   1      47.033  35.248  28.207  1.00  0.00     0.055 A 
ATOM     87  C   UNL A   1      47.359  34.615  30.503  1.00  0.00     0.041 A 
ATOM     88  F   UNL A   1      46.888  32.427  31.187  1.00  0.00    -0.206 F 
ATOM     89  C   UNL A   1      47.441  35.576  29.502  1.00  0.00     0.022 A 
BRANCH  86  90
ATOM     90  S   UNL A   1      47.284  36.427  26.852  1.00  0.00     0.124 S 
ATOM     91  O   UNL A   1      48.202  37.389  27.453  1.00  0.00    -0.237 OA
ATOM     92  O   UNL A   1      47.842  35.583  25.801  1.00  0.00    -0.237 OA
ATOM     93  O   UNL A   1      45.939  36.937  26.587  1.00  0.00    -0.744 OA
ENDBRANCH  86  90
ENDBRANCH  60  83
ENDBRANCH  34  35
ENDBRANCH  27  29
ENDBRANCH  26  27
ENDBRANCH  25  26
ENDBRANCH  24  25
ENDBRANCH  23  24
ENDBRANCH   1  23
TORSDOF 22
ENDMDL
MODEL 3
REMARK VINA RESULT:      -9.8      2.481      8.015
REMARK SMILES CSc1cccc(N2C[C@@H](C(=O)OCCOCCOCCOC(=O)c3ccc(-c4c5nc(c(-c6cc(S(=O)(=O)[O-])ccc6F)c6ccc([nH]6)c(-c6cc(S(=O)(=O)[O-])ccc6F)c6nc(c(-c7cc(S(=O)(=O)[O-])ccc7F)c7ccc4[nH]7)C=C6)C=C5)cc3)CC2=O)c1
REMARK SMILES IDX 18 1 17 2 16 3 15 4 14 5 13 6 11 7 12 8 10 9 8 10 9 11 89 12
REMARK SMILES IDX 88 13 90 14 7 15 3 16 4 17 91 18 5 19 6 20 2 21 1 22 19 23
REMARK SMILES IDX 20 24 21 25 22 26 23 27 24 28 25 29 26 30 87 31 27 32 86 33
REMARK SMILES IDX 28 34 29 35 30 36 80 37 31 38 85 39 79 40 81 41 32 42 84 43
REMARK SMILES IDX 78 44 77 45 33 47 65 48 45 49 64 50 46 51 49 52 63 53 82 54
REMARK SMILES IDX 47 55 48 56 62 58 83 59 50 60 34 61 35 62 43 63 36 64 42 65
REMARK SMILES IDX 44 66 41 67 37 68 38 69 39 70 40 71 66 72 67 73 75 74 68 75
REMARK SMILES IDX 74 76 76 77 73 78 69 79 70 80 71 81 72 82 51 83 52 84 60 85
REMARK SMILES IDX 53 86 59 87 61 88 58 89 54 90 55 91 56 92 57 93
REMARK H PARENT 81 46 49 57
REMARK Flexibility Score: inf
ROOT
ATOM      1  C   UNL A   1      37.281  23.022  25.394  1.00  0.00     0.188 C 
ENDROOT
BRANCH   1   2
ATOM      2  C   UNL A   1      35.859  22.842  25.945  1.00  0.00     0.188 C 
BRANCH   2   3
ATOM      3  O   UNL A   1      35.368  21.527  26.183  1.00  0.00    -0.376 OA
BRANCH   3   4
ATOM      4  C   UNL A   1      34.038  21.352  26.662  1.00  0.00     0.202 C 
BRANCH   4   5
ATOM      5  C   UNL A   1      32.997  20.703  25.735  1.00  0.00     0.261 C 
BRANCH   5   6
ATOM      6  O   UNL A   1      32.222  21.637  24.956  1.00  0.00    -0.463 OA
BRANCH   6   7
ATOM      7  C   UNL A   1      32.535  21.745  23.643  1.00  0.00     0.311 C 
ATOM      8  O   UNL A   1      32.142  20.973  22.775  1.00  0.00    -0.252 OA
BRANCH   7   9
ATOM      9  C   UNL A   1      33.368  22.966  23.302  1.00  0.00     0.128 C 
ATOM     10  N   UNL A   1      33.127  25.296  23.511  1.00  0.00    -0.311 N 
ATOM     11  C   UNL A   1      32.938  24.072  24.243  1.00  0.00     0.141 C 
ATOM     12  C   UNL A   1      33.248  25.077  22.147  1.00  0.00     0.227 C 
ATOM     13  C   UNL A   1      33.259  23.598  21.916  1.00  0.00     0.117 C 
ATOM     14  O   UNL A   1      33.361  25.892  21.243  1.00  0.00    -0.274 OA
BRANCH  10  15
ATOM     15  C   UNL A   1      32.980  26.557  24.120  1.00  0.00     0.045 A 
ATOM     16  C   UNL A   1      31.725  28.631  24.392  1.00  0.00     0.009 A 
ATOM     17  C   UNL A   1      32.636  29.033  25.371  1.00  0.00     0.015 A 
ATOM     18  C   UNL A   1      31.926  27.401  23.757  1.00  0.00     0.041 A 
ATOM     19  C   UNL A   1      33.709  28.211  25.725  1.00  0.00     0.003 A 
ATOM     20  C   UNL A   1      33.869  26.970  25.116  1.00  0.00     0.026 A 
BRANCH  16  21
ATOM     21  S   UNL A   1      30.293  29.566  23.867  1.00  0.00    -0.130 SA
ATOM     22  C   UNL A   1      29.703  28.631  22.440  1.00  0.00     0.091 C 
ENDBRANCH  16  21
ENDBRANCH  10  15
ENDBRANCH   7   9
ENDBRANCH   6   7
ENDBRANCH   5   6
ENDBRANCH   4   5
ENDBRANCH   3   4
ENDBRANCH   2   3
ENDBRANCH   1   2
BRANCH   1  23
ATOM     23  O   UNL A   1      37.990  21.826  25.164  1.00  0.00    -0.376 OA
BRANCH  23  24
ATOM     24  C   UNL A   1      39.065  21.532  26.035  1.00  0.00     0.202 C 
BRANCH  24  25
ATOM     25  C   UNL A   1      39.668  20.118  25.994  1.00  0.00     0.261 C 
BRANCH  25  26
ATOM     26  O   UNL A   1      40.862  19.894  26.765  1.00  0.00    -0.460 OA
BRANCH  26  27
ATOM     27  C   UNL A   1      42.040  19.890  26.096  1.00  0.00     0.338 C 
ATOM     28  O   UNL A   1      42.374  19.093  25.230  1.00  0.00    -0.246 OA
BRANCH  27  29
ATOM     29  C   UNL A   1      42.752  21.154  26.406  1.00  0.00     0.060 A 
ATOM     30  C   UNL A   1      42.883  21.558  27.744  1.00  0.00     0.016 A 
ATOM     31  C   UNL A   1      43.301  21.932  25.385  1.00  0.00     0.016 A 
ATOM     32  C   UNL A   1      43.538  22.754  28.060  1.00  0.00     0.010 A 
ATOM     33  C   UNL A   1      43.933  23.142  25.701  1.00  0.00     0.010 A 
ATOM     34  C   UNL A   1      44.030  23.576  27.037  1.00  0.00    -0.014 A 
BRANCH  34  35
ATOM     35  C   UNL A   1      44.462  24.968  27.337  1.00  0.00     0.031 A 
ATOM     36  C   UNL A   1      43.424  25.949  27.817  1.00  0.00     0.074 A 
ATOM     37  C   UNL A   1      45.742  25.362  27.201  1.00  0.00     0.049 A 
ATOM     38  N   UNL A   1      43.531  27.230  28.056  1.00  0.00    -0.248 NA
ATOM     39  C   UNL A   1      42.077  25.403  28.049  1.00  0.00     0.031 C 
ATOM     40  C   UNL A   1      46.854  24.503  26.800  1.00  0.00     0.029 A 
ATOM     41  N   UNL A   1      46.320  26.597  27.376  1.00  0.00    -0.354 N 
ATOM     42  C   UNL A   1      42.266  27.648  28.458  1.00  0.00     0.074 A 
ATOM     43  C   UNL A   1      41.401  26.489  28.390  1.00  0.00     0.031 C 
ATOM     44  C   UNL A   1      47.978  25.240  26.749  1.00  0.00     0.029 A 
ATOM     45  C   UNL A   1      47.661  26.632  27.066  1.00  0.00     0.049 A 
ATOM     46  H   UNL A   1      45.821  27.385  27.695  1.00  0.00     0.167 HD
ATOM     47  C   UNL A   1      41.864  28.881  28.852  1.00  0.00     0.034 A 
ATOM     48  C   UNL A   1      48.523  27.671  27.013  1.00  0.00     0.034 A 
ATOM     49  C   UNL A   1      42.732  30.032  28.903  1.00  0.00     0.049 A 
ATOM     50  C   UNL A   1      48.027  29.059  27.358  1.00  0.00     0.074 A 
ATOM     51  C   UNL A   1      42.428  31.322  29.299  1.00  0.00     0.029 A 
ATOM     52  N   UNL A   1      44.071  30.038  28.533  1.00  0.00    -0.354 N 
ATOM     53  N   UNL A   1      46.828  29.442  27.737  1.00  0.00    -0.248 NA
ATOM     54  C   UNL A   1      49.004  30.154  27.272  1.00  0.00     0.031 C 
ATOM     55  C   UNL A   1      43.553  32.125  29.087  1.00  0.00     0.029 A 
ATOM     56  C   UNL A   1      44.593  31.317  28.653  1.00  0.00     0.049 A 
ATOM     57  H   UNL A   1      44.576  29.249  28.230  1.00  0.00     0.167 HD
ATOM     58  C   UNL A   1      46.923  30.814  27.971  1.00  0.00     0.074 A 
ATOM     59  C   UNL A   1      48.295  31.186  27.704  1.00  0.00     0.031 C 
ATOM     60  C   UNL A   1      45.964  31.685  28.378  1.00  0.00     0.034 A 
BRANCH  47  61
ATOM     61  C   UNL A   1      40.404  29.057  29.203  1.00  0.00     0.023 A 
ATOM     62  C   UNL A   1      39.955  29.055  30.535  1.00  0.00     0.031 A 
ATOM     63  C   UNL A   1      39.444  29.203  28.186  1.00  0.00     0.131 A 
ATOM     64  C   UNL A   1      38.580  29.125  30.811  1.00  0.00     0.055 A 
ATOM     65  C   UNL A   1      38.086  29.359  28.470  1.00  0.00     0.041 A 
ATOM     66  F   UNL A   1      39.809  29.184  26.894  1.00  0.00    -0.206 F 
ATOM     67  C   UNL A   1      37.646  29.305  29.789  1.00  0.00     0.022 A 
BRANCH  64  68
ATOM     68  S   UNL A   1      38.021  28.822  32.509  1.00  0.00     0.124 S 
ATOM     69  O   UNL A   1      38.982  29.608  33.280  1.00  0.00    -0.237 OA
ATOM     70  O   UNL A   1      36.654  29.328  32.485  1.00  0.00    -0.237 OA
ATOM     71  O   UNL A   1      38.149  27.373  32.658  1.00  0.00    -0.744 OA
ENDBRANCH  64  68
ENDBRANCH  47  61
BRANCH  48  72
ATOM     72  C   UNL A   1      49.935  27.466  26.573  1.00  0.00     0.023 A 
ATOM     73  C   UNL A   1      50.311  27.632  25.230  1.00  0.00     0.031 A 
ATOM     74  C   UNL A   1      50.918  27.027  27.479  1.00  0.00     0.131 A 
ATOM     75  C   UNL A   1      51.617  27.312  24.822  1.00  0.00     0.055 A 
ATOM     76  C   UNL A   1      52.231  26.770  27.080  1.00  0.00     0.041 A 
ATOM     77  F   UNL A   1      50.613  26.840  28.773  1.00  0.00    -0.206 F 
ATOM     78  C   UNL A   1      52.583  26.898  25.741  1.00  0.00     0.022 A 
BRANCH  75  79
ATOM     79  S   UNL A   1      52.007  27.343  23.050  1.00  0.00     0.124 S 
ATOM     80  O   UNL A   1      50.724  26.983  22.458  1.00  0.00    -0.237 OA
ATOM     81  O   UNL A   1      52.437  28.725  22.859  1.00  0.00    -0.237 OA
ATOM     82  O   UNL A   1      53.061  26.341  22.916  1.00  0.00    -0.744 OA
ENDBRANCH  75  79
ENDBRANCH  48  72
BRANCH  60  83
ATOM     83  C   UNL A   1      46.380  33.119  28.618  1.00  0.00     0.023 A 
ATOM     84  C   UNL A   1      46.838  33.566  29.871  1.00  0.00     0.031 A 
ATOM     85  C   UNL A   1      46.309  34.058  27.572  1.00  0.00     0.131 A 
ATOM     86  C   UNL A   1      47.147  34.922  30.062  1.00  0.00     0.055 A 
ATOM     87  C   UNL A   1      46.687  35.390  27.749  1.00  0.00     0.041 A 
ATOM     88  F   UNL A   1      45.876  33.694  26.355  1.00  0.00    -0.206 F 
ATOM     89  C   UNL A   1      47.094  35.832  29.004  1.00  0.00     0.022 A 
BRANCH  86  90
ATOM     90  S   UNL A   1      47.514  35.505  31.739  1.00  0.00     0.124 S 
ATOM     91  O   UNL A   1      46.878  34.481  32.562  1.00  0.00    -0.237 OA
ATOM     92  O   UNL A   1      48.974  35.519  31.754  1.00  0.00    -0.237 OA
ATOM     93  O   UNL A   1      46.882  36.822  31.791  1.00  0.00    -0.744 OA
ENDBRANCH  86  90
ENDBRANCH  60  83
ENDBRANCH  34  35
ENDBRANCH  27  29
ENDBRANCH  26  27
ENDBRANCH  25  26
ENDBRANCH  24  25
ENDBRANCH  23  24
ENDBRANCH   1  23
TORSDOF 22
ENDMDL
