MODEL 1
REMARK VINA RESULT:     -11.0      0.000      0.000
REMARK SMILES NC(=O)C[C@H](C(=O)OCCOCCOCCOC(=O)c1ccc(-c2c3nc(c(-c4cc(S(=O)(=O)[O-])ccc4F)c4ccc([nH]4)c(-c4cc(S(=O)(=O)[O-])ccc4F)c4nc(c(-c5cc(S(=O)(=O)[O-])ccc5F)c5ccc2[nH]5)C=C4)C=C3)cc1)N1C(=O)/C(=C/c2ccccc2)SC1=S
REMARK SMILES IDX 13 1 12 2 11 3 10 4 9 5 8 6 6 7 7 8 5 9 4 10 2 11 1 12 3 15
REMARK SMILES IDX 83 16 84 17 95 18 85 19 86 20 94 21 96 22 87 23 88 24 89 25
REMARK SMILES IDX 93 26 90 27 92 28 91 29 14 30 15 31 16 32 17 33 18 34 19 35
REMARK SMILES IDX 20 36 21 37 82 38 22 39 81 40 23 41 24 42 25 43 75 44 26 45
REMARK SMILES IDX 80 46 74 47 76 48 27 49 79 50 73 51 72 52 28 54 60 55 40 56
REMARK SMILES IDX 59 57 41 58 44 59 58 60 77 61 42 62 43 63 57 65 78 66 45 67
REMARK SMILES IDX 29 68 30 69 38 70 31 71 37 72 39 73 36 74 32 75 33 76 34 77
REMARK SMILES IDX 35 78 61 79 62 80 70 81 63 82 69 83 71 84 68 85 64 86 65 87
REMARK SMILES IDX 66 88 67 89 46 90 47 91 55 92 48 93 54 94 56 95 53 96 49 97
REMARK SMILES IDX 50 98 51 99 52 100
REMARK H PARENT 1 13 1 14 76 53 44 64
REMARK Flexibility Score: inf
ROOT
ATOM      1  C   UNL A   1      33.587  18.736  24.723  1.00  0.00     0.188 C 
ENDROOT
BRANCH   1   2
ATOM      2  C   UNL A   1      32.531  19.817  24.471  1.00  0.00     0.188 C 
BRANCH   2   3
ATOM      3  O   UNL A   1      32.099  20.008  23.133  1.00  0.00    -0.376 OA
BRANCH   3   4
ATOM      4  C   UNL A   1      32.157  21.317  22.573  1.00  0.00     0.202 C 
BRANCH   4   5
ATOM      5  C   UNL A   1      32.104  22.536  23.505  1.00  0.00     0.261 C 
BRANCH   5   6
ATOM      6  O   UNL A   1      32.180  23.812  22.823  1.00  0.00    -0.462 OA
BRANCH   6   7
ATOM      7  C   UNL A   1      32.690  24.853  23.535  1.00  0.00     0.329 C 
ATOM      8  O   UNL A   1      33.849  25.243  23.442  1.00  0.00    -0.250 OA
BRANCH   7   9
ATOM      9  C   UNL A   1      31.719  25.439  24.572  1.00  0.00     0.211 C 
BRANCH   9  10
ATOM     10  C   UNL A   1      31.918  25.300  26.083  1.00  0.00     0.137 C 
BRANCH  10  11
ATOM     11  C   UNL A   1      30.990  24.324  26.734  1.00  0.00     0.220 C 
ATOM     12  N   UNL A   1      29.679  24.475  26.414  1.00  0.00    -0.370 N 
ATOM     13  H   UNL A   1      29.005  23.871  26.803  1.00  0.00     0.159 HD
ATOM     14  H   UNL A   1      29.403  25.187  25.794  1.00  0.00     0.159 HD
ATOM     15  O   UNL A   1      31.375  23.449  27.502  1.00  0.00    -0.275 OA
ENDBRANCH  10  11
ENDBRANCH   9  10
BRANCH   9  16
ATOM     16  N   UNL A   1      31.232  26.763  24.157  1.00  0.00    -0.278 N 
ATOM     17  C   UNL A   1      29.924  26.833  23.699  1.00  0.00     0.267 C 
ATOM     18  C   UNL A   1      31.880  27.969  24.348  1.00  0.00     0.149 C 
ATOM     19  O   UNL A   1      29.144  25.896  23.595  1.00  0.00    -0.268 OA
ATOM     20  C   UNL A   1      29.563  28.233  23.399  1.00  0.00     0.081 C 
ATOM     21  S   UNL A   1      30.893  29.272  23.731  1.00  0.00    -0.054 SA
ATOM     22  S   UNL A   1      33.372  28.316  25.008  1.00  0.00    -0.052 S 
ATOM     23  C   UNL A   1      28.362  28.604  22.936  1.00  0.00     0.029 C 
BRANCH  23  24
ATOM     24  C   UNL A   1      28.126  30.001  22.571  1.00  0.00    -0.024 A 
ATOM     25  C   UNL A   1      28.112  30.999  23.548  1.00  0.00     0.008 A 
ATOM     26  C   UNL A   1      28.154  30.347  21.213  1.00  0.00     0.008 A 
ATOM     27  C   UNL A   1      28.170  32.339  23.165  1.00  0.00     0.001 A 
ATOM     28  C   UNL A   1      28.228  31.684  20.837  1.00  0.00     0.001 A 
ATOM     29  C   UNL A   1      28.245  32.679  21.813  1.00  0.00     0.000 A 
ENDBRANCH  23  24
ENDBRANCH   9  16
ENDBRANCH   7   9
ENDBRANCH   6   7
ENDBRANCH   5   6
ENDBRANCH   4   5
ENDBRANCH   3   4
ENDBRANCH   2   3
ENDBRANCH   1   2
BRANCH   1  30
ATOM     30  O   UNL A   1      34.929  19.180  24.734  1.00  0.00    -0.376 OA
BRANCH  30  31
ATOM     31  C   UNL A   1      35.166  20.545  25.070  1.00  0.00     0.202 C 
BRANCH  31  32
ATOM     32  C   UNL A   1      36.428  21.294  24.588  1.00  0.00     0.261 C 
BRANCH  32  33
ATOM     33  O   UNL A   1      37.192  22.013  25.571  1.00  0.00    -0.460 OA
BRANCH  33  34
ATOM     34  C   UNL A   1      38.396  21.513  25.942  1.00  0.00     0.338 C 
ATOM     35  O   UNL A   1      38.830  20.404  25.682  1.00  0.00    -0.246 OA
BRANCH  34  36
ATOM     36  C   UNL A   1      39.194  22.668  26.438  1.00  0.00     0.060 A 
ATOM     37  C   UNL A   1      40.324  22.426  27.237  1.00  0.00     0.016 A 
ATOM     38  C   UNL A   1      38.903  23.966  26.016  1.00  0.00     0.016 A 
ATOM     39  C   UNL A   1      41.174  23.476  27.594  1.00  0.00     0.010 A 
ATOM     40  C   UNL A   1      39.734  25.021  26.406  1.00  0.00     0.010 A 
ATOM     41  C   UNL A   1      40.871  24.785  27.202  1.00  0.00    -0.014 A 
BRANCH  41  42
ATOM     42  C   UNL A   1      41.627  25.937  27.754  1.00  0.00     0.031 A 
ATOM     43  C   UNL A   1      40.876  26.949  28.572  1.00  0.00     0.074 A 
ATOM     44  C   UNL A   1      42.938  26.108  27.511  1.00  0.00     0.049 A 
ATOM     45  N   UNL A   1      41.266  28.109  29.031  1.00  0.00    -0.248 NA
ATOM     46  C   UNL A   1      39.487  26.600  28.903  1.00  0.00     0.031 C 
ATOM     47  C   UNL A   1      43.790  25.174  26.778  1.00  0.00     0.029 A 
ATOM     48  N   UNL A   1      43.777  27.147  27.836  1.00  0.00    -0.354 N 
ATOM     49  C   UNL A   1      40.167  28.637  29.699  1.00  0.00     0.074 A 
ATOM     50  C   UNL A   1      39.087  27.684  29.548  1.00  0.00     0.031 C 
ATOM     51  C   UNL A   1      45.024  25.700  26.678  1.00  0.00     0.029 A 
ATOM     52  C   UNL A   1      45.036  27.028  27.293  1.00  0.00     0.049 A 
ATOM     53  H   UNL A   1      43.504  27.904  28.403  1.00  0.00     0.167 HD
ATOM     54  C   UNL A   1      40.070  29.808  30.377  1.00  0.00     0.034 A 
ATOM     55  C   UNL A   1      46.059  27.908  27.249  1.00  0.00     0.034 A 
ATOM     56  C   UNL A   1      41.148  30.759  30.489  1.00  0.00     0.049 A 
ATOM     57  C   UNL A   1      45.898  29.261  27.905  1.00  0.00     0.074 A 
ATOM     58  C   UNL A   1      41.167  31.967  31.164  1.00  0.00     0.029 A 
ATOM     59  N   UNL A   1      42.395  30.623  29.887  1.00  0.00    -0.354 N 
ATOM     60  N   UNL A   1      44.860  29.750  28.546  1.00  0.00    -0.248 NA
ATOM     61  C   UNL A   1      47.042  30.178  27.829  1.00  0.00     0.031 C 
ATOM     62  C   UNL A   1      42.384  32.601  30.895  1.00  0.00     0.029 A 
ATOM     63  C   UNL A   1      43.168  31.749  30.132  1.00  0.00     0.049 A 
ATOM     64  H   UNL A   1      42.686  29.843  29.364  1.00  0.00     0.167 HD
ATOM     65  C   UNL A   1      45.237  31.026  28.964  1.00  0.00     0.074 A 
ATOM     66  C   UNL A   1      46.600  31.222  28.517  1.00  0.00     0.031 C 
ATOM     67  C   UNL A   1      44.520  31.948  29.659  1.00  0.00     0.034 A 
BRANCH  54  68
ATOM     68  C   UNL A   1      38.725  30.140  30.981  1.00  0.00     0.023 A 
ATOM     69  C   UNL A   1      37.783  30.931  30.299  1.00  0.00     0.031 A 
ATOM     70  C   UNL A   1      38.407  29.719  32.284  1.00  0.00     0.131 A 
ATOM     71  C   UNL A   1      36.621  31.358  30.958  1.00  0.00     0.055 A 
ATOM     72  C   UNL A   1      37.203  30.067  32.898  1.00  0.00     0.041 A 
ATOM     73  F   UNL A   1      39.276  28.984  32.997  1.00  0.00    -0.206 F 
ATOM     74  C   UNL A   1      36.311  30.910  32.244  1.00  0.00     0.022 A 
BRANCH  71  75
ATOM     75  S   UNL A   1      35.625  32.665  30.186  1.00  0.00     0.124 S 
ATOM     76  O   UNL A   1      36.370  33.865  30.562  1.00  0.00    -0.237 OA
ATOM     77  O   UNL A   1      35.669  32.301  28.775  1.00  0.00    -0.237 OA
ATOM     78  O   UNL A   1      34.320  32.525  30.830  1.00  0.00    -0.744 OA
ENDBRANCH  71  75
ENDBRANCH  54  68
BRANCH  55  79
ATOM     79  C   UNL A   1      47.299  27.574  26.487  1.00  0.00     0.023 A 
ATOM     80  C   UNL A   1      47.385  27.760  25.099  1.00  0.00     0.031 A 
ATOM     81  C   UNL A   1      48.417  27.030  27.149  1.00  0.00     0.131 A 
ATOM     82  C   UNL A   1      48.551  27.380  24.413  1.00  0.00     0.055 A 
ATOM     83  C   UNL A   1      49.592  26.704  26.471  1.00  0.00     0.041 A 
ATOM     84  F   UNL A   1      48.385  26.820  28.475  1.00  0.00    -0.206 F 
ATOM     85  C   UNL A   1      49.661  26.872  25.093  1.00  0.00     0.022 A 
BRANCH  82  86
ATOM     86  S   UNL A   1      48.578  27.498  22.603  1.00  0.00     0.124 S 
ATOM     87  O   UNL A   1      47.345  28.231  22.335  1.00  0.00    -0.237 OA
ATOM     88  O   UNL A   1      49.820  28.223  22.363  1.00  0.00    -0.237 OA
ATOM     89  O   UNL A   1      48.580  26.102  22.171  1.00  0.00    -0.744 OA
ENDBRANCH  82  86
ENDBRANCH  55  79
BRANCH  67  90
ATOM     90  C   UNL A   1      45.210  33.248  30.006  1.00  0.00     0.023 A 
ATOM     91  C   UNL A   1      45.941  33.408  31.196  1.00  0.00     0.031 A 
ATOM     92  C   UNL A   1      45.145  34.342  29.122  1.00  0.00     0.131 A 
ATOM     93  C   UNL A   1      46.541  34.642  31.490  1.00  0.00     0.055 A 
ATOM     94  C   UNL A   1      45.797  35.546  29.389  1.00  0.00     0.041 A 
ATOM     95  F   UNL A   1      44.457  34.251  27.971  1.00  0.00    -0.206 F 
ATOM     96  C   UNL A   1      46.493  35.706  30.584  1.00  0.00     0.022 A 
BRANCH  93  97
ATOM     97  S   UNL A   1      47.321  34.873  33.112  1.00  0.00     0.124 S 
ATOM     98  O   UNL A   1      48.627  34.255  32.909  1.00  0.00    -0.237 OA
ATOM     99  O   UNL A   1      47.319  36.325  33.256  1.00  0.00    -0.237 OA
ATOM    100  O   UNL A   1      46.432  34.158  34.026  1.00  0.00    -0.744 OA
ENDBRANCH  93  97
ENDBRANCH  67  90
ENDBRANCH  41  42
ENDBRANCH  34  36
ENDBRANCH  33  34
ENDBRANCH  32  33
ENDBRANCH  31  32
ENDBRANCH  30  31
ENDBRANCH   1  30
TORSDOF 24
ENDMDL
MODEL 2
REMARK VINA RESULT:     -10.9      1.240      7.337
REMARK SMILES NC(=O)C[C@H](C(=O)OCCOCCOCCOC(=O)c1ccc(-c2c3nc(c(-c4cc(S(=O)(=O)[O-])ccc4F)c4ccc([nH]4)c(-c4cc(S(=O)(=O)[O-])ccc4F)c4nc(c(-c5cc(S(=O)(=O)[O-])ccc5F)c5ccc2[nH]5)C=C4)C=C3)cc1)N1C(=O)/C(=C/c2ccccc2)SC1=S
REMARK SMILES IDX 13 1 12 2 11 3 10 4 9 5 8 6 6 7 7 8 5 9 4 10 2 11 1 12 3 15
REMARK SMILES IDX 83 16 84 17 95 18 85 19 86 20 94 21 96 22 87 23 88 24 89 25
REMARK SMILES IDX 93 26 90 27 92 28 91 29 14 30 15 31 16 32 17 33 18 34 19 35
REMARK SMILES IDX 20 36 21 37 82 38 22 39 81 40 23 41 24 42 25 43 75 44 26 45
REMARK SMILES IDX 80 46 74 47 76 48 27 49 79 50 73 51 72 52 28 54 60 55 40 56
REMARK SMILES IDX 59 57 41 58 44 59 58 60 77 61 42 62 43 63 57 65 78 66 45 67
REMARK SMILES IDX 29 68 30 69 38 70 31 71 37 72 39 73 36 74 32 75 33 76 34 77
REMARK SMILES IDX 35 78 61 79 62 80 70 81 63 82 69 83 71 84 68 85 64 86 65 87
REMARK SMILES IDX 66 88 67 89 46 90 47 91 55 92 48 93 54 94 56 95 53 96 49 97
REMARK SMILES IDX 50 98 51 99 52 100
REMARK H PARENT 1 13 1 14 76 53 44 64
REMARK Flexibility Score: inf
ROOT
ATOM      1  C   UNL A   1      33.481  18.881  24.541  1.00  0.00     0.188 C 
ENDROOT
BRANCH   1   2
ATOM      2  C   UNL A   1      32.603  20.135  24.486  1.00  0.00     0.188 C 
BRANCH   2   3
ATOM      3  O   UNL A   1      32.157  20.564  23.209  1.00  0.00    -0.376 OA
BRANCH   3   4
ATOM      4  C   UNL A   1      32.620  21.812  22.702  1.00  0.00     0.202 C 
BRANCH   4   5
ATOM      5  C   UNL A   1      31.825  23.090  23.009  1.00  0.00     0.261 C 
BRANCH   5   6
ATOM      6  O   UNL A   1      32.510  24.317  22.659  1.00  0.00    -0.462 OA
BRANCH   6   7
ATOM      7  C   UNL A   1      32.951  25.084  23.693  1.00  0.00     0.329 C 
ATOM      8  O   UNL A   1      34.134  25.298  23.930  1.00  0.00    -0.250 OA
BRANCH   7   9
ATOM      9  C   UNL A   1      31.835  25.574  24.630  1.00  0.00     0.211 C 
BRANCH   9  10
ATOM     10  C   UNL A   1      31.885  25.415  26.151  1.00  0.00     0.137 C 
BRANCH  10  11
ATOM     11  C   UNL A   1      31.130  24.231  26.667  1.00  0.00     0.220 C 
ATOM     12  N   UNL A   1      29.952  23.983  26.040  1.00  0.00    -0.370 N 
ATOM     13  H   UNL A   1      29.395  23.220  26.323  1.00  0.00     0.159 HD
ATOM     14  H   UNL A   1      29.654  24.563  25.303  1.00  0.00     0.159 HD
ATOM     15  O   UNL A   1      31.537  23.531  27.588  1.00  0.00    -0.275 OA
ENDBRANCH  10  11
ENDBRANCH   9  10
BRANCH   9  16
ATOM     16  N   UNL A   1      31.296  26.867  24.186  1.00  0.00    -0.278 N 
ATOM     17  C   UNL A   1      29.975  26.882  23.762  1.00  0.00     0.267 C 
ATOM     18  C   UNL A   1      31.911  28.099  24.320  1.00  0.00     0.149 C 
ATOM     19  O   UNL A   1      29.223  25.919  23.709  1.00  0.00    -0.268 OA
ATOM     20  C   UNL A   1      29.562  28.260  23.425  1.00  0.00     0.081 C 
ATOM     21  S   UNL A   1      30.867  29.349  23.687  1.00  0.00    -0.054 SA
ATOM     22  S   UNL A   1      33.407  28.513  24.928  1.00  0.00    -0.052 S 
ATOM     23  C   UNL A   1      28.339  28.578  22.983  1.00  0.00     0.029 C 
BRANCH  23  24
ATOM     24  C   UNL A   1      28.049  29.954  22.580  1.00  0.00    -0.024 A 
ATOM     25  C   UNL A   1      27.895  30.959  23.538  1.00  0.00     0.008 A 
ATOM     26  C   UNL A   1      28.167  30.288  21.224  1.00  0.00     0.008 A 
ATOM     27  C   UNL A   1      27.904  32.296  23.141  1.00  0.00     0.001 A 
ATOM     28  C   UNL A   1      28.190  31.623  20.835  1.00  0.00     0.001 A 
ATOM     29  C   UNL A   1      28.067  32.627  21.794  1.00  0.00     0.000 A 
ENDBRANCH  23  24
ENDBRANCH   9  16
ENDBRANCH   7   9
ENDBRANCH   6   7
ENDBRANCH   5   6
ENDBRANCH   4   5
ENDBRANCH   3   4
ENDBRANCH   2   3
ENDBRANCH   1   2
BRANCH   1  30
ATOM     30  O   UNL A   1      34.873  19.109  24.623  1.00  0.00    -0.376 OA
BRANCH  30  31
ATOM     31  C   UNL A   1      35.303  20.398  25.054  1.00  0.00     0.202 C 
BRANCH  31  32
ATOM     32  C   UNL A   1      36.757  20.879  24.855  1.00  0.00     0.261 C 
BRANCH  32  33
ATOM     33  O   UNL A   1      37.415  21.494  25.975  1.00  0.00    -0.460 OA
BRANCH  33  34
ATOM     34  C   UNL A   1      38.748  21.300  26.126  1.00  0.00     0.338 C 
ATOM     35  O   UNL A   1      39.376  20.307  25.798  1.00  0.00    -0.246 OA
BRANCH  34  36
ATOM     36  C   UNL A   1      39.330  22.629  26.460  1.00  0.00     0.060 A 
ATOM     37  C   UNL A   1      40.377  22.701  27.394  1.00  0.00     0.016 A 
ATOM     38  C   UNL A   1      38.930  23.773  25.769  1.00  0.00     0.016 A 
ATOM     39  C   UNL A   1      41.040  23.911  27.619  1.00  0.00     0.010 A 
ATOM     40  C   UNL A   1      39.570  24.991  26.023  1.00  0.00     0.010 A 
ATOM     41  C   UNL A   1      40.624  25.070  26.953  1.00  0.00    -0.014 A 
BRANCH  41  42
ATOM     42  C   UNL A   1      41.158  26.400  27.339  1.00  0.00     0.031 A 
ATOM     43  C   UNL A   1      42.600  26.698  27.041  1.00  0.00     0.074 A 
ATOM     44  C   UNL A   1      40.400  27.313  27.972  1.00  0.00     0.049 A 
ATOM     45  N   UNL A   1      43.339  27.710  27.410  1.00  0.00    -0.248 NA
ATOM     46  C   UNL A   1      43.302  25.699  26.221  1.00  0.00     0.031 C 
ATOM     47  C   UNL A   1      38.977  27.168  28.272  1.00  0.00     0.029 A 
ATOM     48  N   UNL A   1      40.734  28.537  28.500  1.00  0.00    -0.354 N 
ATOM     49  C   UNL A   1      44.599  27.470  26.876  1.00  0.00     0.074 A 
ATOM     50  C   UNL A   1      44.529  26.195  26.193  1.00  0.00     0.031 C 
ATOM     51  C   UNL A   1      38.567  28.247  28.964  1.00  0.00     0.029 A 
ATOM     52  C   UNL A   1      39.708  29.132  29.200  1.00  0.00     0.049 A 
ATOM     53  H   UNL A   1      41.620  28.949  28.389  1.00  0.00     0.167 HD
ATOM     54  C   UNL A   1      45.712  28.243  26.947  1.00  0.00     0.034 A 
ATOM     55  C   UNL A   1      39.703  30.231  29.984  1.00  0.00     0.034 A 
ATOM     56  C   UNL A   1      45.770  29.495  27.661  1.00  0.00     0.049 A 
ATOM     57  C   UNL A   1      40.982  31.020  30.156  1.00  0.00     0.074 A 
ATOM     58  C   UNL A   1      46.837  30.367  27.786  1.00  0.00     0.029 A 
ATOM     59  N   UNL A   1      44.724  30.043  28.395  1.00  0.00    -0.354 N 
ATOM     60  N   UNL A   1      42.169  30.795  29.638  1.00  0.00    -0.248 NA
ATOM     61  C   UNL A   1      40.920  32.208  31.018  1.00  0.00     0.031 C 
ATOM     62  C   UNL A   1      46.467  31.389  28.666  1.00  0.00     0.029 A 
ATOM     63  C   UNL A   1      45.137  31.212  29.017  1.00  0.00     0.049 A 
ATOM     64  H   UNL A   1      43.821  29.658  28.464  1.00  0.00     0.167 HD
ATOM     65  C   UNL A   1      42.988  31.825  30.099  1.00  0.00     0.074 A 
ATOM     66  C   UNL A   1      42.157  32.679  30.921  1.00  0.00     0.031 C 
ATOM     67  C   UNL A   1      44.307  32.045  29.858  1.00  0.00     0.034 A 
BRANCH  54  68
ATOM     68  C   UNL A   1      46.963  27.705  26.293  1.00  0.00     0.023 A 
ATOM     69  C   UNL A   1      47.315  28.051  24.975  1.00  0.00     0.031 A 
ATOM     70  C   UNL A   1      47.778  26.781  26.969  1.00  0.00     0.131 A 
ATOM     71  C   UNL A   1      48.386  27.402  24.345  1.00  0.00     0.055 A 
ATOM     72  C   UNL A   1      48.902  26.212  26.367  1.00  0.00     0.041 A 
ATOM     73  F   UNL A   1      47.480  26.391  28.218  1.00  0.00    -0.206 F 
ATOM     74  C   UNL A   1      49.200  26.504  25.040  1.00  0.00     0.022 A 
BRANCH  71  75
ATOM     75  S   UNL A   1      48.576  27.598  22.550  1.00  0.00     0.124 S 
ATOM     76  O   UNL A   1      47.312  28.237  22.188  1.00  0.00    -0.237 OA
ATOM     77  O   UNL A   1      49.767  28.432  22.450  1.00  0.00    -0.237 OA
ATOM     78  O   UNL A   1      48.729  26.226  22.071  1.00  0.00    -0.744 OA
ENDBRANCH  71  75
ENDBRANCH  54  68
BRANCH  55  79
ATOM     79  C   UNL A   1      38.469  30.607  30.735  1.00  0.00     0.023 A 
ATOM     80  C   UNL A   1      37.477  31.418  30.165  1.00  0.00     0.031 A 
ATOM     81  C   UNL A   1      38.284  30.175  32.063  1.00  0.00     0.131 A 
ATOM     82  C   UNL A   1      36.357  31.794  30.926  1.00  0.00     0.055 A 
ATOM     83  C   UNL A   1      37.145  30.507  32.797  1.00  0.00     0.041 A 
ATOM     84  F   UNL A   1      39.208  29.407  32.662  1.00  0.00    -0.206 F 
ATOM     85  C   UNL A   1      36.176  31.328  32.231  1.00  0.00     0.022 A 
BRANCH  82  86
ATOM     86  S   UNL A   1      35.165  32.960  30.211  1.00  0.00     0.124 S 
ATOM     87  O   UNL A   1      36.047  33.959  29.618  1.00  0.00    -0.237 OA
ATOM     88  O   UNL A   1      34.436  32.112  29.274  1.00  0.00    -0.237 OA
ATOM     89  O   UNL A   1      34.396  33.413  31.367  1.00  0.00    -0.744 OA
ENDBRANCH  82  86
ENDBRANCH  55  79
BRANCH  67  90
ATOM     90  C   UNL A   1      44.930  33.279  30.472  1.00  0.00     0.023 A 
ATOM     91  C   UNL A   1      44.922  34.521  29.815  1.00  0.00     0.031 A 
ATOM     92  C   UNL A   1      45.529  33.211  31.745  1.00  0.00     0.131 A 
ATOM     93  C   UNL A   1      45.537  35.634  30.410  1.00  0.00     0.055 A 
ATOM     94  C   UNL A   1      46.083  34.335  32.359  1.00  0.00     0.041 A 
ATOM     95  F   UNL A   1      45.572  32.051  32.419  1.00  0.00    -0.206 F 
ATOM     96  C   UNL A   1      46.099  35.554  31.688  1.00  0.00     0.022 A 
BRANCH  93  97
ATOM     97  S   UNL A   1      45.670  37.174  29.460  1.00  0.00     0.124 S 
ATOM     98  O   UNL A   1      44.530  37.069  28.555  1.00  0.00    -0.237 OA
ATOM     99  O   UNL A   1      45.566  38.193  30.500  1.00  0.00    -0.237 OA
ATOM    100  O   UNL A   1      46.981  37.072  28.822  1.00  0.00    -0.744 OA
ENDBRANCH  93  97
ENDBRANCH  67  90
ENDBRANCH  41  42
ENDBRANCH  34  36
ENDBRANCH  33  34
ENDBRANCH  32  33
ENDBRANCH  31  32
ENDBRANCH  30  31
ENDBRANCH   1  30
TORSDOF 24
ENDMDL
MODEL 3
REMARK VINA RESULT:     -10.4      1.412      7.341
REMARK SMILES NC(=O)C[C@H](C(=O)OCCOCCOCCOC(=O)c1ccc(-c2c3nc(c(-c4cc(S(=O)(=O)[O-])ccc4F)c4ccc([nH]4)c(-c4cc(S(=O)(=O)[O-])ccc4F)c4nc(c(-c5cc(S(=O)(=O)[O-])ccc5F)c5ccc2[nH]5)C=C4)C=C3)cc1)N1C(=O)/C(=C/c2ccccc2)SC1=S
REMARK SMILES IDX 13 1 12 2 11 3 10 4 9 5 8 6 6 7 7 8 5 9 4 10 2 11 1 12 3 15
REMARK SMILES IDX 83 16 84 17 95 18 85 19 86 20 94 21 96 22 87 23 88 24 89 25
REMARK SMILES IDX 93 26 90 27 92 28 91 29 14 30 15 31 16 32 17 33 18 34 19 35
REMARK SMILES IDX 20 36 21 37 82 38 22 39 81 40 23 41 24 42 25 43 75 44 26 45
REMARK SMILES IDX 80 46 74 47 76 48 27 49 79 50 73 51 72 52 28 54 60 55 40 56
REMARK SMILES IDX 59 57 41 58 44 59 58 60 77 61 42 62 43 63 57 65 78 66 45 67
REMARK SMILES IDX 29 68 30 69 38 70 31 71 37 72 39 73 36 74 32 75 33 76 34 77
REMARK SMILES IDX 35 78 61 79 62 80 70 81 63 82 69 83 71 84 68 85 64 86 65 87
REMARK SMILES IDX 66 88 67 89 46 90 47 91 55 92 48 93 54 94 56 95 53 96 49 97
REMARK SMILES IDX 50 98 51 99 52 100
REMARK H PARENT 1 13 1 14 76 53 44 64
REMARK Flexibility Score: inf
ROOT
ATOM      1  C   UNL A   1      36.426  20.599  25.095  1.00  0.00     0.188 C 
ENDROOT
BRANCH   1   2
ATOM      2  C   UNL A   1      35.219  21.434  24.656  1.00  0.00     0.188 C 
BRANCH   2   3
ATOM      3  O   UNL A   1      33.946  20.808  24.685  1.00  0.00    -0.376 OA
BRANCH   3   4
ATOM      4  C   UNL A   1      32.787  21.596  24.429  1.00  0.00     0.202 C 
BRANCH   4   5
ATOM      5  C   UNL A   1      32.659  22.332  23.088  1.00  0.00     0.261 C 
BRANCH   5   6
ATOM      6  O   UNL A   1      33.294  23.633  23.058  1.00  0.00    -0.462 OA
BRANCH   6   7
ATOM      7  C   UNL A   1      32.506  24.688  22.715  1.00  0.00     0.329 C 
ATOM      8  O   UNL A   1      32.346  25.077  21.564  1.00  0.00    -0.250 OA
BRANCH   7   9
ATOM      9  C   UNL A   1      31.913  25.443  23.915  1.00  0.00     0.211 C 
BRANCH   9  10
ATOM     10  C   UNL A   1      32.544  25.434  25.309  1.00  0.00     0.137 C 
BRANCH  10  11
ATOM     11  C   UNL A   1      31.554  25.364  26.428  1.00  0.00     0.220 C 
ATOM     12  N   UNL A   1      31.151  26.566  26.915  1.00  0.00    -0.370 N 
ATOM     13  H   UNL A   1      30.500  26.605  27.653  1.00  0.00     0.159 HD
ATOM     14  H   UNL A   1      31.508  27.398  26.529  1.00  0.00     0.159 HD
ATOM     15  O   UNL A   1      31.132  24.306  26.879  1.00  0.00    -0.275 OA
ENDBRANCH  10  11
ENDBRANCH   9  10
BRANCH   9  16
ATOM     16  N   UNL A   1      31.385  26.754  23.512  1.00  0.00    -0.278 N 
ATOM     17  C   UNL A   1      30.005  26.894  23.490  1.00  0.00     0.267 C 
ATOM     18  C   UNL A   1      32.121  27.911  23.328  1.00  0.00     0.149 C 
ATOM     19  O   UNL A   1      29.187  26.026  23.762  1.00  0.00    -0.268 OA
ATOM     20  C   UNL A   1      29.637  28.282  23.143  1.00  0.00     0.081 C 
ATOM     21  S   UNL A   1      31.055  29.225  22.896  1.00  0.00    -0.054 SA
ATOM     22  S   UNL A   1      33.763  28.189  23.427  1.00  0.00    -0.052 S 
ATOM     23  C   UNL A   1      28.372  28.709  23.045  1.00  0.00     0.029 C 
BRANCH  23  24
ATOM     24  C   UNL A   1      28.101  30.075  22.598  1.00  0.00    -0.024 A 
ATOM     25  C   UNL A   1      28.103  31.135  23.509  1.00  0.00     0.008 A 
ATOM     26  C   UNL A   1      28.079  30.332  21.221  1.00  0.00     0.008 A 
ATOM     27  C   UNL A   1      28.127  32.448  23.038  1.00  0.00     0.001 A 
ATOM     28  C   UNL A   1      28.118  31.643  20.756  1.00  0.00     0.001 A 
ATOM     29  C   UNL A   1      28.151  32.699  21.664  1.00  0.00     0.000 A 
ENDBRANCH  23  24
ENDBRANCH   9  16
ENDBRANCH   7   9
ENDBRANCH   6   7
ENDBRANCH   5   6
ENDBRANCH   4   5
ENDBRANCH   3   4
ENDBRANCH   2   3
ENDBRANCH   1   2
BRANCH   1  30
ATOM     30  O   UNL A   1      37.685  21.052  24.638  1.00  0.00    -0.376 OA
BRANCH  30  31
ATOM     31  C   UNL A   1      38.713  21.225  25.611  1.00  0.00     0.202 C 
BRANCH  31  32
ATOM     32  C   UNL A   1      39.543  20.035  26.138  1.00  0.00     0.261 C 
BRANCH  32  33
ATOM     33  O   UNL A   1      40.907  19.927  25.698  1.00  0.00    -0.460 OA
BRANCH  33  34
ATOM     34  C   UNL A   1      41.892  20.004  26.627  1.00  0.00     0.338 C 
ATOM     35  O   UNL A   1      42.610  19.091  26.997  1.00  0.00    -0.246 OA
BRANCH  34  36
ATOM     36  C   UNL A   1      42.132  21.454  26.863  1.00  0.00     0.060 A 
ATOM     37  C   UNL A   1      42.378  21.902  28.172  1.00  0.00     0.016 A 
ATOM     38  C   UNL A   1      42.238  22.340  25.790  1.00  0.00     0.016 A 
ATOM     39  C   UNL A   1      42.751  23.229  28.405  1.00  0.00     0.010 A 
ATOM     40  C   UNL A   1      42.575  23.676  26.030  1.00  0.00     0.010 A 
ATOM     41  C   UNL A   1      42.828  24.131  27.338  1.00  0.00    -0.014 A 
BRANCH  41  42
ATOM     42  C   UNL A   1      42.999  25.585  27.585  1.00  0.00     0.031 A 
ATOM     43  C   UNL A   1      44.382  26.163  27.477  1.00  0.00     0.074 A 
ATOM     44  C   UNL A   1      41.966  26.373  27.932  1.00  0.00     0.049 A 
ATOM     45  N   UNL A   1      44.817  27.354  27.791  1.00  0.00    -0.248 NA
ATOM     46  C   UNL A   1      45.414  25.257  26.953  1.00  0.00     0.031 C 
ATOM     47  C   UNL A   1      40.571  25.947  28.019  1.00  0.00     0.029 A 
ATOM     48  N   UNL A   1      41.940  27.696  28.301  1.00  0.00    -0.354 N 
ATOM     49  C   UNL A   1      46.179  27.342  27.511  1.00  0.00     0.074 A 
ATOM     50  C   UNL A   1      46.498  26.010  27.041  1.00  0.00     0.031 C 
ATOM     51  C   UNL A   1      39.828  26.981  28.453  1.00  0.00     0.029 A 
ATOM     52  C   UNL A   1      40.701  28.124  28.722  1.00  0.00     0.049 A 
ATOM     53  H   UNL A   1      42.730  28.282  28.269  1.00  0.00     0.167 HD
ATOM     54  C   UNL A   1      47.078  28.350  27.634  1.00  0.00     0.034 A 
ATOM     55  C   UNL A   1      40.325  29.282  29.307  1.00  0.00     0.034 A 
ATOM     56  C   UNL A   1      46.746  29.661  28.135  1.00  0.00     0.049 A 
ATOM     57  C   UNL A   1      41.361  30.356  29.551  1.00  0.00     0.074 A 
ATOM     58  C   UNL A   1      47.571  30.761  28.287  1.00  0.00     0.029 A 
ATOM     59  N   UNL A   1      45.490  30.043  28.594  1.00  0.00    -0.354 N 
ATOM     60  N   UNL A   1      42.646  30.344  29.274  1.00  0.00    -0.248 NA
ATOM     61  C   UNL A   1      40.898  31.596  30.189  1.00  0.00     0.031 C 
ATOM     62  C   UNL A   1      46.842  31.774  28.920  1.00  0.00     0.029 A 
ATOM     63  C   UNL A   1      45.533  31.343  29.077  1.00  0.00     0.049 A 
ATOM     64  H   UNL A   1      44.687  29.475  28.579  1.00  0.00     0.167 HD
ATOM     65  C   UNL A   1      43.138  31.581  29.687  1.00  0.00     0.074 A 
ATOM     66  C   UNL A   1      42.010  32.319  30.217  1.00  0.00     0.031 C 
ATOM     67  C   UNL A   1      44.407  32.063  29.628  1.00  0.00     0.034 A 
BRANCH  54  68
ATOM     68  C   UNL A   1      48.513  28.034  27.284  1.00  0.00     0.023 A 
ATOM     69  C   UNL A   1      49.044  28.318  26.012  1.00  0.00     0.031 A 
ATOM     70  C   UNL A   1      49.343  27.378  28.209  1.00  0.00     0.131 A 
ATOM     71  C   UNL A   1      50.323  27.857  25.669  1.00  0.00     0.055 A 
ATOM     72  C   UNL A   1      50.653  27.010  27.893  1.00  0.00     0.041 A 
ATOM     73  F   UNL A   1      48.887  27.057  29.430  1.00  0.00    -0.206 F 
ATOM     74  C   UNL A   1      51.143  27.228  26.610  1.00  0.00     0.022 A 
BRANCH  71  75
ATOM     75  S   UNL A   1      50.820  27.913  23.924  1.00  0.00     0.124 S 
ATOM     76  O   UNL A   1      51.700  26.750  23.830  1.00  0.00    -0.237 OA
ATOM     77  O   UNL A   1      49.543  27.807  23.230  1.00  0.00    -0.237 OA
ATOM     78  O   UNL A   1      51.495  29.204  23.803  1.00  0.00    -0.744 OA
ENDBRANCH  71  75
ENDBRANCH  54  68
BRANCH  55  79
ATOM     79  C   UNL A   1      38.920  29.458  29.781  1.00  0.00     0.023 A 
ATOM     80  C   UNL A   1      37.966  30.148  29.018  1.00  0.00     0.031 A 
ATOM     81  C   UNL A   1      38.522  28.953  31.034  1.00  0.00     0.131 A 
ATOM     82  C   UNL A   1      36.670  30.340  29.526  1.00  0.00     0.055 A 
ATOM     83  C   UNL A   1      37.219  29.099  31.510  1.00  0.00     0.041 A 
ATOM     84  F   UNL A   1      39.398  28.294  31.810  1.00  0.00    -0.206 F 
ATOM     85  C   UNL A   1      36.285  29.803  30.758  1.00  0.00     0.022 A 
BRANCH  82  86
ATOM     86  S   UNL A   1      35.503  31.360  28.583  1.00  0.00     0.124 S 
ATOM     87  O   UNL A   1      36.406  32.225  27.832  1.00  0.00    -0.237 OA
ATOM     88  O   UNL A   1      34.782  30.357  27.806  1.00  0.00    -0.237 OA
ATOM     89  O   UNL A   1      34.718  32.026  29.619  1.00  0.00    -0.744 OA
ENDBRANCH  82  86
ENDBRANCH  55  79
BRANCH  67  90
ATOM     90  C   UNL A   1      44.640  33.473  30.126  1.00  0.00     0.023 A 
ATOM     91  C   UNL A   1      45.036  33.737  31.449  1.00  0.00     0.031 A 
ATOM     92  C   UNL A   1      44.475  34.567  29.257  1.00  0.00     0.131 A 
ATOM     93  C   UNL A   1      45.214  35.063  31.875  1.00  0.00     0.055 A 
ATOM     94  C   UNL A   1      44.715  35.879  29.668  1.00  0.00     0.041 A 
ATOM     95  F   UNL A   1      44.093  34.378  27.983  1.00  0.00    -0.206 F 
ATOM     96  C   UNL A   1      45.077  36.134  30.988  1.00  0.00     0.022 A 
BRANCH  93  97
ATOM     97  S   UNL A   1      45.547  35.381  33.630  1.00  0.00     0.124 S 
ATOM     98  O   UNL A   1      46.419  36.550  33.564  1.00  0.00    -0.237 OA
ATOM     99  O   UNL A   1      44.210  35.613  34.165  1.00  0.00    -0.237 OA
ATOM    100  O   UNL A   1      46.193  34.151  34.086  1.00  0.00    -0.744 OA
ENDBRANCH  93  97
ENDBRANCH  67  90
ENDBRANCH  41  42
ENDBRANCH  34  36
ENDBRANCH  33  34
ENDBRANCH  32  33
ENDBRANCH  31  32
ENDBRANCH  30  31
ENDBRANCH   1  30
TORSDOF 24
ENDMDL
