MODEL 1
REMARK VINA RESULT:     -10.5      0.000      0.000
REMARK SMILES C#Cc1ccc2c(c1)C=C(C(=O)OCCOCCOCCOC(=O)c1ccc(-c3c4nc(c(-c5cc(S(=O)(=O)[O-])ccc5F)c5ccc([nH]5)c(-c5cc(S(=O)(=O)[O-])ccc5F)c5nc(c(-c6cc(S(=O)(=O)[O-])ccc6F)c6ccc3[nH]6)C=C5)C=C4)cc1)[C@@H](C(F)(F)F)O2
REMARK SMILES IDX 18 1 17 2 16 3 15 4 14 5 13 6 11 7 12 8 10 9 3 10 4 11 8 12
REMARK SMILES IDX 5 13 7 14 6 15 9 16 93 17 88 18 2 19 1 20 89 21 90 22 91 23
REMARK SMILES IDX 92 24 19 25 20 26 21 27 22 28 23 29 24 30 25 31 26 32 87 33
REMARK SMILES IDX 27 34 86 35 28 36 29 37 30 38 80 39 31 40 85 41 79 42 81 43
REMARK SMILES IDX 32 44 84 45 78 46 77 47 33 49 65 50 45 51 64 52 46 53 49 54
REMARK SMILES IDX 63 55 82 56 47 57 48 58 62 60 83 61 50 62 34 63 35 64 43 65
REMARK SMILES IDX 36 66 42 67 44 68 41 69 37 70 38 71 39 72 40 73 66 74 67 75
REMARK SMILES IDX 75 76 68 77 74 78 76 79 73 80 69 81 70 82 71 83 72 84 51 85
REMARK SMILES IDX 52 86 60 87 53 88 59 89 61 90 58 91 54 92 55 93 56 94 57 95
REMARK H PARENT 81 48 49 59
REMARK Flexibility Score: inf
ROOT
ATOM      1  C   UNL A   1      32.408  29.864  25.789  1.00  0.00     0.188 C 
ENDROOT
BRANCH   1   2
ATOM      2  C   UNL A   1      31.364  29.668  24.669  1.00  0.00     0.188 C 
BRANCH   2   3
ATOM      3  O   UNL A   1      31.269  28.373  24.127  1.00  0.00    -0.376 OA
BRANCH   3   4
ATOM      4  C   UNL A   1      30.322  27.445  24.624  1.00  0.00     0.202 C 
BRANCH   4   5
ATOM      5  C   UNL A   1      29.767  26.219  23.868  1.00  0.00     0.261 C 
BRANCH   5   6
ATOM      6  O   UNL A   1      30.534  25.013  23.882  1.00  0.00    -0.460 OA
BRANCH   6   7
ATOM      7  C   UNL A   1      31.495  24.912  22.931  1.00  0.00     0.338 C 
ATOM      8  O   UNL A   1      31.642  25.643  21.967  1.00  0.00    -0.246 OA
BRANCH   7   9
ATOM      9  C   UNL A   1      32.453  23.854  23.317  1.00  0.00     0.087 C 
ATOM     10  C   UNL A   1      33.286  19.291  24.595  1.00  0.00     0.025 A 
ATOM     11  C   UNL A   1      34.588  19.639  24.959  1.00  0.00     0.021 A 
ATOM     12  C   UNL A   1      32.445  20.248  24.019  1.00  0.00     0.029 A 
ATOM     13  C   UNL A   1      35.056  20.933  24.727  1.00  0.00     0.048 A 
ATOM     14  C   UNL A   1      32.896  21.561  23.834  1.00  0.00     0.018 A 
ATOM     15  C   UNL A   1      34.211  21.892  24.166  1.00  0.00     0.128 A 
ATOM     16  C   UNL A   1      31.984  22.600  23.381  1.00  0.00     0.027 C 
ATOM     17  O   UNL A   1      34.752  23.133  23.991  1.00  0.00    -0.475 OA
ATOM     18  C   UNL A   1      33.885  24.228  23.591  1.00  0.00     0.316 C 
BRANCH  10  19
ATOM     19  C   UNL A   1      32.800  17.973  24.855  1.00  0.00    -0.070 C 
ATOM     20  C   UNL A   1      32.415  16.855  25.079  1.00  0.00     0.010 C 
ENDBRANCH  10  19
BRANCH  18  21
ATOM     21  C   UNL A   1      33.997  25.339  24.642  1.00  0.00     0.430 C 
ATOM     22  F   UNL A   1      35.186  25.287  25.291  1.00  0.00    -0.167 F 
ATOM     23  F   UNL A   1      33.922  26.571  24.083  1.00  0.00    -0.167 F 
ATOM     24  F   UNL A   1      33.023  25.258  25.575  1.00  0.00    -0.167 F 
ENDBRANCH  18  21
ENDBRANCH   7   9
ENDBRANCH   6   7
ENDBRANCH   5   6
ENDBRANCH   4   5
ENDBRANCH   3   4
ENDBRANCH   2   3
ENDBRANCH   1   2
BRANCH   1  25
ATOM     25  O   UNL A   1      32.109  30.744  26.851  1.00  0.00    -0.376 OA
BRANCH  25  26
ATOM     26  C   UNL A   1      31.432  31.961  26.577  1.00  0.00     0.202 C 
BRANCH  26  27
ATOM     27  C   UNL A   1      31.988  33.378  26.858  1.00  0.00     0.261 C 
BRANCH  27  28
ATOM     28  O   UNL A   1      32.455  33.680  28.177  1.00  0.00    -0.460 OA
BRANCH  28  29
ATOM     29  C   UNL A   1      33.567  34.457  28.261  1.00  0.00     0.338 C 
ATOM     30  O   UNL A   1      33.627  35.664  28.113  1.00  0.00    -0.246 OA
BRANCH  29  31
ATOM     31  C   UNL A   1      34.671  33.621  28.786  1.00  0.00     0.060 A 
ATOM     32  C   UNL A   1      35.995  34.004  28.582  1.00  0.00     0.016 A 
ATOM     33  C   UNL A   1      34.378  32.417  29.448  1.00  0.00     0.016 A 
ATOM     34  C   UNL A   1      37.027  33.184  29.049  1.00  0.00     0.010 A 
ATOM     35  C   UNL A   1      35.414  31.589  29.896  1.00  0.00     0.010 A 
ATOM     36  C   UNL A   1      36.749  31.975  29.717  1.00  0.00    -0.014 A 
BRANCH  36  37
ATOM     37  C   UNL A   1      37.856  31.226  30.369  1.00  0.00     0.031 A 
ATOM     38  C   UNL A   1      38.623  30.145  29.665  1.00  0.00     0.074 A 
ATOM     39  C   UNL A   1      38.170  31.551  31.638  1.00  0.00     0.049 A 
ATOM     40  N   UNL A   1      39.677  29.490  30.081  1.00  0.00    -0.248 NA
ATOM     41  C   UNL A   1      38.149  29.740  28.334  1.00  0.00     0.031 C 
ATOM     42  C   UNL A   1      37.462  32.556  32.433  1.00  0.00     0.029 A 
ATOM     43  N   UNL A   1      39.160  31.100  32.476  1.00  0.00    -0.354 N 
ATOM     44  C   UNL A   1      40.012  28.608  29.059  1.00  0.00     0.074 A 
ATOM     45  C   UNL A   1      39.013  28.777  28.023  1.00  0.00     0.031 C 
ATOM     46  C   UNL A   1      38.063  32.674  33.624  1.00  0.00     0.029 A 
ATOM     47  C   UNL A   1      39.171  31.724  33.701  1.00  0.00     0.049 A 
ATOM     48  H   UNL A   1      39.799  30.394  32.224  1.00  0.00     0.167 HD
ATOM     49  C   UNL A   1      41.067  27.760  28.992  1.00  0.00     0.034 A 
ATOM     50  C   UNL A   1      39.977  31.560  34.772  1.00  0.00     0.034 A 
ATOM     51  C   UNL A   1      42.050  27.609  30.041  1.00  0.00     0.049 A 
ATOM     52  C   UNL A   1      41.128  30.591  34.677  1.00  0.00     0.074 A 
ATOM     53  C   UNL A   1      43.186  26.815  30.034  1.00  0.00     0.029 A 
ATOM     54  N   UNL A   1      42.023  28.243  31.275  1.00  0.00    -0.354 N 
ATOM     55  N   UNL A   1      41.500  29.854  33.659  1.00  0.00    -0.248 NA
ATOM     56  C   UNL A   1      41.980  30.441  35.866  1.00  0.00     0.031 C 
ATOM     57  C   UNL A   1      43.787  26.895  31.289  1.00  0.00     0.029 A 
ATOM     58  C   UNL A   1      43.094  27.823  32.049  1.00  0.00     0.049 A 
ATOM     59  H   UNL A   1      41.342  28.895  31.559  1.00  0.00     0.167 HD
ATOM     60  C   UNL A   1      42.646  29.178  34.071  1.00  0.00     0.074 A 
ATOM     61  C   UNL A   1      42.920  29.616  35.424  1.00  0.00     0.031 C 
ATOM     62  C   UNL A   1      43.392  28.273  33.391  1.00  0.00     0.034 A 
BRANCH  49  63
ATOM     63  C   UNL A   1      41.271  26.930  27.743  1.00  0.00     0.023 A 
ATOM     64  C   UNL A   1      40.973  25.553  27.755  1.00  0.00     0.031 A 
ATOM     65  C   UNL A   1      41.943  27.451  26.623  1.00  0.00     0.131 A 
ATOM     66  C   UNL A   1      41.398  24.736  26.699  1.00  0.00     0.055 A 
ATOM     67  C   UNL A   1      42.314  26.642  25.547  1.00  0.00     0.041 A 
ATOM     68  F   UNL A   1      42.265  28.753  26.564  1.00  0.00    -0.206 F 
ATOM     69  C   UNL A   1      42.058  25.274  25.591  1.00  0.00     0.022 A 
BRANCH  66  70
ATOM     70  S   UNL A   1      41.206  22.932  26.772  1.00  0.00     0.124 S 
ATOM     71  O   UNL A   1      41.476  22.659  28.182  1.00  0.00    -0.237 OA
ATOM     72  O   UNL A   1      39.817  22.757  26.358  1.00  0.00    -0.237 OA
ATOM     73  O   UNL A   1      42.211  22.434  25.840  1.00  0.00    -0.744 OA
ENDBRANCH  66  70
ENDBRANCH  49  63
BRANCH  50  74
ATOM     74  C   UNL A   1      39.741  32.388  35.992  1.00  0.00     0.023 A 
ATOM     75  C   UNL A   1      38.868  31.944  37.002  1.00  0.00     0.031 A 
ATOM     76  C   UNL A   1      40.293  33.673  36.119  1.00  0.00     0.131 A 
ATOM     77  C   UNL A   1      38.512  32.805  38.047  1.00  0.00     0.055 A 
ATOM     78  C   UNL A   1      40.004  34.496  37.209  1.00  0.00     0.041 A 
ATOM     79  F   UNL A   1      41.119  34.151  35.174  1.00  0.00    -0.206 F 
ATOM     80  C   UNL A   1      39.092  34.070  38.170  1.00  0.00     0.022 A 
BRANCH  77  81
ATOM     81  S   UNL A   1      37.177  32.367  39.194  1.00  0.00     0.124 S 
ATOM     82  O   UNL A   1      35.987  32.743  38.436  1.00  0.00    -0.237 OA
ATOM     83  O   UNL A   1      37.391  30.931  39.362  1.00  0.00    -0.237 OA
ATOM     84  O   UNL A   1      37.455  33.176  40.375  1.00  0.00    -0.744 OA
ENDBRANCH  77  81
ENDBRANCH  50  74
BRANCH  62  85
ATOM     85  C   UNL A   1      44.613  27.674  34.058  1.00  0.00     0.023 A 
ATOM     86  C   UNL A   1      44.480  26.518  34.853  1.00  0.00     0.031 A 
ATOM     87  C   UNL A   1      45.854  28.334  34.055  1.00  0.00     0.131 A 
ATOM     88  C   UNL A   1      45.545  26.095  35.658  1.00  0.00     0.055 A 
ATOM     89  C   UNL A   1      46.935  27.869  34.807  1.00  0.00     0.041 A 
ATOM     90  F   UNL A   1      46.033  29.448  33.327  1.00  0.00    -0.206 F 
ATOM     91  C   UNL A   1      46.776  26.756  35.629  1.00  0.00     0.022 A 
BRANCH  88  92
ATOM     92  S   UNL A   1      45.338  24.746  36.854  1.00  0.00     0.124 S 
ATOM     93  O   UNL A   1      45.576  23.566  36.026  1.00  0.00    -0.237 OA
ATOM     94  O   UNL A   1      46.381  25.042  37.832  1.00  0.00    -0.237 OA
ATOM     95  O   UNL A   1      43.968  24.904  37.330  1.00  0.00    -0.744 OA
ENDBRANCH  88  92
ENDBRANCH  62  85
ENDBRANCH  36  37
ENDBRANCH  29  31
ENDBRANCH  28  29
ENDBRANCH  27  28
ENDBRANCH  26  27
ENDBRANCH  25  26
ENDBRANCH   1  25
TORSDOF 22
ENDMDL
MODEL 2
REMARK VINA RESULT:     -10.5      1.313      7.512
REMARK SMILES C#Cc1ccc2c(c1)C=C(C(=O)OCCOCCOCCOC(=O)c1ccc(-c3c4nc(c(-c5cc(S(=O)(=O)[O-])ccc5F)c5ccc([nH]5)c(-c5cc(S(=O)(=O)[O-])ccc5F)c5nc(c(-c6cc(S(=O)(=O)[O-])ccc6F)c6ccc3[nH]6)C=C5)C=C4)cc1)[C@@H](C(F)(F)F)O2
REMARK SMILES IDX 18 1 17 2 16 3 15 4 14 5 13 6 11 7 12 8 10 9 3 10 4 11 8 12
REMARK SMILES IDX 5 13 7 14 6 15 9 16 93 17 88 18 2 19 1 20 89 21 90 22 91 23
REMARK SMILES IDX 92 24 19 25 20 26 21 27 22 28 23 29 24 30 25 31 26 32 87 33
REMARK SMILES IDX 27 34 86 35 28 36 29 37 30 38 80 39 31 40 85 41 79 42 81 43
REMARK SMILES IDX 32 44 84 45 78 46 77 47 33 49 65 50 45 51 64 52 46 53 49 54
REMARK SMILES IDX 63 55 82 56 47 57 48 58 62 60 83 61 50 62 34 63 35 64 43 65
REMARK SMILES IDX 36 66 42 67 44 68 41 69 37 70 38 71 39 72 40 73 66 74 67 75
REMARK SMILES IDX 75 76 68 77 74 78 76 79 73 80 69 81 70 82 71 83 72 84 51 85
REMARK SMILES IDX 52 86 60 87 53 88 59 89 61 90 58 91 54 92 55 93 56 94 57 95
REMARK H PARENT 81 48 49 59
REMARK Flexibility Score: inf
ROOT
ATOM      1  C   UNL A   1      32.907  29.160  26.800  1.00  0.00     0.188 C 
ENDROOT
BRANCH   1   2
ATOM      2  C   UNL A   1      32.374  27.724  26.607  1.00  0.00     0.188 C 
BRANCH   2   3
ATOM      3  O   UNL A   1      31.507  27.524  25.517  1.00  0.00    -0.376 OA
BRANCH   3   4
ATOM      4  C   UNL A   1      31.572  28.358  24.374  1.00  0.00     0.202 C 
BRANCH   4   5
ATOM      5  C   UNL A   1      32.593  28.244  23.222  1.00  0.00     0.261 C 
BRANCH   5   6
ATOM      6  O   UNL A   1      33.674  27.321  23.368  1.00  0.00    -0.460 OA
BRANCH   6   7
ATOM      7  C   UNL A   1      33.631  26.228  22.567  1.00  0.00     0.338 C 
ATOM      8  O   UNL A   1      33.683  26.218  21.349  1.00  0.00    -0.246 OA
BRANCH   7   9
ATOM      9  C   UNL A   1      33.661  25.009  23.404  1.00  0.00     0.087 C 
ATOM     10  C   UNL A   1      35.996  21.087  24.922  1.00  0.00     0.025 A 
ATOM     11  C   UNL A   1      34.814  20.612  25.491  1.00  0.00     0.021 A 
ATOM     12  C   UNL A   1      36.022  22.348  24.319  1.00  0.00     0.029 A 
ATOM     13  C   UNL A   1      33.666  21.406  25.480  1.00  0.00     0.048 A 
ATOM     14  C   UNL A   1      34.857  23.123  24.259  1.00  0.00     0.018 A 
ATOM     15  C   UNL A   1      33.688  22.658  24.863  1.00  0.00     0.128 A 
ATOM     16  C   UNL A   1      34.832  24.365  23.502  1.00  0.00     0.027 C 
ATOM     17  O   UNL A   1      32.514  23.355  24.889  1.00  0.00    -0.475 OA
ATOM     18  C   UNL A   1      32.404  24.577  24.110  1.00  0.00     0.316 C 
BRANCH  10  19
ATOM     19  C   UNL A   1      37.165  20.264  24.913  1.00  0.00    -0.070 C 
ATOM     20  C   UNL A   1      38.162  19.592  24.900  1.00  0.00     0.010 C 
ENDBRANCH  10  19
BRANCH  18  21
ATOM     21  C   UNL A   1      31.226  24.426  23.142  1.00  0.00     0.430 C 
ATOM     22  F   UNL A   1      30.256  23.633  23.663  1.00  0.00    -0.167 F 
ATOM     23  F   UNL A   1      30.639  25.617  22.873  1.00  0.00    -0.167 F 
ATOM     24  F   UNL A   1      31.600  23.884  21.963  1.00  0.00    -0.167 F 
ENDBRANCH  18  21
ENDBRANCH   7   9
ENDBRANCH   6   7
ENDBRANCH   5   6
ENDBRANCH   4   5
ENDBRANCH   3   4
ENDBRANCH   2   3
ENDBRANCH   1   2
BRANCH   1  25
ATOM     25  O   UNL A   1      32.027  30.154  27.280  1.00  0.00    -0.376 OA
BRANCH  25  26
ATOM     26  C   UNL A   1      31.721  31.269  26.456  1.00  0.00     0.202 C 
BRANCH  26  27
ATOM     27  C   UNL A   1      31.797  32.752  26.893  1.00  0.00     0.261 C 
BRANCH  27  28
ATOM     28  O   UNL A   1      33.083  33.374  26.980  1.00  0.00    -0.460 OA
BRANCH  28  29
ATOM     29  C   UNL A   1      33.391  33.960  28.168  1.00  0.00     0.338 C 
ATOM     30  O   UNL A   1      32.711  34.757  28.787  1.00  0.00    -0.246 OA
BRANCH  29  31
ATOM     31  C   UNL A   1      34.601  33.296  28.704  1.00  0.00     0.060 A 
ATOM     32  C   UNL A   1      35.861  33.841  28.465  1.00  0.00     0.016 A 
ATOM     33  C   UNL A   1      34.477  32.090  29.414  1.00  0.00     0.016 A 
ATOM     34  C   UNL A   1      36.997  33.182  28.943  1.00  0.00     0.010 A 
ATOM     35  C   UNL A   1      35.618  31.421  29.874  1.00  0.00     0.010 A 
ATOM     36  C   UNL A   1      36.888  31.973  29.659  1.00  0.00    -0.014 A 
BRANCH  36  37
ATOM     37  C   UNL A   1      38.092  31.400  30.319  1.00  0.00     0.031 A 
ATOM     38  C   UNL A   1      38.520  31.799  31.701  1.00  0.00     0.074 A 
ATOM     39  C   UNL A   1      38.805  30.483  29.636  1.00  0.00     0.049 A 
ATOM     40  N   UNL A   1      39.483  31.299  32.432  1.00  0.00    -0.248 NA
ATOM     41  C   UNL A   1      37.785  32.898  32.344  1.00  0.00     0.031 C 
ATOM     42  C   UNL A   1      38.504  30.053  28.270  1.00  0.00     0.029 A 
ATOM     43  N   UNL A   1      39.904  29.739  29.986  1.00  0.00    -0.354 N 
ATOM     44  C   UNL A   1      39.464  32.003  33.631  1.00  0.00     0.074 A 
ATOM     45  C   UNL A   1      38.422  33.003  33.506  1.00  0.00     0.031 C 
ATOM     46  C   UNL A   1      39.369  29.094  27.913  1.00  0.00     0.029 A 
ATOM     47  C   UNL A   1      40.316  28.870  29.003  1.00  0.00     0.049 A 
ATOM     48  H   UNL A   1      40.356  29.821  30.858  1.00  0.00     0.167 HD
ATOM     49  C   UNL A   1      40.230  31.811  34.734  1.00  0.00     0.034 A 
ATOM     50  C   UNL A   1      41.337  27.987  28.972  1.00  0.00     0.034 A 
ATOM     51  C   UNL A   1      41.264  30.806  34.832  1.00  0.00     0.049 A 
ATOM     52  C   UNL A   1      42.188  27.811  30.204  1.00  0.00     0.074 A 
ATOM     53  C   UNL A   1      42.051  30.502  35.932  1.00  0.00     0.029 A 
ATOM     54  N   UNL A   1      41.667  29.954  33.813  1.00  0.00    -0.354 N 
ATOM     55  N   UNL A   1      42.078  28.401  31.370  1.00  0.00    -0.248 NA
ATOM     56  C   UNL A   1      43.290  26.842  30.127  1.00  0.00     0.031 C 
ATOM     57  C   UNL A   1      42.985  29.540  35.551  1.00  0.00     0.029 A 
ATOM     58  C   UNL A   1      42.718  29.160  34.247  1.00  0.00     0.049 A 
ATOM     59  H   UNL A   1      41.266  29.920  32.915  1.00  0.00     0.167 HD
ATOM     60  C   UNL A   1      43.073  27.853  32.174  1.00  0.00     0.074 A 
ATOM     61  C   UNL A   1      43.757  26.863  31.369  1.00  0.00     0.031 C 
ATOM     62  C   UNL A   1      43.391  28.151  33.459  1.00  0.00     0.034 A 
BRANCH  49  63
ATOM     63  C   UNL A   1      39.990  32.664  35.960  1.00  0.00     0.023 A 
ATOM     64  C   UNL A   1      39.106  32.222  36.964  1.00  0.00     0.031 A 
ATOM     65  C   UNL A   1      40.470  33.984  36.036  1.00  0.00     0.131 A 
ATOM     66  C   UNL A   1      38.683  33.108  37.963  1.00  0.00     0.055 A 
ATOM     67  C   UNL A   1      40.088  34.845  37.067  1.00  0.00     0.041 A 
ATOM     68  F   UNL A   1      41.303  34.463  35.099  1.00  0.00    -0.206 F 
ATOM     69  C   UNL A   1      39.177  34.414  38.026  1.00  0.00     0.022 A 
BRANCH  66  70
ATOM     70  S   UNL A   1      37.398  32.635  39.155  1.00  0.00     0.124 S 
ATOM     71  O   UNL A   1      36.175  32.954  38.419  1.00  0.00    -0.237 OA
ATOM     72  O   UNL A   1      37.661  31.211  39.337  1.00  0.00    -0.237 OA
ATOM     73  O   UNL A   1      37.663  33.481  40.313  1.00  0.00    -0.744 OA
ENDBRANCH  66  70
ENDBRANCH  49  63
BRANCH  50  74
ATOM     74  C   UNL A   1      41.551  27.169  27.742  1.00  0.00     0.023 A 
ATOM     75  C   UNL A   1      41.144  25.823  27.696  1.00  0.00     0.031 A 
ATOM     76  C   UNL A   1      42.257  27.680  26.641  1.00  0.00     0.131 A 
ATOM     77  C   UNL A   1      41.514  25.016  26.612  1.00  0.00     0.055 A 
ATOM     78  C   UNL A   1      42.549  26.896  25.523  1.00  0.00     0.041 A 
ATOM     79  F   UNL A   1      42.683  28.953  26.642  1.00  0.00    -0.206 F 
ATOM     80  C   UNL A   1      42.194  25.551  25.515  1.00  0.00     0.022 A 
BRANCH  77  81
ATOM     81  S   UNL A   1      41.255  23.222  26.662  1.00  0.00     0.124 S 
ATOM     82  O   UNL A   1      39.814  23.115  26.458  1.00  0.00    -0.237 OA
ATOM     83  O   UNL A   1      42.086  22.772  25.548  1.00  0.00    -0.237 OA
ATOM     84  O   UNL A   1      41.736  22.840  27.986  1.00  0.00    -0.744 OA
ENDBRANCH  77  81
ENDBRANCH  50  74
BRANCH  62  85
ATOM     85  C   UNL A   1      44.524  27.403  34.130  1.00  0.00     0.023 A 
ATOM     86  C   UNL A   1      44.279  26.147  34.722  1.00  0.00     0.031 A 
ATOM     87  C   UNL A   1      45.781  27.997  34.338  1.00  0.00     0.131 A 
ATOM     88  C   UNL A   1      45.250  25.558  35.543  1.00  0.00     0.055 A 
ATOM     89  C   UNL A   1      46.770  27.374  35.103  1.00  0.00     0.041 A 
ATOM     90  F   UNL A   1      46.063  29.199  33.811  1.00  0.00    -0.206 F 
ATOM     91  C   UNL A   1      46.499  26.159  35.726  1.00  0.00     0.022 A 
BRANCH  88  92
ATOM     92  S   UNL A   1      44.888  24.056  36.493  1.00  0.00     0.124 S 
ATOM     93  O   UNL A   1      46.188  23.388  36.513  1.00  0.00    -0.237 OA
ATOM     94  O   UNL A   1      44.449  24.603  37.774  1.00  0.00    -0.237 OA
ATOM     95  O   UNL A   1      43.857  23.383  35.710  1.00  0.00    -0.744 OA
ENDBRANCH  88  92
ENDBRANCH  62  85
ENDBRANCH  36  37
ENDBRANCH  29  31
ENDBRANCH  28  29
ENDBRANCH  27  28
ENDBRANCH  26  27
ENDBRANCH  25  26
ENDBRANCH   1  25
TORSDOF 22
ENDMDL
MODEL 3
REMARK VINA RESULT:     -10.4      1.729      2.161
REMARK SMILES C#Cc1ccc2c(c1)C=C(C(=O)OCCOCCOCCOC(=O)c1ccc(-c3c4nc(c(-c5cc(S(=O)(=O)[O-])ccc5F)c5ccc([nH]5)c(-c5cc(S(=O)(=O)[O-])ccc5F)c5nc(c(-c6cc(S(=O)(=O)[O-])ccc6F)c6ccc3[nH]6)C=C5)C=C4)cc1)[C@@H](C(F)(F)F)O2
REMARK SMILES IDX 18 1 17 2 16 3 15 4 14 5 13 6 11 7 12 8 10 9 3 10 4 11 8 12
REMARK SMILES IDX 5 13 7 14 6 15 9 16 93 17 88 18 2 19 1 20 89 21 90 22 91 23
REMARK SMILES IDX 92 24 19 25 20 26 21 27 22 28 23 29 24 30 25 31 26 32 87 33
REMARK SMILES IDX 27 34 86 35 28 36 29 37 30 38 80 39 31 40 85 41 79 42 81 43
REMARK SMILES IDX 32 44 84 45 78 46 77 47 33 49 65 50 45 51 64 52 46 53 49 54
REMARK SMILES IDX 63 55 82 56 47 57 48 58 62 60 83 61 50 62 34 63 35 64 43 65
REMARK SMILES IDX 36 66 42 67 44 68 41 69 37 70 38 71 39 72 40 73 66 74 67 75
REMARK SMILES IDX 75 76 68 77 74 78 76 79 73 80 69 81 70 82 71 83 72 84 51 85
REMARK SMILES IDX 52 86 60 87 53 88 59 89 61 90 58 91 54 92 55 93 56 94 57 95
REMARK H PARENT 81 48 49 59
REMARK Flexibility Score: inf
ROOT
ATOM      1  C   UNL A   1      32.594  29.056  26.477  1.00  0.00     0.188 C 
ENDROOT
BRANCH   1   2
ATOM      2  C   UNL A   1      32.709  27.705  27.214  1.00  0.00     0.188 C 
BRANCH   2   3
ATOM      3  O   UNL A   1      31.659  26.792  27.008  1.00  0.00    -0.376 OA
BRANCH   3   4
ATOM      4  C   UNL A   1      30.944  26.771  25.785  1.00  0.00     0.202 C 
BRANCH   4   5
ATOM      5  C   UNL A   1      30.989  25.651  24.724  1.00  0.00     0.261 C 
BRANCH   5   6
ATOM      6  O   UNL A   1      31.089  24.298  25.174  1.00  0.00    -0.460 OA
BRANCH   6   7
ATOM      7  C   UNL A   1      32.325  23.746  25.121  1.00  0.00     0.338 C 
ATOM      8  O   UNL A   1      33.324  24.145  25.694  1.00  0.00    -0.246 OA
BRANCH   7   9
ATOM      9  C   UNL A   1      32.258  22.475  24.368  1.00  0.00     0.087 C 
ATOM     10  C   UNL A   1      32.703  17.686  24.285  1.00  0.00     0.025 A 
ATOM     11  C   UNL A   1      32.646  17.712  22.891  1.00  0.00     0.021 A 
ATOM     12  C   UNL A   1      32.543  18.869  25.012  1.00  0.00     0.029 A 
ATOM     13  C   UNL A   1      32.407  18.914  22.225  1.00  0.00     0.048 A 
ATOM     14  C   UNL A   1      32.356  20.085  24.342  1.00  0.00     0.018 A 
ATOM     15  C   UNL A   1      32.264  20.099  22.949  1.00  0.00     0.128 A 
ATOM     16  C   UNL A   1      32.344  21.340  25.077  1.00  0.00     0.027 C 
ATOM     17  O   UNL A   1      32.048  21.226  22.211  1.00  0.00    -0.475 OA
ATOM     18  C   UNL A   1      32.076  22.518  22.874  1.00  0.00     0.316 C 
BRANCH  10  19
ATOM     19  C   UNL A   1      32.971  16.458  24.965  1.00  0.00    -0.070 C 
ATOM     20  C   UNL A   1      33.180  15.431  25.556  1.00  0.00     0.010 C 
ENDBRANCH  10  19
BRANCH  18  21
ATOM     21  C   UNL A   1      33.139  23.387  22.192  1.00  0.00     0.430 C 
ATOM     22  F   UNL A   1      34.371  23.159  22.712  1.00  0.00    -0.167 F 
ATOM     23  F   UNL A   1      33.231  23.123  20.866  1.00  0.00    -0.167 F 
ATOM     24  F   UNL A   1      32.882  24.706  22.326  1.00  0.00    -0.167 F 
ENDBRANCH  18  21
ENDBRANCH   7   9
ENDBRANCH   6   7
ENDBRANCH   5   6
ENDBRANCH   4   5
ENDBRANCH   3   4
ENDBRANCH   2   3
ENDBRANCH   1   2
BRANCH   1  25
ATOM     25  O   UNL A   1      31.764  30.059  27.022  1.00  0.00    -0.376 OA
BRANCH  25  26
ATOM     26  C   UNL A   1      31.470  31.215  26.250  1.00  0.00     0.202 C 
BRANCH  26  27
ATOM     27  C   UNL A   1      31.544  32.674  26.759  1.00  0.00     0.261 C 
BRANCH  27  28
ATOM     28  O   UNL A   1      32.796  33.364  26.675  1.00  0.00    -0.460 OA
BRANCH  28  29
ATOM     29  C   UNL A   1      33.193  34.033  27.791  1.00  0.00     0.338 C 
ATOM     30  O   UNL A   1      32.622  34.966  28.324  1.00  0.00    -0.246 OA
BRANCH  29  31
ATOM     31  C   UNL A   1      34.327  33.291  28.389  1.00  0.00     0.060 A 
ATOM     32  C   UNL A   1      35.592  33.875  28.444  1.00  0.00     0.016 A 
ATOM     33  C   UNL A   1      34.134  31.981  28.856  1.00  0.00     0.016 A 
ATOM     34  C   UNL A   1      36.661  33.148  28.974  1.00  0.00     0.010 A 
ATOM     35  C   UNL A   1      35.211  31.248  29.368  1.00  0.00     0.010 A 
ATOM     36  C   UNL A   1      36.482  31.834  29.449  1.00  0.00    -0.014 A 
BRANCH  36  37
ATOM     37  C   UNL A   1      37.588  31.161  30.182  1.00  0.00     0.031 A 
ATOM     38  C   UNL A   1      38.457  30.115  29.546  1.00  0.00     0.074 A 
ATOM     39  C   UNL A   1      37.805  31.525  31.460  1.00  0.00     0.049 A 
ATOM     40  N   UNL A   1      39.520  29.530  30.038  1.00  0.00    -0.248 NA
ATOM     41  C   UNL A   1      38.090  29.661  28.198  1.00  0.00     0.031 C 
ATOM     42  C   UNL A   1      36.994  32.500  32.191  1.00  0.00     0.029 A 
ATOM     43  N   UNL A   1      38.766  31.146  32.365  1.00  0.00    -0.354 N 
ATOM     44  C   UNL A   1      39.967  28.652  29.056  1.00  0.00     0.074 A 
ATOM     45  C   UNL A   1      39.024  28.745  27.959  1.00  0.00     0.031 C 
ATOM     46  C   UNL A   1      37.513  32.673  33.413  1.00  0.00     0.029 A 
ATOM     47  C   UNL A   1      38.667  31.790  33.576  1.00  0.00     0.049 A 
ATOM     48  H   UNL A   1      39.459  30.475  32.166  1.00  0.00     0.167 HD
ATOM     49  C   UNL A   1      41.071  27.865  29.069  1.00  0.00     0.034 A 
ATOM     50  C   UNL A   1      39.414  31.692  34.696  1.00  0.00     0.034 A 
ATOM     51  C   UNL A   1      41.994  27.790  30.178  1.00  0.00     0.049 A 
ATOM     52  C   UNL A   1      40.622  30.790  34.690  1.00  0.00     0.074 A 
ATOM     53  C   UNL A   1      43.172  27.063  30.255  1.00  0.00     0.029 A 
ATOM     54  N   UNL A   1      41.856  28.442  31.396  1.00  0.00    -0.354 N 
ATOM     55  N   UNL A   1      41.097  30.059  33.711  1.00  0.00    -0.248 NA
ATOM     56  C   UNL A   1      41.406  30.709  35.930  1.00  0.00     0.031 C 
ATOM     57  C   UNL A   1      43.690  27.199  31.542  1.00  0.00     0.029 A 
ATOM     58  C   UNL A   1      42.900  28.097  32.241  1.00  0.00     0.049 A 
ATOM     59  H   UNL A   1      41.123  29.057  31.626  1.00  0.00     0.167 HD
ATOM     60  C   UNL A   1      42.252  29.458  34.205  1.00  0.00     0.074 A 
ATOM     61  C   UNL A   1      42.418  29.933  35.562  1.00  0.00     0.031 C 
ATOM     62  C   UNL A   1      43.089  28.586  33.589  1.00  0.00     0.034 A 
BRANCH  49  63
ATOM     63  C   UNL A   1      41.398  27.029  27.852  1.00  0.00     0.023 A 
ATOM     64  C   UNL A   1      41.303  25.624  27.916  1.00  0.00     0.031 A 
ATOM     65  C   UNL A   1      41.990  27.600  26.712  1.00  0.00     0.131 A 
ATOM     66  C   UNL A   1      41.846  24.839  26.891  1.00  0.00     0.055 A 
ATOM     67  C   UNL A   1      42.479  26.814  25.666  1.00  0.00     0.041 A 
ATOM     68  F   UNL A   1      42.120  28.932  26.604  1.00  0.00    -0.206 F 
ATOM     69  C   UNL A   1      42.425  25.426  25.762  1.00  0.00     0.022 A 
BRANCH  66  70
ATOM     70  S   UNL A   1      41.918  23.031  27.031  1.00  0.00     0.124 S 
ATOM     71  O   UNL A   1      40.697  22.739  27.780  1.00  0.00    -0.237 OA
ATOM     72  O   UNL A   1      41.905  22.616  25.631  1.00  0.00    -0.237 OA
ATOM     73  O   UNL A   1      43.162  22.784  27.752  1.00  0.00    -0.744 OA
ENDBRANCH  66  70
ENDBRANCH  49  63
BRANCH  50  74
ATOM     74  C   UNL A   1      39.056  32.524  35.883  1.00  0.00     0.023 A 
ATOM     75  C   UNL A   1      39.474  33.865  35.970  1.00  0.00     0.031 A 
ATOM     76  C   UNL A   1      38.390  31.970  36.988  1.00  0.00     0.131 A 
ATOM     77  C   UNL A   1      39.295  34.577  37.163  1.00  0.00     0.055 A 
ATOM     78  C   UNL A   1      38.134  32.711  38.143  1.00  0.00     0.041 A 
ATOM     79  F   UNL A   1      37.984  30.690  36.962  1.00  0.00    -0.206 F 
ATOM     80  C   UNL A   1      38.606  34.016  38.241  1.00  0.00     0.022 A 
BRANCH  77  81
ATOM     81  S   UNL A   1      40.076  36.196  37.401  1.00  0.00     0.124 S 
ATOM     82  O   UNL A   1      41.430  35.826  37.801  1.00  0.00    -0.237 OA
ATOM     83  O   UNL A   1      39.950  36.784  36.069  1.00  0.00    -0.237 OA
ATOM     84  O   UNL A   1      39.262  36.824  38.435  1.00  0.00    -0.744 OA
ENDBRANCH  77  81
ENDBRANCH  50  74
BRANCH  62  85
ATOM     85  C   UNL A   1      44.299  28.071  34.339  1.00  0.00     0.023 A 
ATOM     86  C   UNL A   1      44.168  26.965  35.204  1.00  0.00     0.031 A 
ATOM     87  C   UNL A   1      45.520  28.768  34.340  1.00  0.00     0.131 A 
ATOM     88  C   UNL A   1      45.212  26.629  36.075  1.00  0.00     0.055 A 
ATOM     89  C   UNL A   1      46.582  28.387  35.163  1.00  0.00     0.041 A 
ATOM     90  F   UNL A   1      45.696  29.838  33.548  1.00  0.00    -0.206 F 
ATOM     91  C   UNL A   1      46.423  27.325  36.050  1.00  0.00     0.022 A 
BRANCH  88  92
ATOM     92  S   UNL A   1      44.996  25.355  37.348  1.00  0.00     0.124 S 
ATOM     93  O   UNL A   1      43.990  25.961  38.217  1.00  0.00    -0.237 OA
ATOM     94  O   UNL A   1      44.536  24.213  36.563  1.00  0.00    -0.237 OA
ATOM     95  O   UNL A   1      46.324  25.217  37.938  1.00  0.00    -0.744 OA
ENDBRANCH  88  92
ENDBRANCH  62  85
ENDBRANCH  36  37
ENDBRANCH  29  31
ENDBRANCH  28  29
ENDBRANCH  27  28
ENDBRANCH  26  27
ENDBRANCH  25  26
ENDBRANCH   1  25
TORSDOF 22
ENDMDL
