MODEL 1
REMARK VINA RESULT:     -10.8      0.000      0.000
REMARK SMILES Cc1cc(C(=O)Nc2c(Cl)cc(Cl)cc2C(=O)OCCOCCOCCOC(=O)c2ccc(-c3c4nc(c(-c5cc(S(=O)(=O)[O-])ccc5F)c5ccc([nH]5)c(-c5cc(S(=O)(=O)[O-])ccc5F)c5nc(c(-c6cc(S(=O)(=O)[O-])ccc6F)c6ccc3[nH]6)C=C5)C=C4)cc2)c(C)s1
REMARK SMILES IDX 23 1 22 2 21 3 20 4 19 5 18 6 16 7 17 8 15 9 8 10 9 11 10 12
REMARK SMILES IDX 11 13 14 14 12 15 13 16 7 17 5 18 6 19 4 21 1 22 2 23 3 24
REMARK SMILES IDX 95 25 93 26 94 27 24 28 25 29 26 30 27 31 28 32 29 33 30 34
REMARK SMILES IDX 31 35 92 36 32 37 91 38 33 39 34 40 35 41 85 42 36 43 90 44
REMARK SMILES IDX 84 45 86 46 37 47 89 48 83 49 82 50 38 52 70 53 50 54 69 55
REMARK SMILES IDX 51 56 54 57 68 58 87 59 52 60 53 61 67 63 88 64 55 65 39 66
REMARK SMILES IDX 40 67 48 68 41 69 47 70 49 71 46 72 42 73 43 74 44 75 45 76
REMARK SMILES IDX 71 77 72 78 80 79 73 80 79 81 81 82 78 83 74 84 75 85 76 86
REMARK SMILES IDX 77 87 56 88 57 89 65 90 58 91 64 92 66 93 63 94 59 95 60 96
REMARK SMILES IDX 61 97 62 98
REMARK H PARENT 7 20 86 51 54 62
REMARK Flexibility Score: inf
ROOT
ATOM      1  C   UNL A   1      40.612  20.752  26.582  1.00  0.00     0.188 C 
ENDROOT
BRANCH   1   2
ATOM      2  C   UNL A   1      39.679  21.828  25.986  1.00  0.00     0.188 C 
BRANCH   2   3
ATOM      3  O   UNL A   1      38.285  21.573  25.873  1.00  0.00    -0.376 OA
BRANCH   3   4
ATOM      4  C   UNL A   1      37.385  22.628  25.560  1.00  0.00     0.202 C 
BRANCH   4   5
ATOM      5  C   UNL A   1      36.852  22.809  24.129  1.00  0.00     0.261 C 
BRANCH   5   6
ATOM      6  O   UNL A   1      35.787  23.766  23.979  1.00  0.00    -0.460 OA
BRANCH   6   7
ATOM      7  C   UNL A   1      34.693  23.316  23.321  1.00  0.00     0.340 C 
ATOM      8  O   UNL A   1      34.530  23.317  22.112  1.00  0.00    -0.246 OA
BRANCH   7   9
ATOM      9  C   UNL A   1      33.709  22.674  24.232  1.00  0.00     0.086 A 
ATOM     10  C   UNL A   1      33.021  23.319  25.280  1.00  0.00     0.075 A 
ATOM     11  C   UNL A   1      31.877  22.672  25.781  1.00  0.00     0.067 A 
ATOM     12  Cl  UNL A   1      30.618  23.536  26.601  1.00  0.00    -0.082 Cl
ATOM     13  C   UNL A   1      31.659  21.311  25.540  1.00  0.00     0.043 A 
ATOM     14  C   UNL A   1      33.492  21.305  23.992  1.00  0.00     0.038 A 
ATOM     15  C   UNL A   1      32.523  20.617  24.706  1.00  0.00     0.043 A 
ATOM     16  Cl  UNL A   1      32.370  18.918  24.528  1.00  0.00    -0.084 Cl
BRANCH  10  17
ATOM     17  N   UNL A   1      33.549  24.520  25.812  1.00  0.00    -0.320 N 
ATOM     18  C   UNL A   1      33.324  25.860  25.523  1.00  0.00     0.256 C 
ATOM     19  O   UNL A   1      34.050  26.664  26.114  1.00  0.00    -0.269 OA
ATOM     20  H   UNL A   1      34.206  24.377  26.531  1.00  0.00     0.170 HD
BRANCH  18  21
ATOM     21  C   UNL A   1      32.238  26.316  24.628  1.00  0.00     0.054 A 
ATOM     22  C   UNL A   1      28.542  26.683  23.857  1.00  0.00     0.056 C 
ATOM     23  C   UNL A   1      30.032  26.700  23.894  1.00  0.00     0.003 A 
ATOM     24  C   UNL A   1      30.869  26.609  24.985  1.00  0.00     0.029 A 
ATOM     25  S   UNL A   1      30.925  26.851  22.457  1.00  0.00    -0.145 S 
ATOM     26  C   UNL A   1      32.419  26.621  23.277  1.00  0.00     0.014 A 
ATOM     27  C   UNL A   1      33.659  26.737  22.450  1.00  0.00     0.057 C 
ENDBRANCH  18  21
ENDBRANCH  10  17
ENDBRANCH   7   9
ENDBRANCH   6   7
ENDBRANCH   5   6
ENDBRANCH   4   5
ENDBRANCH   3   4
ENDBRANCH   2   3
ENDBRANCH   1   2
BRANCH   1  28
ATOM     28  O   UNL A   1      41.640  20.346  25.710  1.00  0.00    -0.376 OA
BRANCH  28  29
ATOM     29  C   UNL A   1      42.968  20.305  26.207  1.00  0.00     0.202 C 
BRANCH  29  30
ATOM     30  C   UNL A   1      44.095  21.244  25.720  1.00  0.00     0.261 C 
BRANCH  30  31
ATOM     31  O   UNL A   1      44.096  22.606  26.166  1.00  0.00    -0.460 OA
BRANCH  31  32
ATOM     32  C   UNL A   1      43.437  23.506  25.402  1.00  0.00     0.338 C 
ATOM     33  O   UNL A   1      43.199  23.412  24.204  1.00  0.00    -0.246 OA
BRANCH  32  34
ATOM     34  C   UNL A   1      42.866  24.539  26.290  1.00  0.00     0.060 A 
ATOM     35  C   UNL A   1      43.475  25.801  26.349  1.00  0.00     0.016 A 
ATOM     36  C   UNL A   1      41.737  24.264  27.064  1.00  0.00     0.016 A 
ATOM     37  C   UNL A   1      42.965  26.787  27.197  1.00  0.00     0.010 A 
ATOM     38  C   UNL A   1      41.241  25.247  27.929  1.00  0.00     0.010 A 
ATOM     39  C   UNL A   1      41.865  26.504  28.020  1.00  0.00    -0.014 A 
BRANCH  39  40
ATOM     40  C   UNL A   1      41.476  27.451  29.097  1.00  0.00     0.031 A 
ATOM     41  C   UNL A   1      42.249  27.429  30.388  1.00  0.00     0.074 A 
ATOM     42  C   UNL A   1      40.463  28.321  28.934  1.00  0.00     0.049 A 
ATOM     43  N   UNL A   1      42.060  28.112  31.487  1.00  0.00    -0.248 NA
ATOM     44  C   UNL A   1      43.388  26.500  30.444  1.00  0.00     0.031 C 
ATOM     45  C   UNL A   1      39.674  28.479  27.714  1.00  0.00     0.029 A 
ATOM     46  N   UNL A   1      39.920  29.233  29.806  1.00  0.00    -0.354 N 
ATOM     47  C   UNL A   1      43.045  27.686  32.372  1.00  0.00     0.074 A 
ATOM     48  C   UNL A   1      43.806  26.661  31.689  1.00  0.00     0.031 C 
ATOM     49  C   UNL A   1      38.748  29.433  27.916  1.00  0.00     0.029 A 
ATOM     50  C   UNL A   1      38.846  29.920  29.291  1.00  0.00     0.049 A 
ATOM     51  H   UNL A   1      40.269  29.383  30.714  1.00  0.00     0.167 HD
ATOM     52  C   UNL A   1      43.292  28.112  33.636  1.00  0.00     0.034 A 
ATOM     53  C   UNL A   1      38.023  30.818  29.872  1.00  0.00     0.034 A 
ATOM     54  C   UNL A   1      42.515  29.127  34.307  1.00  0.00     0.049 A 
ATOM     55  C   UNL A   1      38.251  31.199  31.317  1.00  0.00     0.074 A 
ATOM     56  C   UNL A   1      42.700  29.656  35.572  1.00  0.00     0.029 A 
ATOM     57  N   UNL A   1      41.391  29.750  33.779  1.00  0.00    -0.354 N 
ATOM     58  N   UNL A   1      39.196  30.804  32.141  1.00  0.00    -0.248 NA
ATOM     59  C   UNL A   1      37.301  32.152  31.908  1.00  0.00     0.031 C 
ATOM     60  C   UNL A   1      41.637  30.525  35.843  1.00  0.00     0.029 A 
ATOM     61  C   UNL A   1      40.844  30.619  34.711  1.00  0.00     0.049 A 
ATOM     62  H   UNL A   1      41.035  29.597  32.873  1.00  0.00     0.167 HD
ATOM     63  C   UNL A   1      38.976  31.493  33.332  1.00  0.00     0.074 A 
ATOM     64  C   UNL A   1      37.814  32.331  33.117  1.00  0.00     0.031 C 
ATOM     65  C   UNL A   1      39.677  31.445  34.495  1.00  0.00     0.034 A 
BRANCH  52  66
ATOM     66  C   UNL A   1      44.405  27.425  34.393  1.00  0.00     0.023 A 
ATOM     67  C   UNL A   1      45.686  27.993  34.516  1.00  0.00     0.031 A 
ATOM     68  C   UNL A   1      44.193  26.157  34.964  1.00  0.00     0.131 A 
ATOM     69  C   UNL A   1      46.723  27.259  35.113  1.00  0.00     0.055 A 
ATOM     70  C   UNL A   1      45.205  25.472  35.638  1.00  0.00     0.041 A 
ATOM     71  F   UNL A   1      43.000  25.551  34.859  1.00  0.00    -0.206 F 
ATOM     72  C   UNL A   1      46.485  26.015  35.700  1.00  0.00     0.022 A 
BRANCH  69  73
ATOM     73  S   UNL A   1      48.421  27.878  34.956  1.00  0.00     0.124 S 
ATOM     74  O   UNL A   1      49.176  26.636  34.805  1.00  0.00    -0.237 OA
ATOM     75  O   UNL A   1      48.341  28.724  33.772  1.00  0.00    -0.237 OA
ATOM     76  O   UNL A   1      48.646  28.585  36.216  1.00  0.00    -0.744 OA
ENDBRANCH  69  73
ENDBRANCH  52  66
BRANCH  53  77
ATOM     77  C   UNL A   1      36.884  31.408  29.110  1.00  0.00     0.023 A 
ATOM     78  C   UNL A   1      35.806  30.611  28.691  1.00  0.00     0.031 A 
ATOM     79  C   UNL A   1      36.882  32.764  28.737  1.00  0.00     0.131 A 
ATOM     80  C   UNL A   1      34.796  31.164  27.888  1.00  0.00     0.055 A 
ATOM     81  C   UNL A   1      35.846  33.324  27.987  1.00  0.00     0.041 A 
ATOM     82  F   UNL A   1      37.892  33.571  29.102  1.00  0.00    -0.206 F 
ATOM     83  C   UNL A   1      34.800  32.518  27.548  1.00  0.00     0.022 A 
BRANCH  80  84
ATOM     84  S   UNL A   1      33.517  30.062  27.222  1.00  0.00     0.124 S 
ATOM     85  O   UNL A   1      32.312  30.862  27.407  1.00  0.00    -0.237 OA
ATOM     86  O   UNL A   1      33.963  29.878  25.845  1.00  0.00    -0.237 OA
ATOM     87  O   UNL A   1      33.616  28.875  28.071  1.00  0.00    -0.744 OA
ENDBRANCH  80  84
ENDBRANCH  53  77
BRANCH  65  88
ATOM     88  C   UNL A   1      39.239  32.369  35.609  1.00  0.00     0.023 A 
ATOM     89  C   UNL A   1      39.701  33.693  35.708  1.00  0.00     0.031 A 
ATOM     90  C   UNL A   1      38.347  31.909  36.596  1.00  0.00     0.131 A 
ATOM     91  C   UNL A   1      39.314  34.491  36.797  1.00  0.00     0.055 A 
ATOM     92  C   UNL A   1      37.911  32.729  37.638  1.00  0.00     0.041 A 
ATOM     93  F   UNL A   1      37.875  30.652  36.559  1.00  0.00    -0.206 F 
ATOM     94  C   UNL A   1      38.406  34.024  37.750  1.00  0.00     0.022 A 
BRANCH  91  95
ATOM     95  S   UNL A   1      40.095  36.115  37.011  1.00  0.00     0.124 S 
ATOM     96  O   UNL A   1      41.444  35.749  37.429  1.00  0.00    -0.237 OA
ATOM     97  O   UNL A   1      39.976  36.696  35.678  1.00  0.00    -0.237 OA
ATOM     98  O   UNL A   1      39.278  36.755  38.041  1.00  0.00    -0.744 OA
ENDBRANCH  91  95
ENDBRANCH  65  88
ENDBRANCH  39  40
ENDBRANCH  32  34
ENDBRANCH  31  32
ENDBRANCH  30  31
ENDBRANCH  29  30
ENDBRANCH  28  29
ENDBRANCH   1  28
TORSDOF 22
ENDMDL
MODEL 2
REMARK VINA RESULT:     -10.6      2.458      2.878
REMARK SMILES Cc1cc(C(=O)Nc2c(Cl)cc(Cl)cc2C(=O)OCCOCCOCCOC(=O)c2ccc(-c3c4nc(c(-c5cc(S(=O)(=O)[O-])ccc5F)c5ccc([nH]5)c(-c5cc(S(=O)(=O)[O-])ccc5F)c5nc(c(-c6cc(S(=O)(=O)[O-])ccc6F)c6ccc3[nH]6)C=C5)C=C4)cc2)c(C)s1
REMARK SMILES IDX 23 1 22 2 21 3 20 4 19 5 18 6 16 7 17 8 15 9 8 10 9 11 10 12
REMARK SMILES IDX 11 13 14 14 12 15 13 16 7 17 5 18 6 19 4 21 1 22 2 23 3 24
REMARK SMILES IDX 95 25 93 26 94 27 24 28 25 29 26 30 27 31 28 32 29 33 30 34
REMARK SMILES IDX 31 35 92 36 32 37 91 38 33 39 34 40 35 41 85 42 36 43 90 44
REMARK SMILES IDX 84 45 86 46 37 47 89 48 83 49 82 50 38 52 70 53 50 54 69 55
REMARK SMILES IDX 51 56 54 57 68 58 87 59 52 60 53 61 67 63 88 64 55 65 39 66
REMARK SMILES IDX 40 67 48 68 41 69 47 70 49 71 46 72 42 73 43 74 44 75 45 76
REMARK SMILES IDX 71 77 72 78 80 79 73 80 79 81 81 82 78 83 74 84 75 85 76 86
REMARK SMILES IDX 77 87 56 88 57 89 65 90 58 91 64 92 66 93 63 94 59 95 60 96
REMARK SMILES IDX 61 97 62 98
REMARK H PARENT 7 20 86 51 54 62
REMARK Flexibility Score: inf
ROOT
ATOM      1  C   UNL A   1      42.029  21.086  26.218  1.00  0.00     0.188 C 
ENDROOT
BRANCH   1   2
ATOM      2  C   UNL A   1      40.667  20.362  26.221  1.00  0.00     0.188 C 
BRANCH   2   3
ATOM      3  O   UNL A   1      39.477  21.089  25.948  1.00  0.00    -0.376 OA
BRANCH   3   4
ATOM      4  C   UNL A   1      39.258  22.361  26.545  1.00  0.00     0.202 C 
BRANCH   4   5
ATOM      5  C   UNL A   1      38.554  23.485  25.767  1.00  0.00     0.261 C 
BRANCH   5   6
ATOM      6  O   UNL A   1      37.129  23.569  25.950  1.00  0.00    -0.460 OA
BRANCH   6   7
ATOM      7  C   UNL A   1      36.393  23.461  24.819  1.00  0.00     0.340 C 
ATOM      8  O   UNL A   1      36.829  23.369  23.683  1.00  0.00    -0.246 OA
BRANCH   7   9
ATOM      9  C   UNL A   1      34.939  23.332  25.099  1.00  0.00     0.086 A 
ATOM     10  C   UNL A   1      33.901  23.643  24.198  1.00  0.00     0.075 A 
ATOM     11  C   UNL A   1      32.630  23.115  24.487  1.00  0.00     0.067 A 
ATOM     12  Cl  UNL A   1      31.429  22.885  23.259  1.00  0.00    -0.082 Cl
ATOM     13  C   UNL A   1      32.321  22.651  25.770  1.00  0.00     0.043 A 
ATOM     14  C   UNL A   1      34.628  22.869  26.391  1.00  0.00     0.038 A 
ATOM     15  C   UNL A   1      33.311  22.609  26.740  1.00  0.00     0.043 A 
ATOM     16  Cl  UNL A   1      32.918  22.200  28.358  1.00  0.00    -0.084 Cl
BRANCH  10  17
ATOM     17  N   UNL A   1      34.169  24.514  23.114  1.00  0.00    -0.320 N 
ATOM     18  C   UNL A   1      33.517  25.639  22.623  1.00  0.00     0.256 C 
ATOM     19  O   UNL A   1      33.969  26.103  21.573  1.00  0.00    -0.269 OA
ATOM     20  H   UNL A   1      34.979  24.275  22.608  1.00  0.00     0.170 HD
BRANCH  18  21
ATOM     21  C   UNL A   1      32.402  26.295  23.338  1.00  0.00     0.054 A 
ATOM     22  C   UNL A   1      28.947  27.864  23.320  1.00  0.00     0.056 C 
ATOM     23  C   UNL A   1      30.289  27.297  23.636  1.00  0.00     0.003 A 
ATOM     24  C   UNL A   1      31.015  26.356  22.938  1.00  0.00     0.029 A 
ATOM     25  S   UNL A   1      31.130  27.804  25.022  1.00  0.00    -0.145 S 
ATOM     26  C   UNL A   1      32.527  26.897  24.592  1.00  0.00     0.014 A 
ATOM     27  C   UNL A   1      33.658  26.909  25.571  1.00  0.00     0.057 C 
ENDBRANCH  18  21
ENDBRANCH  10  17
ENDBRANCH   7   9
ENDBRANCH   6   7
ENDBRANCH   5   6
ENDBRANCH   4   5
ENDBRANCH   3   4
ENDBRANCH   2   3
ENDBRANCH   1   2
BRANCH   1  28
ATOM     28  O   UNL A   1      42.972  20.518  25.340  1.00  0.00    -0.376 OA
BRANCH  28  29
ATOM     29  C   UNL A   1      44.174  21.229  25.090  1.00  0.00     0.202 C 
BRANCH  29  30
ATOM     30  C   UNL A   1      44.270  22.447  24.144  1.00  0.00     0.261 C 
BRANCH  30  31
ATOM     31  O   UNL A   1      43.665  23.682  24.549  1.00  0.00    -0.460 OA
BRANCH  31  32
ATOM     32  C   UNL A   1      44.485  24.638  25.041  1.00  0.00     0.338 C 
ATOM     33  O   UNL A   1      45.616  24.899  24.653  1.00  0.00    -0.246 OA
BRANCH  32  34
ATOM     34  C   UNL A   1      43.717  25.461  25.998  1.00  0.00     0.060 A 
ATOM     35  C   UNL A   1      43.958  26.841  26.059  1.00  0.00     0.016 A 
ATOM     36  C   UNL A   1      42.765  24.874  26.834  1.00  0.00     0.016 A 
ATOM     37  C   UNL A   1      43.259  27.635  26.971  1.00  0.00     0.010 A 
ATOM     38  C   UNL A   1      42.081  25.668  27.761  1.00  0.00     0.010 A 
ATOM     39  C   UNL A   1      42.341  27.048  27.854  1.00  0.00    -0.014 A 
BRANCH  39  40
ATOM     40  C   UNL A   1      41.785  27.835  28.985  1.00  0.00     0.031 A 
ATOM     41  C   UNL A   1      42.539  27.856  30.286  1.00  0.00     0.074 A 
ATOM     42  C   UNL A   1      40.637  28.526  28.861  1.00  0.00     0.049 A 
ATOM     43  N   UNL A   1      42.226  28.417  31.425  1.00  0.00    -0.248 NA
ATOM     44  C   UNL A   1      43.822  27.136  30.302  1.00  0.00     0.031 C 
ATOM     45  C   UNL A   1      39.843  28.631  27.639  1.00  0.00     0.029 A 
ATOM     46  N   UNL A   1      39.937  29.267  29.782  1.00  0.00    -0.354 N 
ATOM     47  C   UNL A   1      43.262  28.106  32.299  1.00  0.00     0.074 A 
ATOM     48  C   UNL A   1      44.196  27.279  31.563  1.00  0.00     0.031 C 
ATOM     49  C   UNL A   1      38.763  29.394  27.887  1.00  0.00     0.029 A 
ATOM     50  C   UNL A   1      38.764  29.792  29.294  1.00  0.00     0.049 A 
ATOM     51  H   UNL A   1      40.247  29.410  30.705  1.00  0.00     0.167 HD
ATOM     52  C   UNL A   1      43.422  28.478  33.594  1.00  0.00     0.034 A 
ATOM     53  C   UNL A   1      37.793  30.491  29.918  1.00  0.00     0.034 A 
ATOM     54  C   UNL A   1      42.474  29.294  34.317  1.00  0.00     0.049 A 
ATOM     55  C   UNL A   1      37.940  30.803  31.389  1.00  0.00     0.074 A 
ATOM     56  C   UNL A   1      42.554  29.756  35.618  1.00  0.00     0.029 A 
ATOM     57  N   UNL A   1      41.264  29.749  33.809  1.00  0.00    -0.354 N 
ATOM     58  N   UNL A   1      38.932  30.520  32.203  1.00  0.00    -0.248 NA
ATOM     59  C   UNL A   1      36.834  31.533  32.025  1.00  0.00     0.031 C 
ATOM     60  C   UNL A   1      41.355  30.407  35.926  1.00  0.00     0.029 A 
ATOM     61  C   UNL A   1      40.567  30.442  34.787  1.00  0.00     0.049 A 
ATOM     62  H   UNL A   1      40.947  29.600  32.889  1.00  0.00     0.167 HD
ATOM     63  C   UNL A   1      38.586  31.074  33.434  1.00  0.00     0.074 A 
ATOM     64  C   UNL A   1      37.298  31.713  33.253  1.00  0.00     0.031 C 
ATOM     65  C   UNL A   1      39.276  31.067  34.605  1.00  0.00     0.034 A 
BRANCH  52  66
ATOM     66  C   UNL A   1      44.631  27.943  34.325  1.00  0.00     0.023 A 
ATOM     67  C   UNL A   1      44.605  26.718  35.015  1.00  0.00     0.031 A 
ATOM     68  C   UNL A   1      45.819  28.695  34.369  1.00  0.00     0.131 A 
ATOM     69  C   UNL A   1      45.709  26.325  35.788  1.00  0.00     0.055 A 
ATOM     70  C   UNL A   1      46.947  28.254  35.065  1.00  0.00     0.041 A 
ATOM     71  F   UNL A   1      45.900  29.884  33.752  1.00  0.00    -0.206 F 
ATOM     72  C   UNL A   1      46.889  27.071  35.795  1.00  0.00     0.022 A 
BRANCH  69  73
ATOM     73  S   UNL A   1      45.516  24.920  36.919  1.00  0.00     0.124 S 
ATOM     74  O   UNL A   1      44.296  24.297  36.411  1.00  0.00    -0.237 OA
ATOM     75  O   UNL A   1      46.750  24.174  36.708  1.00  0.00    -0.237 OA
ATOM     76  O   UNL A   1      45.384  25.552  38.231  1.00  0.00    -0.744 OA
ENDBRANCH  69  73
ENDBRANCH  52  66
BRANCH  53  77
ATOM     77  C   UNL A   1      36.574  30.928  29.174  1.00  0.00     0.023 A 
ATOM     78  C   UNL A   1      36.139  32.262  29.224  1.00  0.00     0.031 A 
ATOM     79  C   UNL A   1      35.794  30.008  28.452  1.00  0.00     0.131 A 
ATOM     80  C   UNL A   1      34.936  32.631  28.602  1.00  0.00     0.055 A 
ATOM     81  C   UNL A   1      34.627  30.391  27.786  1.00  0.00     0.041 A 
ATOM     82  F   UNL A   1      36.158  28.717  28.379  1.00  0.00    -0.206 F 
ATOM     83  C   UNL A   1      34.186  31.708  27.870  1.00  0.00     0.022 A 
BRANCH  80  84
ATOM     84  S   UNL A   1      34.319  34.320  28.838  1.00  0.00     0.124 S 
ATOM     85  O   UNL A   1      32.898  34.088  29.066  1.00  0.00    -0.237 OA
ATOM     86  O   UNL A   1      35.092  34.767  29.992  1.00  0.00    -0.237 OA
ATOM     87  O   UNL A   1      34.650  34.982  27.576  1.00  0.00    -0.744 OA
ENDBRANCH  80  84
ENDBRANCH  53  77
BRANCH  65  88
ATOM     88  C   UNL A   1      38.675  31.821  35.770  1.00  0.00     0.023 A 
ATOM     89  C   UNL A   1      38.071  31.162  36.856  1.00  0.00     0.031 A 
ATOM     90  C   UNL A   1      38.703  33.228  35.787  1.00  0.00     0.131 A 
ATOM     91  C   UNL A   1      37.471  31.909  37.883  1.00  0.00     0.055 A 
ATOM     92  C   UNL A   1      38.167  33.964  36.846  1.00  0.00     0.041 A 
ATOM     93  F   UNL A   1      39.261  33.913  34.776  1.00  0.00    -0.206 F 
ATOM     94  C   UNL A   1      37.534  33.305  37.894  1.00  0.00     0.022 A 
BRANCH  91  95
ATOM     95  S   UNL A   1      36.515  31.036  39.154  1.00  0.00     0.124 S 
ATOM     96  O   UNL A   1      37.419  31.082  40.297  1.00  0.00    -0.237 OA
ATOM     97  O   UNL A   1      35.313  31.856  39.258  1.00  0.00    -0.237 OA
ATOM     98  O   UNL A   1      36.310  29.708  38.577  1.00  0.00    -0.744 OA
ENDBRANCH  91  95
ENDBRANCH  65  88
ENDBRANCH  39  40
ENDBRANCH  32  34
ENDBRANCH  31  32
ENDBRANCH  30  31
ENDBRANCH  29  30
ENDBRANCH  28  29
ENDBRANCH   1  28
TORSDOF 22
ENDMDL
MODEL 3
REMARK VINA RESULT:     -10.1      2.043      2.487
REMARK SMILES Cc1cc(C(=O)Nc2c(Cl)cc(Cl)cc2C(=O)OCCOCCOCCOC(=O)c2ccc(-c3c4nc(c(-c5cc(S(=O)(=O)[O-])ccc5F)c5ccc([nH]5)c(-c5cc(S(=O)(=O)[O-])ccc5F)c5nc(c(-c6cc(S(=O)(=O)[O-])ccc6F)c6ccc3[nH]6)C=C5)C=C4)cc2)c(C)s1
REMARK SMILES IDX 23 1 22 2 21 3 20 4 19 5 18 6 16 7 17 8 15 9 8 10 9 11 10 12
REMARK SMILES IDX 11 13 14 14 12 15 13 16 7 17 5 18 6 19 4 21 1 22 2 23 3 24
REMARK SMILES IDX 95 25 93 26 94 27 24 28 25 29 26 30 27 31 28 32 29 33 30 34
REMARK SMILES IDX 31 35 92 36 32 37 91 38 33 39 34 40 35 41 85 42 36 43 90 44
REMARK SMILES IDX 84 45 86 46 37 47 89 48 83 49 82 50 38 52 70 53 50 54 69 55
REMARK SMILES IDX 51 56 54 57 68 58 87 59 52 60 53 61 67 63 88 64 55 65 39 66
REMARK SMILES IDX 40 67 48 68 41 69 47 70 49 71 46 72 42 73 43 74 44 75 45 76
REMARK SMILES IDX 71 77 72 78 80 79 73 80 79 81 81 82 78 83 74 84 75 85 76 86
REMARK SMILES IDX 77 87 56 88 57 89 65 90 58 91 64 92 66 93 63 94 59 95 60 96
REMARK SMILES IDX 61 97 62 98
REMARK H PARENT 7 20 86 51 54 62
REMARK Flexibility Score: inf
ROOT
ATOM      1  C   UNL A   1      41.991  21.266  26.895  1.00  0.00     0.188 C 
ENDROOT
BRANCH   1   2
ATOM      2  C   UNL A   1      40.832  20.266  27.085  1.00  0.00     0.188 C 
BRANCH   2   3
ATOM      3  O   UNL A   1      39.498  20.664  26.800  1.00  0.00    -0.376 OA
BRANCH   3   4
ATOM      4  C   UNL A   1      39.245  21.834  26.032  1.00  0.00     0.202 C 
BRANCH   4   5
ATOM      5  C   UNL A   1      38.035  21.909  25.087  1.00  0.00     0.261 C 
BRANCH   5   6
ATOM      6  O   UNL A   1      36.790  22.289  25.701  1.00  0.00    -0.460 OA
BRANCH   6   7
ATOM      7  C   UNL A   1      35.855  22.782  24.855  1.00  0.00     0.340 C 
ATOM      8  O   UNL A   1      36.068  23.459  23.862  1.00  0.00    -0.246 OA
BRANCH   7   9
ATOM      9  C   UNL A   1      34.487  22.303  25.182  1.00  0.00     0.086 A 
ATOM     10  C   UNL A   1      33.394  23.123  25.529  1.00  0.00     0.075 A 
ATOM     11  C   UNL A   1      32.114  22.546  25.437  1.00  0.00     0.067 A 
ATOM     12  Cl  UNL A   1      30.685  23.507  25.241  1.00  0.00    -0.082 Cl
ATOM     13  C   UNL A   1      31.954  21.157  25.393  1.00  0.00     0.043 A 
ATOM     14  C   UNL A   1      34.327  20.906  25.141  1.00  0.00     0.038 A 
ATOM     15  C   UNL A   1      33.074  20.342  25.327  1.00  0.00     0.043 A 
ATOM     16  Cl  UNL A   1      32.909  18.638  25.436  1.00  0.00    -0.084 Cl
BRANCH  10  17
ATOM     17  N   UNL A   1      33.640  24.431  26.012  1.00  0.00    -0.320 N 
ATOM     18  C   UNL A   1      33.469  25.692  25.454  1.00  0.00     0.256 C 
ATOM     19  O   UNL A   1      33.898  26.636  26.122  1.00  0.00    -0.269 OA
ATOM     20  H   UNL A   1      34.005  24.451  26.926  1.00  0.00     0.170 HD
BRANCH  18  21
ATOM     21  C   UNL A   1      32.752  25.914  24.179  1.00  0.00     0.054 A 
ATOM     22  C   UNL A   1      32.576  25.598  20.402  1.00  0.00     0.056 C 
ATOM     23  C   UNL A   1      32.358  25.840  21.856  1.00  0.00     0.003 A 
ATOM     24  C   UNL A   1      32.931  25.202  22.934  1.00  0.00     0.029 A 
ATOM     25  S   UNL A   1      31.272  27.041  22.372  1.00  0.00    -0.145 S 
ATOM     26  C   UNL A   1      31.702  26.821  24.023  1.00  0.00     0.014 A 
ATOM     27  C   UNL A   1      30.943  27.631  25.024  1.00  0.00     0.057 C 
ENDBRANCH  18  21
ENDBRANCH  10  17
ENDBRANCH   7   9
ENDBRANCH   6   7
ENDBRANCH   5   6
ENDBRANCH   4   5
ENDBRANCH   3   4
ENDBRANCH   2   3
ENDBRANCH   1   2
BRANCH   1  28
ATOM     28  O   UNL A   1      42.942  20.858  25.941  1.00  0.00    -0.376 OA
BRANCH  28  29
ATOM     29  C   UNL A   1      44.016  21.736  25.641  1.00  0.00     0.202 C 
BRANCH  29  30
ATOM     30  C   UNL A   1      44.111  22.561  24.338  1.00  0.00     0.261 C 
BRANCH  30  31
ATOM     31  O   UNL A   1      43.695  23.933  24.361  1.00  0.00    -0.460 OA
BRANCH  31  32
ATOM     32  C   UNL A   1      44.527  24.820  24.951  1.00  0.00     0.338 C 
ATOM     33  O   UNL A   1      45.690  25.048  24.642  1.00  0.00    -0.246 OA
BRANCH  32  34
ATOM     34  C   UNL A   1      43.743  25.624  25.912  1.00  0.00     0.060 A 
ATOM     35  C   UNL A   1      43.959  27.008  25.980  1.00  0.00     0.016 A 
ATOM     36  C   UNL A   1      42.801  25.015  26.743  1.00  0.00     0.016 A 
ATOM     37  C   UNL A   1      43.244  27.785  26.895  1.00  0.00     0.010 A 
ATOM     38  C   UNL A   1      42.102  25.792  27.674  1.00  0.00     0.010 A 
ATOM     39  C   UNL A   1      42.336  27.176  27.774  1.00  0.00    -0.014 A 
BRANCH  39  40
ATOM     40  C   UNL A   1      41.764  27.947  28.907  1.00  0.00     0.031 A 
ATOM     41  C   UNL A   1      42.517  27.975  30.210  1.00  0.00     0.074 A 
ATOM     42  C   UNL A   1      40.604  28.617  28.785  1.00  0.00     0.049 A 
ATOM     43  N   UNL A   1      42.191  28.525  31.351  1.00  0.00    -0.248 NA
ATOM     44  C   UNL A   1      43.812  27.279  30.224  1.00  0.00     0.031 C 
ATOM     45  C   UNL A   1      39.809  28.714  27.563  1.00  0.00     0.029 A 
ATOM     46  N   UNL A   1      39.889  29.341  29.709  1.00  0.00    -0.354 N 
ATOM     47  C   UNL A   1      43.232  28.229  32.225  1.00  0.00     0.074 A 
ATOM     48  C   UNL A   1      44.182  27.423  31.487  1.00  0.00     0.031 C 
ATOM     49  C   UNL A   1      38.715  29.456  27.813  1.00  0.00     0.029 A 
ATOM     50  C   UNL A   1      38.707  29.847  29.222  1.00  0.00     0.049 A 
ATOM     51  H   UNL A   1      40.196  29.485  30.634  1.00  0.00     0.167 HD
ATOM     52  C   UNL A   1      43.383  28.598  33.522  1.00  0.00     0.034 A 
ATOM     53  C   UNL A   1      37.723  30.525  29.848  1.00  0.00     0.034 A 
ATOM     54  C   UNL A   1      42.420  29.392  34.247  1.00  0.00     0.049 A 
ATOM     55  C   UNL A   1      37.862  30.832  31.322  1.00  0.00     0.074 A 
ATOM     56  C   UNL A   1      42.490  29.849  35.551  1.00  0.00     0.029 A 
ATOM     57  N   UNL A   1      41.202  29.827  33.741  1.00  0.00    -0.354 N 
ATOM     58  N   UNL A   1      38.858  30.563  32.135  1.00  0.00    -0.248 NA
ATOM     59  C   UNL A   1      36.742  31.538  31.959  1.00  0.00     0.031 C 
ATOM     60  C   UNL A   1      41.279  30.477  35.861  1.00  0.00     0.029 A 
ATOM     61  C   UNL A   1      40.491  30.503  34.721  1.00  0.00     0.049 A 
ATOM     62  H   UNL A   1      40.889  29.678  32.819  1.00  0.00     0.167 HD
ATOM     63  C   UNL A   1      38.501  31.105  33.368  1.00  0.00     0.074 A 
ATOM     64  C   UNL A   1      37.202  31.721  33.189  1.00  0.00     0.031 C 
ATOM     65  C   UNL A   1      39.189  31.104  34.540  1.00  0.00     0.034 A 
BRANCH  52  66
ATOM     66  C   UNL A   1      44.602  28.081  34.252  1.00  0.00     0.023 A 
ATOM     67  C   UNL A   1      45.832  28.761  34.225  1.00  0.00     0.031 A 
ATOM     68  C   UNL A   1      44.542  26.860  34.949  1.00  0.00     0.131 A 
ATOM     69  C   UNL A   1      46.969  28.175  34.806  1.00  0.00     0.055 A 
ATOM     70  C   UNL A   1      45.654  26.329  35.604  1.00  0.00     0.041 A 
ATOM     71  F   UNL A   1      43.403  26.151  34.991  1.00  0.00    -0.206 F 
ATOM     72  C   UNL A   1      46.882  26.978  35.519  1.00  0.00     0.022 A 
BRANCH  69  73
ATOM     73  S   UNL A   1      48.591  28.913  34.466  1.00  0.00     0.124 S 
ATOM     74  O   UNL A   1      49.022  28.151  33.296  1.00  0.00    -0.237 OA
ATOM     75  O   UNL A   1      48.257  30.312  34.228  1.00  0.00    -0.237 OA
ATOM     76  O   UNL A   1      49.350  28.649  35.686  1.00  0.00    -0.744 OA
ENDBRANCH  69  73
ENDBRANCH  52  66
BRANCH  53  77
ATOM     77  C   UNL A   1      36.498  30.943  29.106  1.00  0.00     0.023 A 
ATOM     78  C   UNL A   1      36.027  32.264  29.177  1.00  0.00     0.031 A 
ATOM     79  C   UNL A   1      35.746  30.016  28.361  1.00  0.00     0.131 A 
ATOM     80  C   UNL A   1      34.817  32.612  28.555  1.00  0.00     0.055 A 
ATOM     81  C   UNL A   1      34.573  30.380  27.696  1.00  0.00     0.041 A 
ATOM     82  F   UNL A   1      36.144  28.737  28.267  1.00  0.00    -0.206 F 
ATOM     83  C   UNL A   1      34.096  31.683  27.801  1.00  0.00     0.022 A 
BRANCH  80  84
ATOM     84  S   UNL A   1      34.155  34.280  28.817  1.00  0.00     0.124 S 
ATOM     85  O   UNL A   1      32.784  34.133  28.341  1.00  0.00    -0.237 OA
ATOM     86  O   UNL A   1      34.321  34.449  30.257  1.00  0.00    -0.237 OA
ATOM     87  O   UNL A   1      35.017  35.122  27.990  1.00  0.00    -0.744 OA
ENDBRANCH  80  84
ENDBRANCH  53  77
BRANCH  65  88
ATOM     88  C   UNL A   1      38.573  31.841  35.709  1.00  0.00     0.023 A 
ATOM     89  C   UNL A   1      38.018  31.167  36.810  1.00  0.00     0.031 A 
ATOM     90  C   UNL A   1      38.537  33.248  35.713  1.00  0.00     0.131 A 
ATOM     91  C   UNL A   1      37.400  31.895  37.840  1.00  0.00     0.055 A 
ATOM     92  C   UNL A   1      37.985  33.970  36.773  1.00  0.00     0.041 A 
ATOM     93  F   UNL A   1      39.047  33.949  34.687  1.00  0.00    -0.206 F 
ATOM     94  C   UNL A   1      37.400  33.293  37.838  1.00  0.00     0.022 A 
BRANCH  91  95
ATOM     95  S   UNL A   1      36.505  30.992  39.134  1.00  0.00     0.124 S 
ATOM     96  O   UNL A   1      36.350  29.673  38.530  1.00  0.00    -0.237 OA
ATOM     97  O   UNL A   1      37.424  31.073  40.263  1.00  0.00    -0.237 OA
ATOM     98  O   UNL A   1      35.266  31.752  39.288  1.00  0.00    -0.744 OA
ENDBRANCH  91  95
ENDBRANCH  65  88
ENDBRANCH  39  40
ENDBRANCH  32  34
ENDBRANCH  31  32
ENDBRANCH  30  31
ENDBRANCH  29  30
ENDBRANCH  28  29
ENDBRANCH   1  28
TORSDOF 22
ENDMDL
