MODEL 1
REMARK VINA RESULT:     -11.2      0.000      0.000
REMARK SMILES CS(=O)(=O)c1ccc(N2N=C(C(=O)OCCOCCOCCOC(=O)c3ccc(-c4c5nc(c(-c6cc(S(=O)(=O)[O-])ccc6F)c6ccc([nH]6)c(-c6cc(S(=O)(=O)[O-])ccc6F)c6nc(c(-c7cc(S(=O)(=O)[O-])ccc7F)c7ccc4[nH]7)C=C6)C=C5)cc3)C[C@H]2c2cccs2)cc1
REMARK SMILES IDX 19 1 18 2 17 3 16 4 15 5 14 6 12 7 13 8 11 9 9 10 10 11
REMARK SMILES IDX 90 12 89 13 8 14 5 15 6 16 97 17 7 18 96 19 2 20 1 21 3 22
REMARK SMILES IDX 4 23 91 24 92 25 95 26 93 27 94 28 20 29 21 30 22 31 23 32
REMARK SMILES IDX 24 33 25 34 26 35 27 36 88 37 28 38 87 39 29 40 30 41 31 42
REMARK SMILES IDX 81 43 32 44 86 45 80 46 82 47 33 48 85 49 79 50 78 51 34 53
REMARK SMILES IDX 66 54 46 55 65 56 47 57 50 58 64 59 83 60 48 61 49 62 63 64
REMARK SMILES IDX 84 65 51 66 35 67 36 68 44 69 37 70 43 71 45 72 42 73 38 74
REMARK SMILES IDX 39 75 40 76 41 77 67 78 68 79 76 80 69 81 75 82 77 83 74 84
REMARK SMILES IDX 70 85 71 86 72 87 73 88 52 89 53 90 61 91 54 92 60 93 62 94
REMARK SMILES IDX 59 95 55 96 56 97 57 98 58 99
REMARK H PARENT 82 52 50 63
REMARK Flexibility Score: inf
ROOT
ATOM      1  C   UNL A   1      31.796  28.947  26.089  1.00  0.00     0.188 C 
ENDROOT
BRANCH   1   2
ATOM      2  C   UNL A   1      31.737  29.125  24.558  1.00  0.00     0.188 C 
BRANCH   2   3
ATOM      3  O   UNL A   1      30.480  29.014  23.899  1.00  0.00    -0.376 OA
BRANCH   3   4
ATOM      4  C   UNL A   1      30.404  28.402  22.617  1.00  0.00     0.202 C 
BRANCH   4   5
ATOM      5  C   UNL A   1      31.024  27.015  22.373  1.00  0.00     0.261 C 
BRANCH   5   6
ATOM      6  O   UNL A   1      32.446  27.036  22.178  1.00  0.00    -0.459 OA
BRANCH   6   7
ATOM      7  C   UNL A   1      32.969  25.932  21.603  1.00  0.00     0.354 C 
ATOM      8  O   UNL A   1      33.123  25.711  20.425  1.00  0.00    -0.245 OA
BRANCH   7   9
ATOM      9  C   UNL A   1      33.447  24.980  22.678  1.00  0.00     0.148 C 
ATOM     10  N   UNL A   1      33.928  23.180  23.690  1.00  0.00    -0.256 N 
ATOM     11  N   UNL A   1      33.564  23.702  22.478  1.00  0.00    -0.169 NA
ATOM     12  C   UNL A   1      33.675  24.144  24.786  1.00  0.00     0.154 C 
ATOM     13  C   UNL A   1      33.858  25.470  24.031  1.00  0.00     0.099 C 
BRANCH  10  14
ATOM     14  C   UNL A   1      33.876  21.799  23.862  1.00  0.00     0.060 A 
ATOM     15  C   UNL A   1      33.756  19.017  24.288  1.00  0.00     0.067 A 
ATOM     16  C   UNL A   1      34.867  19.738  24.730  1.00  0.00     0.022 A 
ATOM     17  C   UNL A   1      32.736  19.658  23.584  1.00  0.00     0.022 A 
ATOM     18  C   UNL A   1      34.914  21.125  24.525  1.00  0.00     0.029 A 
ATOM     19  C   UNL A   1      32.813  21.035  23.361  1.00  0.00     0.029 A 
BRANCH  15  20
ATOM     20  S   UNL A   1      33.659  17.259  24.545  1.00  0.00     0.175 S 
ATOM     21  C   UNL A   1      32.324  17.083  25.698  1.00  0.00     0.163 C 
ATOM     22  O   UNL A   1      34.872  16.837  25.217  1.00  0.00    -0.224 OA
ATOM     23  O   UNL A   1      33.227  16.654  23.301  1.00  0.00    -0.224 OA
ENDBRANCH  15  20
ENDBRANCH  10  14
BRANCH  12  24
ATOM     24  C   UNL A   1      32.328  24.042  25.502  1.00  0.00     0.030 A 
ATOM     25  C   UNL A   1      31.288  24.956  25.449  1.00  0.00     0.017 A 
ATOM     26  S   UNL A   1      31.921  22.735  26.548  1.00  0.00    -0.147 S 
ATOM     27  C   UNL A   1      30.190  24.597  26.285  1.00  0.00     0.012 A 
ATOM     28  C   UNL A   1      30.396  23.393  26.915  1.00  0.00     0.065 A 
ENDBRANCH  12  24
ENDBRANCH   7   9
ENDBRANCH   6   7
ENDBRANCH   5   6
ENDBRANCH   4   5
ENDBRANCH   3   4
ENDBRANCH   2   3
ENDBRANCH   1   2
BRANCH   1  29
ATOM     29  O   UNL A   1      31.982  30.136  26.819  1.00  0.00    -0.376 OA
BRANCH  29  30
ATOM     30  C   UNL A   1      31.274  31.301  26.421  1.00  0.00     0.202 C 
BRANCH  30  31
ATOM     31  C   UNL A   1      31.616  32.740  26.872  1.00  0.00     0.261 C 
BRANCH  31  32
ATOM     32  O   UNL A   1      32.977  33.178  26.812  1.00  0.00    -0.460 OA
BRANCH  32  33
ATOM     33  C   UNL A   1      33.477  33.770  27.924  1.00  0.00     0.338 C 
ATOM     34  O   UNL A   1      32.950  34.651  28.578  1.00  0.00    -0.246 OA
BRANCH  33  35
ATOM     35  C   UNL A   1      34.682  33.016  28.338  1.00  0.00     0.060 A 
ATOM     36  C   UNL A   1      34.574  31.640  28.586  1.00  0.00     0.016 A 
ATOM     37  C   UNL A   1      35.909  33.665  28.477  1.00  0.00     0.016 A 
ATOM     38  C   UNL A   1      35.693  30.911  28.990  1.00  0.00     0.010 A 
ATOM     39  C   UNL A   1      37.023  32.937  28.908  1.00  0.00     0.010 A 
ATOM     40  C   UNL A   1      36.915  31.563  29.192  1.00  0.00    -0.014 A 
BRANCH  40  41
ATOM     41  C   UNL A   1      38.030  30.859  29.877  1.00  0.00     0.031 A 
ATOM     42  C   UNL A   1      38.310  31.201  31.316  1.00  0.00     0.074 A 
ATOM     43  C   UNL A   1      38.768  29.928  29.246  1.00  0.00     0.049 A 
ATOM     44  N   UNL A   1      39.275  30.794  32.098  1.00  0.00    -0.248 NA
ATOM     45  C   UNL A   1      37.372  32.139  31.953  1.00  0.00     0.031 C 
ATOM     46  C   UNL A   1      38.554  29.466  27.876  1.00  0.00     0.029 A 
ATOM     47  N   UNL A   1      39.858  29.211  29.676  1.00  0.00    -0.354 N 
ATOM     48  C   UNL A   1      39.068  31.430  33.317  1.00  0.00     0.074 A 
ATOM     49  C   UNL A   1      37.908  32.281  33.156  1.00  0.00     0.031 C 
ATOM     50  C   UNL A   1      39.491  28.552  27.574  1.00  0.00     0.029 A 
ATOM     51  C   UNL A   1      40.400  28.397  28.709  1.00  0.00     0.049 A 
ATOM     52  H   UNL A   1      40.217  29.274  30.591  1.00  0.00     0.167 HD
ATOM     53  C   UNL A   1      39.777  31.310  34.466  1.00  0.00     0.034 A 
ATOM     54  C   UNL A   1      41.519  27.642  28.729  1.00  0.00     0.034 A 
ATOM     55  C   UNL A   1      40.941  30.469  34.604  1.00  0.00     0.049 A 
ATOM     56  C   UNL A   1      42.358  27.608  29.988  1.00  0.00     0.074 A 
ATOM     57  C   UNL A   1      41.730  30.267  35.723  1.00  0.00     0.029 A 
ATOM     58  N   UNL A   1      41.493  29.700  33.587  1.00  0.00    -0.354 N 
ATOM     59  N   UNL A   1      42.157  28.219  31.135  1.00  0.00    -0.248 NA
ATOM     60  C   UNL A   1      43.571  26.780  29.956  1.00  0.00     0.031 C 
ATOM     61  C   UNL A   1      42.804  29.449  35.361  1.00  0.00     0.029 A 
ATOM     62  C   UNL A   1      42.636  29.058  34.042  1.00  0.00     0.049 A 
ATOM     63  H   UNL A   1      41.127  29.623  32.676  1.00  0.00     0.167 HD
ATOM     64  C   UNL A   1      43.199  27.814  31.968  1.00  0.00     0.074 A 
ATOM     65  C   UNL A   1      44.017  26.903  31.197  1.00  0.00     0.031 C 
ATOM     66  C   UNL A   1      43.452  28.158  33.258  1.00  0.00     0.034 A 
BRANCH  53  67
ATOM     67  C   UNL A   1      39.344  32.157  35.640  1.00  0.00     0.023 A 
ATOM     68  C   UNL A   1      39.818  33.468  35.826  1.00  0.00     0.031 A 
ATOM     69  C   UNL A   1      38.469  31.631  36.607  1.00  0.00     0.131 A 
ATOM     70  C   UNL A   1      39.473  34.179  36.985  1.00  0.00     0.055 A 
ATOM     71  C   UNL A   1      38.061  32.376  37.715  1.00  0.00     0.041 A 
ATOM     72  F   UNL A   1      38.006  30.376  36.500  1.00  0.00    -0.206 F 
ATOM     73  C   UNL A   1      38.574  33.653  37.917  1.00  0.00     0.022 A 
BRANCH  70  74
ATOM     74  S   UNL A   1      40.332  35.738  37.336  1.00  0.00     0.124 S 
ATOM     75  O   UNL A   1      39.727  36.636  36.355  1.00  0.00    -0.237 OA
ATOM     76  O   UNL A   1      39.983  35.986  38.729  1.00  0.00    -0.237 OA
ATOM     77  O   UNL A   1      41.738  35.418  37.091  1.00  0.00    -0.744 OA
ENDBRANCH  70  74
ENDBRANCH  53  67
BRANCH  54  78
ATOM     78  C   UNL A   1      41.956  26.897  27.509  1.00  0.00     0.023 A 
ATOM     79  C   UNL A   1      41.744  25.514  27.382  1.00  0.00     0.031 A 
ATOM     80  C   UNL A   1      42.660  27.550  26.481  1.00  0.00     0.131 A 
ATOM     81  C   UNL A   1      42.276  24.822  26.282  1.00  0.00     0.055 A 
ATOM     82  C   UNL A   1      43.130  26.869  25.357  1.00  0.00     0.041 A 
ATOM     83  F   UNL A   1      42.906  28.868  26.556  1.00  0.00    -0.206 F 
ATOM     84  C   UNL A   1      42.951  25.493  25.259  1.00  0.00     0.022 A 
BRANCH  81  85
ATOM     85  S   UNL A   1      42.176  23.010  26.258  1.00  0.00     0.124 S 
ATOM     86  O   UNL A   1      42.651  22.704  24.912  1.00  0.00    -0.237 OA
ATOM     87  O   UNL A   1      43.065  22.639  27.352  1.00  0.00    -0.237 OA
ATOM     88  O   UNL A   1      40.757  22.744  26.493  1.00  0.00    -0.744 OA
ENDBRANCH  81  85
ENDBRANCH  54  78
BRANCH  66  89
ATOM     89  C   UNL A   1      44.635  27.501  33.933  1.00  0.00     0.023 A 
ATOM     90  C   UNL A   1      44.560  26.206  34.478  1.00  0.00     0.031 A 
ATOM     91  C   UNL A   1      45.861  28.186  34.032  1.00  0.00     0.131 A 
ATOM     92  C   UNL A   1      45.667  25.663  35.147  1.00  0.00     0.055 A 
ATOM     93  C   UNL A   1      46.979  27.613  34.638  1.00  0.00     0.041 A 
ATOM     94  F   UNL A   1      45.994  29.425  33.532  1.00  0.00    -0.206 F 
ATOM     95  C   UNL A   1      46.882  26.349  35.213  1.00  0.00     0.022 A 
BRANCH  92  96
ATOM     96  S   UNL A   1      45.473  24.083  36.019  1.00  0.00     0.124 S 
ATOM     97  O   UNL A   1      45.771  24.457  37.397  1.00  0.00    -0.237 OA
ATOM     98  O   UNL A   1      44.084  23.739  35.737  1.00  0.00    -0.237 OA
ATOM     99  O   UNL A   1      46.465  23.217  35.384  1.00  0.00    -0.744 OA
ENDBRANCH  92  96
ENDBRANCH  66  89
ENDBRANCH  40  41
ENDBRANCH  33  35
ENDBRANCH  32  33
ENDBRANCH  31  32
ENDBRANCH  30  31
ENDBRANCH  29  30
ENDBRANCH   1  29
TORSDOF 23
ENDMDL
MODEL 2
REMARK VINA RESULT:      -9.5      6.158     12.361
REMARK SMILES CS(=O)(=O)c1ccc(N2N=C(C(=O)OCCOCCOCCOC(=O)c3ccc(-c4c5nc(c(-c6cc(S(=O)(=O)[O-])ccc6F)c6ccc([nH]6)c(-c6cc(S(=O)(=O)[O-])ccc6F)c6nc(c(-c7cc(S(=O)(=O)[O-])ccc7F)c7ccc4[nH]7)C=C6)C=C5)cc3)C[C@H]2c2cccs2)cc1
REMARK SMILES IDX 19 1 18 2 17 3 16 4 15 5 14 6 12 7 13 8 11 9 9 10 10 11
REMARK SMILES IDX 90 12 89 13 8 14 5 15 6 16 97 17 7 18 96 19 2 20 1 21 3 22
REMARK SMILES IDX 4 23 91 24 92 25 95 26 93 27 94 28 20 29 21 30 22 31 23 32
REMARK SMILES IDX 24 33 25 34 26 35 27 36 88 37 28 38 87 39 29 40 30 41 31 42
REMARK SMILES IDX 81 43 32 44 86 45 80 46 82 47 33 48 85 49 79 50 78 51 34 53
REMARK SMILES IDX 66 54 46 55 65 56 47 57 50 58 64 59 83 60 48 61 49 62 63 64
REMARK SMILES IDX 84 65 51 66 35 67 36 68 44 69 37 70 43 71 45 72 42 73 38 74
REMARK SMILES IDX 39 75 40 76 41 77 67 78 68 79 76 80 69 81 75 82 77 83 74 84
REMARK SMILES IDX 70 85 71 86 72 87 73 88 52 89 53 90 61 91 54 92 60 93 62 94
REMARK SMILES IDX 59 95 55 96 56 97 57 98 58 99
REMARK H PARENT 82 52 50 63
REMARK Flexibility Score: inf
ROOT
ATOM      1  C   UNL A   1      42.062  19.487  25.849  1.00  0.00     0.188 C 
ENDROOT
BRANCH   1   2
ATOM      2  C   UNL A   1      42.918  18.239  26.143  1.00  0.00     0.188 C 
BRANCH   2   3
ATOM      3  O   UNL A   1      44.304  18.260  25.816  1.00  0.00    -0.376 OA
BRANCH   3   4
ATOM      4  C   UNL A   1      44.780  19.139  24.804  1.00  0.00     0.202 C 
BRANCH   4   5
ATOM      5  C   UNL A   1      45.767  20.268  25.148  1.00  0.00     0.261 C 
BRANCH   5   6
ATOM      6  O   UNL A   1      45.645  21.427  24.311  1.00  0.00    -0.459 OA
BRANCH   6   7
ATOM      7  C   UNL A   1      45.104  22.515  24.901  1.00  0.00     0.354 C 
ATOM      8  O   UNL A   1      43.936  22.739  25.116  1.00  0.00    -0.245 OA
BRANCH   7   9
ATOM      9  C   UNL A   1      46.207  23.440  25.365  1.00  0.00     0.148 C 
ATOM     10  N   UNL A   1      47.552  24.474  26.637  1.00  0.00    -0.256 N 
ATOM     11  N   UNL A   1      46.630  23.464  26.593  1.00  0.00    -0.169 NA
ATOM     12  C   UNL A   1      47.433  25.359  25.455  1.00  0.00     0.154 C 
ATOM     13  C   UNL A   1      46.913  24.356  24.414  1.00  0.00     0.099 C 
BRANCH  10  14
ATOM     14  C   UNL A   1      47.992  24.919  27.882  1.00  0.00     0.060 A 
ATOM     15  C   UNL A   1      48.856  25.748  30.431  1.00  0.00     0.067 A 
ATOM     16  C   UNL A   1      47.492  25.741  30.131  1.00  0.00     0.022 A 
ATOM     17  C   UNL A   1      49.793  25.405  29.457  1.00  0.00     0.022 A 
ATOM     18  C   UNL A   1      47.069  25.316  28.862  1.00  0.00     0.029 A 
ATOM     19  C   UNL A   1      49.356  25.013  28.189  1.00  0.00     0.029 A 
BRANCH  15  20
ATOM     20  S   UNL A   1      49.424  26.268  32.035  1.00  0.00     0.175 S 
ATOM     21  C   UNL A   1      48.400  27.666  32.404  1.00  0.00     0.163 C 
ATOM     22  O   UNL A   1      50.784  26.750  31.894  1.00  0.00    -0.224 OA
ATOM     23  O   UNL A   1      49.080  25.228  32.984  1.00  0.00    -0.224 OA
ENDBRANCH  15  20
ENDBRANCH  10  14
BRANCH  12  24
ATOM     24  C   UNL A   1      46.542  26.593  25.598  1.00  0.00     0.030 A 
ATOM     25  C   UNL A   1      45.174  26.609  25.818  1.00  0.00     0.017 A 
ATOM     26  S   UNL A   1      47.143  28.202  25.463  1.00  0.00    -0.147 S 
ATOM     27  C   UNL A   1      44.630  27.926  25.839  1.00  0.00     0.012 A 
ATOM     28  C   UNL A   1      45.602  28.886  25.689  1.00  0.00     0.065 A 
ENDBRANCH  12  24
ENDBRANCH   7   9
ENDBRANCH   6   7
ENDBRANCH   5   6
ENDBRANCH   4   5
ENDBRANCH   3   4
ENDBRANCH   2   3
ENDBRANCH   1   2
BRANCH   1  29
ATOM     29  O   UNL A   1      41.021  19.723  26.769  1.00  0.00    -0.376 OA
BRANCH  29  30
ATOM     30  C   UNL A   1      41.097  20.863  27.610  1.00  0.00     0.202 C 
BRANCH  30  31
ATOM     31  C   UNL A   1      42.397  21.628  27.949  1.00  0.00     0.261 C 
BRANCH  31  32
ATOM     32  O   UNL A   1      42.384  22.570  29.026  1.00  0.00    -0.460 OA
BRANCH  32  33
ATOM     33  C   UNL A   1      43.577  23.107  29.383  1.00  0.00     0.338 C 
ATOM     34  O   UNL A   1      44.650  22.534  29.418  1.00  0.00    -0.246 OA
BRANCH  33  35
ATOM     35  C   UNL A   1      43.393  24.570  29.518  1.00  0.00     0.060 A 
ATOM     36  C   UNL A   1      42.741  25.273  28.495  1.00  0.00     0.016 A 
ATOM     37  C   UNL A   1      43.863  25.239  30.648  1.00  0.00     0.016 A 
ATOM     38  C   UNL A   1      42.569  26.655  28.595  1.00  0.00     0.010 A 
ATOM     39  C   UNL A   1      43.713  26.627  30.733  1.00  0.00     0.010 A 
ATOM     40  C   UNL A   1      43.090  27.346  29.696  1.00  0.00    -0.014 A 
BRANCH  40  41
ATOM     41  C   UNL A   1      43.154  28.830  29.679  1.00  0.00     0.031 A 
ATOM     42  C   UNL A   1      41.881  29.600  29.907  1.00  0.00     0.074 A 
ATOM     43  C   UNL A   1      44.314  29.482  29.481  1.00  0.00     0.049 A 
ATOM     44  N   UNL A   1      41.662  30.887  29.851  1.00  0.00    -0.248 NA
ATOM     45  C   UNL A   1      40.691  28.799  30.237  1.00  0.00     0.031 C 
ATOM     46  C   UNL A   1      45.621  28.850  29.312  1.00  0.00     0.029 A 
ATOM     47  N   UNL A   1      44.575  30.827  29.378  1.00  0.00    -0.354 N 
ATOM     48  C   UNL A   1      40.310  31.054  30.130  1.00  0.00     0.074 A 
ATOM     49  C   UNL A   1      39.753  29.731  30.315  1.00  0.00     0.031 C 
ATOM     50  C   UNL A   1      46.544  29.806  29.113  1.00  0.00     0.029 A 
ATOM     51  C   UNL A   1      45.890  31.114  29.094  1.00  0.00     0.049 A 
ATOM     52  H   UNL A   1      43.885  31.520  29.497  1.00  0.00     0.167 HD
ATOM     53  C   UNL A   1      39.602  32.205  30.229  1.00  0.00     0.034 A 
ATOM     54  C   UNL A   1      46.487  32.292  28.818  1.00  0.00     0.034 A 
ATOM     55  C   UNL A   1      40.171  33.515  30.026  1.00  0.00     0.049 A 
ATOM     56  C   UNL A   1      45.654  33.556  28.825  1.00  0.00     0.074 A 
ATOM     57  C   UNL A   1      39.547  34.747  30.108  1.00  0.00     0.029 A 
ATOM     58  N   UNL A   1      41.496  33.764  29.686  1.00  0.00    -0.354 N 
ATOM     59  N   UNL A   1      44.373  33.703  29.083  1.00  0.00    -0.248 NA
ATOM     60  C   UNL A   1      46.348  34.811  28.508  1.00  0.00     0.031 C 
ATOM     61  C   UNL A   1      40.468  35.731  29.734  1.00  0.00     0.029 A 
ATOM     62  C   UNL A   1      41.695  35.126  29.513  1.00  0.00     0.049 A 
ATOM     63  H   UNL A   1      42.190  33.075  29.583  1.00  0.00     0.167 HD
ATOM     64  C   UNL A   1      44.123  35.072  28.998  1.00  0.00     0.074 A 
ATOM     65  C   UNL A   1      45.383  35.704  28.673  1.00  0.00     0.031 C 
ATOM     66  C   UNL A   1      42.957  35.746  29.178  1.00  0.00     0.034 A 
BRANCH  53  67
ATOM     67  C   UNL A   1      38.122  32.088  30.510  1.00  0.00     0.023 A 
ATOM     68  C   UNL A   1      37.160  32.218  29.493  1.00  0.00     0.031 A 
ATOM     69  C   UNL A   1      37.666  31.874  31.823  1.00  0.00     0.131 A 
ATOM     70  C   UNL A   1      35.794  32.207  29.816  1.00  0.00     0.055 A 
ATOM     71  C   UNL A   1      36.307  31.778  32.125  1.00  0.00     0.041 A 
ATOM     72  F   UNL A   1      38.535  31.770  32.840  1.00  0.00    -0.206 F 
ATOM     73  C   UNL A   1      35.361  31.959  31.121  1.00  0.00     0.022 A 
BRANCH  70  74
ATOM     74  S   UNL A   1      34.595  32.673  28.537  1.00  0.00     0.124 S 
ATOM     75  O   UNL A   1      34.022  31.378  28.182  1.00  0.00    -0.237 OA
ATOM     76  O   UNL A   1      33.712  33.589  29.248  1.00  0.00    -0.237 OA
ATOM     77  O   UNL A   1      35.422  33.285  27.497  1.00  0.00    -0.744 OA
ENDBRANCH  70  74
ENDBRANCH  53  67
BRANCH  54  78
ATOM     78  C   UNL A   1      47.935  32.344  28.453  1.00  0.00     0.023 A 
ATOM     79  C   UNL A   1      48.918  32.665  29.403  1.00  0.00     0.031 A 
ATOM     80  C   UNL A   1      48.349  32.144  27.123  1.00  0.00     0.131 A 
ATOM     81  C   UNL A   1      50.254  32.827  29.002  1.00  0.00     0.055 A 
ATOM     82  C   UNL A   1      49.689  32.242  26.741  1.00  0.00     0.041 A 
ATOM     83  F   UNL A   1      47.452  31.851  26.168  1.00  0.00    -0.206 F 
ATOM     84  C   UNL A   1      50.649  32.600  27.682  1.00  0.00     0.022 A 
BRANCH  81  85
ATOM     85  S   UNL A   1      51.458  33.455  30.207  1.00  0.00     0.124 S 
ATOM     86  O   UNL A   1      52.724  33.106  29.571  1.00  0.00    -0.237 OA
ATOM     87  O   UNL A   1      51.133  34.876  30.254  1.00  0.00    -0.237 OA
ATOM     88  O   UNL A   1      51.146  32.706  31.423  1.00  0.00    -0.744 OA
ENDBRANCH  81  85
ENDBRANCH  54  78
BRANCH  66  89
ATOM     89  C   UNL A   1      43.006  37.255  29.083  1.00  0.00     0.023 A 
ATOM     90  C   UNL A   1      43.433  38.057  30.157  1.00  0.00     0.031 A 
ATOM     91  C   UNL A   1      42.615  37.899  27.895  1.00  0.00     0.131 A 
ATOM     92  C   UNL A   1      43.404  39.455  30.040  1.00  0.00     0.055 A 
ATOM     93  C   UNL A   1      42.654  39.288  27.761  1.00  0.00     0.041 A 
ATOM     94  F   UNL A   1      42.197  37.187  26.836  1.00  0.00    -0.206 F 
ATOM     95  C   UNL A   1      43.036  40.075  28.843  1.00  0.00     0.022 A 
BRANCH  92  96
ATOM     96  S   UNL A   1      43.760  40.463  31.507  1.00  0.00     0.124 S 
ATOM     97  O   UNL A   1      42.422  40.746  32.014  1.00  0.00    -0.237 OA
ATOM     98  O   UNL A   1      44.571  39.559  32.317  1.00  0.00    -0.237 OA
ATOM     99  O   UNL A   1      44.475  41.617  30.965  1.00  0.00    -0.744 OA
ENDBRANCH  92  96
ENDBRANCH  66  89
ENDBRANCH  40  41
ENDBRANCH  33  35
ENDBRANCH  32  33
ENDBRANCH  31  32
ENDBRANCH  30  31
ENDBRANCH  29  30
ENDBRANCH   1  29
TORSDOF 23
ENDMDL
MODEL 3
REMARK VINA RESULT:      -9.3      4.245      6.816
REMARK SMILES CS(=O)(=O)c1ccc(N2N=C(C(=O)OCCOCCOCCOC(=O)c3ccc(-c4c5nc(c(-c6cc(S(=O)(=O)[O-])ccc6F)c6ccc([nH]6)c(-c6cc(S(=O)(=O)[O-])ccc6F)c6nc(c(-c7cc(S(=O)(=O)[O-])ccc7F)c7ccc4[nH]7)C=C6)C=C5)cc3)C[C@H]2c2cccs2)cc1
REMARK SMILES IDX 19 1 18 2 17 3 16 4 15 5 14 6 12 7 13 8 11 9 9 10 10 11
REMARK SMILES IDX 90 12 89 13 8 14 5 15 6 16 97 17 7 18 96 19 2 20 1 21 3 22
REMARK SMILES IDX 4 23 91 24 92 25 95 26 93 27 94 28 20 29 21 30 22 31 23 32
REMARK SMILES IDX 24 33 25 34 26 35 27 36 88 37 28 38 87 39 29 40 30 41 31 42
REMARK SMILES IDX 81 43 32 44 86 45 80 46 82 47 33 48 85 49 79 50 78 51 34 53
REMARK SMILES IDX 66 54 46 55 65 56 47 57 50 58 64 59 83 60 48 61 49 62 63 64
REMARK SMILES IDX 84 65 51 66 35 67 36 68 44 69 37 70 43 71 45 72 42 73 38 74
REMARK SMILES IDX 39 75 40 76 41 77 67 78 68 79 76 80 69 81 75 82 77 83 74 84
REMARK SMILES IDX 70 85 71 86 72 87 73 88 52 89 53 90 61 91 54 92 60 93 62 94
REMARK SMILES IDX 59 95 55 96 56 97 57 98 58 99
REMARK H PARENT 82 52 50 63
REMARK Flexibility Score: inf
ROOT
ATOM      1  C   UNL A   1      37.084  30.940  31.335  1.00  0.00     0.188 C 
ENDROOT
BRANCH   1   2
ATOM      2  C   UNL A   1      37.021  29.415  31.118  1.00  0.00     0.188 C 
BRANCH   2   3
ATOM      3  O   UNL A   1      37.218  28.896  29.807  1.00  0.00    -0.376 OA
BRANCH   3   4
ATOM      4  C   UNL A   1      37.532  29.776  28.735  1.00  0.00     0.202 C 
BRANCH   4   5
ATOM      5  C   UNL A   1      36.487  30.096  27.652  1.00  0.00     0.261 C 
BRANCH   5   6
ATOM      6  O   UNL A   1      35.390  29.171  27.607  1.00  0.00    -0.459 OA
BRANCH   6   7
ATOM      7  C   UNL A   1      34.207  29.692  27.213  1.00  0.00     0.354 C 
ATOM      8  O   UNL A   1      33.951  30.847  26.967  1.00  0.00    -0.245 OA
BRANCH   7   9
ATOM      9  C   UNL A   1      33.202  28.578  27.025  1.00  0.00     0.148 C 
ATOM     10  N   UNL A   1      32.384  26.670  26.592  1.00  0.00    -0.256 N 
ATOM     11  N   UNL A   1      33.555  27.351  26.789  1.00  0.00    -0.169 NA
ATOM     12  C   UNL A   1      31.260  27.602  26.339  1.00  0.00     0.154 C 
ATOM     13  C   UNL A   1      31.730  28.822  27.145  1.00  0.00     0.099 C 
BRANCH  10  14
ATOM     14  C   UNL A   1      32.443  25.384  26.060  1.00  0.00     0.060 A 
ATOM     15  C   UNL A   1      32.626  22.767  25.034  1.00  0.00     0.067 A 
ATOM     16  C   UNL A   1      33.580  23.721  24.673  1.00  0.00     0.022 A 
ATOM     17  C   UNL A   1      31.552  23.121  25.850  1.00  0.00     0.022 A 
ATOM     18  C   UNL A   1      33.489  25.019  25.197  1.00  0.00     0.029 A 
ATOM     19  C   UNL A   1      31.458  24.427  26.339  1.00  0.00     0.029 A 
BRANCH  15  20
ATOM     20  S   UNL A   1      32.721  21.109  24.398  1.00  0.00     0.175 S 
ATOM     21  C   UNL A   1      34.389  20.625  24.751  1.00  0.00     0.163 C 
ATOM     22  O   UNL A   1      32.583  21.173  22.956  1.00  0.00    -0.224 OA
ATOM     23  O   UNL A   1      31.857  20.275  25.209  1.00  0.00    -0.224 OA
ENDBRANCH  15  20
ENDBRANCH  10  14
BRANCH  12  24
ATOM     24  C   UNL A   1      30.947  27.931  24.879  1.00  0.00     0.030 A 
ATOM     25  C   UNL A   1      30.489  27.053  23.910  1.00  0.00     0.017 A 
ATOM     26  S   UNL A   1      31.166  29.501  24.207  1.00  0.00    -0.147 S 
ATOM     27  C   UNL A   1      30.356  27.662  22.628  1.00  0.00     0.012 A 
ATOM     28  C   UNL A   1      30.664  29.001  22.660  1.00  0.00     0.065 A 
ENDBRANCH  12  24
ENDBRANCH   7   9
ENDBRANCH   6   7
ENDBRANCH   5   6
ENDBRANCH   4   5
ENDBRANCH   3   4
ENDBRANCH   2   3
ENDBRANCH   1   2
BRANCH   1  29
ATOM     29  O   UNL A   1      35.835  31.569  31.500  1.00  0.00    -0.376 OA
BRANCH  29  30
ATOM     30  C   UNL A   1      35.428  32.543  30.551  1.00  0.00     0.202 C 
BRANCH  30  31
ATOM     31  C   UNL A   1      34.684  33.854  30.893  1.00  0.00     0.261 C 
BRANCH  31  32
ATOM     32  O   UNL A   1      34.438  34.170  32.268  1.00  0.00    -0.460 OA
BRANCH  32  33
ATOM     33  C   UNL A   1      35.220  35.130  32.822  1.00  0.00     0.338 C 
ATOM     34  O   UNL A   1      34.958  36.315  32.916  1.00  0.00    -0.246 OA
BRANCH  33  35
ATOM     35  C   UNL A   1      36.356  34.459  33.492  1.00  0.00     0.060 A 
ATOM     36  C   UNL A   1      36.101  33.579  34.553  1.00  0.00     0.016 A 
ATOM     37  C   UNL A   1      37.665  34.698  33.071  1.00  0.00     0.016 A 
ATOM     38  C   UNL A   1      37.159  32.945  35.208  1.00  0.00     0.010 A 
ATOM     39  C   UNL A   1      38.725  34.082  33.746  1.00  0.00     0.010 A 
ATOM     40  C   UNL A   1      38.479  33.224  34.834  1.00  0.00    -0.014 A 
BRANCH  40  41
ATOM     41  C   UNL A   1      39.605  32.774  35.691  1.00  0.00     0.031 A 
ATOM     42  C   UNL A   1      39.981  33.622  36.876  1.00  0.00     0.074 A 
ATOM     43  C   UNL A   1      40.273  31.634  35.436  1.00  0.00     0.049 A 
ATOM     44  N   UNL A   1      40.974  33.492  37.715  1.00  0.00    -0.248 NA
ATOM     45  C   UNL A   1      39.114  34.782  37.143  1.00  0.00     0.031 C 
ATOM     46  C   UNL A   1      39.962  30.697  34.358  1.00  0.00     0.029 A 
ATOM     47  N   UNL A   1      41.359  31.076  36.064  1.00  0.00    -0.354 N 
ATOM     48  C   UNL A   1      40.861  34.554  38.605  1.00  0.00     0.074 A 
ATOM     49  C   UNL A   1      39.724  35.342  38.176  1.00  0.00     0.031 C 
ATOM     50  C   UNL A   1      40.848  29.686  34.392  1.00  0.00     0.029 A 
ATOM     51  C   UNL A   1      41.815  29.926  35.462  1.00  0.00     0.049 A 
ATOM     52  H   UNL A   1      41.772  31.463  36.870  1.00  0.00     0.167 HD
ATOM     53  C   UNL A   1      41.630  34.842  39.683  1.00  0.00     0.034 A 
ATOM     54  C   UNL A   1      42.906  29.176  35.725  1.00  0.00     0.034 A 
ATOM     55  C   UNL A   1      42.770  34.055  40.086  1.00  0.00     0.049 A 
ATOM     56  C   UNL A   1      43.815  29.578  36.866  1.00  0.00     0.074 A 
ATOM     57  C   UNL A   1      43.615  34.252  41.164  1.00  0.00     0.029 A 
ATOM     58  N   UNL A   1      43.235  32.927  39.420  1.00  0.00    -0.354 N 
ATOM     59  N   UNL A   1      43.703  30.590  37.698  1.00  0.00    -0.248 NA
ATOM     60  C   UNL A   1      44.993  28.735  37.105  1.00  0.00     0.031 C 
ATOM     61  C   UNL A   1      44.636  33.299  41.100  1.00  0.00     0.029 A 
ATOM     62  C   UNL A   1      44.378  32.446  40.040  1.00  0.00     0.049 A 
ATOM     63  H   UNL A   1      42.814  32.529  38.624  1.00  0.00     0.167 HD
ATOM     64  C   UNL A   1      44.776  30.477  38.581  1.00  0.00     0.074 A 
ATOM     65  C   UNL A   1      45.515  29.297  38.186  1.00  0.00     0.031 C 
ATOM     66  C   UNL A   1      45.115  31.272  39.629  1.00  0.00     0.034 A 
BRANCH  53  67
ATOM     67  C   UNL A   1      41.297  36.095  40.459  1.00  0.00     0.023 A 
ATOM     68  C   UNL A   1      41.861  37.342  40.136  1.00  0.00     0.031 A 
ATOM     69  C   UNL A   1      40.425  36.033  41.561  1.00  0.00     0.131 A 
ATOM     70  C   UNL A   1      41.606  38.458  40.949  1.00  0.00     0.055 A 
ATOM     71  C   UNL A   1      40.107  37.165  42.313  1.00  0.00     0.041 A 
ATOM     72  F   UNL A   1      39.877  34.867  41.935  1.00  0.00    -0.206 F 
ATOM     73  C   UNL A   1      40.709  38.384  42.018  1.00  0.00     0.022 A 
BRANCH  70  74
ATOM     74  S   UNL A   1      42.577  39.967  40.682  1.00  0.00     0.124 S 
ATOM     75  O   UNL A   1      41.630  40.801  39.947  1.00  0.00    -0.237 OA
ATOM     76  O   UNL A   1      42.880  40.393  42.043  1.00  0.00    -0.237 OA
ATOM     77  O   UNL A   1      43.724  39.504  39.902  1.00  0.00    -0.744 OA
ENDBRANCH  70  74
ENDBRANCH  53  67
BRANCH  54  78
ATOM     78  C   UNL A   1      43.244  28.000  34.868  1.00  0.00     0.023 A 
ATOM     79  C   UNL A   1      42.890  26.693  35.244  1.00  0.00     0.031 A 
ATOM     80  C   UNL A   1      43.996  28.161  33.690  1.00  0.00     0.131 A 
ATOM     81  C   UNL A   1      43.330  25.600  34.481  1.00  0.00     0.055 A 
ATOM     82  C   UNL A   1      44.376  27.075  32.899  1.00  0.00     0.041 A 
ATOM     83  F   UNL A   1      44.378  29.384  33.289  1.00  0.00    -0.206 F 
ATOM     84  C   UNL A   1      44.055  25.783  33.301  1.00  0.00     0.022 A 
BRANCH  81  85
ATOM     85  S   UNL A   1      43.043  23.922  35.111  1.00  0.00     0.124 S 
ATOM     86  O   UNL A   1      43.228  23.118  33.908  1.00  0.00    -0.237 OA
ATOM     87  O   UNL A   1      44.076  23.798  36.132  1.00  0.00    -0.237 OA
ATOM     88  O   UNL A   1      41.673  23.978  35.619  1.00  0.00    -0.744 OA
ENDBRANCH  81  85
ENDBRANCH  54  78
BRANCH  66  89
ATOM     89  C   UNL A   1      46.311  30.857  40.457  1.00  0.00     0.023 A 
ATOM     90  C   UNL A   1      46.181  30.072  41.617  1.00  0.00     0.031 A 
ATOM     91  C   UNL A   1      47.606  31.257  40.075  1.00  0.00     0.131 A 
ATOM     92  C   UNL A   1      47.315  29.764  42.383  1.00  0.00     0.055 A 
ATOM     93  C   UNL A   1      48.737  30.889  40.804  1.00  0.00     0.041 A 
ATOM     94  F   UNL A   1      47.794  32.008  38.978  1.00  0.00    -0.206 F 
ATOM     95  C   UNL A   1      48.594  30.149  41.974  1.00  0.00     0.022 A 
BRANCH  92  96
ATOM     96  S   UNL A   1      47.091  28.931  43.980  1.00  0.00     0.124 S 
ATOM     97  O   UNL A   1      48.423  28.391  44.232  1.00  0.00    -0.237 OA
ATOM     98  O   UNL A   1      46.673  30.027  44.848  1.00  0.00    -0.237 OA
ATOM     99  O   UNL A   1      46.060  27.932  43.705  1.00  0.00    -0.744 OA
ENDBRANCH  92  96
ENDBRANCH  66  89
ENDBRANCH  40  41
ENDBRANCH  33  35
ENDBRANCH  32  33
ENDBRANCH  31  32
ENDBRANCH  30  31
ENDBRANCH  29  30
ENDBRANCH   1  29
TORSDOF 23
ENDMDL
