MODEL 1
REMARK VINA RESULT:     -11.1      0.000      0.000
REMARK SMILES CC1=C(CC(=O)OCCOCCOCCOC(=O)c2ccc(-c3c4nc(c(-c5cc(S(=O)(=O)[O-])ccc5F)c5ccc([nH]5)c(-c5cc(S(=O)(=O)[O-])ccc5F)c5nc(c(-c6cc(S(=O)(=O)[O-])ccc6F)c6ccc3[nH]6)C=C5)C=C4)cc2)c2cc(F)ccc2/C1=C\c1ccc([S@@+](C)[O-])cc1
REMARK SMILES IDX 11 1 10 2 9 3 8 4 7 5 5 6 6 7 4 8 3 9 1 10 2 11 89 12 82 13
REMARK SMILES IDX 88 14 90 15 83 16 87 17 84 18 86 19 85 20 91 21 92 22 99 23
REMARK SMILES IDX 93 24 98 25 94 26 95 27 96 28 97 29 12 30 13 31 14 32 15 33
REMARK SMILES IDX 16 34 17 35 18 36 19 37 20 38 81 39 21 40 80 41 22 42 23 43
REMARK SMILES IDX 24 44 74 45 25 46 79 47 73 48 75 49 26 50 78 51 72 52 71 53
REMARK SMILES IDX 27 55 59 56 39 57 58 58 40 59 43 60 57 61 76 62 41 63 42 64
REMARK SMILES IDX 56 66 77 67 44 68 28 69 29 70 37 71 30 72 36 73 38 74 35 75
REMARK SMILES IDX 31 76 32 77 33 78 34 79 60 80 61 81 69 82 62 83 68 84 70 85
REMARK SMILES IDX 67 86 63 87 64 88 65 89 66 90 45 91 46 92 54 93 47 94 53 95
REMARK SMILES IDX 55 96 52 97 48 98 49 99 50 100 51 101
REMARK H PARENT 75 54 43 65
REMARK Flexibility Score: inf
ROOT
ATOM      1  C   UNL A   1      34.367  25.227  25.597  1.00  0.00     0.188 C 
ENDROOT
BRANCH   1   2
ATOM      2  O   UNL A   1      33.405  26.242  25.884  1.00  0.00    -0.376 OA
BRANCH   2   3
ATOM      3  C   UNL A   1      33.893  27.561  26.103  1.00  0.00     0.202 C 
BRANCH   3   4
ATOM      4  C   UNL A   1      33.294  28.617  25.172  1.00  0.00     0.261 C 
BRANCH   4   5
ATOM      5  O   UNL A   1      32.772  28.013  23.969  1.00  0.00    -0.463 OA
BRANCH   5   6
ATOM      6  C   UNL A   1      31.479  28.313  23.685  1.00  0.00     0.310 C 
ATOM      7  O   UNL A   1      30.945  29.377  23.984  1.00  0.00    -0.252 OA
BRANCH   6   8
ATOM      8  C   UNL A   1      30.785  27.257  22.825  1.00  0.00     0.159 C 
BRANCH   8   9
ATOM      9  C   UNL A   1      31.099  25.804  23.038  1.00  0.00    -0.025 C 
ATOM     10  C   UNL A   1      32.757  25.369  21.160  1.00  0.00     0.045 C 
ATOM     11  C   UNL A   1      31.930  24.991  22.342  1.00  0.00    -0.039 C 
ATOM     12  C   UNL A   1      31.989  23.657  22.974  1.00  0.00    -0.014 C 
ATOM     13  C   UNL A   1      30.668  25.050  24.234  1.00  0.00    -0.011 A 
ATOM     14  C   UNL A   1      31.132  23.724  24.174  1.00  0.00    -0.010 A 
ATOM     15  C   UNL A   1      32.747  22.624  22.552  1.00  0.00     0.017 C 
ATOM     16  C   UNL A   1      29.984  25.488  25.359  1.00  0.00     0.048 A 
ATOM     17  C   UNL A   1      30.814  22.811  25.175  1.00  0.00     0.012 A 
ATOM     18  C   UNL A   1      29.708  24.571  26.375  1.00  0.00     0.123 A 
ATOM     19  C   UNL A   1      30.079  23.236  26.278  1.00  0.00     0.040 A 
ATOM     20  F   UNL A   1      29.060  24.982  27.470  1.00  0.00    -0.207 F 
BRANCH  15  21
ATOM     21  C   UNL A   1      32.821  21.315  23.215  1.00  0.00    -0.025 A 
ATOM     22  C   UNL A   1      33.663  21.141  24.321  1.00  0.00     0.013 A 
ATOM     23  C   UNL A   1      32.191  20.199  22.653  1.00  0.00     0.013 A 
ATOM     24  C   UNL A   1      33.956  19.856  24.791  1.00  0.00     0.061 A 
ATOM     25  C   UNL A   1      32.471  18.916  23.140  1.00  0.00     0.061 A 
ATOM     26  C   UNL A   1      33.380  18.730  24.190  1.00  0.00     0.152 A 
BRANCH  26  27
ATOM     27  S   UNL A   1      33.918  17.045  24.592  1.00  0.00    -0.018 S 
ATOM     28  C   UNL A   1      32.582  16.519  25.682  1.00  0.00     0.346 C 
ATOM     29  O   UNL A   1      33.808  16.205  23.269  1.00  0.00    -0.612 OA
ENDBRANCH  26  27
ENDBRANCH  15  21
ENDBRANCH   8   9
ENDBRANCH   6   8
ENDBRANCH   5   6
ENDBRANCH   4   5
ENDBRANCH   3   4
ENDBRANCH   2   3
ENDBRANCH   1   2
BRANCH   1  30
ATOM     30  C   UNL A   1      34.196  23.872  26.302  1.00  0.00     0.188 C 
BRANCH  30  31
ATOM     31  O   UNL A   1      35.454  23.255  26.566  1.00  0.00    -0.376 OA
BRANCH  31  32
ATOM     32  C   UNL A   1      36.172  22.911  25.388  1.00  0.00     0.202 C 
BRANCH  32  33
ATOM     33  C   UNL A   1      37.021  21.661  25.623  1.00  0.00     0.261 C 
BRANCH  33  34
ATOM     34  O   UNL A   1      38.391  21.814  25.210  1.00  0.00    -0.460 OA
BRANCH  34  35
ATOM     35  C   UNL A   1      39.331  21.524  26.137  1.00  0.00     0.338 C 
ATOM     36  O   UNL A   1      39.775  20.426  26.410  1.00  0.00    -0.246 OA
BRANCH  35  37
ATOM     37  C   UNL A   1      39.788  22.798  26.724  1.00  0.00     0.060 A 
ATOM     38  C   UNL A   1      40.694  22.809  27.781  1.00  0.00     0.016 A 
ATOM     39  C   UNL A   1      39.343  24.000  26.174  1.00  0.00     0.016 A 
ATOM     40  C   UNL A   1      41.163  24.037  28.266  1.00  0.00     0.010 A 
ATOM     41  C   UNL A   1      39.849  25.220  26.620  1.00  0.00     0.010 A 
ATOM     42  C   UNL A   1      40.768  25.253  27.672  1.00  0.00    -0.014 A 
BRANCH  42  43
ATOM     43  C   UNL A   1      41.422  26.532  28.057  1.00  0.00     0.031 A 
ATOM     44  C   UNL A   1      42.836  26.856  27.672  1.00  0.00     0.074 A 
ATOM     45  C   UNL A   1      40.735  27.387  28.840  1.00  0.00     0.049 A 
ATOM     46  N   UNL A   1      43.482  27.985  27.810  1.00  0.00    -0.248 NA
ATOM     47  C   UNL A   1      43.641  25.774  27.086  1.00  0.00     0.031 C 
ATOM     48  C   UNL A   1      39.411  27.116  29.400  1.00  0.00     0.029 A 
ATOM     49  N   UNL A   1      41.043  28.644  29.299  1.00  0.00    -0.354 N 
ATOM     50  C   UNL A   1      44.764  27.756  27.322  1.00  0.00     0.074 A 
ATOM     51  C   UNL A   1      44.823  26.361  26.945  1.00  0.00     0.031 C 
ATOM     52  C   UNL A   1      38.998  28.191  30.085  1.00  0.00     0.029 A 
ATOM     53  C   UNL A   1      40.032  29.223  30.031  1.00  0.00     0.049 A 
ATOM     54  H   UNL A   1      41.903  29.088  29.123  1.00  0.00     0.167 HD
ATOM     55  C   UNL A   1      45.779  28.642  27.176  1.00  0.00     0.034 A 
ATOM     56  C   UNL A   1      39.929  30.454  30.575  1.00  0.00     0.034 A 
ATOM     57  C   UNL A   1      45.683  30.033  27.547  1.00  0.00     0.049 A 
ATOM     58  C   UNL A   1      41.042  31.444  30.352  1.00  0.00     0.074 A 
ATOM     59  C   UNL A   1      46.589  31.048  27.297  1.00  0.00     0.029 A 
ATOM     60  N   UNL A   1      44.638  30.599  28.264  1.00  0.00    -0.354 N 
ATOM     61  N   UNL A   1      42.166  31.280  29.694  1.00  0.00    -0.248 NA
ATOM     62  C   UNL A   1      40.874  32.787  30.924  1.00  0.00     0.031 C 
ATOM     63  C   UNL A   1      46.129  32.206  27.926  1.00  0.00     0.029 A 
ATOM     64  C   UNL A   1      44.902  31.936  28.511  1.00  0.00     0.049 A 
ATOM     65  H   UNL A   1      43.829  30.120  28.556  1.00  0.00     0.167 HD
ATOM     66  C   UNL A   1      42.835  32.498  29.763  1.00  0.00     0.074 A 
ATOM     67  C   UNL A   1      41.976  33.399  30.506  1.00  0.00     0.031 C 
ATOM     68  C   UNL A   1      44.049  32.833  29.259  1.00  0.00     0.034 A 
BRANCH  55  69
ATOM     69  C   UNL A   1      47.074  28.177  26.548  1.00  0.00     0.023 A 
ATOM     70  C   UNL A   1      47.240  28.215  25.150  1.00  0.00     0.031 A 
ATOM     71  C   UNL A   1      48.080  27.566  27.319  1.00  0.00     0.131 A 
ATOM     72  C   UNL A   1      48.374  27.632  24.567  1.00  0.00     0.055 A 
ATOM     73  C   UNL A   1      49.226  27.023  26.736  1.00  0.00     0.041 A 
ATOM     74  F   UNL A   1      47.962  27.486  28.654  1.00  0.00    -0.206 F 
ATOM     75  C   UNL A   1      49.371  27.044  25.353  1.00  0.00     0.022 A 
BRANCH  72  76
ATOM     76  S   UNL A   1      48.573  27.551  22.766  1.00  0.00     0.124 S 
ATOM     77  O   UNL A   1      49.818  28.290  22.569  1.00  0.00    -0.237 OA
ATOM     78  O   UNL A   1      48.661  26.112  22.533  1.00  0.00    -0.237 OA
ATOM     79  O   UNL A   1      47.375  28.202  22.249  1.00  0.00    -0.744 OA
ENDBRANCH  72  76
ENDBRANCH  55  69
BRANCH  56  80
ATOM     80  C   UNL A   1      38.660  30.816  31.269  1.00  0.00     0.023 A 
ATOM     81  C   UNL A   1      37.667  31.567  30.615  1.00  0.00     0.031 A 
ATOM     82  C   UNL A   1      38.511  30.574  32.645  1.00  0.00     0.131 A 
ATOM     83  C   UNL A   1      36.616  32.124  31.356  1.00  0.00     0.055 A 
ATOM     84  C   UNL A   1      37.424  31.072  33.366  1.00  0.00     0.041 A 
ATOM     85  F   UNL A   1      39.443  29.878  33.314  1.00  0.00    -0.206 F 
ATOM     86  C   UNL A   1      36.481  31.870  32.725  1.00  0.00     0.022 A 
BRANCH  83  87
ATOM     87  S   UNL A   1      35.477  33.320  30.603  1.00  0.00     0.124 S 
ATOM     88  O   UNL A   1      35.340  34.318  31.659  1.00  0.00    -0.237 OA
ATOM     89  O   UNL A   1      36.233  33.746  29.427  1.00  0.00    -0.237 OA
ATOM     90  O   UNL A   1      34.284  32.530  30.323  1.00  0.00    -0.744 OA
ENDBRANCH  83  87
ENDBRANCH  56  80
BRANCH  68  91
ATOM     91  C   UNL A   1      44.580  34.224  29.505  1.00  0.00     0.023 A 
ATOM     92  C   UNL A   1      44.512  35.197  28.488  1.00  0.00     0.031 A 
ATOM     93  C   UNL A   1      45.310  34.528  30.666  1.00  0.00     0.131 A 
ATOM     94  C   UNL A   1      45.212  36.401  28.628  1.00  0.00     0.055 A 
ATOM     95  C   UNL A   1      45.966  35.749  30.822  1.00  0.00     0.041 A 
ATOM     96  F   UNL A   1      45.410  33.631  31.661  1.00  0.00    -0.206 F 
ATOM     97  C   UNL A   1      45.934  36.685  29.792  1.00  0.00     0.022 A 
BRANCH  94  98
ATOM     98  S   UNL A   1      45.294  37.601  27.267  1.00  0.00     0.124 S 
ATOM     99  O   UNL A   1      43.880  37.868  27.014  1.00  0.00    -0.237 OA
ATOM    100  O   UNL A   1      46.039  38.701  27.873  1.00  0.00    -0.237 OA
ATOM    101  O   UNL A   1      45.989  36.881  26.205  1.00  0.00    -0.744 OA
ENDBRANCH  94  98
ENDBRANCH  68  91
ENDBRANCH  42  43
ENDBRANCH  35  37
ENDBRANCH  34  35
ENDBRANCH  33  34
ENDBRANCH  32  33
ENDBRANCH  31  32
ENDBRANCH  30  31
ENDBRANCH   1  30
TORSDOF 23
ENDMDL
MODEL 2
REMARK VINA RESULT:     -10.8      4.836      8.856
REMARK SMILES CC1=C(CC(=O)OCCOCCOCCOC(=O)c2ccc(-c3c4nc(c(-c5cc(S(=O)(=O)[O-])ccc5F)c5ccc([nH]5)c(-c5cc(S(=O)(=O)[O-])ccc5F)c5nc(c(-c6cc(S(=O)(=O)[O-])ccc6F)c6ccc3[nH]6)C=C5)C=C4)cc2)c2cc(F)ccc2/C1=C\c1ccc([S@@+](C)[O-])cc1
REMARK SMILES IDX 11 1 10 2 9 3 8 4 7 5 5 6 6 7 4 8 3 9 1 10 2 11 89 12 82 13
REMARK SMILES IDX 88 14 90 15 83 16 87 17 84 18 86 19 85 20 91 21 92 22 99 23
REMARK SMILES IDX 93 24 98 25 94 26 95 27 96 28 97 29 12 30 13 31 14 32 15 33
REMARK SMILES IDX 16 34 17 35 18 36 19 37 20 38 81 39 21 40 80 41 22 42 23 43
REMARK SMILES IDX 24 44 74 45 25 46 79 47 73 48 75 49 26 50 78 51 72 52 71 53
REMARK SMILES IDX 27 55 59 56 39 57 58 58 40 59 43 60 57 61 76 62 41 63 42 64
REMARK SMILES IDX 56 66 77 67 44 68 28 69 29 70 37 71 30 72 36 73 38 74 35 75
REMARK SMILES IDX 31 76 32 77 33 78 34 79 60 80 61 81 69 82 62 83 68 84 70 85
REMARK SMILES IDX 67 86 63 87 64 88 65 89 66 90 45 91 46 92 54 93 47 94 53 95
REMARK SMILES IDX 55 96 52 97 48 98 49 99 50 100 51 101
REMARK H PARENT 75 54 43 65
REMARK Flexibility Score: inf
ROOT
ATOM      1  C   UNL A   1      43.379  20.796  25.414  1.00  0.00     0.188 C 
ENDROOT
BRANCH   1   2
ATOM      2  O   UNL A   1      44.393  20.934  24.419  1.00  0.00    -0.376 OA
BRANCH   2   3
ATOM      3  C   UNL A   1      45.727  21.142  24.868  1.00  0.00     0.202 C 
BRANCH   3   4
ATOM      4  C   UNL A   1      46.419  22.357  24.248  1.00  0.00     0.261 C 
BRANCH   4   5
ATOM      5  O   UNL A   1      45.619  23.547  24.404  1.00  0.00    -0.463 OA
BRANCH   5   6
ATOM      6  C   UNL A   1      46.231  24.578  25.038  1.00  0.00     0.310 C 
ATOM      7  O   UNL A   1      46.018  25.759  24.781  1.00  0.00    -0.252 OA
BRANCH   6   8
ATOM      8  C   UNL A   1      47.108  24.137  26.210  1.00  0.00     0.159 C 
BRANCH   8   9
ATOM      9  C   UNL A   1      46.688  24.464  27.614  1.00  0.00    -0.025 C 
ATOM     10  C   UNL A   1      48.558  26.024  28.346  1.00  0.00     0.045 C 
ATOM     11  C   UNL A   1      47.291  25.260  28.531  1.00  0.00    -0.039 C 
ATOM     12  C   UNL A   1      46.463  25.353  29.750  1.00  0.00    -0.014 C 
ATOM     13  C   UNL A   1      45.369  24.096  28.171  1.00  0.00    -0.011 A 
ATOM     14  C   UNL A   1      45.246  24.559  29.493  1.00  0.00    -0.010 A 
ATOM     15  C   UNL A   1      46.758  26.090  30.841  1.00  0.00     0.017 C 
ATOM     16  C   UNL A   1      44.293  23.469  27.559  1.00  0.00     0.048 A 
ATOM     17  C   UNL A   1      44.101  24.293  30.238  1.00  0.00     0.012 A 
ATOM     18  C   UNL A   1      43.134  23.248  28.306  1.00  0.00     0.123 A 
ATOM     19  C   UNL A   1      43.041  23.616  29.641  1.00  0.00     0.040 A 
ATOM     20  F   UNL A   1      42.084  22.656  27.725  1.00  0.00    -0.207 F 
BRANCH  15  21
ATOM     21  C   UNL A   1      45.904  26.200  32.032  1.00  0.00    -0.025 A 
ATOM     22  C   UNL A   1      45.998  25.239  33.047  1.00  0.00     0.013 A 
ATOM     23  C   UNL A   1      44.883  27.155  32.087  1.00  0.00     0.013 A 
ATOM     24  C   UNL A   1      45.019  25.167  34.045  1.00  0.00     0.061 A 
ATOM     25  C   UNL A   1      43.917  27.091  33.099  1.00  0.00     0.061 A 
ATOM     26  C   UNL A   1      43.956  26.078  34.067  1.00  0.00     0.152 A 
BRANCH  26  27
ATOM     27  S   UNL A   1      42.537  25.873  35.176  1.00  0.00    -0.018 S 
ATOM     28  C   UNL A   1      42.393  24.077  35.207  1.00  0.00     0.346 C 
ATOM     29  O   UNL A   1      43.005  26.335  36.603  1.00  0.00    -0.612 OA
ENDBRANCH  26  27
ENDBRANCH  15  21
ENDBRANCH   8   9
ENDBRANCH   6   8
ENDBRANCH   5   6
ENDBRANCH   4   5
ENDBRANCH   3   4
ENDBRANCH   2   3
ENDBRANCH   1   2
BRANCH   1  30
ATOM     30  C   UNL A   1      42.912  19.372  25.756  1.00  0.00     0.188 C 
BRANCH  30  31
ATOM     31  O   UNL A   1      41.825  19.383  26.678  1.00  0.00    -0.376 OA
BRANCH  31  32
ATOM     32  C   UNL A   1      40.583  19.732  26.083  1.00  0.00     0.202 C 
BRANCH  32  33
ATOM     33  C   UNL A   1      40.021  21.003  26.718  1.00  0.00     0.261 C 
BRANCH  33  34
ATOM     34  O   UNL A   1      39.680  22.021  25.759  1.00  0.00    -0.460 OA
BRANCH  34  35
ATOM     35  C   UNL A   1      38.720  22.896  26.133  1.00  0.00     0.338 C 
ATOM     36  O   UNL A   1      37.517  22.720  26.104  1.00  0.00    -0.246 OA
BRANCH  35  37
ATOM     37  C   UNL A   1      39.393  24.099  26.659  1.00  0.00     0.060 A 
ATOM     38  C   UNL A   1      40.121  24.933  25.814  1.00  0.00     0.016 A 
ATOM     39  C   UNL A   1      39.249  24.426  28.007  1.00  0.00     0.016 A 
ATOM     40  C   UNL A   1      40.685  26.106  26.333  1.00  0.00     0.010 A 
ATOM     41  C   UNL A   1      39.765  25.618  28.512  1.00  0.00     0.010 A 
ATOM     42  C   UNL A   1      40.488  26.475  27.679  1.00  0.00    -0.014 A 
BRANCH  42  43
ATOM     43  C   UNL A   1      40.916  27.813  28.169  1.00  0.00     0.031 A 
ATOM     44  C   UNL A   1      42.359  28.226  28.209  1.00  0.00     0.074 A 
ATOM     45  C   UNL A   1      39.974  28.642  28.658  1.00  0.00     0.049 A 
ATOM     46  N   UNL A   1      42.864  29.404  28.469  1.00  0.00    -0.248 NA
ATOM     47  C   UNL A   1      43.367  27.186  27.955  1.00  0.00     0.031 C 
ATOM     48  C   UNL A   1      38.562  28.295  28.809  1.00  0.00     0.029 A 
ATOM     49  N   UNL A   1      40.052  29.934  29.116  1.00  0.00    -0.354 N 
ATOM     50  C   UNL A   1      44.244  29.254  28.403  1.00  0.00     0.074 A 
ATOM     51  C   UNL A   1      44.499  27.855  28.143  1.00  0.00     0.031 C 
ATOM     52  C   UNL A   1      37.896  29.361  29.275  1.00  0.00     0.029 A 
ATOM     53  C   UNL A   1      38.834  30.464  29.475  1.00  0.00     0.049 A 
ATOM     54  H   UNL A   1      40.897  30.435  29.181  1.00  0.00     0.167 HD
ATOM     55  C   UNL A   1      45.201  30.207  28.519  1.00  0.00     0.034 A 
ATOM     56  C   UNL A   1      38.498  31.702  29.891  1.00  0.00     0.034 A 
ATOM     57  C   UNL A   1      44.914  31.599  28.764  1.00  0.00     0.049 A 
ATOM     58  C   UNL A   1      39.564  32.764  29.956  1.00  0.00     0.074 A 
ATOM     59  C   UNL A   1      45.790  32.669  28.739  1.00  0.00     0.029 A 
ATOM     60  N   UNL A   1      43.668  32.112  29.099  1.00  0.00    -0.354 N 
ATOM     61  N   UNL A   1      40.842  32.659  29.678  1.00  0.00    -0.248 NA
ATOM     62  C   UNL A   1      39.150  34.110  30.372  1.00  0.00     0.031 C 
ATOM     63  C   UNL A   1      45.093  33.812  29.133  1.00  0.00     0.029 A 
ATOM     64  C   UNL A   1      43.765  33.474  29.336  1.00  0.00     0.049 A 
ATOM     65  H   UNL A   1      42.839  31.585  29.161  1.00  0.00     0.167 HD
ATOM     66  C   UNL A   1      41.385  33.926  29.874  1.00  0.00     0.074 A 
ATOM     67  C   UNL A   1      40.289  34.787  30.271  1.00  0.00     0.031 C 
ATOM     68  C   UNL A   1      42.673  34.331  29.741  1.00  0.00     0.034 A 
BRANCH  55  69
ATOM     69  C   UNL A   1      46.650  29.817  28.338  1.00  0.00     0.023 A 
ATOM     70  C   UNL A   1      47.487  29.648  29.458  1.00  0.00     0.031 A 
ATOM     71  C   UNL A   1      47.235  29.755  27.059  1.00  0.00     0.131 A 
ATOM     72  C   UNL A   1      48.863  29.447  29.277  1.00  0.00     0.055 A 
ATOM     73  C   UNL A   1      48.599  29.515  26.884  1.00  0.00     0.041 A 
ATOM     74  F   UNL A   1      46.486  29.927  25.957  1.00  0.00    -0.206 F 
ATOM     75  C   UNL A   1      49.421  29.372  27.996  1.00  0.00     0.022 A 
BRANCH  72  76
ATOM     76  S   UNL A   1      49.995  29.345  30.691  1.00  0.00     0.124 S 
ATOM     77  O   UNL A   1      49.768  27.978  31.156  1.00  0.00    -0.237 OA
ATOM     78  O   UNL A   1      51.292  29.579  30.061  1.00  0.00    -0.237 OA
ATOM     79  O   UNL A   1      49.531  30.393  31.591  1.00  0.00    -0.744 OA
ENDBRANCH  72  76
ENDBRANCH  55  69
BRANCH  56  80
ATOM     80  C   UNL A   1      37.058  31.994  30.149  1.00  0.00     0.023 A 
ATOM     81  C   UNL A   1      36.253  32.591  29.161  1.00  0.00     0.031 A 
ATOM     82  C   UNL A   1      36.527  31.851  31.442  1.00  0.00     0.131 A 
ATOM     83  C   UNL A   1      34.994  33.101  29.507  1.00  0.00     0.055 A 
ATOM     84  C   UNL A   1      35.243  32.297  31.763  1.00  0.00     0.041 A 
ATOM     85  F   UNL A   1      37.266  31.304  32.419  1.00  0.00    -0.206 F 
ATOM     86  C   UNL A   1      34.479  32.946  30.798  1.00  0.00     0.022 A 
BRANCH  83  87
ATOM     87  S   UNL A   1      34.048  34.117  28.337  1.00  0.00     0.124 S 
ATOM     88  O   UNL A   1      33.725  35.290  29.142  1.00  0.00    -0.237 OA
ATOM     89  O   UNL A   1      35.029  34.333  27.275  1.00  0.00    -0.237 OA
ATOM     90  O   UNL A   1      32.919  33.267  27.978  1.00  0.00    -0.744 OA
ENDBRANCH  83  87
ENDBRANCH  56  80
BRANCH  68  91
ATOM     91  C   UNL A   1      43.019  35.766  30.053  1.00  0.00     0.023 A 
ATOM     92  C   UNL A   1      43.046  36.729  29.024  1.00  0.00     0.031 A 
ATOM     93  C   UNL A   1      43.496  36.137  31.322  1.00  0.00     0.131 A 
ATOM     94  C   UNL A   1      43.596  37.993  29.267  1.00  0.00     0.055 A 
ATOM     95  C   UNL A   1      43.998  37.415  31.572  1.00  0.00     0.041 A 
ATOM     96  F   UNL A   1      43.497  35.255  32.334  1.00  0.00    -0.206 F 
ATOM     97  C   UNL A   1      44.066  38.344  30.537  1.00  0.00     0.022 A 
BRANCH  94  98
ATOM     98  S   UNL A   1      43.812  39.195  27.923  1.00  0.00     0.124 S 
ATOM     99  O   UNL A   1      43.901  40.456  28.657  1.00  0.00    -0.237 OA
ATOM    100  O   UNL A   1      45.055  38.743  27.305  1.00  0.00    -0.237 OA
ATOM    101  O   UNL A   1      42.611  39.033  27.111  1.00  0.00    -0.744 OA
ENDBRANCH  94  98
ENDBRANCH  68  91
ENDBRANCH  42  43
ENDBRANCH  35  37
ENDBRANCH  34  35
ENDBRANCH  33  34
ENDBRANCH  32  33
ENDBRANCH  31  32
ENDBRANCH  30  31
ENDBRANCH   1  30
TORSDOF 23
ENDMDL
MODEL 3
REMARK VINA RESULT:     -10.5      1.312      7.318
REMARK SMILES CC1=C(CC(=O)OCCOCCOCCOC(=O)c2ccc(-c3c4nc(c(-c5cc(S(=O)(=O)[O-])ccc5F)c5ccc([nH]5)c(-c5cc(S(=O)(=O)[O-])ccc5F)c5nc(c(-c6cc(S(=O)(=O)[O-])ccc6F)c6ccc3[nH]6)C=C5)C=C4)cc2)c2cc(F)ccc2/C1=C\c1ccc([S@@+](C)[O-])cc1
REMARK SMILES IDX 11 1 10 2 9 3 8 4 7 5 5 6 6 7 4 8 3 9 1 10 2 11 89 12 82 13
REMARK SMILES IDX 88 14 90 15 83 16 87 17 84 18 86 19 85 20 91 21 92 22 99 23
REMARK SMILES IDX 93 24 98 25 94 26 95 27 96 28 97 29 12 30 13 31 14 32 15 33
REMARK SMILES IDX 16 34 17 35 18 36 19 37 20 38 81 39 21 40 80 41 22 42 23 43
REMARK SMILES IDX 24 44 74 45 25 46 79 47 73 48 75 49 26 50 78 51 72 52 71 53
REMARK SMILES IDX 27 55 59 56 39 57 58 58 40 59 43 60 57 61 76 62 41 63 42 64
REMARK SMILES IDX 56 66 77 67 44 68 28 69 29 70 37 71 30 72 36 73 38 74 35 75
REMARK SMILES IDX 31 76 32 77 33 78 34 79 60 80 61 81 69 82 62 83 68 84 70 85
REMARK SMILES IDX 67 86 63 87 64 88 65 89 66 90 45 91 46 92 54 93 47 94 53 95
REMARK SMILES IDX 55 96 52 97 48 98 49 99 50 100 51 101
REMARK H PARENT 75 54 43 65
REMARK Flexibility Score: inf
ROOT
ATOM      1  C   UNL A   1      34.976  24.910  25.411  1.00  0.00     0.188 C 
ENDROOT
BRANCH   1   2
ATOM      2  O   UNL A   1      34.077  25.975  25.104  1.00  0.00    -0.376 OA
BRANCH   2   3
ATOM      3  C   UNL A   1      33.762  26.887  26.150  1.00  0.00     0.202 C 
BRANCH   3   4
ATOM      4  C   UNL A   1      32.636  27.867  25.814  1.00  0.00     0.261 C 
BRANCH   4   5
ATOM      5  O   UNL A   1      32.185  27.693  24.454  1.00  0.00    -0.463 OA
BRANCH   5   6
ATOM      6  C   UNL A   1      30.856  27.884  24.256  1.00  0.00     0.310 C 
ATOM      7  O   UNL A   1      30.360  28.967  23.960  1.00  0.00    -0.252 OA
BRANCH   6   8
ATOM      8  C   UNL A   1      30.043  26.589  24.291  1.00  0.00     0.159 C 
BRANCH   8   9
ATOM      9  C   UNL A   1      30.756  25.268  24.304  1.00  0.00    -0.025 C 
ATOM     10  C   UNL A   1      29.736  24.168  26.357  1.00  0.00     0.045 C 
ATOM     11  C   UNL A   1      30.638  24.234  25.172  1.00  0.00    -0.039 C 
ATOM     12  C   UNL A   1      31.478  23.100  24.734  1.00  0.00    -0.014 C 
ATOM     13  C   UNL A   1      31.604  24.795  23.190  1.00  0.00    -0.011 A 
ATOM     14  C   UNL A   1      32.115  23.514  23.468  1.00  0.00    -0.010 A 
ATOM     15  C   UNL A   1      31.565  21.905  25.355  1.00  0.00     0.017 C 
ATOM     16  C   UNL A   1      31.867  25.387  21.963  1.00  0.00     0.048 A 
ATOM     17  C   UNL A   1      32.976  22.881  22.578  1.00  0.00     0.012 A 
ATOM     18  C   UNL A   1      32.698  24.719  21.061  1.00  0.00     0.123 A 
ATOM     19  C   UNL A   1      33.283  23.499  21.369  1.00  0.00     0.040 A 
ATOM     20  F   UNL A   1      32.949  25.273  19.869  1.00  0.00    -0.207 F 
BRANCH  15  21
ATOM     21  C   UNL A   1      32.379  20.776  24.885  1.00  0.00    -0.025 A 
ATOM     22  C   UNL A   1      31.970  20.044  23.763  1.00  0.00     0.013 A 
ATOM     23  C   UNL A   1      33.463  20.319  25.641  1.00  0.00     0.013 A 
ATOM     24  C   UNL A   1      32.569  18.814  23.465  1.00  0.00     0.061 A 
ATOM     25  C   UNL A   1      34.073  19.099  25.328  1.00  0.00     0.061 A 
ATOM     26  C   UNL A   1      33.611  18.319  24.259  1.00  0.00     0.152 A 
BRANCH  26  27
ATOM     27  S   UNL A   1      34.244  16.630  24.070  1.00  0.00    -0.018 S 
ATOM     28  C   UNL A   1      32.966  15.697  24.933  1.00  0.00     0.346 C 
ATOM     29  O   UNL A   1      34.141  16.274  22.544  1.00  0.00    -0.612 OA
ENDBRANCH  26  27
ENDBRANCH  15  21
ENDBRANCH   8   9
ENDBRANCH   6   8
ENDBRANCH   5   6
ENDBRANCH   4   5
ENDBRANCH   3   4
ENDBRANCH   2   3
ENDBRANCH   1   2
BRANCH   1  30
ATOM     30  C   UNL A   1      34.485  23.829  26.386  1.00  0.00     0.188 C 
BRANCH  30  31
ATOM     31  O   UNL A   1      35.448  22.789  26.546  1.00  0.00    -0.376 OA
BRANCH  31  32
ATOM     32  C   UNL A   1      36.193  22.523  25.365  1.00  0.00     0.202 C 
BRANCH  32  33
ATOM     33  C   UNL A   1      37.033  21.258  25.534  1.00  0.00     0.261 C 
BRANCH  33  34
ATOM     34  O   UNL A   1      38.417  21.438  25.182  1.00  0.00    -0.460 OA
BRANCH  34  35
ATOM     35  C   UNL A   1      39.317  21.221  26.167  1.00  0.00     0.338 C 
ATOM     36  O   UNL A   1      39.712  20.145  26.573  1.00  0.00    -0.246 OA
BRANCH  35  37
ATOM     37  C   UNL A   1      39.803  22.536  26.627  1.00  0.00     0.060 A 
ATOM     38  C   UNL A   1      40.877  22.628  27.509  1.00  0.00     0.016 A 
ATOM     39  C   UNL A   1      39.209  23.695  26.128  1.00  0.00     0.016 A 
ATOM     40  C   UNL A   1      41.360  23.894  27.867  1.00  0.00     0.010 A 
ATOM     41  C   UNL A   1      39.721  24.953  26.443  1.00  0.00     0.010 A 
ATOM     42  C   UNL A   1      40.806  25.067  27.315  1.00  0.00    -0.014 A 
BRANCH  42  43
ATOM     43  C   UNL A   1      41.450  26.388  27.542  1.00  0.00     0.031 A 
ATOM     44  C   UNL A   1      40.758  27.501  28.276  1.00  0.00     0.074 A 
ATOM     45  C   UNL A   1      42.665  26.605  27.001  1.00  0.00     0.049 A 
ATOM     46  N   UNL A   1      41.249  28.646  28.674  1.00  0.00    -0.248 NA
ATOM     47  C   UNL A   1      39.330  27.324  28.578  1.00  0.00     0.031 C 
ATOM     48  C   UNL A   1      43.371  25.654  26.143  1.00  0.00     0.029 A 
ATOM     49  N   UNL A   1      43.518  27.678  27.087  1.00  0.00    -0.354 N 
ATOM     50  C   UNL A   1      40.199  29.324  29.280  1.00  0.00     0.074 A 
ATOM     51  C   UNL A   1      39.027  28.489  29.139  1.00  0.00     0.031 C 
ATOM     52  C   UNL A   1      44.569  26.162  25.821  1.00  0.00     0.029 A 
ATOM     53  C   UNL A   1      44.713  27.482  26.434  1.00  0.00     0.049 A 
ATOM     54  H   UNL A   1      43.297  28.507  27.569  1.00  0.00     0.167 HD
ATOM     55  C   UNL A   1      40.226  30.519  29.921  1.00  0.00     0.034 A 
ATOM     56  C   UNL A   1      45.814  28.257  26.355  1.00  0.00     0.034 A 
ATOM     57  C   UNL A   1      41.416  31.322  30.058  1.00  0.00     0.049 A 
ATOM     58  C   UNL A   1      45.849  29.553  27.121  1.00  0.00     0.074 A 
ATOM     59  C   UNL A   1      41.593  32.463  30.820  1.00  0.00     0.029 A 
ATOM     60  N   UNL A   1      42.620  31.087  29.407  1.00  0.00    -0.354 N 
ATOM     61  N   UNL A   1      44.915  30.084  27.876  1.00  0.00    -0.248 NA
ATOM     62  C   UNL A   1      47.081  30.349  27.046  1.00  0.00     0.031 C 
ATOM     63  C   UNL A   1      42.873  32.959  30.571  1.00  0.00     0.029 A 
ATOM     64  C   UNL A   1      43.525  32.091  29.709  1.00  0.00     0.049 A 
ATOM     65  H   UNL A   1      42.802  30.320  28.818  1.00  0.00     0.167 HD
ATOM     66  C   UNL A   1      45.449  31.269  28.374  1.00  0.00     0.074 A 
ATOM     67  C   UNL A   1      46.798  31.364  27.854  1.00  0.00     0.031 C 
ATOM     68  C   UNL A   1      44.869  32.191  29.183  1.00  0.00     0.034 A 
BRANCH  55  69
ATOM     69  C   UNL A   1      38.962  31.030  30.573  1.00  0.00     0.023 A 
ATOM     70  C   UNL A   1      38.007  31.737  29.817  1.00  0.00     0.031 A 
ATOM     71  C   UNL A   1      38.772  30.944  31.965  1.00  0.00     0.131 A 
ATOM     72  C   UNL A   1      36.921  32.347  30.459  1.00  0.00     0.055 A 
ATOM     73  C   UNL A   1      37.667  31.519  32.594  1.00  0.00     0.041 A 
ATOM     74  F   UNL A   1      39.662  30.298  32.736  1.00  0.00    -0.206 F 
ATOM     75  C   UNL A   1      36.742  32.235  31.842  1.00  0.00     0.022 A 
BRANCH  72  76
ATOM     76  S   UNL A   1      35.734  33.367  29.542  1.00  0.00     0.124 S 
ATOM     77  O   UNL A   1      36.584  34.454  29.059  1.00  0.00    -0.237 OA
ATOM     78  O   UNL A   1      35.266  32.441  28.514  1.00  0.00    -0.237 OA
ATOM     79  O   UNL A   1      34.747  33.749  30.545  1.00  0.00    -0.744 OA
ENDBRANCH  72  76
ENDBRANCH  55  69
BRANCH  56  80
ATOM     80  C   UNL A   1      46.996  27.734  25.610  1.00  0.00     0.023 A 
ATOM     81  C   UNL A   1      47.250  28.134  24.285  1.00  0.00     0.031 A 
ATOM     82  C   UNL A   1      47.770  26.693  26.150  1.00  0.00     0.131 A 
ATOM     83  C   UNL A   1      48.192  27.436  23.518  1.00  0.00     0.055 A 
ATOM     84  C   UNL A   1      48.758  26.048  25.404  1.00  0.00     0.041 A 
ATOM     85  F   UNL A   1      47.549  26.268  27.404  1.00  0.00    -0.206 F 
ATOM     86  C   UNL A   1      48.958  26.405  24.074  1.00  0.00     0.022 A 
BRANCH  83  87
ATOM     87  S   UNL A   1      48.350  27.738  21.735  1.00  0.00     0.124 S 
ATOM     88  O   UNL A   1      49.380  28.771  21.690  1.00  0.00    -0.237 OA
ATOM     89  O   UNL A   1      48.756  26.422  21.249  1.00  0.00    -0.237 OA
ATOM     90  O   UNL A   1      47.012  28.164  21.339  1.00  0.00    -0.744 OA
ENDBRANCH  83  87
ENDBRANCH  56  80
BRANCH  68  91
ATOM     91  C   UNL A   1      45.651  33.427  29.554  1.00  0.00     0.023 A 
ATOM     92  C   UNL A   1      45.633  34.556  28.712  1.00  0.00     0.031 A 
ATOM     93  C   UNL A   1      46.549  33.419  30.635  1.00  0.00     0.131 A 
ATOM     94  C   UNL A   1      46.539  35.602  28.929  1.00  0.00     0.055 A 
ATOM     95  C   UNL A   1      47.416  34.486  30.876  1.00  0.00     0.041 A 
ATOM     96  F   UNL A   1      46.609  32.363  31.463  1.00  0.00    -0.206 F 
ATOM     97  C   UNL A   1      47.425  35.575  30.010  1.00  0.00     0.022 A 
BRANCH  94  98
ATOM     98  S   UNL A   1      46.667  36.987  27.762  1.00  0.00     0.124 S 
ATOM     99  O   UNL A   1      46.459  38.139  28.637  1.00  0.00    -0.237 OA
ATOM    100  O   UNL A   1      48.025  36.831  27.249  1.00  0.00    -0.237 OA
ATOM    101  O   UNL A   1      45.599  36.737  26.800  1.00  0.00    -0.744 OA
ENDBRANCH  94  98
ENDBRANCH  68  91
ENDBRANCH  42  43
ENDBRANCH  35  37
ENDBRANCH  34  35
ENDBRANCH  33  34
ENDBRANCH  32  33
ENDBRANCH  31  32
ENDBRANCH  30  31
ENDBRANCH   1  30
TORSDOF 23
ENDMDL
