MODEL 1
REMARK VINA RESULT:      -9.9      0.000      0.000
REMARK SMILES CCc1nn(-c2ccncn2)c(Cl)c1C(=O)OCCOCCOCCOC(=O)c1ccc(-c2c3nc(c(-c4cc(S(=O)(=O)[O-])ccc4F)c4ccc([nH]4)c(-c4cc(S(=O)(=O)[O-])ccc4F)c4nc(c(-c5cc(S(=O)(=O)[O-])ccc5F)c5ccc2[nH]5)C=C4)C=C3)cc1
REMARK SMILES IDX 22 1 21 2 20 3 19 4 18 5 17 6 15 7 16 8 14 9 3 10 4 11 5 12
REMARK SMILES IDX 12 13 13 14 2 15 1 16 6 17 7 18 11 19 8 20 10 21 9 22 23 23
REMARK SMILES IDX 24 24 25 25 26 26 27 27 28 28 29 29 30 30 91 31 31 32 90 33
REMARK SMILES IDX 32 34 33 35 34 36 84 37 35 38 89 39 83 40 85 41 36 42 88 43
REMARK SMILES IDX 82 44 81 45 37 47 69 48 49 49 68 50 50 51 53 52 67 53 86 54
REMARK SMILES IDX 51 55 52 56 66 58 87 59 54 60 38 61 39 62 47 63 40 64 46 65
REMARK SMILES IDX 48 66 45 67 41 68 42 69 43 70 44 71 70 72 71 73 79 74 72 75
REMARK SMILES IDX 78 76 80 77 77 78 73 79 74 80 75 81 76 82 55 83 56 84 64 85
REMARK SMILES IDX 57 86 63 87 65 88 62 89 58 90 59 91 60 92 61 93
REMARK H PARENT 85 46 53 57
REMARK Flexibility Score: inf
ROOT
ATOM      1  C   UNL A   1      35.038  34.948  33.823  1.00  0.00     0.188 C 
ENDROOT
BRANCH   1   2
ATOM      2  C   UNL A   1      34.119  35.731  32.859  1.00  0.00     0.188 C 
BRANCH   2   3
ATOM      3  O   UNL A   1      34.279  35.629  31.448  1.00  0.00    -0.376 OA
BRANCH   3   4
ATOM      4  C   UNL A   1      33.239  36.051  30.576  1.00  0.00     0.202 C 
BRANCH   4   5
ATOM      5  C   UNL A   1      32.860  35.195  29.353  1.00  0.00     0.261 C 
BRANCH   5   6
ATOM      6  O   UNL A   1      33.489  33.904  29.309  1.00  0.00    -0.460 OA
BRANCH   6   7
ATOM      7  C   UNL A   1      34.187  33.611  28.170  1.00  0.00     0.343 C 
ATOM      8  O   UNL A   1      34.865  34.389  27.560  1.00  0.00    -0.246 OA
BRANCH   7   9
ATOM      9  C   UNL A   1      34.109  32.191  27.847  1.00  0.00     0.120 A 
ATOM     10  C   UNL A   1      35.071  31.137  27.866  1.00  0.00     0.079 A 
ATOM     11  N   UNL A   1      34.546  29.972  27.445  1.00  0.00    -0.169 NA
ATOM     12  N   UNL A   1      33.266  30.271  27.104  1.00  0.00    -0.203 N 
ATOM     13  C   UNL A   1      32.986  31.593  27.323  1.00  0.00     0.149 A 
ATOM     14  Cl  UNL A   1      31.469  32.251  26.886  1.00  0.00    -0.061 Cl
BRANCH  10  15
ATOM     15  C   UNL A   1      36.537  31.170  28.200  1.00  0.00     0.056 C 
ATOM     16  C   UNL A   1      37.330  29.953  27.761  1.00  0.00     0.011 C 
ENDBRANCH  10  15
BRANCH  12  17
ATOM     17  C   UNL A   1      32.382  29.289  26.592  1.00  0.00     0.158 A 
ATOM     18  C   UNL A   1      32.104  28.186  27.378  1.00  0.00     0.069 A 
ATOM     19  N   UNL A   1      32.006  29.406  25.297  1.00  0.00    -0.217 NA
ATOM     20  C   UNL A   1      31.409  27.179  26.750  1.00  0.00     0.117 A 
ATOM     21  C   UNL A   1      31.337  28.359  24.800  1.00  0.00     0.224 A 
ATOM     22  N   UNL A   1      31.019  27.236  25.462  1.00  0.00    -0.245 NA
ENDBRANCH  12  17
ENDBRANCH   7   9
ENDBRANCH   6   7
ENDBRANCH   5   6
ENDBRANCH   4   5
ENDBRANCH   3   4
ENDBRANCH   2   3
ENDBRANCH   1   2
BRANCH   1  23
ATOM     23  O   UNL A   1      36.413  34.997  33.490  1.00  0.00    -0.376 OA
BRANCH  23  24
ATOM     24  C   UNL A   1      37.247  33.917  33.888  1.00  0.00     0.202 C 
BRANCH  24  25
ATOM     25  C   UNL A   1      36.632  32.548  34.177  1.00  0.00     0.261 C 
BRANCH  25  26
ATOM     26  O   UNL A   1      37.209  31.454  33.487  1.00  0.00    -0.460 OA
BRANCH  26  27
ATOM     27  C   UNL A   1      36.813  31.308  32.206  1.00  0.00     0.338 C 
ATOM     28  O   UNL A   1      35.752  31.667  31.725  1.00  0.00    -0.246 OA
BRANCH  27  29
ATOM     29  C   UNL A   1      37.880  30.609  31.483  1.00  0.00     0.060 A 
ATOM     30  C   UNL A   1      37.790  29.221  31.368  1.00  0.00     0.016 A 
ATOM     31  C   UNL A   1      39.053  31.313  31.163  1.00  0.00     0.016 A 
ATOM     32  C   UNL A   1      38.949  28.513  31.129  1.00  0.00     0.010 A 
ATOM     33  C   UNL A   1      40.208  30.606  30.946  1.00  0.00     0.010 A 
ATOM     34  C   UNL A   1      40.153  29.217  31.024  1.00  0.00    -0.014 A 
BRANCH  34  35
ATOM     35  C   UNL A   1      41.388  28.465  31.011  1.00  0.00     0.031 A 
ATOM     36  C   UNL A   1      42.006  28.311  32.339  1.00  0.00     0.074 A 
ATOM     37  C   UNL A   1      41.845  27.882  29.888  1.00  0.00     0.049 A 
ATOM     38  N   UNL A   1      43.105  28.837  32.761  1.00  0.00    -0.248 NA
ATOM     39  C   UNL A   1      41.225  27.628  33.381  1.00  0.00     0.031 C 
ATOM     40  C   UNL A   1      41.157  27.777  28.596  1.00  0.00     0.029 A 
ATOM     41  N   UNL A   1      42.982  27.162  29.694  1.00  0.00    -0.354 N 
ATOM     42  C   UNL A   1      43.283  28.335  34.042  1.00  0.00     0.074 A 
ATOM     43  C   UNL A   1      42.010  27.801  34.444  1.00  0.00     0.031 C 
ATOM     44  C   UNL A   1      41.787  26.861  27.829  1.00  0.00     0.029 A 
ATOM     45  C   UNL A   1      42.990  26.421  28.517  1.00  0.00     0.049 A 
ATOM     46  H   UNL A   1      43.734  27.163  30.330  1.00  0.00     0.167 HD
ATOM     47  C   UNL A   1      44.530  28.141  34.546  1.00  0.00     0.034 A 
ATOM     48  C   UNL A   1      43.886  25.466  28.157  1.00  0.00     0.034 A 
ATOM     49  C   UNL A   1      45.515  28.894  33.802  1.00  0.00     0.049 A 
ATOM     50  C   UNL A   1      45.123  25.719  28.932  1.00  0.00     0.074 A 
ATOM     51  C   UNL A   1      45.727  30.235  33.547  1.00  0.00     0.029 A 
ATOM     52  N   UNL A   1      46.266  28.209  32.876  1.00  0.00    -0.354 N 
ATOM     53  N   UNL A   1      45.855  26.788  28.780  1.00  0.00    -0.248 NA
ATOM     54  C   UNL A   1      45.325  25.017  30.192  1.00  0.00     0.031 C 
ATOM     55  C   UNL A   1      46.245  30.288  32.219  1.00  0.00     0.029 A 
ATOM     56  C   UNL A   1      46.373  28.980  31.745  1.00  0.00     0.049 A 
ATOM     57  H   UNL A   1      46.660  27.315  33.002  1.00  0.00     0.167 HD
ATOM     58  C   UNL A   1      46.255  27.137  30.059  1.00  0.00     0.074 A 
ATOM     59  C   UNL A   1      46.026  25.940  30.860  1.00  0.00     0.031 C 
ATOM     60  C   UNL A   1      46.460  28.446  30.396  1.00  0.00     0.034 A 
BRANCH  47  61
ATOM     61  C   UNL A   1      44.908  26.975  35.433  1.00  0.00     0.023 A 
ATOM     62  C   UNL A   1      44.980  25.708  34.828  1.00  0.00     0.031 A 
ATOM     63  C   UNL A   1      44.910  26.981  36.849  1.00  0.00     0.131 A 
ATOM     64  C   UNL A   1      44.953  24.536  35.602  1.00  0.00     0.055 A 
ATOM     65  C   UNL A   1      44.958  25.815  37.615  1.00  0.00     0.041 A 
ATOM     66  F   UNL A   1      44.765  28.095  37.574  1.00  0.00    -0.206 F 
ATOM     67  C   UNL A   1      44.946  24.581  36.994  1.00  0.00     0.022 A 
BRANCH  64  68
ATOM     68  S   UNL A   1      44.733  22.953  34.754  1.00  0.00     0.124 S 
ATOM     69  O   UNL A   1      45.526  22.059  35.592  1.00  0.00    -0.237 OA
ATOM     70  O   UNL A   1      43.286  22.782  34.814  1.00  0.00    -0.237 OA
ATOM     71  O   UNL A   1      45.279  23.205  33.422  1.00  0.00    -0.744 OA
ENDBRANCH  64  68
ENDBRANCH  47  61
BRANCH  48  72
ATOM     72  C   UNL A   1      43.578  24.195  27.453  1.00  0.00     0.023 A 
ATOM     73  C   UNL A   1      44.313  23.722  26.348  1.00  0.00     0.031 A 
ATOM     74  C   UNL A   1      42.647  23.299  28.028  1.00  0.00     0.131 A 
ATOM     75  C   UNL A   1      44.100  22.409  25.864  1.00  0.00     0.055 A 
ATOM     76  C   UNL A   1      42.433  22.009  27.541  1.00  0.00     0.041 A 
ATOM     77  F   UNL A   1      41.968  23.622  29.142  1.00  0.00    -0.206 F 
ATOM     78  C   UNL A   1      43.166  21.555  26.458  1.00  0.00     0.022 A 
BRANCH  75  79
ATOM     79  S   UNL A   1      45.097  21.761  24.484  1.00  0.00     0.124 S 
ATOM     80  O   UNL A   1      46.362  21.440  25.132  1.00  0.00    -0.237 OA
ATOM     81  O   UNL A   1      44.295  20.630  24.029  1.00  0.00    -0.237 OA
ATOM     82  O   UNL A   1      45.156  22.884  23.546  1.00  0.00    -0.744 OA
ENDBRANCH  75  79
ENDBRANCH  48  72
BRANCH  60  83
ATOM     83  C   UNL A   1      46.581  29.448  29.264  1.00  0.00     0.023 A 
ATOM     84  C   UNL A   1      45.487  30.045  28.596  1.00  0.00     0.031 A 
ATOM     85  C   UNL A   1      47.872  29.886  28.922  1.00  0.00     0.131 A 
ATOM     86  C   UNL A   1      45.712  31.029  27.614  1.00  0.00     0.055 A 
ATOM     87  C   UNL A   1      48.089  30.876  27.964  1.00  0.00     0.041 A 
ATOM     88  F   UNL A   1      48.950  29.381  29.545  1.00  0.00    -0.206 F 
ATOM     89  C   UNL A   1      47.009  31.448  27.301  1.00  0.00     0.022 A 
BRANCH  86  90
ATOM     90  S   UNL A   1      44.312  31.784  26.724  1.00  0.00     0.124 S 
ATOM     91  O   UNL A   1      43.815  32.786  27.660  1.00  0.00    -0.237 OA
ATOM     92  O   UNL A   1      44.946  32.299  25.513  1.00  0.00    -0.237 OA
ATOM     93  O   UNL A   1      43.404  30.658  26.499  1.00  0.00    -0.744 OA
ENDBRANCH  86  90
ENDBRANCH  60  83
ENDBRANCH  34  35
ENDBRANCH  27  29
ENDBRANCH  26  27
ENDBRANCH  25  26
ENDBRANCH  24  25
ENDBRANCH  23  24
ENDBRANCH   1  23
TORSDOF 22
ENDMDL
MODEL 2
REMARK VINA RESULT:      -9.3      4.302     10.481
REMARK SMILES CCc1nn(-c2ccncn2)c(Cl)c1C(=O)OCCOCCOCCOC(=O)c1ccc(-c2c3nc(c(-c4cc(S(=O)(=O)[O-])ccc4F)c4ccc([nH]4)c(-c4cc(S(=O)(=O)[O-])ccc4F)c4nc(c(-c5cc(S(=O)(=O)[O-])ccc5F)c5ccc2[nH]5)C=C4)C=C3)cc1
REMARK SMILES IDX 22 1 21 2 20 3 19 4 18 5 17 6 15 7 16 8 14 9 3 10 4 11 5 12
REMARK SMILES IDX 12 13 13 14 2 15 1 16 6 17 7 18 11 19 8 20 10 21 9 22 23 23
REMARK SMILES IDX 24 24 25 25 26 26 27 27 28 28 29 29 30 30 91 31 31 32 90 33
REMARK SMILES IDX 32 34 33 35 34 36 84 37 35 38 89 39 83 40 85 41 36 42 88 43
REMARK SMILES IDX 82 44 81 45 37 47 69 48 49 49 68 50 50 51 53 52 67 53 86 54
REMARK SMILES IDX 51 55 52 56 66 58 87 59 54 60 38 61 39 62 47 63 40 64 46 65
REMARK SMILES IDX 48 66 45 67 41 68 42 69 43 70 44 71 70 72 71 73 79 74 72 75
REMARK SMILES IDX 78 76 80 77 77 78 73 79 74 80 75 81 76 82 55 83 56 84 64 85
REMARK SMILES IDX 57 86 63 87 65 88 62 89 58 90 59 91 60 92 61 93
REMARK H PARENT 85 46 53 57
REMARK Flexibility Score: inf
ROOT
ATOM      1  C   UNL A   1      36.278  22.117  25.098  1.00  0.00     0.188 C 
ENDROOT
BRANCH   1   2
ATOM      2  C   UNL A   1      36.668  22.497  23.652  1.00  0.00     0.188 C 
BRANCH   2   3
ATOM      3  O   UNL A   1      35.709  23.049  22.755  1.00  0.00    -0.376 OA
BRANCH   3   4
ATOM      4  C   UNL A   1      34.516  23.637  23.255  1.00  0.00     0.202 C 
BRANCH   4   5
ATOM      5  C   UNL A   1      33.189  22.856  23.202  1.00  0.00     0.261 C 
BRANCH   5   6
ATOM      6  O   UNL A   1      32.180  23.330  24.108  1.00  0.00    -0.460 OA
BRANCH   6   7
ATOM      7  C   UNL A   1      31.207  24.125  23.567  1.00  0.00     0.343 C 
ATOM      8  O   UNL A   1      30.137  23.740  23.187  1.00  0.00    -0.246 OA
BRANCH   7   9
ATOM      9  C   UNL A   1      31.581  25.534  23.619  1.00  0.00     0.120 A 
ATOM     10  C   UNL A   1      31.807  26.516  22.608  1.00  0.00     0.079 A 
ATOM     11  N   UNL A   1      32.176  27.699  23.133  1.00  0.00    -0.169 NA
ATOM     12  N   UNL A   1      32.243  27.479  24.472  1.00  0.00    -0.203 N 
ATOM     13  C   UNL A   1      31.905  26.190  24.785  1.00  0.00     0.149 A 
ATOM     14  Cl  UNL A   1      32.000  25.626  26.396  1.00  0.00    -0.061 Cl
BRANCH  10  15
ATOM     15  C   UNL A   1      31.766  26.391  21.111  1.00  0.00     0.056 C 
ATOM     16  C   UNL A   1      32.769  25.422  20.513  1.00  0.00     0.011 C 
ENDBRANCH  10  15
BRANCH  12  17
ATOM     17  C   UNL A   1      32.621  28.501  25.377  1.00  0.00     0.158 A 
ATOM     18  C   UNL A   1      33.952  28.591  25.742  1.00  0.00     0.069 A 
ATOM     19  N   UNL A   1      31.629  29.211  25.964  1.00  0.00    -0.217 NA
ATOM     20  C   UNL A   1      34.220  29.465  26.770  1.00  0.00     0.117 A 
ATOM     21  C   UNL A   1      32.017  30.025  26.952  1.00  0.00     0.224 A 
ATOM     22  N   UNL A   1      33.272  30.188  27.396  1.00  0.00    -0.245 NA
ENDBRANCH  12  17
ENDBRANCH   7   9
ENDBRANCH   6   7
ENDBRANCH   5   6
ENDBRANCH   4   5
ENDBRANCH   3   4
ENDBRANCH   2   3
ENDBRANCH   1   2
BRANCH   1  23
ATOM     23  O   UNL A   1      37.126  21.155  25.698  1.00  0.00    -0.376 OA
BRANCH  23  24
ATOM     24  C   UNL A   1      38.527  21.387  25.695  1.00  0.00     0.202 C 
BRANCH  24  25
ATOM     25  C   UNL A   1      39.074  22.745  26.137  1.00  0.00     0.261 C 
BRANCH  25  26
ATOM     26  O   UNL A   1      40.013  22.715  27.197  1.00  0.00    -0.460 OA
BRANCH  26  27
ATOM     27  C   UNL A   1      41.093  23.506  27.031  1.00  0.00     0.338 C 
ATOM     28  O   UNL A   1      41.999  23.344  26.233  1.00  0.00    -0.246 OA
BRANCH  27  29
ATOM     29  C   UNL A   1      41.006  24.596  28.008  1.00  0.00     0.060 A 
ATOM     30  C   UNL A   1      39.777  25.239  28.161  1.00  0.00     0.016 A 
ATOM     31  C   UNL A   1      42.193  25.111  28.555  1.00  0.00     0.016 A 
ATOM     32  C   UNL A   1      39.772  26.514  28.687  1.00  0.00     0.010 A 
ATOM     33  C   UNL A   1      42.188  26.385  29.060  1.00  0.00     0.010 A 
ATOM     34  C   UNL A   1      40.994  27.099  29.033  1.00  0.00    -0.014 A 
BRANCH  34  35
ATOM     35  C   UNL A   1      41.011  28.508  29.359  1.00  0.00     0.031 A 
ATOM     36  C   UNL A   1      42.115  29.252  28.730  1.00  0.00     0.074 A 
ATOM     37  C   UNL A   1      40.030  29.073  30.086  1.00  0.00     0.049 A 
ATOM     38  N   UNL A   1      43.136  29.784  29.310  1.00  0.00    -0.248 NA
ATOM     39  C   UNL A   1      42.183  29.262  27.261  1.00  0.00     0.031 C 
ATOM     40  C   UNL A   1      38.776  28.451  30.526  1.00  0.00     0.029 A 
ATOM     41  N   UNL A   1      39.897  30.363  30.496  1.00  0.00    -0.354 N 
ATOM     42  C   UNL A   1      43.840  30.422  28.299  1.00  0.00     0.074 A 
ATOM     43  C   UNL A   1      43.346  29.880  27.062  1.00  0.00     0.031 C 
ATOM     44  C   UNL A   1      37.925  29.412  30.947  1.00  0.00     0.029 A 
ATOM     45  C   UNL A   1      38.619  30.691  30.935  1.00  0.00     0.049 A 
ATOM     46  H   UNL A   1      40.641  31.009  30.484  1.00  0.00     0.167 HD
ATOM     47  C   UNL A   1      44.559  31.547  28.555  1.00  0.00     0.034 A 
ATOM     48  C   UNL A   1      38.141  31.931  31.209  1.00  0.00     0.034 A 
ATOM     49  C   UNL A   1      44.825  31.683  29.969  1.00  0.00     0.049 A 
ATOM     50  C   UNL A   1      39.311  32.794  31.494  1.00  0.00     0.074 A 
ATOM     51  C   UNL A   1      45.495  30.929  30.913  1.00  0.00     0.029 A 
ATOM     52  N   UNL A   1      44.037  32.562  30.677  1.00  0.00    -0.354 N 
ATOM     53  N   UNL A   1      40.094  32.618  32.523  1.00  0.00    -0.248 NA
ATOM     54  C   UNL A   1      39.893  33.577  30.413  1.00  0.00     0.031 C 
ATOM     55  C   UNL A   1      44.757  31.096  32.122  1.00  0.00     0.029 A 
ATOM     56  C   UNL A   1      43.705  31.981  31.876  1.00  0.00     0.049 A 
ATOM     57  H   UNL A   1      43.759  33.457  30.375  1.00  0.00     0.167 HD
ATOM     58  C   UNL A   1      41.372  32.864  32.051  1.00  0.00     0.074 A 
ATOM     59  C   UNL A   1      41.174  33.588  30.800  1.00  0.00     0.031 C 
ATOM     60  C   UNL A   1      42.450  32.207  32.575  1.00  0.00     0.034 A 
BRANCH  47  61
ATOM     61  C   UNL A   1      44.668  32.713  27.598  1.00  0.00     0.023 A 
ATOM     62  C   UNL A   1      44.012  33.902  27.961  1.00  0.00     0.031 A 
ATOM     63  C   UNL A   1      45.111  32.640  26.255  1.00  0.00     0.131 A 
ATOM     64  C   UNL A   1      43.738  34.895  27.006  1.00  0.00     0.055 A 
ATOM     65  C   UNL A   1      44.900  33.663  25.327  1.00  0.00     0.041 A 
ATOM     66  F   UNL A   1      45.678  31.549  25.731  1.00  0.00    -0.206 F 
ATOM     67  C   UNL A   1      44.181  34.785  25.690  1.00  0.00     0.022 A 
BRANCH  64  68
ATOM     68  S   UNL A   1      42.625  36.245  27.468  1.00  0.00     0.124 S 
ATOM     69  O   UNL A   1      43.030  37.292  26.536  1.00  0.00    -0.237 OA
ATOM     70  O   UNL A   1      41.315  35.644  27.236  1.00  0.00    -0.237 OA
ATOM     71  O   UNL A   1      42.959  36.494  28.868  1.00  0.00    -0.744 OA
ENDBRANCH  64  68
ENDBRANCH  47  61
BRANCH  48  72
ATOM     72  C   UNL A   1      36.779  32.436  30.894  1.00  0.00     0.023 A 
ATOM     73  C   UNL A   1      35.920  33.000  31.857  1.00  0.00     0.031 A 
ATOM     74  C   UNL A   1      36.389  32.562  29.540  1.00  0.00     0.131 A 
ATOM     75  C   UNL A   1      34.730  33.651  31.450  1.00  0.00     0.055 A 
ATOM     76  C   UNL A   1      35.209  33.195  29.146  1.00  0.00     0.041 A 
ATOM     77  F   UNL A   1      37.187  32.141  28.545  1.00  0.00    -0.206 F 
ATOM     78  C   UNL A   1      34.377  33.749  30.101  1.00  0.00     0.022 A 
BRANCH  75  79
ATOM     79  S   UNL A   1      33.648  34.449  32.680  1.00  0.00     0.124 S 
ATOM     80  O   UNL A   1      33.122  33.312  33.424  1.00  0.00    -0.237 OA
ATOM     81  O   UNL A   1      34.580  35.317  33.394  1.00  0.00    -0.237 OA
ATOM     82  O   UNL A   1      32.662  35.157  31.861  1.00  0.00    -0.744 OA
ENDBRANCH  75  79
ENDBRANCH  48  72
BRANCH  60  83
ATOM     83  C   UNL A   1      42.256  31.486  33.894  1.00  0.00     0.023 A 
ATOM     84  C   UNL A   1      42.083  30.089  34.030  1.00  0.00     0.031 A 
ATOM     85  C   UNL A   1      42.351  32.248  35.071  1.00  0.00     0.131 A 
ATOM     86  C   UNL A   1      41.995  29.510  35.311  1.00  0.00     0.055 A 
ATOM     87  C   UNL A   1      42.286  31.669  36.338  1.00  0.00     0.041 A 
ATOM     88  F   UNL A   1      42.549  33.576  35.007  1.00  0.00    -0.206 F 
ATOM     89  C   UNL A   1      42.101  30.297  36.463  1.00  0.00     0.022 A 
BRANCH  86  90
ATOM     90  S   UNL A   1      41.742  27.715  35.500  1.00  0.00     0.124 S 
ATOM     91  O   UNL A   1      41.089  27.598  36.798  1.00  0.00    -0.237 OA
ATOM     92  O   UNL A   1      40.920  27.387  34.338  1.00  0.00    -0.237 OA
ATOM     93  O   UNL A   1      43.101  27.172  35.451  1.00  0.00    -0.744 OA
ENDBRANCH  86  90
ENDBRANCH  60  83
ENDBRANCH  34  35
ENDBRANCH  27  29
ENDBRANCH  26  27
ENDBRANCH  25  26
ENDBRANCH  24  25
ENDBRANCH  23  24
ENDBRANCH   1  23
TORSDOF 22
ENDMDL
MODEL 3
REMARK VINA RESULT:      -9.2      5.698     11.057
REMARK SMILES CCc1nn(-c2ccncn2)c(Cl)c1C(=O)OCCOCCOCCOC(=O)c1ccc(-c2c3nc(c(-c4cc(S(=O)(=O)[O-])ccc4F)c4ccc([nH]4)c(-c4cc(S(=O)(=O)[O-])ccc4F)c4nc(c(-c5cc(S(=O)(=O)[O-])ccc5F)c5ccc2[nH]5)C=C4)C=C3)cc1
REMARK SMILES IDX 22 1 21 2 20 3 19 4 18 5 17 6 15 7 16 8 14 9 3 10 4 11 5 12
REMARK SMILES IDX 12 13 13 14 2 15 1 16 6 17 7 18 11 19 8 20 10 21 9 22 23 23
REMARK SMILES IDX 24 24 25 25 26 26 27 27 28 28 29 29 30 30 91 31 31 32 90 33
REMARK SMILES IDX 32 34 33 35 34 36 84 37 35 38 89 39 83 40 85 41 36 42 88 43
REMARK SMILES IDX 82 44 81 45 37 47 69 48 49 49 68 50 50 51 53 52 67 53 86 54
REMARK SMILES IDX 51 55 52 56 66 58 87 59 54 60 38 61 39 62 47 63 40 64 46 65
REMARK SMILES IDX 48 66 45 67 41 68 42 69 43 70 44 71 70 72 71 73 79 74 72 75
REMARK SMILES IDX 78 76 80 77 77 78 73 79 74 80 75 81 76 82 55 83 56 84 64 85
REMARK SMILES IDX 57 86 63 87 65 88 62 89 58 90 59 91 60 92 61 93
REMARK H PARENT 85 46 53 57
REMARK Flexibility Score: inf
ROOT
ATOM      1  C   UNL A   1      36.394  22.508  25.234  1.00  0.00     0.188 C 
ENDROOT
BRANCH   1   2
ATOM      2  C   UNL A   1      36.785  22.802  23.769  1.00  0.00     0.188 C 
BRANCH   2   3
ATOM      3  O   UNL A   1      35.830  23.305  22.840  1.00  0.00    -0.376 OA
BRANCH   3   4
ATOM      4  C   UNL A   1      34.458  23.389  23.200  1.00  0.00     0.202 C 
BRANCH   4   5
ATOM      5  C   UNL A   1      33.365  23.087  22.157  1.00  0.00     0.261 C 
BRANCH   5   6
ATOM      6  O   UNL A   1      32.145  22.561  22.704  1.00  0.00    -0.460 OA
BRANCH   6   7
ATOM      7  C   UNL A   1      31.888  21.243  22.447  1.00  0.00     0.343 C 
ATOM      8  O   UNL A   1      31.544  20.803  21.386  1.00  0.00    -0.246 OA
BRANCH   7   9
ATOM      9  C   UNL A   1      32.204  20.405  23.598  1.00  0.00     0.120 A 
ATOM     10  C   UNL A   1      32.325  20.679  24.994  1.00  0.00     0.079 A 
ATOM     11  N   UNL A   1      32.675  19.582  25.691  1.00  0.00    -0.169 NA
ATOM     12  N   UNL A   1      32.834  18.612  24.754  1.00  0.00    -0.203 N 
ATOM     13  C   UNL A   1      32.571  19.082  23.496  1.00  0.00     0.149 A 
ATOM     14  Cl  UNL A   1      32.790  18.085  22.124  1.00  0.00    -0.061 Cl
BRANCH  10  15
ATOM     15  C   UNL A   1      32.197  21.978  25.740  1.00  0.00     0.056 C 
ATOM     16  C   UNL A   1      33.051  22.095  26.990  1.00  0.00     0.011 C 
ENDBRANCH  10  15
BRANCH  12  17
ATOM     17  C   UNL A   1      33.224  17.296  25.104  1.00  0.00     0.158 A 
ATOM     18  C   UNL A   1      34.556  16.950  24.967  1.00  0.00     0.069 A 
ATOM     19  N   UNL A   1      32.240  16.408  25.380  1.00  0.00    -0.217 NA
ATOM     20  C   UNL A   1      34.834  15.613  25.126  1.00  0.00     0.117 A 
ATOM     21  C   UNL A   1      32.638  15.137  25.510  1.00  0.00     0.224 A 
ATOM     22  N   UNL A   1      33.895  14.685  25.391  1.00  0.00    -0.245 NA
ENDBRANCH  12  17
ENDBRANCH   7   9
ENDBRANCH   6   7
ENDBRANCH   5   6
ENDBRANCH   4   5
ENDBRANCH   3   4
ENDBRANCH   2   3
ENDBRANCH   1   2
BRANCH   1  23
ATOM     23  O   UNL A   1      37.320  21.701  25.937  1.00  0.00    -0.376 OA
BRANCH  23  24
ATOM     24  C   UNL A   1      38.695  22.053  25.897  1.00  0.00     0.202 C 
BRANCH  24  25
ATOM     25  C   UNL A   1      39.158  23.380  26.500  1.00  0.00     0.261 C 
BRANCH  25  26
ATOM     26  O   UNL A   1      40.079  23.282  27.573  1.00  0.00    -0.460 OA
BRANCH  26  27
ATOM     27  C   UNL A   1      41.219  23.987  27.419  1.00  0.00     0.338 C 
ATOM     28  O   UNL A   1      42.143  23.725  26.669  1.00  0.00    -0.246 OA
BRANCH  27  29
ATOM     29  C   UNL A   1      41.170  25.126  28.341  1.00  0.00     0.060 A 
ATOM     30  C   UNL A   1      40.054  25.962  28.287  1.00  0.00     0.016 A 
ATOM     31  C   UNL A   1      42.333  25.473  29.048  1.00  0.00     0.016 A 
ATOM     32  C   UNL A   1      40.181  27.246  28.773  1.00  0.00     0.010 A 
ATOM     33  C   UNL A   1      42.463  26.757  29.512  1.00  0.00     0.010 A 
ATOM     34  C   UNL A   1      41.419  27.648  29.284  1.00  0.00    -0.014 A 
BRANCH  34  35
ATOM     35  C   UNL A   1      41.619  29.051  29.571  1.00  0.00     0.031 A 
ATOM     36  C   UNL A   1      42.753  29.652  28.850  1.00  0.00     0.074 A 
ATOM     37  C   UNL A   1      40.763  29.739  30.348  1.00  0.00     0.049 A 
ATOM     38  N   UNL A   1      43.867  30.074  29.345  1.00  0.00    -0.248 NA
ATOM     39  C   UNL A   1      42.718  29.627  27.380  1.00  0.00     0.031 C 
ATOM     40  C   UNL A   1      39.480  29.274  30.888  1.00  0.00     0.029 A 
ATOM     41  N   UNL A   1      40.807  31.043  30.732  1.00  0.00    -0.354 N 
ATOM     42  C   UNL A   1      44.566  30.607  28.271  1.00  0.00     0.074 A 
ATOM     43  C   UNL A   1      43.928  30.103  27.086  1.00  0.00     0.031 C 
ATOM     44  C   UNL A   1      38.776  30.334  31.341  1.00  0.00     0.029 A 
ATOM     45  C   UNL A   1      39.609  31.524  31.248  1.00  0.00     0.049 A 
ATOM     46  H   UNL A   1      41.616  31.599  30.653  1.00  0.00     0.167 HD
ATOM     47  C   UNL A   1      45.424  31.646  28.448  1.00  0.00     0.034 A 
ATOM     48  C   UNL A   1      39.294  32.816  31.521  1.00  0.00     0.034 A 
ATOM     49  C   UNL A   1      45.803  31.777  29.837  1.00  0.00     0.049 A 
ATOM     50  C   UNL A   1      40.573  33.543  31.703  1.00  0.00     0.074 A 
ATOM     51  C   UNL A   1      46.448  30.968  30.753  1.00  0.00     0.029 A 
ATOM     52  N   UNL A   1      45.172  32.753  30.574  1.00  0.00    -0.354 N 
ATOM     53  N   UNL A   1      41.400  33.297  32.682  1.00  0.00    -0.248 NA
ATOM     54  C   UNL A   1      41.162  34.234  30.565  1.00  0.00     0.031 C 
ATOM     55  C   UNL A   1      45.821  31.241  32.004  1.00  0.00     0.029 A 
ATOM     56  C   UNL A   1      44.861  32.237  31.807  1.00  0.00     0.049 A 
ATOM     57  H   UNL A   1      44.977  33.669  30.268  1.00  0.00     0.167 HD
ATOM     58  C   UNL A   1      42.662  33.386  32.117  1.00  0.00     0.074 A 
ATOM     59  C   UNL A   1      42.460  34.105  30.864  1.00  0.00     0.031 C 
ATOM     60  C   UNL A   1      43.693  32.619  32.583  1.00  0.00     0.034 A 
BRANCH  47  61
ATOM     61  C   UNL A   1      45.597  32.774  27.455  1.00  0.00     0.023 A 
ATOM     62  C   UNL A   1      46.884  32.966  26.923  1.00  0.00     0.031 A 
ATOM     63  C   UNL A   1      44.676  33.826  27.232  1.00  0.00     0.131 A 
ATOM     64  C   UNL A   1      47.234  34.177  26.303  1.00  0.00     0.055 A 
ATOM     65  C   UNL A   1      45.009  34.998  26.549  1.00  0.00     0.041 A 
ATOM     66  F   UNL A   1      43.440  33.834  27.741  1.00  0.00    -0.206 F 
ATOM     67  C   UNL A   1      46.303  35.194  26.109  1.00  0.00     0.022 A 
BRANCH  64  68
ATOM     68  S   UNL A   1      48.979  34.473  25.925  1.00  0.00     0.124 S 
ATOM     69  O   UNL A   1      48.892  35.113  24.617  1.00  0.00    -0.237 OA
ATOM     70  O   UNL A   1      49.384  35.326  27.037  1.00  0.00    -0.237 OA
ATOM     71  O   UNL A   1      49.556  33.131  25.924  1.00  0.00    -0.744 OA
ENDBRANCH  64  68
ENDBRANCH  47  61
BRANCH  48  72
ATOM     72  C   UNL A   1      37.980  33.468  31.286  1.00  0.00     0.023 A 
ATOM     73  C   UNL A   1      37.268  33.364  30.076  1.00  0.00     0.031 A 
ATOM     74  C   UNL A   1      37.295  34.047  32.380  1.00  0.00     0.131 A 
ATOM     75  C   UNL A   1      35.934  33.829  29.995  1.00  0.00     0.055 A 
ATOM     76  C   UNL A   1      35.983  34.514  32.293  1.00  0.00     0.041 A 
ATOM     77  F   UNL A   1      37.856  34.103  33.600  1.00  0.00    -0.206 F 
ATOM     78  C   UNL A   1      35.293  34.401  31.099  1.00  0.00     0.022 A 
BRANCH  75  79
ATOM     79  S   UNL A   1      34.978  33.633  28.457  1.00  0.00     0.124 S 
ATOM     80  O   UNL A   1      34.521  34.991  28.193  1.00  0.00    -0.237 OA
ATOM     81  O   UNL A   1      35.977  33.094  27.540  1.00  0.00    -0.237 OA
ATOM     82  O   UNL A   1      33.920  32.691  28.829  1.00  0.00    -0.744 OA
ENDBRANCH  75  79
ENDBRANCH  48  72
BRANCH  60  83
ATOM     83  C   UNL A   1      43.511  31.949  33.931  1.00  0.00     0.023 A 
ATOM     84  C   UNL A   1      42.766  30.767  34.149  1.00  0.00     0.031 A 
ATOM     85  C   UNL A   1      44.213  32.487  35.023  1.00  0.00     0.131 A 
ATOM     86  C   UNL A   1      42.732  30.180  35.430  1.00  0.00     0.055 A 
ATOM     87  C   UNL A   1      44.195  31.892  36.284  1.00  0.00     0.041 A 
ATOM     88  F   UNL A   1      44.966  33.590  34.871  1.00  0.00    -0.206 F 
ATOM     89  C   UNL A   1      43.448  30.738  36.494  1.00  0.00     0.022 A 
BRANCH  86  90
ATOM     90  S   UNL A   1      41.751  28.674  35.731  1.00  0.00     0.124 S 
ATOM     91  O   UNL A   1      40.452  29.191  36.144  1.00  0.00    -0.237 OA
ATOM     92  O   UNL A   1      41.791  28.005  34.433  1.00  0.00    -0.237 OA
ATOM     93  O   UNL A   1      42.497  27.988  36.788  1.00  0.00    -0.744 OA
ENDBRANCH  86  90
ENDBRANCH  60  83
ENDBRANCH  34  35
ENDBRANCH  27  29
ENDBRANCH  26  27
ENDBRANCH  25  26
ENDBRANCH  24  25
ENDBRANCH  23  24
ENDBRANCH   1  23
TORSDOF 22
ENDMDL
