MODEL 1
REMARK VINA RESULT:     -11.7      0.000      0.000
REMARK SMILES Cc1nsc(NC(=O)[C@H]2Cc3[nH]cnc3C[NH2+]2)c1C(=O)OCCOCCOCCOC(=O)c1ccc(-c2c3nc(c(-c4cc(S(=O)(=O)[O-])ccc4F)c4ccc([nH]4)c(-c4cc(S(=O)(=O)[O-])ccc4F)c4nc(c(-c5cc(S(=O)(=O)[O-])ccc5F)c5ccc2[nH]5)C=C4)C=C3)cc1
REMARK SMILES IDX 26 1 25 2 24 3 23 4 22 5 21 6 19 7 20 8 18 9 1 10 2 11 3 12
REMARK SMILES IDX 4 13 5 14 6 15 7 16 8 18 9 19 10 20 17 21 11 22 16 23 12 26
REMARK SMILES IDX 15 27 13 28 14 30 27 31 28 32 29 33 30 34 31 35 32 36 33 37
REMARK SMILES IDX 34 38 95 39 35 40 94 41 36 42 37 43 38 44 88 45 39 46 93 47
REMARK SMILES IDX 87 48 89 49 40 50 92 51 86 52 85 53 41 55 73 56 53 57 72 58
REMARK SMILES IDX 54 59 57 60 71 61 90 62 55 63 56 64 70 66 91 67 58 68 42 69
REMARK SMILES IDX 43 70 51 71 44 72 50 73 52 74 49 75 45 76 46 77 47 78 48 79
REMARK SMILES IDX 74 80 75 81 83 82 76 83 82 84 84 85 81 86 77 87 78 88 79 89
REMARK SMILES IDX 80 90 59 91 60 92 68 93 61 94 67 95 69 96 66 97 62 98 63 99
REMARK SMILES IDX 64 100 65 101
REMARK H PARENT 6 17 17 24 17 25 12 29 89 54 57 65
REMARK Flexibility Score: inf
ROOT
ATOM      1  C   UNL A   1      34.579  33.119  28.560  1.00  0.00     0.188 C 
ENDROOT
BRANCH   1   2
ATOM      2  C   UNL A   1      35.138  31.838  27.910  1.00  0.00     0.188 C 
BRANCH   2   3
ATOM      3  O   UNL A   1      34.606  30.565  28.255  1.00  0.00    -0.376 OA
BRANCH   3   4
ATOM      4  C   UNL A   1      33.489  30.051  27.539  1.00  0.00     0.202 C 
BRANCH   4   5
ATOM      5  C   UNL A   1      33.739  29.011  26.427  1.00  0.00     0.261 C 
BRANCH   5   6
ATOM      6  O   UNL A   1      32.552  28.572  25.735  1.00  0.00    -0.460 OA
BRANCH   6   7
ATOM      7  C   UNL A   1      32.055  27.343  26.057  1.00  0.00     0.343 C 
ATOM      8  O   UNL A   1      31.537  27.060  27.129  1.00  0.00    -0.246 OA
BRANCH   7   9
ATOM      9  C   UNL A   1      31.956  26.478  24.887  1.00  0.00     0.117 A 
ATOM     10  C   UNL A   1      33.561  27.641  23.168  1.00  0.00     0.069 C 
ATOM     11  C   UNL A   1      32.519  26.658  23.569  1.00  0.00     0.068 A 
ATOM     12  N   UNL A   1      32.026  25.860  22.615  1.00  0.00    -0.195 NA
ATOM     13  S   UNL A   1      30.770  24.984  23.260  1.00  0.00    -0.017 S 
ATOM     14  C   UNL A   1      31.173  25.333  24.885  1.00  0.00     0.131 A 
BRANCH  14  15
ATOM     15  N   UNL A   1      30.567  24.723  25.953  1.00  0.00    -0.310 N 
ATOM     16  C   UNL A   1      30.922  23.632  26.687  1.00  0.00     0.283 C 
ATOM     17  H   UNL A   1      29.728  25.148  26.240  1.00  0.00     0.171 HD
ATOM     18  O   UNL A   1      30.143  23.354  27.611  1.00  0.00    -0.268 OA
BRANCH  16  19
ATOM     19  C   UNL A   1      32.181  22.774  26.434  1.00  0.00     0.279 C 
ATOM     20  C   UNL A   1      33.122  22.424  27.626  1.00  0.00     0.131 C 
ATOM     21  N   UNL A   1      31.773  21.477  25.758  1.00  0.00    -0.331 N 
ATOM     22  C   UNL A   1      34.340  21.941  26.927  1.00  0.00     0.050 A 
ATOM     23  C   UNL A   1      32.866  20.480  25.539  1.00  0.00     0.320 C 
ATOM     24  H   UNL A   1      31.377  21.710  24.849  1.00  0.00     0.347 HD
ATOM     25  H   UNL A   1      31.118  21.028  26.398  1.00  0.00     0.347 HD
ATOM     26  N   UNL A   1      35.542  22.559  26.735  1.00  0.00    -0.348 N 
ATOM     27  C   UNL A   1      34.204  21.049  25.889  1.00  0.00     0.116 A 
ATOM     28  C   UNL A   1      36.079  22.006  25.597  1.00  0.00     0.197 A 
ATOM     29  H   UNL A   1      35.943  23.261  27.297  1.00  0.00     0.167 HD
ATOM     30  N   UNL A   1      35.317  21.053  25.098  1.00  0.00    -0.236 NA
ENDBRANCH  16  19
ENDBRANCH  14  15
ENDBRANCH   7   9
ENDBRANCH   6   7
ENDBRANCH   5   6
ENDBRANCH   4   5
ENDBRANCH   3   4
ENDBRANCH   2   3
ENDBRANCH   1   2
BRANCH   1  31
ATOM     31  O   UNL A   1      35.044  33.370  29.870  1.00  0.00    -0.376 OA
BRANCH  31  32
ATOM     32  C   UNL A   1      36.445  33.372  30.080  1.00  0.00     0.202 C 
BRANCH  32  33
ATOM     33  C   UNL A   1      37.020  32.285  30.986  1.00  0.00     0.261 C 
BRANCH  33  34
ATOM     34  O   UNL A   1      37.614  31.198  30.299  1.00  0.00    -0.460 OA
BRANCH  34  35
ATOM     35  C   UNL A   1      37.101  29.984  30.576  1.00  0.00     0.338 C 
ATOM     36  O   UNL A   1      36.206  29.737  31.376  1.00  0.00    -0.246 OA
BRANCH  35  37
ATOM     37  C   UNL A   1      37.816  28.992  29.770  1.00  0.00     0.060 A 
ATOM     38  C   UNL A   1      38.403  27.934  30.462  1.00  0.00     0.016 A 
ATOM     39  C   UNL A   1      38.195  29.340  28.463  1.00  0.00     0.016 A 
ATOM     40  C   UNL A   1      39.594  27.451  29.981  1.00  0.00     0.010 A 
ATOM     41  C   UNL A   1      39.393  28.873  27.994  1.00  0.00     0.010 A 
ATOM     42  C   UNL A   1      40.127  28.038  28.827  1.00  0.00    -0.014 A 
BRANCH  42  43
ATOM     43  C   UNL A   1      41.514  27.782  28.529  1.00  0.00     0.031 A 
ATOM     44  C   UNL A   1      41.732  26.496  27.846  1.00  0.00     0.074 A 
ATOM     45  C   UNL A   1      42.480  28.676  28.817  1.00  0.00     0.049 A 
ATOM     46  N   UNL A   1      42.320  25.448  28.311  1.00  0.00    -0.248 NA
ATOM     47  C   UNL A   1      41.045  26.290  26.564  1.00  0.00     0.031 C 
ATOM     48  C   UNL A   1      42.345  30.069  29.253  1.00  0.00     0.029 A 
ATOM     49  N   UNL A   1      43.822  28.531  28.680  1.00  0.00    -0.354 N 
ATOM     50  C   UNL A   1      42.261  24.508  27.292  1.00  0.00     0.074 A 
ATOM     51  C   UNL A   1      41.305  25.004  26.339  1.00  0.00     0.031 C 
ATOM     52  C   UNL A   1      43.538  30.695  29.116  1.00  0.00     0.029 A 
ATOM     53  C   UNL A   1      44.540  29.718  28.720  1.00  0.00     0.049 A 
ATOM     54  H   UNL A   1      44.251  27.653  28.562  1.00  0.00     0.167 HD
ATOM     55  C   UNL A   1      43.170  23.501  27.209  1.00  0.00     0.034 A 
ATOM     56  C   UNL A   1      45.846  29.879  28.367  1.00  0.00     0.034 A 
ATOM     57  C   UNL A   1      43.832  23.294  28.476  1.00  0.00     0.049 A 
ATOM     58  C   UNL A   1      46.474  28.533  28.450  1.00  0.00     0.074 A 
ATOM     59  C   UNL A   1      43.393  22.927  29.734  1.00  0.00     0.029 A 
ATOM     60  N   UNL A   1      45.070  23.867  28.671  1.00  0.00    -0.354 N 
ATOM     61  N   UNL A   1      46.615  27.878  29.571  1.00  0.00    -0.248 NA
ATOM     62  C   UNL A   1      46.478  27.704  27.251  1.00  0.00     0.031 C 
ATOM     63  C   UNL A   1      44.140  23.738  30.639  1.00  0.00     0.029 A 
ATOM     64  C   UNL A   1      45.046  24.497  29.894  1.00  0.00     0.049 A 
ATOM     65  H   UNL A   1      45.833  23.830  28.049  1.00  0.00     0.167 HD
ATOM     66  C   UNL A   1      46.297  26.561  29.267  1.00  0.00     0.074 A 
ATOM     67  C   UNL A   1      46.306  26.500  27.807  1.00  0.00     0.031 C 
ATOM     68  C   UNL A   1      45.777  25.715  30.207  1.00  0.00     0.034 A 
BRANCH  55  69
ATOM     69  C   UNL A   1      43.672  22.928  25.908  1.00  0.00     0.023 A 
ATOM     70  C   UNL A   1      43.635  21.530  25.755  1.00  0.00     0.031 A 
ATOM     71  C   UNL A   1      44.412  23.634  24.931  1.00  0.00     0.131 A 
ATOM     72  C   UNL A   1      44.359  20.899  24.729  1.00  0.00     0.055 A 
ATOM     73  C   UNL A   1      45.071  23.008  23.872  1.00  0.00     0.041 A 
ATOM     74  F   UNL A   1      44.630  24.953  24.995  1.00  0.00    -0.206 F 
ATOM     75  C   UNL A   1      45.072  21.630  23.781  1.00  0.00     0.022 A 
BRANCH  72  76
ATOM     76  S   UNL A   1      44.500  19.096  24.758  1.00  0.00     0.124 S 
ATOM     77  O   UNL A   1      43.136  18.694  25.088  1.00  0.00    -0.237 OA
ATOM     78  O   UNL A   1      44.947  18.809  23.398  1.00  0.00    -0.237 OA
ATOM     79  O   UNL A   1      45.489  18.851  25.805  1.00  0.00    -0.744 OA
ENDBRANCH  72  76
ENDBRANCH  55  69
BRANCH  56  80
ATOM     80  C   UNL A   1      46.412  31.012  27.582  1.00  0.00     0.023 A 
ATOM     81  C   UNL A   1      45.614  32.007  26.978  1.00  0.00     0.031 A 
ATOM     82  C   UNL A   1      47.804  31.258  27.621  1.00  0.00     0.131 A 
ATOM     83  C   UNL A   1      46.213  33.175  26.442  1.00  0.00     0.055 A 
ATOM     84  C   UNL A   1      48.389  32.409  27.090  1.00  0.00     0.041 A 
ATOM     85  F   UNL A   1      48.641  30.421  28.255  1.00  0.00    -0.206 F 
ATOM     86  C   UNL A   1      47.593  33.379  26.504  1.00  0.00     0.022 A 
BRANCH  83  87
ATOM     87  S   UNL A   1      45.188  34.498  25.718  1.00  0.00     0.124 S 
ATOM     88  O   UNL A   1      43.900  34.282  26.366  1.00  0.00    -0.237 OA
ATOM     89  O   UNL A   1      45.914  35.703  26.101  1.00  0.00    -0.237 OA
ATOM     90  O   UNL A   1      45.209  34.202  24.284  1.00  0.00    -0.744 OA
ENDBRANCH  83  87
ENDBRANCH  56  80
BRANCH  68  91
ATOM     91  C   UNL A   1      45.775  26.162  31.660  1.00  0.00     0.023 A 
ATOM     92  C   UNL A   1      44.661  26.714  32.339  1.00  0.00     0.031 A 
ATOM     93  C   UNL A   1      46.924  25.885  32.422  1.00  0.00     0.131 A 
ATOM     94  C   UNL A   1      44.733  26.970  33.725  1.00  0.00     0.055 A 
ATOM     95  C   UNL A   1      46.983  26.119  33.795  1.00  0.00     0.041 A 
ATOM     96  F   UNL A   1      48.007  25.339  31.844  1.00  0.00    -0.206 F 
ATOM     97  C   UNL A   1      45.888  26.666  34.453  1.00  0.00     0.022 A 
BRANCH  94  98
ATOM     98  S   UNL A   1      43.325  27.716  34.614  1.00  0.00     0.124 S 
ATOM     99  O   UNL A   1      43.151  29.006  33.958  1.00  0.00    -0.237 OA
ATOM    100  O   UNL A   1      42.261  26.739  34.398  1.00  0.00    -0.237 OA
ATOM    101  O   UNL A   1      43.800  27.797  35.997  1.00  0.00    -0.744 OA
ENDBRANCH  94  98
ENDBRANCH  68  91
ENDBRANCH  42  43
ENDBRANCH  35  37
ENDBRANCH  34  35
ENDBRANCH  33  34
ENDBRANCH  32  33
ENDBRANCH  31  32
ENDBRANCH   1  31
TORSDOF 22
ENDMDL
MODEL 2
REMARK VINA RESULT:     -11.2      3.396      8.985
REMARK SMILES Cc1nsc(NC(=O)[C@H]2Cc3[nH]cnc3C[NH2+]2)c1C(=O)OCCOCCOCCOC(=O)c1ccc(-c2c3nc(c(-c4cc(S(=O)(=O)[O-])ccc4F)c4ccc([nH]4)c(-c4cc(S(=O)(=O)[O-])ccc4F)c4nc(c(-c5cc(S(=O)(=O)[O-])ccc5F)c5ccc2[nH]5)C=C4)C=C3)cc1
REMARK SMILES IDX 26 1 25 2 24 3 23 4 22 5 21 6 19 7 20 8 18 9 1 10 2 11 3 12
REMARK SMILES IDX 4 13 5 14 6 15 7 16 8 18 9 19 10 20 17 21 11 22 16 23 12 26
REMARK SMILES IDX 15 27 13 28 14 30 27 31 28 32 29 33 30 34 31 35 32 36 33 37
REMARK SMILES IDX 34 38 95 39 35 40 94 41 36 42 37 43 38 44 88 45 39 46 93 47
REMARK SMILES IDX 87 48 89 49 40 50 92 51 86 52 85 53 41 55 73 56 53 57 72 58
REMARK SMILES IDX 54 59 57 60 71 61 90 62 55 63 56 64 70 66 91 67 58 68 42 69
REMARK SMILES IDX 43 70 51 71 44 72 50 73 52 74 49 75 45 76 46 77 47 78 48 79
REMARK SMILES IDX 74 80 75 81 83 82 76 83 82 84 84 85 81 86 77 87 78 88 79 89
REMARK SMILES IDX 80 90 59 91 60 92 68 93 61 94 67 95 69 96 66 97 62 98 63 99
REMARK SMILES IDX 64 100 65 101
REMARK H PARENT 6 17 17 24 17 25 12 29 89 54 57 65
REMARK Flexibility Score: inf
ROOT
ATOM      1  C   UNL A   1      34.940  21.087  25.297  1.00  0.00     0.188 C 
ENDROOT
BRANCH   1   2
ATOM      2  C   UNL A   1      33.399  21.028  25.264  1.00  0.00     0.188 C 
BRANCH   2   3
ATOM      3  O   UNL A   1      32.728  20.364  24.199  1.00  0.00    -0.376 OA
BRANCH   3   4
ATOM      4  C   UNL A   1      32.184  21.126  23.128  1.00  0.00     0.202 C 
BRANCH   4   5
ATOM      5  C   UNL A   1      32.450  22.646  23.090  1.00  0.00     0.261 C 
BRANCH   5   6
ATOM      6  O   UNL A   1      31.271  23.467  23.208  1.00  0.00    -0.460 OA
BRANCH   6   7
ATOM      7  C   UNL A   1      31.441  24.820  23.180  1.00  0.00     0.343 C 
ATOM      8  O   UNL A   1      31.339  25.514  22.178  1.00  0.00    -0.246 OA
BRANCH   7   9
ATOM      9  C   UNL A   1      31.487  25.385  24.523  1.00  0.00     0.117 A 
ATOM     10  C   UNL A   1      30.560  23.431  26.008  1.00  0.00     0.069 C 
ATOM     11  C   UNL A   1      30.995  24.832  25.763  1.00  0.00     0.068 A 
ATOM     12  N   UNL A   1      30.908  25.691  26.786  1.00  0.00    -0.195 NA
ATOM     13  S   UNL A   1      31.277  27.212  26.228  1.00  0.00    -0.017 S 
ATOM     14  C   UNL A   1      31.973  26.662  24.766  1.00  0.00     0.131 A 
BRANCH  14  15
ATOM     15  N   UNL A   1      32.649  27.486  23.903  1.00  0.00    -0.310 N 
ATOM     16  C   UNL A   1      32.223  28.519  23.125  1.00  0.00     0.283 C 
ATOM     17  H   UNL A   1      33.612  27.296  23.833  1.00  0.00     0.171 HD
ATOM     18  O   UNL A   1      33.115  29.071  22.463  1.00  0.00    -0.268 OA
BRANCH  16  19
ATOM     19  C   UNL A   1      30.760  29.007  23.036  1.00  0.00     0.279 C 
ATOM     20  C   UNL A   1      30.295  29.809  21.783  1.00  0.00     0.131 C 
ATOM     21  N   UNL A   1      29.828  27.822  23.210  1.00  0.00    -0.331 N 
ATOM     22  C   UNL A   1      29.007  30.383  22.244  1.00  0.00     0.050 A 
ATOM     23  C   UNL A   1      28.370  28.104  23.041  1.00  0.00     0.320 C 
ATOM     24  H   UNL A   1      29.967  27.450  24.148  1.00  0.00     0.347 HD
ATOM     25  H   UNL A   1      30.068  27.171  22.462  1.00  0.00     0.347 HD
ATOM     26  N   UNL A   1      28.704  31.658  22.625  1.00  0.00    -0.348 N 
ATOM     27  C   UNL A   1      28.109  29.570  22.897  1.00  0.00     0.116 A 
ATOM     28  C   UNL A   1      27.633  31.557  23.482  1.00  0.00     0.197 A 
ATOM     29  H   UNL A   1      29.160  32.484  22.345  1.00  0.00     0.167 HD
ATOM     30  N   UNL A   1      27.220  30.313  23.620  1.00  0.00    -0.236 NA
ENDBRANCH  16  19
ENDBRANCH  14  15
ENDBRANCH   7   9
ENDBRANCH   6   7
ENDBRANCH   5   6
ENDBRANCH   4   5
ENDBRANCH   3   4
ENDBRANCH   2   3
ENDBRANCH   1   2
BRANCH   1  31
ATOM     31  O   UNL A   1      35.523  21.883  24.287  1.00  0.00    -0.376 OA
BRANCH  31  32
ATOM     32  C   UNL A   1      36.935  22.007  24.283  1.00  0.00     0.202 C 
BRANCH  32  33
ATOM     33  C   UNL A   1      37.735  20.932  25.018  1.00  0.00     0.261 C 
BRANCH  33  34
ATOM     34  O   UNL A   1      38.973  21.375  25.543  1.00  0.00    -0.460 OA
BRANCH  34  35
ATOM     35  C   UNL A   1      39.879  20.409  25.794  1.00  0.00     0.338 C 
ATOM     36  O   UNL A   1      39.769  19.220  25.518  1.00  0.00    -0.246 OA
BRANCH  35  37
ATOM     37  C   UNL A   1      41.018  21.020  26.481  1.00  0.00     0.060 A 
ATOM     38  C   UNL A   1      41.043  20.903  27.870  1.00  0.00     0.016 A 
ATOM     39  C   UNL A   1      41.780  21.978  25.792  1.00  0.00     0.016 A 
ATOM     40  C   UNL A   1      41.557  21.958  28.580  1.00  0.00     0.010 A 
ATOM     41  C   UNL A   1      42.274  23.039  26.500  1.00  0.00     0.010 A 
ATOM     42  C   UNL A   1      42.034  23.065  27.868  1.00  0.00    -0.014 A 
BRANCH  42  43
ATOM     43  C   UNL A   1      42.240  24.290  28.600  1.00  0.00     0.031 A 
ATOM     44  C   UNL A   1      41.257  25.335  28.267  1.00  0.00     0.074 A 
ATOM     45  C   UNL A   1      43.213  24.412  29.524  1.00  0.00     0.049 A 
ATOM     46  N   UNL A   1      41.467  26.443  27.645  1.00  0.00    -0.248 NA
ATOM     47  C   UNL A   1      39.838  25.019  28.486  1.00  0.00     0.031 C 
ATOM     48  C   UNL A   1      44.065  23.371  30.106  1.00  0.00     0.029 A 
ATOM     49  N   UNL A   1      43.577  25.522  30.213  1.00  0.00    -0.354 N 
ATOM     50  C   UNL A   1      40.230  27.069  27.576  1.00  0.00     0.074 A 
ATOM     51  C   UNL A   1      39.253  26.072  27.921  1.00  0.00     0.031 C 
ATOM     52  C   UNL A   1      44.671  23.861  31.214  1.00  0.00     0.029 A 
ATOM     53  C   UNL A   1      44.360  25.277  31.333  1.00  0.00     0.049 A 
ATOM     54  H   UNL A   1      43.307  26.428  29.940  1.00  0.00     0.167 HD
ATOM     55  C   UNL A   1      40.131  28.419  27.453  1.00  0.00     0.034 A 
ATOM     56  C   UNL A   1      44.650  26.170  32.320  1.00  0.00     0.034 A 
ATOM     57  C   UNL A   1      41.365  28.988  26.965  1.00  0.00     0.049 A 
ATOM     58  C   UNL A   1      44.444  27.524  31.740  1.00  0.00     0.074 A 
ATOM     59  C   UNL A   1      42.091  28.838  25.798  1.00  0.00     0.029 A 
ATOM     60  N   UNL A   1      42.244  29.531  27.876  1.00  0.00    -0.354 N 
ATOM     61  N   UNL A   1      45.174  28.005  30.769  1.00  0.00    -0.248 NA
ATOM     62  C   UNL A   1      43.126  28.132  31.875  1.00  0.00     0.031 C 
ATOM     63  C   UNL A   1      43.455  28.819  26.210  1.00  0.00     0.029 A 
ATOM     64  C   UNL A   1      43.496  29.036  27.590  1.00  0.00     0.049 A 
ATOM     65  H   UNL A   1      42.018  30.159  28.600  1.00  0.00     0.167 HD
ATOM     66  C   UNL A   1      44.281  28.648  29.924  1.00  0.00     0.074 A 
ATOM     67  C   UNL A   1      43.048  28.769  30.701  1.00  0.00     0.031 C 
ATOM     68  C   UNL A   1      44.523  28.768  28.584  1.00  0.00     0.034 A 
BRANCH  55  69
ATOM     69  C   UNL A   1      39.027  29.239  28.072  1.00  0.00     0.023 A 
ATOM     70  C   UNL A   1      38.949  29.272  29.475  1.00  0.00     0.031 A 
ATOM     71  C   UNL A   1      37.910  29.766  27.381  1.00  0.00     0.131 A 
ATOM     72  C   UNL A   1      37.791  29.738  30.121  1.00  0.00     0.055 A 
ATOM     73  C   UNL A   1      36.791  30.294  28.028  1.00  0.00     0.041 A 
ATOM     74  F   UNL A   1      37.786  29.712  26.049  1.00  0.00    -0.206 F 
ATOM     75  C   UNL A   1      36.713  30.256  29.406  1.00  0.00     0.022 A 
BRANCH  72  76
ATOM     76  S   UNL A   1      37.641  29.491  31.907  1.00  0.00     0.124 S 
ATOM     77  O   UNL A   1      38.810  30.207  32.407  1.00  0.00    -0.237 OA
ATOM     78  O   UNL A   1      36.344  30.098  32.185  1.00  0.00    -0.237 OA
ATOM     79  O   UNL A   1      37.695  28.038  32.053  1.00  0.00    -0.744 OA
ENDBRANCH  72  76
ENDBRANCH  55  69
BRANCH  56  80
ATOM     80  C   UNL A   1      44.668  25.888  33.784  1.00  0.00     0.023 A 
ATOM     81  C   UNL A   1      43.589  26.194  34.642  1.00  0.00     0.031 A 
ATOM     82  C   UNL A   1      45.691  25.074  34.323  1.00  0.00     0.131 A 
ATOM     83  C   UNL A   1      43.572  25.700  35.970  1.00  0.00     0.055 A 
ATOM     84  C   UNL A   1      45.669  24.592  35.633  1.00  0.00     0.041 A 
ATOM     85  F   UNL A   1      46.714  24.648  33.564  1.00  0.00    -0.206 F 
ATOM     86  C   UNL A   1      44.603  24.896  36.462  1.00  0.00     0.022 A 
BRANCH  83  87
ATOM     87  S   UNL A   1      42.153  26.033  37.068  1.00  0.00     0.124 S 
ATOM     88  O   UNL A   1      42.807  26.337  38.335  1.00  0.00    -0.237 OA
ATOM     89  O   UNL A   1      41.491  27.146  36.396  1.00  0.00    -0.237 OA
ATOM     90  O   UNL A   1      41.404  24.776  37.050  1.00  0.00    -0.744 OA
ENDBRANCH  83  87
ENDBRANCH  56  80
BRANCH  68  91
ATOM     91  C   UNL A   1      45.902  28.399  28.062  1.00  0.00     0.023 A 
ATOM     92  C   UNL A   1      46.301  27.098  27.668  1.00  0.00     0.031 A 
ATOM     93  C   UNL A   1      46.807  29.450  27.831  1.00  0.00     0.131 A 
ATOM     94  C   UNL A   1      47.564  26.894  27.074  1.00  0.00     0.055 A 
ATOM     95  C   UNL A   1      48.045  29.248  27.223  1.00  0.00     0.041 A 
ATOM     96  F   UNL A   1      46.482  30.711  28.159  1.00  0.00    -0.206 F 
ATOM     97  C   UNL A   1      48.431  27.968  26.844  1.00  0.00     0.022 A 
BRANCH  94  98
ATOM     98  S   UNL A   1      48.115  25.223  26.593  1.00  0.00     0.124 S 
ATOM     99  O   UNL A   1      47.293  24.343  27.414  1.00  0.00    -0.237 OA
ATOM    100  O   UNL A   1      47.844  25.201  25.158  1.00  0.00    -0.237 OA
ATOM    101  O   UNL A   1      49.539  25.221  26.939  1.00  0.00    -0.744 OA
ENDBRANCH  94  98
ENDBRANCH  68  91
ENDBRANCH  42  43
ENDBRANCH  35  37
ENDBRANCH  34  35
ENDBRANCH  33  34
ENDBRANCH  32  33
ENDBRANCH  31  32
ENDBRANCH   1  31
TORSDOF 22
ENDMDL
MODEL 3
REMARK VINA RESULT:     -10.9      2.048      3.492
REMARK SMILES Cc1nsc(NC(=O)[C@H]2Cc3[nH]cnc3C[NH2+]2)c1C(=O)OCCOCCOCCOC(=O)c1ccc(-c2c3nc(c(-c4cc(S(=O)(=O)[O-])ccc4F)c4ccc([nH]4)c(-c4cc(S(=O)(=O)[O-])ccc4F)c4nc(c(-c5cc(S(=O)(=O)[O-])ccc5F)c5ccc2[nH]5)C=C4)C=C3)cc1
REMARK SMILES IDX 26 1 25 2 24 3 23 4 22 5 21 6 19 7 20 8 18 9 1 10 2 11 3 12
REMARK SMILES IDX 4 13 5 14 6 15 7 16 8 18 9 19 10 20 17 21 11 22 16 23 12 26
REMARK SMILES IDX 15 27 13 28 14 30 27 31 28 32 29 33 30 34 31 35 32 36 33 37
REMARK SMILES IDX 34 38 95 39 35 40 94 41 36 42 37 43 38 44 88 45 39 46 93 47
REMARK SMILES IDX 87 48 89 49 40 50 92 51 86 52 85 53 41 55 73 56 53 57 72 58
REMARK SMILES IDX 54 59 57 60 71 61 90 62 55 63 56 64 70 66 91 67 58 68 42 69
REMARK SMILES IDX 43 70 51 71 44 72 50 73 52 74 49 75 45 76 46 77 47 78 48 79
REMARK SMILES IDX 74 80 75 81 83 82 76 83 82 84 84 85 81 86 77 87 78 88 79 89
REMARK SMILES IDX 80 90 59 91 60 92 68 93 61 94 67 95 69 96 66 97 62 98 63 99
REMARK SMILES IDX 64 100 65 101
REMARK H PARENT 6 17 17 24 17 25 12 29 89 54 57 65
REMARK Flexibility Score: inf
ROOT
ATOM      1  C   UNL A   1      32.281  30.514  26.407  1.00  0.00     0.188 C 
ENDROOT
BRANCH   1   2
ATOM      2  C   UNL A   1      31.796  29.098  26.779  1.00  0.00     0.188 C 
BRANCH   2   3
ATOM      3  O   UNL A   1      32.696  28.156  27.350  1.00  0.00    -0.376 OA
BRANCH   3   4
ATOM      4  C   UNL A   1      33.579  27.427  26.506  1.00  0.00     0.202 C 
BRANCH   4   5
ATOM      5  C   UNL A   1      33.061  26.140  25.829  1.00  0.00     0.261 C 
BRANCH   5   6
ATOM      6  O   UNL A   1      31.888  25.567  26.440  1.00  0.00    -0.460 OA
BRANCH   6   7
ATOM      7  C   UNL A   1      31.860  24.213  26.602  1.00  0.00     0.343 C 
ATOM      8  O   UNL A   1      31.436  23.639  27.595  1.00  0.00    -0.246 OA
BRANCH   7   9
ATOM      9  C   UNL A   1      32.134  23.516  25.351  1.00  0.00     0.117 A 
ATOM     10  C   UNL A   1      34.248  22.078  25.937  1.00  0.00     0.069 C 
ATOM     11  C   UNL A   1      33.248  22.664  25.005  1.00  0.00     0.068 A 
ATOM     12  N   UNL A   1      33.391  22.399  23.701  1.00  0.00    -0.195 NA
ATOM     13  S   UNL A   1      32.275  23.295  22.857  1.00  0.00    -0.017 S 
ATOM     14  C   UNL A   1      31.331  23.676  24.230  1.00  0.00     0.131 A 
BRANCH  14  15
ATOM     15  N   UNL A   1      30.108  24.291  24.150  1.00  0.00    -0.310 N 
ATOM     16  C   UNL A   1      29.760  25.562  23.806  1.00  0.00     0.283 C 
ATOM     17  H   UNL A   1      29.347  23.713  24.382  1.00  0.00     0.171 HD
ATOM     18  O   UNL A   1      28.541  25.788  23.822  1.00  0.00    -0.268 OA
BRANCH  16  19
ATOM     19  C   UNL A   1      30.761  26.673  23.418  1.00  0.00     0.279 C 
ATOM     20  C   UNL A   1      31.424  26.649  22.007  1.00  0.00     0.131 C 
ATOM     21  N   UNL A   1      30.102  28.027  23.606  1.00  0.00    -0.331 N 
ATOM     22  C   UNL A   1      32.540  27.613  22.173  1.00  0.00     0.050 A 
ATOM     23  C   UNL A   1      30.902  29.212  23.171  1.00  0.00     0.320 C 
ATOM     24  H   UNL A   1      29.894  28.138  24.598  1.00  0.00     0.347 HD
ATOM     25  H   UNL A   1      29.278  28.017  23.005  1.00  0.00     0.347 HD
ATOM     26  N   UNL A   1      33.878  27.387  22.319  1.00  0.00    -0.348 N 
ATOM     27  C   UNL A   1      32.293  28.822  22.783  1.00  0.00     0.116 A 
ATOM     28  C   UNL A   1      34.377  28.471  23.001  1.00  0.00     0.197 A 
ATOM     29  H   UNL A   1      34.383  26.604  22.001  1.00  0.00     0.167 HD
ATOM     30  N   UNL A   1      33.452  29.377  23.245  1.00  0.00    -0.236 NA
ENDBRANCH  16  19
ENDBRANCH  14  15
ENDBRANCH   7   9
ENDBRANCH   6   7
ENDBRANCH   5   6
ENDBRANCH   4   5
ENDBRANCH   3   4
ENDBRANCH   2   3
ENDBRANCH   1   2
BRANCH   1  31
ATOM     31  O   UNL A   1      33.039  31.161  27.407  1.00  0.00    -0.376 OA
BRANCH  31  32
ATOM     32  C   UNL A   1      34.417  30.842  27.496  1.00  0.00     0.202 C 
BRANCH  32  33
ATOM     33  C   UNL A   1      35.098  31.046  28.848  1.00  0.00     0.261 C 
BRANCH  33  34
ATOM     34  O   UNL A   1      36.124  30.114  29.138  1.00  0.00    -0.460 OA
BRANCH  34  35
ATOM     35  C   UNL A   1      37.380  30.533  28.887  1.00  0.00     0.338 C 
ATOM     36  O   UNL A   1      37.797  31.682  28.986  1.00  0.00    -0.246 OA
BRANCH  35  37
ATOM     37  C   UNL A   1      38.166  29.379  28.447  1.00  0.00     0.060 A 
ATOM     38  C   UNL A   1      38.501  28.444  29.426  1.00  0.00     0.016 A 
ATOM     39  C   UNL A   1      38.845  29.461  27.220  1.00  0.00     0.016 A 
ATOM     40  C   UNL A   1      39.723  27.830  29.316  1.00  0.00     0.010 A 
ATOM     41  C   UNL A   1      40.072  28.864  27.121  1.00  0.00     0.010 A 
ATOM     42  C   UNL A   1      40.538  28.168  28.230  1.00  0.00    -0.014 A 
BRANCH  42  43
ATOM     43  C   UNL A   1      41.931  27.802  28.302  1.00  0.00     0.031 A 
ATOM     44  C   UNL A   1      42.229  26.523  27.635  1.00  0.00     0.074 A 
ATOM     45  C   UNL A   1      42.846  28.600  28.886  1.00  0.00     0.049 A 
ATOM     46  N   UNL A   1      42.588  25.415  28.184  1.00  0.00    -0.248 NA
ATOM     47  C   UNL A   1      41.902  26.417  26.206  1.00  0.00     0.031 C 
ATOM     48  C   UNL A   1      42.703  29.985  29.343  1.00  0.00     0.029 A 
ATOM     49  N   UNL A   1      44.160  28.343  29.106  1.00  0.00    -0.354 N 
ATOM     50  C   UNL A   1      42.737  24.515  27.138  1.00  0.00     0.074 A 
ATOM     51  C   UNL A   1      42.116  25.122  25.992  1.00  0.00     0.031 C 
ATOM     52  C   UNL A   1      43.932  30.510  29.564  1.00  0.00     0.029 A 
ATOM     53  C   UNL A   1      44.927  29.462  29.401  1.00  0.00     0.049 A 
ATOM     54  H   UNL A   1      44.537  27.435  29.061  1.00  0.00     0.167 HD
ATOM     55  C   UNL A   1      43.557  23.436  27.250  1.00  0.00     0.034 A 
ATOM     56  C   UNL A   1      46.288  29.519  29.420  1.00  0.00     0.034 A 
ATOM     57  C   UNL A   1      43.832  23.134  28.635  1.00  0.00     0.049 A 
ATOM     58  C   UNL A   1      46.768  28.122  29.597  1.00  0.00     0.074 A 
ATOM     59  C   UNL A   1      43.041  22.767  29.708  1.00  0.00     0.029 A 
ATOM     60  N   UNL A   1      45.009  23.591  29.185  1.00  0.00    -0.354 N 
ATOM     61  N   UNL A   1      46.549  27.423  30.678  1.00  0.00    -0.248 NA
ATOM     62  C   UNL A   1      47.034  27.333  28.400  1.00  0.00     0.031 C 
ATOM     63  C   UNL A   1      43.572  23.482  30.821  1.00  0.00     0.029 A 
ATOM     64  C   UNL A   1      44.701  24.183  30.389  1.00  0.00     0.049 A 
ATOM     65  H   UNL A   1      45.907  23.507  28.790  1.00  0.00     0.167 HD
ATOM     66  C   UNL A   1      46.227  26.149  30.231  1.00  0.00     0.074 A 
ATOM     67  C   UNL A   1      46.628  26.132  28.825  1.00  0.00     0.031 C 
ATOM     68  C   UNL A   1      45.409  25.323  30.950  1.00  0.00     0.034 A 
BRANCH  55  69
ATOM     69  C   UNL A   1      44.348  22.862  26.102  1.00  0.00     0.023 A 
ATOM     70  C   UNL A   1      44.005  21.574  25.655  1.00  0.00     0.031 A 
ATOM     71  C   UNL A   1      45.566  23.383  25.603  1.00  0.00     0.131 A 
ATOM     72  C   UNL A   1      44.873  20.846  24.822  1.00  0.00     0.055 A 
ATOM     73  C   UNL A   1      46.390  22.684  24.719  1.00  0.00     0.041 A 
ATOM     74  F   UNL A   1      46.082  24.547  26.013  1.00  0.00    -0.206 F 
ATOM     75  C   UNL A   1      46.060  21.395  24.346  1.00  0.00     0.022 A 
BRANCH  72  76
ATOM     76  S   UNL A   1      44.510  19.100  24.516  1.00  0.00     0.124 S 
ATOM     77  O   UNL A   1      43.078  19.038  24.793  1.00  0.00    -0.237 OA
ATOM     78  O   UNL A   1      44.903  18.954  23.118  1.00  0.00    -0.237 OA
ATOM     79  O   UNL A   1      45.359  18.405  25.479  1.00  0.00    -0.744 OA
ENDBRANCH  72  76
ENDBRANCH  55  69
BRANCH  56  80
ATOM     80  C   UNL A   1      47.130  30.623  28.877  1.00  0.00     0.023 A 
ATOM     81  C   UNL A   1      48.147  31.256  29.623  1.00  0.00     0.031 A 
ATOM     82  C   UNL A   1      47.090  30.911  27.493  1.00  0.00     0.131 A 
ATOM     83  C   UNL A   1      49.058  32.135  28.985  1.00  0.00     0.055 A 
ATOM     84  C   UNL A   1      47.989  31.779  26.870  1.00  0.00     0.041 A 
ATOM     85  F   UNL A   1      46.222  30.291  26.677  1.00  0.00    -0.206 F 
ATOM     86  C   UNL A   1      48.984  32.390  27.613  1.00  0.00     0.022 A 
BRANCH  83  87
ATOM     87  S   UNL A   1      50.417  32.908  29.923  1.00  0.00     0.124 S 
ATOM     88  O   UNL A   1      50.586  34.182  29.233  1.00  0.00    -0.237 OA
ATOM     89  O   UNL A   1      49.870  32.970  31.274  1.00  0.00    -0.237 OA
ATOM     90  O   UNL A   1      51.527  31.969  29.756  1.00  0.00    -0.744 OA
ENDBRANCH  83  87
ENDBRANCH  56  80
BRANCH  68  91
ATOM     91  C   UNL A   1      45.046  25.723  32.372  1.00  0.00     0.023 A 
ATOM     92  C   UNL A   1      43.931  26.519  32.731  1.00  0.00     0.031 A 
ATOM     93  C   UNL A   1      45.797  25.153  33.414  1.00  0.00     0.131 A 
ATOM     94  C   UNL A   1      43.613  26.718  34.092  1.00  0.00     0.055 A 
ATOM     95  C   UNL A   1      45.467  25.333  34.757  1.00  0.00     0.041 A 
ATOM     96  F   UNL A   1      46.853  24.368  33.142  1.00  0.00    -0.206 F 
ATOM     97  C   UNL A   1      44.374  26.120  35.102  1.00  0.00     0.022 A 
BRANCH  94  98
ATOM     98  S   UNL A   1      42.205  27.770  34.581  1.00  0.00     0.124 S 
ATOM     99  O   UNL A   1      41.559  27.004  35.640  1.00  0.00    -0.237 OA
ATOM    100  O   UNL A   1      42.862  29.007  34.994  1.00  0.00    -0.237 OA
ATOM    101  O   UNL A   1      41.421  27.884  33.349  1.00  0.00    -0.744 OA
ENDBRANCH  94  98
ENDBRANCH  68  91
ENDBRANCH  42  43
ENDBRANCH  35  37
ENDBRANCH  34  35
ENDBRANCH  33  34
ENDBRANCH  32  33
ENDBRANCH  31  32
ENDBRANCH   1  31
TORSDOF 22
ENDMDL
