MODEL 1
REMARK VINA RESULT:     -10.2      0.000      0.000
REMARK SMILES C[C@H](NC(=O)C(=O)c1ccccc1)C(=O)OCCOCCOCCOC(=O)c1ccc(-c2c3nc(c(-c4cc(S(=O)(=O)[O-])ccc4F)c4ccc([nH]4)c(-c4cc(S(=O)(=O)[O-])ccc4F)c4nc(c(-c5cc(S(=O)(=O)[O-])ccc5F)c5ccc2[nH]5)C=C4)C=C3)cc1
REMARK SMILES IDX 20 1 19 2 18 3 17 4 16 5 14 6 15 7 2 8 1 9 3 10 4 11 5 13
REMARK SMILES IDX 6 14 7 15 8 16 9 17 13 18 10 19 12 20 11 21 21 22 22 23
REMARK SMILES IDX 23 24 24 25 25 26 26 27 27 28 28 29 29 30 90 31 30 32 89 33
REMARK SMILES IDX 31 34 32 35 33 36 83 37 34 38 88 39 82 40 84 41 35 42 87 43
REMARK SMILES IDX 81 44 80 45 36 47 68 48 48 49 67 50 49 51 52 52 66 53 85 54
REMARK SMILES IDX 50 55 51 56 65 58 86 59 53 60 37 61 38 62 46 63 39 64 45 65
REMARK SMILES IDX 47 66 44 67 40 68 41 69 42 70 43 71 69 72 70 73 78 74 71 75
REMARK SMILES IDX 77 76 79 77 76 78 72 79 73 80 74 81 75 82 54 83 55 84 63 85
REMARK SMILES IDX 56 86 62 87 64 88 61 89 57 90 58 91 59 92 60 93
REMARK H PARENT 3 12 84 46 52 57
REMARK Flexibility Score: inf
ROOT
ATOM      1  C   UNL A   1      32.291  20.600  24.724  1.00  0.00     0.188 C 
ENDROOT
BRANCH   1   2
ATOM      2  O   UNL A   1      32.520  20.799  23.334  1.00  0.00    -0.376 OA
BRANCH   2   3
ATOM      3  C   UNL A   1      31.800  21.823  22.656  1.00  0.00     0.202 C 
BRANCH   3   4
ATOM      4  C   UNL A   1      32.502  23.155  22.323  1.00  0.00     0.261 C 
BRANCH   4   5
ATOM      5  O   UNL A   1      33.611  23.503  23.179  1.00  0.00    -0.462 OA
BRANCH   5   6
ATOM      6  C   UNL A   1      33.636  24.787  23.638  1.00  0.00     0.328 C 
ATOM      7  O   UNL A   1      33.460  25.772  22.925  1.00  0.00    -0.250 OA
BRANCH   6   8
ATOM      8  C   UNL A   1      33.680  24.886  25.189  1.00  0.00     0.189 C 
ATOM      9  C   UNL A   1      35.074  24.573  25.718  1.00  0.00     0.043 C 
BRANCH   8  10
ATOM     10  N   UNL A   1      32.614  24.331  26.039  1.00  0.00    -0.336 N 
ATOM     11  C   UNL A   1      31.308  24.697  26.224  1.00  0.00     0.293 C 
ATOM     12  H   UNL A   1      32.892  23.553  26.573  1.00  0.00     0.164 HD
ATOM     13  O   UNL A   1      30.582  24.036  26.958  1.00  0.00    -0.265 OA
BRANCH  11  14
ATOM     14  C   UNL A   1      30.739  25.898  25.480  1.00  0.00     0.250 C 
ATOM     15  O   UNL A   1      29.851  25.778  24.649  1.00  0.00    -0.283 OA
BRANCH  14  16
ATOM     16  C   UNL A   1      31.258  27.236  25.815  1.00  0.00     0.028 A 
ATOM     17  C   UNL A   1      31.775  27.458  27.095  1.00  0.00     0.012 A 
ATOM     18  C   UNL A   1      31.163  28.284  24.894  1.00  0.00     0.012 A 
ATOM     19  C   UNL A   1      32.189  28.739  27.458  1.00  0.00     0.001 A 
ATOM     20  C   UNL A   1      31.565  29.566  25.269  1.00  0.00     0.001 A 
ATOM     21  C   UNL A   1      32.070  29.794  26.551  1.00  0.00     0.000 A 
ENDBRANCH  14  16
ENDBRANCH  11  14
ENDBRANCH   8  10
ENDBRANCH   6   8
ENDBRANCH   5   6
ENDBRANCH   4   5
ENDBRANCH   3   4
ENDBRANCH   2   3
ENDBRANCH   1   2
BRANCH   1  22
ATOM     22  C   UNL A   1      33.347  19.847  25.556  1.00  0.00     0.188 C 
BRANCH  22  23
ATOM     23  O   UNL A   1      34.407  20.649  26.013  1.00  0.00    -0.376 OA
BRANCH  23  24
ATOM     24  C   UNL A   1      35.395  21.067  25.093  1.00  0.00     0.202 C 
BRANCH  24  25
ATOM     25  C   UNL A   1      36.781  20.398  25.012  1.00  0.00     0.261 C 
BRANCH  25  26
ATOM     26  O   UNL A   1      37.941  21.241  25.026  1.00  0.00    -0.460 OA
BRANCH  26  27
ATOM     27  C   UNL A   1      38.972  20.857  25.815  1.00  0.00     0.338 C 
ATOM     28  O   UNL A   1      39.474  19.743  25.869  1.00  0.00    -0.246 OA
BRANCH  27  29
ATOM     29  C   UNL A   1      39.532  22.071  26.445  1.00  0.00     0.060 A 
ATOM     30  C   UNL A   1      39.006  23.331  26.115  1.00  0.00     0.016 A 
ATOM     31  C   UNL A   1      40.573  21.960  27.365  1.00  0.00     0.016 A 
ATOM     32  C   UNL A   1      39.537  24.487  26.693  1.00  0.00     0.010 A 
ATOM     33  C   UNL A   1      41.122  23.117  27.921  1.00  0.00     0.010 A 
ATOM     34  C   UNL A   1      40.627  24.388  27.566  1.00  0.00    -0.014 A 
BRANCH  34  35
ATOM     35  C   UNL A   1      41.418  25.588  27.939  1.00  0.00     0.031 A 
ATOM     36  C   UNL A   1      40.711  26.683  28.689  1.00  0.00     0.074 A 
ATOM     37  C   UNL A   1      42.706  25.734  27.584  1.00  0.00     0.049 A 
ATOM     38  N   UNL A   1      41.100  27.902  28.953  1.00  0.00    -0.248 NA
ATOM     39  C   UNL A   1      39.368  26.351  29.189  1.00  0.00     0.031 C 
ATOM     40  C   UNL A   1      43.519  24.722  26.915  1.00  0.00     0.029 A 
ATOM     41  N   UNL A   1      43.547  26.813  27.716  1.00  0.00    -0.354 N 
ATOM     42  C   UNL A   1      40.038  28.495  29.628  1.00  0.00     0.074 A 
ATOM     43  C   UNL A   1      38.981  27.508  29.703  1.00  0.00     0.031 C 
ATOM     44  C   UNL A   1      44.736  25.239  26.668  1.00  0.00     0.029 A 
ATOM     45  C   UNL A   1      44.767  26.634  27.108  1.00  0.00     0.049 A 
ATOM     46  H   UNL A   1      43.299  27.633  28.199  1.00  0.00     0.167 HD
ATOM     47  C   UNL A   1      39.953  29.749  30.135  1.00  0.00     0.034 A 
ATOM     48  C   UNL A   1      45.770  27.510  26.887  1.00  0.00     0.034 A 
ATOM     49  C   UNL A   1      41.012  30.723  30.031  1.00  0.00     0.049 A 
ATOM     50  C   UNL A   1      45.621  28.937  27.367  1.00  0.00     0.074 A 
ATOM     51  C   UNL A   1      41.041  32.020  30.514  1.00  0.00     0.029 A 
ATOM     52  N   UNL A   1      42.224  30.515  29.383  1.00  0.00    -0.354 N 
ATOM     53  N   UNL A   1      44.610  29.500  27.990  1.00  0.00    -0.248 NA
ATOM     54  C   UNL A   1      46.749  29.846  27.115  1.00  0.00     0.031 C 
ATOM     55  C   UNL A   1      42.228  32.621  30.082  1.00  0.00     0.029 A 
ATOM     56  C   UNL A   1      42.990  31.669  29.421  1.00  0.00     0.049 A 
ATOM     57  H   UNL A   1      42.497  29.670  28.958  1.00  0.00     0.167 HD
ATOM     58  C   UNL A   1      45.001  30.815  28.242  1.00  0.00     0.074 A 
ATOM     59  C   UNL A   1      46.336  30.961  27.699  1.00  0.00     0.031 C 
ATOM     60  C   UNL A   1      44.323  31.805  28.878  1.00  0.00     0.034 A 
BRANCH  47  61
ATOM     61  C   UNL A   1      38.645  30.148  30.777  1.00  0.00     0.023 A 
ATOM     62  C   UNL A   1      37.643  30.829  30.062  1.00  0.00     0.031 A 
ATOM     63  C   UNL A   1      38.422  29.900  32.143  1.00  0.00     0.131 A 
ATOM     64  C   UNL A   1      36.514  31.319  30.734  1.00  0.00     0.055 A 
ATOM     65  C   UNL A   1      37.249  30.306  32.784  1.00  0.00     0.041 A 
ATOM     66  F   UNL A   1      39.351  29.281  32.888  1.00  0.00    -0.206 F 
ATOM     67  C   UNL A   1      36.296  31.038  32.084  1.00  0.00     0.022 A 
BRANCH  64  68
ATOM     68  S   UNL A   1      35.432  32.487  29.864  1.00  0.00     0.124 S 
ATOM     69  O   UNL A   1      34.318  32.610  30.801  1.00  0.00    -0.237 OA
ATOM     70  O   UNL A   1      36.282  33.663  29.727  1.00  0.00    -0.237 OA
ATOM     71  O   UNL A   1      35.114  31.796  28.617  1.00  0.00    -0.744 OA
ENDBRANCH  64  68
ENDBRANCH  47  61
BRANCH  48  72
ATOM     72  C   UNL A   1      46.985  27.086  26.132  1.00  0.00     0.023 A 
ATOM     73  C   UNL A   1      48.071  26.482  26.783  1.00  0.00     0.031 A 
ATOM     74  C   UNL A   1      47.089  27.310  24.747  1.00  0.00     0.131 A 
ATOM     75  C   UNL A   1      49.229  26.155  26.058  1.00  0.00     0.055 A 
ATOM     76  C   UNL A   1      48.220  26.933  24.020  1.00  0.00     0.041 A 
ATOM     77  F   UNL A   1      46.082  27.891  24.076  1.00  0.00    -0.206 F 
ATOM     78  C   UNL A   1      49.303  26.361  24.678  1.00  0.00     0.022 A 
BRANCH  75  79
ATOM     79  S   UNL A   1      50.671  25.524  26.959  1.00  0.00     0.124 S 
ATOM     80  O   UNL A   1      51.589  25.215  25.868  1.00  0.00    -0.237 OA
ATOM     81  O   UNL A   1      51.029  26.662  27.797  1.00  0.00    -0.237 OA
ATOM     82  O   UNL A   1      50.143  24.365  27.677  1.00  0.00    -0.744 OA
ENDBRANCH  75  79
ENDBRANCH  48  72
BRANCH  60  83
ATOM     83  C   UNL A   1      45.040  33.117  29.101  1.00  0.00     0.023 A 
ATOM     84  C   UNL A   1      45.840  33.360  30.231  1.00  0.00     0.031 A 
ATOM     85  C   UNL A   1      44.937  34.138  28.136  1.00  0.00     0.131 A 
ATOM     86  C   UNL A   1      46.471  34.605  30.386  1.00  0.00     0.055 A 
ATOM     87  C   UNL A   1      45.618  35.349  28.265  1.00  0.00     0.041 A 
ATOM     88  F   UNL A   1      44.182  33.966  27.038  1.00  0.00    -0.206 F 
ATOM     89  C   UNL A   1      46.383  35.592  29.400  1.00  0.00     0.022 A 
BRANCH  86  90
ATOM     90  S   UNL A   1      47.346  34.957  31.936  1.00  0.00     0.124 S 
ATOM     91  O   UNL A   1      47.482  36.409  31.885  1.00  0.00    -0.237 OA
ATOM     92  O   UNL A   1      46.426  34.436  32.941  1.00  0.00    -0.237 OA
ATOM     93  O   UNL A   1      48.598  34.213  31.801  1.00  0.00    -0.744 OA
ENDBRANCH  86  90
ENDBRANCH  60  83
ENDBRANCH  34  35
ENDBRANCH  27  29
ENDBRANCH  26  27
ENDBRANCH  25  26
ENDBRANCH  24  25
ENDBRANCH  23  24
ENDBRANCH  22  23
ENDBRANCH   1  22
TORSDOF 23
ENDMDL
MODEL 2
REMARK VINA RESULT:      -9.9      1.909      2.437
REMARK SMILES C[C@H](NC(=O)C(=O)c1ccccc1)C(=O)OCCOCCOCCOC(=O)c1ccc(-c2c3nc(c(-c4cc(S(=O)(=O)[O-])ccc4F)c4ccc([nH]4)c(-c4cc(S(=O)(=O)[O-])ccc4F)c4nc(c(-c5cc(S(=O)(=O)[O-])ccc5F)c5ccc2[nH]5)C=C4)C=C3)cc1
REMARK SMILES IDX 20 1 19 2 18 3 17 4 16 5 14 6 15 7 2 8 1 9 3 10 4 11 5 13
REMARK SMILES IDX 6 14 7 15 8 16 9 17 13 18 10 19 12 20 11 21 21 22 22 23
REMARK SMILES IDX 23 24 24 25 25 26 26 27 27 28 28 29 29 30 90 31 30 32 89 33
REMARK SMILES IDX 31 34 32 35 33 36 83 37 34 38 88 39 82 40 84 41 35 42 87 43
REMARK SMILES IDX 81 44 80 45 36 47 68 48 48 49 67 50 49 51 52 52 66 53 85 54
REMARK SMILES IDX 50 55 51 56 65 58 86 59 53 60 37 61 38 62 46 63 39 64 45 65
REMARK SMILES IDX 47 66 44 67 40 68 41 69 42 70 43 71 69 72 70 73 78 74 71 75
REMARK SMILES IDX 77 76 79 77 76 78 72 79 73 80 74 81 75 82 54 83 55 84 63 85
REMARK SMILES IDX 56 86 62 87 64 88 61 89 57 90 58 91 59 92 60 93
REMARK H PARENT 3 12 84 46 52 57
REMARK Flexibility Score: inf
ROOT
ATOM      1  C   UNL A   1      32.955  21.791  24.964  1.00  0.00     0.188 C 
ENDROOT
BRANCH   1   2
ATOM      2  O   UNL A   1      32.809  21.677  23.554  1.00  0.00    -0.376 OA
BRANCH   2   3
ATOM      3  C   UNL A   1      31.870  22.514  22.889  1.00  0.00     0.202 C 
BRANCH   3   4
ATOM      4  C   UNL A   1      32.032  24.047  22.957  1.00  0.00     0.261 C 
BRANCH   4   5
ATOM      5  O   UNL A   1      32.338  24.580  24.264  1.00  0.00    -0.462 OA
BRANCH   5   6
ATOM      6  C   UNL A   1      32.667  25.903  24.311  1.00  0.00     0.328 C 
ATOM      7  O   UNL A   1      33.647  26.384  23.747  1.00  0.00    -0.250 OA
BRANCH   6   8
ATOM      8  C   UNL A   1      31.564  26.790  24.953  1.00  0.00     0.189 C 
ATOM      9  C   UNL A   1      31.893  27.102  26.409  1.00  0.00     0.043 C 
BRANCH   8  10
ATOM     10  N   UNL A   1      30.131  26.535  24.739  1.00  0.00    -0.336 N 
ATOM     11  C   UNL A   1      29.240  27.032  23.826  1.00  0.00     0.293 C 
ATOM     12  H   UNL A   1      29.741  25.887  25.369  1.00  0.00     0.164 HD
ATOM     13  O   UNL A   1      28.085  26.621  23.808  1.00  0.00    -0.265 OA
BRANCH  11  14
ATOM     14  C   UNL A   1      29.693  28.062  22.800  1.00  0.00     0.250 C 
ATOM     15  O   UNL A   1      30.471  27.774  21.901  1.00  0.00    -0.283 OA
BRANCH  14  16
ATOM     16  C   UNL A   1      29.137  29.424  22.886  1.00  0.00     0.028 A 
ATOM     17  C   UNL A   1      28.188  29.826  21.942  1.00  0.00     0.012 A 
ATOM     18  C   UNL A   1      29.609  30.321  23.848  1.00  0.00     0.012 A 
ATOM     19  C   UNL A   1      27.717  31.138  21.954  1.00  0.00     0.001 A 
ATOM     20  C   UNL A   1      29.145  31.637  23.846  1.00  0.00     0.001 A 
ATOM     21  C   UNL A   1      28.206  32.046  22.896  1.00  0.00     0.000 A 
ENDBRANCH  14  16
ENDBRANCH  11  14
ENDBRANCH   8  10
ENDBRANCH   6   8
ENDBRANCH   5   6
ENDBRANCH   4   5
ENDBRANCH   3   4
ENDBRANCH   2   3
ENDBRANCH   1   2
BRANCH   1  22
ATOM     22  C   UNL A   1      33.840  20.772  25.709  1.00  0.00     0.188 C 
BRANCH  22  23
ATOM     23  O   UNL A   1      35.065  21.289  26.166  1.00  0.00    -0.376 OA
BRANCH  23  24
ATOM     24  C   UNL A   1      36.101  21.515  25.232  1.00  0.00     0.202 C 
BRANCH  24  25
ATOM     25  C   UNL A   1      37.403  20.689  25.229  1.00  0.00     0.261 C 
BRANCH  25  26
ATOM     26  O   UNL A   1      38.651  21.394  25.206  1.00  0.00    -0.460 OA
BRANCH  26  27
ATOM     27  C   UNL A   1      39.546  21.093  26.175  1.00  0.00     0.338 C 
ATOM     28  O   UNL A   1      40.032  19.995  26.405  1.00  0.00    -0.246 OA
BRANCH  27  29
ATOM     29  C   UNL A   1      40.004  22.365  26.773  1.00  0.00     0.060 A 
ATOM     30  C   UNL A   1      39.507  23.583  26.282  1.00  0.00     0.016 A 
ATOM     31  C   UNL A   1      40.921  22.349  27.824  1.00  0.00     0.016 A 
ATOM     32  C   UNL A   1      39.944  24.792  26.831  1.00  0.00     0.010 A 
ATOM     33  C   UNL A   1      41.378  23.558  28.352  1.00  0.00     0.010 A 
ATOM     34  C   UNL A   1      40.915  24.786  27.839  1.00  0.00    -0.014 A 
BRANCH  34  35
ATOM     35  C   UNL A   1      41.634  26.029  28.214  1.00  0.00     0.031 A 
ATOM     36  C   UNL A   1      40.855  27.095  28.932  1.00  0.00     0.074 A 
ATOM     37  C   UNL A   1      42.921  26.236  27.888  1.00  0.00     0.049 A 
ATOM     38  N   UNL A   1      41.175  28.336  29.189  1.00  0.00    -0.248 NA
ATOM     39  C   UNL A   1      39.519  26.702  29.406  1.00  0.00     0.031 C 
ATOM     40  C   UNL A   1      43.801  25.259  27.252  1.00  0.00     0.029 A 
ATOM     41  N   UNL A   1      43.703  27.358  28.024  1.00  0.00    -0.354 N 
ATOM     42  C   UNL A   1      40.069  28.882  29.831  1.00  0.00     0.074 A 
ATOM     43  C   UNL A   1      39.062  27.844  29.894  1.00  0.00     0.031 C 
ATOM     44  C   UNL A   1      44.996  25.833  27.026  1.00  0.00     0.029 A 
ATOM     45  C   UNL A   1      44.945  27.234  27.447  1.00  0.00     0.049 A 
ATOM     46  H   UNL A   1      43.403  28.171  28.490  1.00  0.00     0.167 HD
ATOM     47  C   UNL A   1      39.908  30.137  30.318  1.00  0.00     0.034 A 
ATOM     48  C   UNL A   1      45.908  28.157  27.238  1.00  0.00     0.034 A 
ATOM     49  C   UNL A   1      40.919  31.162  30.225  1.00  0.00     0.049 A 
ATOM     50  C   UNL A   1      45.675  29.580  27.695  1.00  0.00     0.074 A 
ATOM     51  C   UNL A   1      40.870  32.465  30.690  1.00  0.00     0.029 A 
ATOM     52  N   UNL A   1      42.155  31.008  29.608  1.00  0.00    -0.354 N 
ATOM     53  N   UNL A   1      44.623  30.099  28.285  1.00  0.00    -0.248 NA
ATOM     54  C   UNL A   1      46.761  30.542  27.456  1.00  0.00     0.031 C 
ATOM     55  C   UNL A   1      42.035  33.120  30.278  1.00  0.00     0.029 A 
ATOM     56  C   UNL A   1      42.860  32.200  29.649  1.00  0.00     0.049 A 
ATOM     57  H   UNL A   1      42.481  30.173  29.201  1.00  0.00     0.167 HD
ATOM     58  C   UNL A   1      44.940  31.436  28.528  1.00  0.00     0.074 A 
ATOM     59  C   UNL A   1      46.278  31.642  28.015  1.00  0.00     0.031 C 
ATOM     60  C   UNL A   1      44.197  32.397  29.135  1.00  0.00     0.034 A 
BRANCH  47  61
ATOM     61  C   UNL A   1      38.567  30.477  30.924  1.00  0.00     0.023 A 
ATOM     62  C   UNL A   1      37.534  31.057  30.165  1.00  0.00     0.031 A 
ATOM     63  C   UNL A   1      38.338  30.276  32.297  1.00  0.00     0.131 A 
ATOM     64  C   UNL A   1      36.365  31.501  30.799  1.00  0.00     0.055 A 
ATOM     65  C   UNL A   1      37.131  30.631  32.903  1.00  0.00     0.041 A 
ATOM     66  F   UNL A   1      39.293  29.753  33.081  1.00  0.00    -0.206 F 
ATOM     67  C   UNL A   1      36.143  31.267  32.158  1.00  0.00     0.022 A 
BRANCH  64  68
ATOM     68  S   UNL A   1      35.223  32.555  29.862  1.00  0.00     0.124 S 
ATOM     69  O   UNL A   1      36.079  33.691  29.527  1.00  0.00    -0.237 OA
ATOM     70  O   UNL A   1      34.840  31.695  28.750  1.00  0.00    -0.237 OA
ATOM     71  O   UNL A   1      34.161  32.848  30.822  1.00  0.00    -0.744 OA
ENDBRANCH  64  68
ENDBRANCH  47  61
BRANCH  48  72
ATOM     72  C   UNL A   1      47.160  27.786  26.517  1.00  0.00     0.023 A 
ATOM     73  C   UNL A   1      47.265  27.918  25.124  1.00  0.00     0.031 A 
ATOM     74  C   UNL A   1      48.264  27.260  27.213  1.00  0.00     0.131 A 
ATOM     75  C   UNL A   1      48.431  27.497  24.466  1.00  0.00     0.055 A 
ATOM     76  C   UNL A   1      49.443  26.894  26.562  1.00  0.00     0.041 A 
ATOM     77  F   UNL A   1      48.216  27.105  28.546  1.00  0.00    -0.206 F 
ATOM     78  C   UNL A   1      49.528  27.002  25.177  1.00  0.00     0.022 A 
BRANCH  75  79
ATOM     79  S   UNL A   1      48.470  27.535  22.653  1.00  0.00     0.124 S 
ATOM     80  O   UNL A   1      48.480  26.113  22.328  1.00  0.00    -0.237 OA
ATOM     81  O   UNL A   1      47.243  28.257  22.338  1.00  0.00    -0.237 OA
ATOM     82  O   UNL A   1      49.707  28.252  22.354  1.00  0.00    -0.744 OA
ENDBRANCH  75  79
ENDBRANCH  48  72
BRANCH  60  83
ATOM     83  C   UNL A   1      44.842  33.747  29.356  1.00  0.00     0.023 A 
ATOM     84  C   UNL A   1      45.558  34.061  30.524  1.00  0.00     0.031 A 
ATOM     85  C   UNL A   1      44.755  34.731  28.352  1.00  0.00     0.131 A 
ATOM     86  C   UNL A   1      46.123  35.338  30.675  1.00  0.00     0.055 A 
ATOM     87  C   UNL A   1      45.373  35.975  28.481  1.00  0.00     0.041 A 
ATOM     88  F   UNL A   1      44.078  34.491  27.217  1.00  0.00    -0.206 F 
ATOM     89  C   UNL A   1      46.054  36.288  29.652  1.00  0.00     0.022 A 
BRANCH  86  90
ATOM     90  S   UNL A   1      46.884  35.778  32.263  1.00  0.00     0.124 S 
ATOM     91  O   UNL A   1      45.719  36.110  33.075  1.00  0.00    -0.237 OA
ATOM     92  O   UNL A   1      47.586  34.551  32.624  1.00  0.00    -0.237 OA
ATOM     93  O   UNL A   1      47.749  36.908  31.928  1.00  0.00    -0.744 OA
ENDBRANCH  86  90
ENDBRANCH  60  83
ENDBRANCH  34  35
ENDBRANCH  27  29
ENDBRANCH  26  27
ENDBRANCH  25  26
ENDBRANCH  24  25
ENDBRANCH  23  24
ENDBRANCH  22  23
ENDBRANCH   1  22
TORSDOF 23
ENDMDL
MODEL 3
REMARK VINA RESULT:      -9.7      1.677      8.006
REMARK SMILES C[C@H](NC(=O)C(=O)c1ccccc1)C(=O)OCCOCCOCCOC(=O)c1ccc(-c2c3nc(c(-c4cc(S(=O)(=O)[O-])ccc4F)c4ccc([nH]4)c(-c4cc(S(=O)(=O)[O-])ccc4F)c4nc(c(-c5cc(S(=O)(=O)[O-])ccc5F)c5ccc2[nH]5)C=C4)C=C3)cc1
REMARK SMILES IDX 20 1 19 2 18 3 17 4 16 5 14 6 15 7 2 8 1 9 3 10 4 11 5 13
REMARK SMILES IDX 6 14 7 15 8 16 9 17 13 18 10 19 12 20 11 21 21 22 22 23
REMARK SMILES IDX 23 24 24 25 25 26 26 27 27 28 28 29 29 30 90 31 30 32 89 33
REMARK SMILES IDX 31 34 32 35 33 36 83 37 34 38 88 39 82 40 84 41 35 42 87 43
REMARK SMILES IDX 81 44 80 45 36 47 68 48 48 49 67 50 49 51 52 52 66 53 85 54
REMARK SMILES IDX 50 55 51 56 65 58 86 59 53 60 37 61 38 62 46 63 39 64 45 65
REMARK SMILES IDX 47 66 44 67 40 68 41 69 42 70 43 71 69 72 70 73 78 74 71 75
REMARK SMILES IDX 77 76 79 77 76 78 72 79 73 80 74 81 75 82 54 83 55 84 63 85
REMARK SMILES IDX 56 86 62 87 64 88 61 89 57 90 58 91 59 92 60 93
REMARK H PARENT 3 12 84 46 52 57
REMARK Flexibility Score: inf
ROOT
ATOM      1  C   UNL A   1      34.244  21.955  24.463  1.00  0.00     0.188 C 
ENDROOT
BRANCH   1   2
ATOM      2  O   UNL A   1      32.950  21.778  23.898  1.00  0.00    -0.376 OA
BRANCH   2   3
ATOM      3  C   UNL A   1      31.833  22.394  24.529  1.00  0.00     0.202 C 
BRANCH   3   4
ATOM      4  C   UNL A   1      31.503  23.870  24.223  1.00  0.00     0.261 C 
BRANCH   4   5
ATOM      5  O   UNL A   1      32.629  24.773  24.238  1.00  0.00    -0.462 OA
BRANCH   5   6
ATOM      6  C   UNL A   1      33.114  25.149  23.020  1.00  0.00     0.328 C 
ATOM      7  O   UNL A   1      34.297  25.064  22.699  1.00  0.00    -0.250 OA
BRANCH   6   8
ATOM      8  C   UNL A   1      32.000  25.483  21.989  1.00  0.00     0.189 C 
ATOM      9  C   UNL A   1      32.583  25.657  20.592  1.00  0.00     0.043 C 
BRANCH   8  10
ATOM     10  N   UNL A   1      30.928  26.448  22.280  1.00  0.00    -0.336 N 
ATOM     11  C   UNL A   1      30.954  27.710  22.810  1.00  0.00     0.293 C 
ATOM     12  H   UNL A   1      30.027  26.127  22.051  1.00  0.00     0.164 HD
ATOM     13  O   UNL A   1      29.917  28.356  22.909  1.00  0.00    -0.265 OA
BRANCH  11  14
ATOM     14  C   UNL A   1      32.277  28.335  23.233  1.00  0.00     0.250 C 
ATOM     15  O   UNL A   1      33.074  28.769  22.413  1.00  0.00    -0.283 OA
BRANCH  14  16
ATOM     16  C   UNL A   1      32.568  28.445  24.673  1.00  0.00     0.028 A 
ATOM     17  C   UNL A   1      31.569  28.920  25.528  1.00  0.00     0.012 A 
ATOM     18  C   UNL A   1      33.844  28.151  25.162  1.00  0.00     0.012 A 
ATOM     19  C   UNL A   1      31.854  29.114  26.879  1.00  0.00     0.001 A 
ATOM     20  C   UNL A   1      34.127  28.362  26.512  1.00  0.00     0.001 A 
ATOM     21  C   UNL A   1      33.136  28.849  27.367  1.00  0.00     0.000 A 
ENDBRANCH  14  16
ENDBRANCH  11  14
ENDBRANCH   8  10
ENDBRANCH   6   8
ENDBRANCH   5   6
ENDBRANCH   4   5
ENDBRANCH   3   4
ENDBRANCH   2   3
ENDBRANCH   1   2
BRANCH   1  22
ATOM     22  C   UNL A   1      34.949  20.747  25.110  1.00  0.00     0.188 C 
BRANCH  22  23
ATOM     23  O   UNL A   1      36.302  20.964  25.428  1.00  0.00    -0.376 OA
BRANCH  23  24
ATOM     24  C   UNL A   1      37.297  20.479  24.549  1.00  0.00     0.202 C 
BRANCH  24  25
ATOM     25  C   UNL A   1      38.402  19.508  25.010  1.00  0.00     0.261 C 
BRANCH  25  26
ATOM     26  O   UNL A   1      39.007  19.732  26.290  1.00  0.00    -0.460 OA
BRANCH  26  27
ATOM     27  C   UNL A   1      40.341  19.960  26.309  1.00  0.00     0.338 C 
ATOM     28  O   UNL A   1      41.215  19.217  25.886  1.00  0.00    -0.246 OA
BRANCH  27  29
ATOM     29  C   UNL A   1      40.550  21.361  26.733  1.00  0.00     0.060 A 
ATOM     30  C   UNL A   1      39.711  22.370  26.236  1.00  0.00     0.016 A 
ATOM     31  C   UNL A   1      41.574  21.671  27.628  1.00  0.00     0.016 A 
ATOM     32  C   UNL A   1      39.909  23.700  26.619  1.00  0.00     0.010 A 
ATOM     33  C   UNL A   1      41.788  23.002  27.988  1.00  0.00     0.010 A 
ATOM     34  C   UNL A   1      40.976  24.027  27.463  1.00  0.00    -0.014 A 
BRANCH  34  35
ATOM     35  C   UNL A   1      41.414  25.436  27.628  1.00  0.00     0.031 A 
ATOM     36  C   UNL A   1      42.799  25.794  27.167  1.00  0.00     0.074 A 
ATOM     37  C   UNL A   1      40.636  26.362  28.214  1.00  0.00     0.049 A 
ATOM     38  N   UNL A   1      43.495  26.880  27.376  1.00  0.00    -0.248 NA
ATOM     39  C   UNL A   1      43.496  24.768  26.377  1.00  0.00     0.031 C 
ATOM     40  C   UNL A   1      39.255  26.157  28.644  1.00  0.00     0.029 A 
ATOM     41  N   UNL A   1      40.915  27.658  28.575  1.00  0.00    -0.354 N 
ATOM     42  C   UNL A   1      44.725  26.659  26.765  1.00  0.00     0.074 A 
ATOM     43  C   UNL A   1      44.685  25.323  26.207  1.00  0.00     0.031 C 
ATOM     44  C   UNL A   1      38.815  27.281  29.239  1.00  0.00     0.029 A 
ATOM     45  C   UNL A   1      39.901  28.261  29.282  1.00  0.00     0.049 A 
ATOM     46  H   UNL A   1      41.759  28.111  28.348  1.00  0.00     0.167 HD
ATOM     47  C   UNL A   1      45.791  27.492  26.682  1.00  0.00     0.034 A 
ATOM     48  C   UNL A   1      39.873  29.444  29.933  1.00  0.00     0.034 A 
ATOM     49  C   UNL A   1      45.816  28.812  27.264  1.00  0.00     0.049 A 
ATOM     50  C   UNL A   1      41.105  30.322  29.919  1.00  0.00     0.074 A 
ATOM     51  C   UNL A   1      46.836  29.747  27.236  1.00  0.00     0.029 A 
ATOM     52  N   UNL A   1      44.780  29.378  27.998  1.00  0.00    -0.354 N 
ATOM     53  N   UNL A   1      42.272  30.103  29.357  1.00  0.00    -0.248 NA
ATOM     54  C   UNL A   1      41.015  31.605  30.630  1.00  0.00     0.031 C 
ATOM     55  C   UNL A   1      46.452  30.837  28.024  1.00  0.00     0.029 A 
ATOM     56  C   UNL A   1      45.151  30.632  28.457  1.00  0.00     0.049 A 
ATOM     57  H   UNL A   1      43.910  28.950  28.167  1.00  0.00     0.167 HD
ATOM     58  C   UNL A   1      43.037  31.242  29.608  1.00  0.00     0.074 A 
ATOM     59  C   UNL A   1      42.201  32.140  30.377  1.00  0.00     0.031 C 
ATOM     60  C   UNL A   1      44.309  31.523  29.223  1.00  0.00     0.034 A 
BRANCH  47  61
ATOM     61  C   UNL A   1      47.031  26.963  26.000  1.00  0.00     0.023 A 
ATOM     62  C   UNL A   1      48.031  26.272  26.708  1.00  0.00     0.031 A 
ATOM     63  C   UNL A   1      47.247  27.209  24.633  1.00  0.00     0.131 A 
ATOM     64  C   UNL A   1      49.235  25.939  26.071  1.00  0.00     0.055 A 
ATOM     65  C   UNL A   1      48.407  26.786  23.982  1.00  0.00     0.041 A 
ATOM     66  F   UNL A   1      46.344  27.888  23.908  1.00  0.00    -0.206 F 
ATOM     67  C   UNL A   1      49.420  26.165  24.706  1.00  0.00     0.022 A 
BRANCH  64  68
ATOM     68  S   UNL A   1      50.625  25.377  27.094  1.00  0.00     0.124 S 
ATOM     69  O   UNL A   1      51.558  24.891  26.080  1.00  0.00    -0.237 OA
ATOM     70  O   UNL A   1      51.018  26.597  27.789  1.00  0.00    -0.237 OA
ATOM     71  O   UNL A   1      50.034  24.339  27.935  1.00  0.00    -0.744 OA
ENDBRANCH  64  68
ENDBRANCH  47  61
BRANCH  48  72
ATOM     72  C   UNL A   1      38.658  29.851  30.696  1.00  0.00     0.023 A 
ATOM     73  C   UNL A   1      37.677  30.673  30.120  1.00  0.00     0.031 A 
ATOM     74  C   UNL A   1      38.476  29.449  32.032  1.00  0.00     0.131 A 
ATOM     75  C   UNL A   1      36.579  31.096  30.885  1.00  0.00     0.055 A 
ATOM     76  C   UNL A   1      37.355  29.826  32.773  1.00  0.00     0.041 A 
ATOM     77  F   UNL A   1      39.387  28.669  32.636  1.00  0.00    -0.206 F 
ATOM     78  C   UNL A   1      36.402  30.663  32.202  1.00  0.00     0.022 A 
BRANCH  75  79
ATOM     79  S   UNL A   1      35.417  32.284  30.157  1.00  0.00     0.124 S 
ATOM     80  O   UNL A   1      36.293  33.413  29.865  1.00  0.00    -0.237 OA
ATOM     81  O   UNL A   1      34.911  31.547  29.005  1.00  0.00    -0.237 OA
ATOM     82  O   UNL A   1      34.446  32.508  31.226  1.00  0.00    -0.744 OA
ENDBRANCH  75  79
ENDBRANCH  48  72
BRANCH  60  83
ATOM     83  C   UNL A   1      44.856  32.893  29.554  1.00  0.00     0.023 A 
ATOM     84  C   UNL A   1      44.694  33.999  28.701  1.00  0.00     0.031 A 
ATOM     85  C   UNL A   1      45.532  33.095  30.772  1.00  0.00     0.131 A 
ATOM     86  C   UNL A   1      45.236  35.243  29.059  1.00  0.00     0.055 A 
ATOM     87  C   UNL A   1      46.013  34.349  31.152  1.00  0.00     0.041 A 
ATOM     88  F   UNL A   1      45.723  32.075  31.626  1.00  0.00    -0.206 F 
ATOM     89  C   UNL A   1      45.875  35.431  30.289  1.00  0.00     0.022 A 
BRANCH  86  90
ATOM     90  S   UNL A   1      45.172  36.605  27.862  1.00  0.00     0.124 S 
ATOM     91  O   UNL A   1      43.760  36.620  27.496  1.00  0.00    -0.237 OA
ATOM     92  O   UNL A   1      45.639  37.739  28.652  1.00  0.00    -0.237 OA
ATOM     93  O   UNL A   1      46.082  36.174  26.802  1.00  0.00    -0.744 OA
ENDBRANCH  86  90
ENDBRANCH  60  83
ENDBRANCH  34  35
ENDBRANCH  27  29
ENDBRANCH  26  27
ENDBRANCH  25  26
ENDBRANCH  24  25
ENDBRANCH  23  24
ENDBRANCH  22  23
ENDBRANCH   1  22
TORSDOF 23
ENDMDL
