MODEL 1
REMARK VINA RESULT:     -10.0      0.000      0.000
REMARK SMILES C[C@@H](C(=O)OCCOCCOCCOC(=O)c1ccc(-c2c3nc(c(-c4cc(S(=O)(=O)[O-])ccc4F)c4ccc([nH]4)c(-c4cc(S(=O)(=O)[O-])ccc4F)c4nc(c(-c5cc(S(=O)(=O)[O-])ccc5F)c5ccc2[nH]5)C=C4)C=C3)cc1)[C@H](C)[S@@](=O)c1ccc(F)c(F)c1
REMARK SMILES IDX 9 1 8 2 7 3 6 4 5 5 3 6 4 7 2 8 1 9 80 10 81 11 82 12 83 13
REMARK SMILES IDX 84 14 85 15 91 16 86 17 89 18 87 19 90 20 88 21 10 22 11 23
REMARK SMILES IDX 12 24 13 25 14 26 15 27 16 28 17 29 18 30 79 31 19 32 78 33
REMARK SMILES IDX 20 34 21 35 22 36 72 37 23 38 77 39 71 40 73 41 24 42 76 43
REMARK SMILES IDX 70 44 69 45 25 47 57 48 37 49 56 50 38 51 41 52 55 53 74 54
REMARK SMILES IDX 39 55 40 56 54 58 75 59 42 60 26 61 27 62 35 63 28 64 34 65
REMARK SMILES IDX 36 66 33 67 29 68 30 69 31 70 32 71 58 72 59 73 67 74 60 75
REMARK SMILES IDX 66 76 68 77 65 78 61 79 62 80 63 81 64 82 43 83 44 84 52 85
REMARK SMILES IDX 45 86 51 87 53 88 50 89 46 90 47 91 48 92 49 93
REMARK H PARENT 73 46 41 57
REMARK Flexibility Score: inf
ROOT
ATOM      1  C   UNL A   1      32.926  28.992  24.246  1.00  0.00     0.188 C 
ENDROOT
BRANCH   1   2
ATOM      2  O   UNL A   1      31.614  28.642  23.826  1.00  0.00    -0.376 OA
BRANCH   2   3
ATOM      3  C   UNL A   1      31.381  27.338  23.306  1.00  0.00     0.202 C 
BRANCH   3   4
ATOM      4  C   UNL A   1      31.567  26.126  24.232  1.00  0.00     0.261 C 
BRANCH   4   5
ATOM      5  O   UNL A   1      32.360  25.052  23.680  1.00  0.00    -0.463 OA
BRANCH   5   6
ATOM      6  C   UNL A   1      31.766  23.835  23.592  1.00  0.00     0.309 C 
ATOM      7  O   UNL A   1      30.556  23.670  23.697  1.00  0.00    -0.252 OA
BRANCH   6   8
ATOM      8  C   UNL A   1      32.734  22.657  23.380  1.00  0.00     0.112 C 
ATOM      9  C   UNL A   1      32.264  21.637  22.325  1.00  0.00     0.021 C 
BRANCH   8  10
ATOM     10  C   UNL A   1      33.156  22.067  24.758  1.00  0.00     0.095 C 
ATOM     11  C   UNL A   1      33.406  23.125  25.845  1.00  0.00     0.023 C 
BRANCH  10  12
ATOM     12  S   UNL A   1      34.546  20.877  24.845  1.00  0.00     0.057 S 
ATOM     13  O   UNL A   1      35.299  21.068  26.123  1.00  0.00    -0.254 OA
BRANCH  12  14
ATOM     14  C   UNL A   1      33.892  19.199  24.894  1.00  0.00     0.042 A 
ATOM     15  C   UNL A   1      32.723  18.803  25.551  1.00  0.00     0.021 A 
ATOM     16  C   UNL A   1      34.682  18.196  24.310  1.00  0.00     0.060 A 
ATOM     17  C   UNL A   1      32.368  17.456  25.673  1.00  0.00     0.043 A 
ATOM     18  C   UNL A   1      34.318  16.853  24.415  1.00  0.00     0.160 A 
ATOM     19  C   UNL A   1      33.174  16.485  25.106  1.00  0.00     0.158 A 
ATOM     20  F   UNL A   1      35.093  15.912  23.858  1.00  0.00    -0.204 F 
ATOM     21  F   UNL A   1      32.839  15.195  25.244  1.00  0.00    -0.204 F 
ENDBRANCH  12  14
ENDBRANCH  10  12
ENDBRANCH   8  10
ENDBRANCH   6   8
ENDBRANCH   5   6
ENDBRANCH   4   5
ENDBRANCH   3   4
ENDBRANCH   2   3
ENDBRANCH   1   2
BRANCH   1  22
ATOM     22  C   UNL A   1      33.225  29.104  25.747  1.00  0.00     0.188 C 
BRANCH  22  23
ATOM     23  O   UNL A   1      33.104  30.404  26.281  1.00  0.00    -0.376 OA
BRANCH  23  24
ATOM     24  C   UNL A   1      31.794  30.917  26.466  1.00  0.00     0.202 C 
BRANCH  24  25
ATOM     25  C   UNL A   1      31.678  32.388  26.905  1.00  0.00     0.261 C 
BRANCH  25  26
ATOM     26  O   UNL A   1      32.887  33.166  26.847  1.00  0.00    -0.460 OA
BRANCH  26  27
ATOM     27  C   UNL A   1      33.239  33.842  27.970  1.00  0.00     0.338 C 
ATOM     28  O   UNL A   1      32.557  34.666  28.558  1.00  0.00    -0.246 OA
BRANCH  27  29
ATOM     29  C   UNL A   1      34.474  33.211  28.503  1.00  0.00     0.060 A 
ATOM     30  C   UNL A   1      34.388  31.965  29.143  1.00  0.00     0.016 A 
ATOM     31  C   UNL A   1      35.718  33.821  28.328  1.00  0.00     0.016 A 
ATOM     32  C   UNL A   1      35.540  31.339  29.630  1.00  0.00     0.010 A 
ATOM     33  C   UNL A   1      36.868  33.205  28.839  1.00  0.00     0.010 A 
ATOM     34  C   UNL A   1      36.784  31.975  29.517  1.00  0.00    -0.014 A 
BRANCH  34  35
ATOM     35  C   UNL A   1      37.959  31.476  30.283  1.00  0.00     0.031 A 
ATOM     36  C   UNL A   1      38.821  30.418  29.643  1.00  0.00     0.074 A 
ATOM     37  C   UNL A   1      38.262  31.933  31.513  1.00  0.00     0.049 A 
ATOM     38  N   UNL A   1      39.830  29.752  30.139  1.00  0.00    -0.248 NA
ATOM     39  C   UNL A   1      38.486  30.064  28.256  1.00  0.00     0.031 C 
ATOM     40  C   UNL A   1      37.547  32.990  32.225  1.00  0.00     0.029 A 
ATOM     41  N   UNL A   1      39.251  31.549  32.388  1.00  0.00    -0.354 N 
ATOM     42  C   UNL A   1      40.244  28.887  29.130  1.00  0.00     0.074 A 
ATOM     43  C   UNL A   1      39.352  29.094  28.009  1.00  0.00     0.031 C 
ATOM     44  C   UNL A   1      38.116  33.163  33.432  1.00  0.00     0.029 A 
ATOM     45  C   UNL A   1      39.203  32.199  33.600  1.00  0.00     0.049 A 
ATOM     46  H   UNL A   1      39.932  30.873  32.167  1.00  0.00     0.167 HD
ATOM     47  C   UNL A   1      41.274  28.006  29.135  1.00  0.00     0.034 A 
ATOM     48  C   UNL A   1      39.930  32.014  34.724  1.00  0.00     0.034 A 
ATOM     49  C   UNL A   1      42.152  27.801  30.260  1.00  0.00     0.049 A 
ATOM     50  C   UNL A   1      41.007  30.950  34.743  1.00  0.00     0.074 A 
ATOM     51  C   UNL A   1      43.238  26.948  30.360  1.00  0.00     0.029 A 
ATOM     52  N   UNL A   1      42.038  28.440  31.487  1.00  0.00    -0.354 N 
ATOM     53  N   UNL A   1      41.394  30.143  33.780  1.00  0.00    -0.248 NA
ATOM     54  C   UNL A   1      41.748  30.777  36.000  1.00  0.00     0.031 C 
ATOM     55  C   UNL A   1      43.724  27.006  31.669  1.00  0.00     0.029 A 
ATOM     56  C   UNL A   1      43.006  27.968  32.361  1.00  0.00     0.049 A 
ATOM     57  H   UNL A   1      41.368  29.128  31.706  1.00  0.00     0.167 HD
ATOM     58  C   UNL A   1      42.449  29.399  34.308  1.00  0.00     0.074 A 
ATOM     59  C   UNL A   1      42.644  29.858  35.665  1.00  0.00     0.031 C 
ATOM     60  C   UNL A   1      43.195  28.428  33.718  1.00  0.00     0.034 A 
BRANCH  47  61
ATOM     61  C   UNL A   1      41.464  27.153  27.903  1.00  0.00     0.023 A 
ATOM     62  C   UNL A   1      41.040  25.813  27.852  1.00  0.00     0.031 A 
ATOM     63  C   UNL A   1      42.100  27.685  26.768  1.00  0.00     0.131 A 
ATOM     64  C   UNL A   1      41.318  25.035  26.718  1.00  0.00     0.055 A 
ATOM     65  C   UNL A   1      42.299  26.930  25.610  1.00  0.00     0.041 A 
ATOM     66  F   UNL A   1      42.552  28.950  26.766  1.00  0.00    -0.206 F 
ATOM     67  C   UNL A   1      41.920  25.592  25.587  1.00  0.00     0.022 A 
BRANCH  64  68
ATOM     68  S   UNL A   1      41.019  23.248  26.798  1.00  0.00     0.124 S 
ATOM     69  O   UNL A   1      41.443  22.938  28.161  1.00  0.00    -0.237 OA
ATOM     70  O   UNL A   1      39.587  23.156  26.537  1.00  0.00    -0.237 OA
ATOM     71  O   UNL A   1      41.880  22.709  25.748  1.00  0.00    -0.744 OA
ENDBRANCH  64  68
ENDBRANCH  47  61
BRANCH  48  72
ATOM     72  C   UNL A   1      39.649  32.813  35.957  1.00  0.00     0.023 A 
ATOM     73  C   UNL A   1      38.791  32.326  36.957  1.00  0.00     0.031 A 
ATOM     74  C   UNL A   1      40.168  34.110  36.113  1.00  0.00     0.131 A 
ATOM     75  C   UNL A   1      38.438  33.149  38.039  1.00  0.00     0.055 A 
ATOM     76  C   UNL A   1      39.864  34.901  37.222  1.00  0.00     0.041 A 
ATOM     77  F   UNL A   1      40.985  34.632  35.182  1.00  0.00    -0.206 F 
ATOM     78  C   UNL A   1      38.980  34.427  38.186  1.00  0.00     0.022 A 
BRANCH  75  79
ATOM     79  S   UNL A   1      37.173  32.562  39.200  1.00  0.00     0.124 S 
ATOM     80  O   UNL A   1      35.947  32.785  38.440  1.00  0.00    -0.237 OA
ATOM     81  O   UNL A   1      37.564  31.171  39.396  1.00  0.00    -0.237 OA
ATOM     82  O   UNL A   1      37.352  33.428  40.364  1.00  0.00    -0.744 OA
ENDBRANCH  75  79
ENDBRANCH  48  72
BRANCH  60  83
ATOM     83  C   UNL A   1      44.335  27.840  34.519  1.00  0.00     0.023 A 
ATOM     84  C   UNL A   1      44.192  26.660  35.273  1.00  0.00     0.031 A 
ATOM     85  C   UNL A   1      45.591  28.475  34.528  1.00  0.00     0.131 A 
ATOM     86  C   UNL A   1      45.265  26.188  36.045  1.00  0.00     0.055 A 
ATOM     87  C   UNL A   1      46.674  27.962  35.241  1.00  0.00     0.041 A 
ATOM     88  F   UNL A   1      45.789  29.607  33.832  1.00  0.00    -0.206 F 
ATOM     89  C   UNL A   1      46.511  26.819  36.018  1.00  0.00     0.022 A 
BRANCH  86  90
ATOM     90  S   UNL A   1      44.984  24.791  37.167  1.00  0.00     0.124 S 
ATOM     91  O   UNL A   1      43.591  24.986  37.554  1.00  0.00    -0.237 OA
ATOM     92  O   UNL A   1      45.253  23.641  36.310  1.00  0.00    -0.237 OA
ATOM     93  O   UNL A   1      45.959  25.006  38.235  1.00  0.00    -0.744 OA
ENDBRANCH  86  90
ENDBRANCH  60  83
ENDBRANCH  34  35
ENDBRANCH  27  29
ENDBRANCH  26  27
ENDBRANCH  25  26
ENDBRANCH  24  25
ENDBRANCH  23  24
ENDBRANCH  22  23
ENDBRANCH   1  22
TORSDOF 23
ENDMDL
MODEL 2
REMARK VINA RESULT:      -9.7      1.491      7.691
REMARK SMILES C[C@@H](C(=O)OCCOCCOCCOC(=O)c1ccc(-c2c3nc(c(-c4cc(S(=O)(=O)[O-])ccc4F)c4ccc([nH]4)c(-c4cc(S(=O)(=O)[O-])ccc4F)c4nc(c(-c5cc(S(=O)(=O)[O-])ccc5F)c5ccc2[nH]5)C=C4)C=C3)cc1)[C@H](C)[S@@](=O)c1ccc(F)c(F)c1
REMARK SMILES IDX 9 1 8 2 7 3 6 4 5 5 3 6 4 7 2 8 1 9 80 10 81 11 82 12 83 13
REMARK SMILES IDX 84 14 85 15 91 16 86 17 89 18 87 19 90 20 88 21 10 22 11 23
REMARK SMILES IDX 12 24 13 25 14 26 15 27 16 28 17 29 18 30 79 31 19 32 78 33
REMARK SMILES IDX 20 34 21 35 22 36 72 37 23 38 77 39 71 40 73 41 24 42 76 43
REMARK SMILES IDX 70 44 69 45 25 47 57 48 37 49 56 50 38 51 41 52 55 53 74 54
REMARK SMILES IDX 39 55 40 56 54 58 75 59 42 60 26 61 27 62 35 63 28 64 34 65
REMARK SMILES IDX 36 66 33 67 29 68 30 69 31 70 32 71 58 72 59 73 67 74 60 75
REMARK SMILES IDX 66 76 68 77 65 78 61 79 62 80 63 81 64 82 43 83 44 84 52 85
REMARK SMILES IDX 45 86 51 87 53 88 50 89 46 90 47 91 48 92 49 93
REMARK H PARENT 73 46 41 57
REMARK Flexibility Score: inf
ROOT
ATOM      1  C   UNL A   1      31.996  28.990  24.345  1.00  0.00     0.188 C 
ENDROOT
BRANCH   1   2
ATOM      2  O   UNL A   1      30.822  28.873  23.551  1.00  0.00    -0.376 OA
BRANCH   2   3
ATOM      3  C   UNL A   1      30.589  27.662  22.841  1.00  0.00     0.202 C 
BRANCH   3   4
ATOM      4  C   UNL A   1      30.151  26.415  23.624  1.00  0.00     0.261 C 
BRANCH   4   5
ATOM      5  O   UNL A   1      31.221  25.698  24.277  1.00  0.00    -0.463 OA
BRANCH   5   6
ATOM      6  C   UNL A   1      30.936  25.129  25.475  1.00  0.00     0.309 C 
ATOM      7  O   UNL A   1      30.857  25.766  26.519  1.00  0.00    -0.252 OA
BRANCH   6   8
ATOM      8  C   UNL A   1      30.748  23.601  25.437  1.00  0.00     0.112 C 
ATOM      9  C   UNL A   1      30.269  22.991  26.768  1.00  0.00     0.021 C 
BRANCH   8  10
ATOM     10  C   UNL A   1      31.999  22.932  24.792  1.00  0.00     0.095 C 
ATOM     11  C   UNL A   1      31.834  22.598  23.300  1.00  0.00     0.023 C 
BRANCH  10  12
ATOM     12  S   UNL A   1      32.748  21.462  25.586  1.00  0.00     0.057 S 
ATOM     13  O   UNL A   1      32.435  20.237  24.785  1.00  0.00    -0.254 OA
BRANCH  12  14
ATOM     14  C   UNL A   1      34.542  21.625  25.571  1.00  0.00     0.042 A 
ATOM     15  C   UNL A   1      35.250  22.812  25.781  1.00  0.00     0.021 A 
ATOM     16  C   UNL A   1      35.277  20.482  25.216  1.00  0.00     0.060 A 
ATOM     17  C   UNL A   1      36.635  22.884  25.598  1.00  0.00     0.043 A 
ATOM     18  C   UNL A   1      36.661  20.550  25.052  1.00  0.00     0.160 A 
ATOM     19  C   UNL A   1      37.334  21.749  25.228  1.00  0.00     0.158 A 
ATOM     20  F   UNL A   1      37.340  19.449  24.703  1.00  0.00    -0.204 F 
ATOM     21  F   UNL A   1      38.657  21.830  25.034  1.00  0.00    -0.204 F 
ENDBRANCH  12  14
ENDBRANCH  10  12
ENDBRANCH   8  10
ENDBRANCH   6   8
ENDBRANCH   5   6
ENDBRANCH   4   5
ENDBRANCH   3   4
ENDBRANCH   2   3
ENDBRANCH   1   2
BRANCH   1  22
ATOM     22  C   UNL A   1      31.856  29.261  25.849  1.00  0.00     0.188 C 
BRANCH  22  23
ATOM     23  O   UNL A   1      32.320  30.525  26.270  1.00  0.00    -0.376 OA
BRANCH  23  24
ATOM     24  C   UNL A   1      31.407  31.609  26.219  1.00  0.00     0.202 C 
BRANCH  24  25
ATOM     25  C   UNL A   1      31.736  32.838  27.085  1.00  0.00     0.261 C 
BRANCH  25  26
ATOM     26  O   UNL A   1      33.130  33.167  27.217  1.00  0.00    -0.460 OA
BRANCH  26  27
ATOM     27  C   UNL A   1      33.469  34.027  28.211  1.00  0.00     0.338 C 
ATOM     28  O   UNL A   1      32.835  35.010  28.560  1.00  0.00    -0.246 OA
BRANCH  27  29
ATOM     29  C   UNL A   1      34.593  33.417  28.966  1.00  0.00     0.060 A 
ATOM     30  C   UNL A   1      35.910  33.796  28.663  1.00  0.00     0.016 A 
ATOM     31  C   UNL A   1      34.348  32.512  30.001  1.00  0.00     0.016 A 
ATOM     32  C   UNL A   1      36.984  33.254  29.377  1.00  0.00     0.010 A 
ATOM     33  C   UNL A   1      35.425  31.952  30.699  1.00  0.00     0.010 A 
ATOM     34  C   UNL A   1      36.750  32.297  30.374  1.00  0.00    -0.014 A 
BRANCH  34  35
ATOM     35  C   UNL A   1      37.876  31.497  30.930  1.00  0.00     0.031 A 
ATOM     36  C   UNL A   1      38.357  31.826  32.320  1.00  0.00     0.074 A 
ATOM     37  C   UNL A   1      38.469  30.509  30.233  1.00  0.00     0.049 A 
ATOM     38  N   UNL A   1      39.378  31.351  32.984  1.00  0.00    -0.248 NA
ATOM     39  C   UNL A   1      37.578  32.837  33.050  1.00  0.00     0.031 C 
ATOM     40  C   UNL A   1      38.070  30.051  28.904  1.00  0.00     0.029 A 
ATOM     41  N   UNL A   1      39.549  29.719  30.549  1.00  0.00    -0.354 N 
ATOM     42  C   UNL A   1      39.374  32.016  34.207  1.00  0.00     0.074 A 
ATOM     43  C   UNL A   1      38.268  32.950  34.174  1.00  0.00     0.031 C 
ATOM     44  C   UNL A   1      38.901  29.067  28.515  1.00  0.00     0.029 A 
ATOM     45  C   UNL A   1      39.921  28.857  29.543  1.00  0.00     0.049 A 
ATOM     46  H   UNL A   1      40.014  29.765  31.416  1.00  0.00     0.167 HD
ATOM     47  C   UNL A   1      40.211  31.860  35.262  1.00  0.00     0.034 A 
ATOM     48  C   UNL A   1      40.978  28.020  29.450  1.00  0.00     0.034 A 
ATOM     49  C   UNL A   1      41.315  30.933  35.282  1.00  0.00     0.049 A 
ATOM     50  C   UNL A   1      41.961  27.939  30.598  1.00  0.00     0.074 A 
ATOM     51  C   UNL A   1      42.210  30.683  36.309  1.00  0.00     0.029 A 
ATOM     52  N   UNL A   1      41.690  30.115  34.224  1.00  0.00    -0.354 N 
ATOM     53  N   UNL A   1      41.944  28.567  31.753  1.00  0.00    -0.248 NA
ATOM     54  C   UNL A   1      43.105  27.031  30.431  1.00  0.00     0.031 C 
ATOM     55  C   UNL A   1      43.174  29.784  35.843  1.00  0.00     0.029 A 
ATOM     56  C   UNL A   1      42.827  29.395  34.560  1.00  0.00     0.049 A 
ATOM     57  H   UNL A   1      41.218  30.056  33.362  1.00  0.00     0.167 HD
ATOM     58  C   UNL A   1      43.050  28.096  32.460  1.00  0.00     0.074 A 
ATOM     59  C   UNL A   1      43.705  27.128  31.609  1.00  0.00     0.031 C 
ATOM     60  C   UNL A   1      43.480  28.430  33.704  1.00  0.00     0.034 A 
BRANCH  47  61
ATOM     61  C   UNL A   1      39.998  32.759  36.457  1.00  0.00     0.023 A 
ATOM     62  C   UNL A   1      39.190  32.378  37.543  1.00  0.00     0.031 A 
ATOM     63  C   UNL A   1      40.600  34.029  36.499  1.00  0.00     0.131 A 
ATOM     64  C   UNL A   1      38.952  33.283  38.588  1.00  0.00     0.055 A 
ATOM     65  C   UNL A   1      40.426  34.893  37.582  1.00  0.00     0.041 A 
ATOM     66  F   UNL A   1      41.360  34.460  35.479  1.00  0.00    -0.206 F 
ATOM     67  C   UNL A   1      39.586  34.527  38.628  1.00  0.00     0.022 A 
BRANCH  64  68
ATOM     68  S   UNL A   1      37.684  32.873  39.819  1.00  0.00     0.124 S 
ATOM     69  O   UNL A   1      37.710  34.056  40.676  1.00  0.00    -0.237 OA
ATOM     70  O   UNL A   1      36.491  32.703  38.999  1.00  0.00    -0.237 OA
ATOM     71  O   UNL A   1      38.193  31.652  40.441  1.00  0.00    -0.744 OA
ENDBRANCH  64  68
ENDBRANCH  47  61
BRANCH  48  72
ATOM     72  C   UNL A   1      41.209  27.216  28.211  1.00  0.00     0.023 A 
ATOM     73  C   UNL A   1      41.012  25.825  28.202  1.00  0.00     0.031 A 
ATOM     74  C   UNL A   1      41.711  27.815  27.042  1.00  0.00     0.131 A 
ATOM     75  C   UNL A   1      41.365  25.075  27.068  1.00  0.00     0.055 A 
ATOM     76  C   UNL A   1      42.001  27.072  25.896  1.00  0.00     0.041 A 
ATOM     77  F   UNL A   1      41.930  29.139  26.997  1.00  0.00    -0.206 F 
ATOM     78  C   UNL A   1      41.843  25.690  25.909  1.00  0.00     0.022 A 
BRANCH  75  79
ATOM     79  S   UNL A   1      41.288  23.264  27.166  1.00  0.00     0.124 S 
ATOM     80  O   UNL A   1      42.253  22.983  28.223  1.00  0.00    -0.237 OA
ATOM     81  O   UNL A   1      39.886  23.039  27.499  1.00  0.00    -0.237 OA
ATOM     82  O   UNL A   1      41.685  22.834  25.826  1.00  0.00    -0.744 OA
ENDBRANCH  75  79
ENDBRANCH  48  72
BRANCH  60  83
ATOM     83  C   UNL A   1      44.684  27.695  34.248  1.00  0.00     0.023 A 
ATOM     84  C   UNL A   1      44.567  26.488  34.962  1.00  0.00     0.031 A 
ATOM     85  C   UNL A   1      45.977  28.214  34.048  1.00  0.00     0.131 A 
ATOM     86  C   UNL A   1      45.712  25.875  35.495  1.00  0.00     0.055 A 
ATOM     87  C   UNL A   1      47.117  27.564  34.520  1.00  0.00     0.041 A 
ATOM     88  F   UNL A   1      46.154  29.366  33.378  1.00  0.00    -0.206 F 
ATOM     89  C   UNL A   1      46.988  26.394  35.262  1.00  0.00     0.022 A 
BRANCH  86  90
ATOM     90  S   UNL A   1      45.506  24.440  36.587  1.00  0.00     0.124 S 
ATOM     91  O   UNL A   1      46.769  24.430  37.317  1.00  0.00    -0.237 OA
ATOM     92  O   UNL A   1      44.324  24.803  37.361  1.00  0.00    -0.237 OA
ATOM     93  O   UNL A   1      45.318  23.326  35.659  1.00  0.00    -0.744 OA
ENDBRANCH  86  90
ENDBRANCH  60  83
ENDBRANCH  34  35
ENDBRANCH  27  29
ENDBRANCH  26  27
ENDBRANCH  25  26
ENDBRANCH  24  25
ENDBRANCH  23  24
ENDBRANCH  22  23
ENDBRANCH   1  22
TORSDOF 23
ENDMDL
MODEL 3
REMARK VINA RESULT:      -9.0      5.560     10.542
REMARK SMILES C[C@@H](C(=O)OCCOCCOCCOC(=O)c1ccc(-c2c3nc(c(-c4cc(S(=O)(=O)[O-])ccc4F)c4ccc([nH]4)c(-c4cc(S(=O)(=O)[O-])ccc4F)c4nc(c(-c5cc(S(=O)(=O)[O-])ccc5F)c5ccc2[nH]5)C=C4)C=C3)cc1)[C@H](C)[S@@](=O)c1ccc(F)c(F)c1
REMARK SMILES IDX 9 1 8 2 7 3 6 4 5 5 3 6 4 7 2 8 1 9 80 10 81 11 82 12 83 13
REMARK SMILES IDX 84 14 85 15 91 16 86 17 89 18 87 19 90 20 88 21 10 22 11 23
REMARK SMILES IDX 12 24 13 25 14 26 15 27 16 28 17 29 18 30 79 31 19 32 78 33
REMARK SMILES IDX 20 34 21 35 22 36 72 37 23 38 77 39 71 40 73 41 24 42 76 43
REMARK SMILES IDX 70 44 69 45 25 47 57 48 37 49 56 50 38 51 41 52 55 53 74 54
REMARK SMILES IDX 39 55 40 56 54 58 75 59 42 60 26 61 27 62 35 63 28 64 34 65
REMARK SMILES IDX 36 66 33 67 29 68 30 69 31 70 32 71 58 72 59 73 67 74 60 75
REMARK SMILES IDX 66 76 68 77 65 78 61 79 62 80 63 81 64 82 43 83 44 84 52 85
REMARK SMILES IDX 45 86 51 87 53 88 50 89 46 90 47 91 48 92 49 93
REMARK H PARENT 73 46 41 57
REMARK Flexibility Score: inf
ROOT
ATOM      1  C   UNL A   1      40.609  21.576  26.178  1.00  0.00     0.188 C 
ENDROOT
BRANCH   1   2
ATOM      2  O   UNL A   1      39.249  21.978  26.289  1.00  0.00    -0.376 OA
BRANCH   2   3
ATOM      3  C   UNL A   1      38.921  23.353  26.124  1.00  0.00     0.202 C 
BRANCH   3   4
ATOM      4  C   UNL A   1      37.487  23.815  26.429  1.00  0.00     0.261 C 
BRANCH   4   5
ATOM      5  O   UNL A   1      36.517  23.513  25.403  1.00  0.00    -0.463 OA
BRANCH   5   6
ATOM      6  C   UNL A   1      35.448  22.764  25.772  1.00  0.00     0.309 C 
ATOM      7  O   UNL A   1      35.513  21.557  25.978  1.00  0.00    -0.252 OA
BRANCH   6   8
ATOM      8  C   UNL A   1      34.122  23.539  25.884  1.00  0.00     0.112 C 
ATOM      9  C   UNL A   1      33.135  22.954  26.911  1.00  0.00     0.021 C 
BRANCH   8  10
ATOM     10  C   UNL A   1      33.546  23.807  24.461  1.00  0.00     0.095 C 
ATOM     11  C   UNL A   1      33.671  22.615  23.498  1.00  0.00     0.023 C 
BRANCH  10  12
ATOM     12  S   UNL A   1      34.078  25.295  23.536  1.00  0.00     0.057 S 
ATOM     13  O   UNL A   1      33.577  25.224  22.128  1.00  0.00    -0.254 OA
BRANCH  12  14
ATOM     14  C   UNL A   1      33.315  26.755  24.266  1.00  0.00     0.042 A 
ATOM     15  C   UNL A   1      33.687  28.078  24.011  1.00  0.00     0.021 A 
ATOM     16  C   UNL A   1      32.337  26.532  25.249  1.00  0.00     0.060 A 
ATOM     17  C   UNL A   1      33.149  29.146  24.736  1.00  0.00     0.043 A 
ATOM     18  C   UNL A   1      31.786  27.599  25.960  1.00  0.00     0.160 A 
ATOM     19  C   UNL A   1      32.202  28.898  25.714  1.00  0.00     0.158 A 
ATOM     20  F   UNL A   1      30.862  27.361  26.900  1.00  0.00    -0.204 F 
ATOM     21  F   UNL A   1      31.706  29.924  26.419  1.00  0.00    -0.204 F 
ENDBRANCH  12  14
ENDBRANCH  10  12
ENDBRANCH   8  10
ENDBRANCH   6   8
ENDBRANCH   5   6
ENDBRANCH   4   5
ENDBRANCH   3   4
ENDBRANCH   2   3
ENDBRANCH   1   2
BRANCH   1  22
ATOM     22  C   UNL A   1      40.961  20.089  26.313  1.00  0.00     0.188 C 
BRANCH  22  23
ATOM     23  O   UNL A   1      41.925  19.621  25.396  1.00  0.00    -0.376 OA
BRANCH  23  24
ATOM     24  C   UNL A   1      43.264  19.515  25.850  1.00  0.00     0.202 C 
BRANCH  24  25
ATOM     25  C   UNL A   1      44.294  20.463  25.211  1.00  0.00     0.261 C 
BRANCH  25  26
ATOM     26  O   UNL A   1      44.297  21.818  25.695  1.00  0.00    -0.460 OA
BRANCH  26  27
ATOM     27  C   UNL A   1      43.881  22.781  24.835  1.00  0.00     0.338 C 
ATOM     28  O   UNL A   1      43.485  22.606  23.694  1.00  0.00    -0.246 OA
BRANCH  27  29
ATOM     29  C   UNL A   1      43.738  24.041  25.610  1.00  0.00     0.060 A 
ATOM     30  C   UNL A   1      43.621  25.259  24.924  1.00  0.00     0.016 A 
ATOM     31  C   UNL A   1      43.669  24.016  27.004  1.00  0.00     0.016 A 
ATOM     32  C   UNL A   1      43.460  26.456  25.631  1.00  0.00     0.010 A 
ATOM     33  C   UNL A   1      43.533  25.216  27.711  1.00  0.00     0.010 A 
ATOM     34  C   UNL A   1      43.456  26.447  27.032  1.00  0.00    -0.014 A 
BRANCH  34  35
ATOM     35  C   UNL A   1      43.587  27.718  27.795  1.00  0.00     0.031 A 
ATOM     36  C   UNL A   1      42.330  28.357  28.325  1.00  0.00     0.074 A 
ATOM     37  C   UNL A   1      44.779  28.304  28.015  1.00  0.00     0.049 A 
ATOM     38  N   UNL A   1      42.166  29.506  28.925  1.00  0.00    -0.248 NA
ATOM     39  C   UNL A   1      41.088  27.589  28.140  1.00  0.00     0.031 C 
ATOM     40  C   UNL A   1      46.076  27.768  27.608  1.00  0.00     0.029 A 
ATOM     41  N   UNL A   1      45.088  29.496  28.630  1.00  0.00    -0.354 N 
ATOM     42  C   UNL A   1      40.801  29.609  29.179  1.00  0.00     0.074 A 
ATOM     43  C   UNL A   1      40.183  28.419  28.634  1.00  0.00     0.031 C 
ATOM     44  C   UNL A   1      47.040  28.633  27.975  1.00  0.00     0.029 A 
ATOM     45  C   UNL A   1      46.428  29.806  28.599  1.00  0.00     0.049 A 
ATOM     46  H   UNL A   1      44.412  30.073  29.053  1.00  0.00     0.167 HD
ATOM     47  C   UNL A   1      40.126  30.601  29.810  1.00  0.00     0.034 A 
ATOM     48  C   UNL A   1      47.079  30.920  28.999  1.00  0.00     0.034 A 
ATOM     49  C   UNL A   1      40.750  31.788  30.341  1.00  0.00     0.049 A 
ATOM     50  C   UNL A   1      46.291  32.062  29.606  1.00  0.00     0.074 A 
ATOM     51  C   UNL A   1      40.159  32.841  31.015  1.00  0.00     0.029 A 
ATOM     52  N   UNL A   1      42.102  32.089  30.243  1.00  0.00    -0.354 N 
ATOM     53  N   UNL A   1      45.002  32.145  29.846  1.00  0.00    -0.248 NA
ATOM     54  C   UNL A   1      47.050  33.258  29.999  1.00  0.00     0.031 C 
ATOM     55  C   UNL A   1      41.133  33.817  31.247  1.00  0.00     0.029 A 
ATOM     56  C   UNL A   1      42.354  33.331  30.807  1.00  0.00     0.049 A 
ATOM     57  H   UNL A   1      42.782  31.507  29.834  1.00  0.00     0.167 HD
ATOM     58  C   UNL A   1      44.807  33.385  30.455  1.00  0.00     0.074 A 
ATOM     59  C   UNL A   1      46.108  34.008  30.554  1.00  0.00     0.031 C 
ATOM     60  C   UNL A   1      43.655  33.952  30.900  1.00  0.00     0.034 A 
BRANCH  47  61
ATOM     61  C   UNL A   1      38.624  30.469  29.901  1.00  0.00     0.023 A 
ATOM     62  C   UNL A   1      37.761  31.161  29.033  1.00  0.00     0.031 A 
ATOM     63  C   UNL A   1      38.047  29.653  30.889  1.00  0.00     0.131 A 
ATOM     64  C   UNL A   1      36.372  31.077  29.214  1.00  0.00     0.055 A 
ATOM     65  C   UNL A   1      36.663  29.507  31.011  1.00  0.00     0.041 A 
ATOM     66  F   UNL A   1      38.819  28.989  31.765  1.00  0.00    -0.206 F 
ATOM     67  C   UNL A   1      35.818  30.233  30.180  1.00  0.00     0.022 A 
BRANCH  64  68
ATOM     68  S   UNL A   1      35.304  32.199  28.271  1.00  0.00     0.124 S 
ATOM     69  O   UNL A   1      34.555  32.860  29.337  1.00  0.00    -0.237 OA
ATOM     70  O   UNL A   1      36.269  33.028  27.558  1.00  0.00    -0.237 OA
ATOM     71  O   UNL A   1      34.516  31.298  27.433  1.00  0.00    -0.744 OA
ENDBRANCH  64  68
ENDBRANCH  47  61
BRANCH  48  72
ATOM     72  C   UNL A   1      48.556  31.054  28.804  1.00  0.00     0.023 A 
ATOM     73  C   UNL A   1      49.083  31.739  27.696  1.00  0.00     0.031 A 
ATOM     74  C   UNL A   1      49.461  30.428  29.679  1.00  0.00     0.131 A 
ATOM     75  C   UNL A   1      50.468  31.735  27.464  1.00  0.00     0.055 A 
ATOM     76  C   UNL A   1      50.841  30.480  29.478  1.00  0.00     0.041 A 
ATOM     77  F   UNL A   1      49.014  29.749  30.748  1.00  0.00    -0.206 F 
ATOM     78  C   UNL A   1      51.352  31.124  28.356  1.00  0.00     0.022 A 
BRANCH  75  79
ATOM     79  S   UNL A   1      51.092  32.454  25.919  1.00  0.00     0.124 S 
ATOM     80  O   UNL A   1      52.244  33.214  26.391  1.00  0.00    -0.237 OA
ATOM     81  O   UNL A   1      51.386  31.264  25.129  1.00  0.00    -0.237 OA
ATOM     82  O   UNL A   1      49.968  33.256  25.438  1.00  0.00    -0.744 OA
ENDBRANCH  75  79
ENDBRANCH  48  72
BRANCH  60  83
ATOM     83  C   UNL A   1      43.759  35.292  31.593  1.00  0.00     0.023 A 
ATOM     84  C   UNL A   1      43.858  35.407  32.992  1.00  0.00     0.031 A 
ATOM     85  C   UNL A   1      43.758  36.479  30.836  1.00  0.00     0.131 A 
ATOM     86  C   UNL A   1      43.893  36.677  33.589  1.00  0.00     0.055 A 
ATOM     87  C   UNL A   1      43.864  37.736  31.431  1.00  0.00     0.041 A 
ATOM     88  F   UNL A   1      43.661  36.435  29.497  1.00  0.00    -0.206 F 
ATOM     89  C   UNL A   1      43.918  37.842  32.818  1.00  0.00     0.022 A 
BRANCH  86  90
ATOM     90  S   UNL A   1      43.807  36.794  35.398  1.00  0.00     0.124 S 
ATOM     91  O   UNL A   1      42.451  36.326  35.668  1.00  0.00    -0.237 OA
ATOM     92  O   UNL A   1      44.885  35.906  35.821  1.00  0.00    -0.237 OA
ATOM     93  O   UNL A   1      44.036  38.214  35.662  1.00  0.00    -0.744 OA
ENDBRANCH  86  90
ENDBRANCH  60  83
ENDBRANCH  34  35
ENDBRANCH  27  29
ENDBRANCH  26  27
ENDBRANCH  25  26
ENDBRANCH  24  25
ENDBRANCH  23  24
ENDBRANCH  22  23
ENDBRANCH   1  22
TORSDOF 23
ENDMDL
