MODEL 1
REMARK VINA RESULT:      -7.8      0.000      0.000
REMARK SMILES C[C@](NC(=O)C[C@@H]1CCCCO1)(C(=O)OCCOCCOCCOC(=O)c1ccc(-c2c3nc(c(-c4cc(S(=O)(=O)[O-])ccc4F)c4ccc([nH]4)c(-c4cc(S(=O)(=O)[O-])ccc4F)c4nc(c(-c5cc(S(=O)(=O)[O-])ccc5F)c5ccc2[nH]5)C=C4)C=C3)cc1)c1ccccc1
REMARK SMILES IDX 19 1 18 2 17 3 16 4 15 5 13 6 14 7 2 8 1 9 90 10 91 11 95 12
REMARK SMILES IDX 92 13 94 14 93 15 3 16 4 17 5 19 6 20 7 21 8 22 12 23 9 24
REMARK SMILES IDX 11 25 10 26 20 27 21 28 22 29 23 30 24 31 25 32 26 33 27 34
REMARK SMILES IDX 28 35 89 36 29 37 88 38 30 39 31 40 32 41 82 42 33 43 87 44
REMARK SMILES IDX 81 45 83 46 34 47 86 48 80 49 79 50 35 52 67 53 47 54 66 55
REMARK SMILES IDX 48 56 51 57 65 58 84 59 49 60 50 61 64 63 85 64 52 65 36 66
REMARK SMILES IDX 37 67 45 68 38 69 44 70 46 71 43 72 39 73 40 74 41 75 42 76
REMARK SMILES IDX 68 77 69 78 77 79 70 80 76 81 78 82 75 83 71 84 72 85 73 86
REMARK SMILES IDX 74 87 53 88 54 89 62 90 55 91 61 92 63 93 60 94 56 95 57 96
REMARK SMILES IDX 58 97 59 98
REMARK H PARENT 3 18 83 51 51 62
REMARK Flexibility Score: inf
ROOT
ATOM      1  C   UNL A   1      41.342  23.322  27.062  1.00  0.00     0.188 C 
ENDROOT
BRANCH   1   2
ATOM      2  O   UNL A   1      40.172  23.973  27.557  1.00  0.00    -0.376 OA
BRANCH   2   3
ATOM      3  C   UNL A   1      40.062  25.382  27.399  1.00  0.00     0.202 C 
BRANCH   3   4
ATOM      4  C   UNL A   1      39.168  26.159  28.376  1.00  0.00     0.261 C 
BRANCH   4   5
ATOM      5  O   UNL A   1      39.850  27.173  29.136  1.00  0.00    -0.461 OA
BRANCH   5   6
ATOM      6  C   UNL A   1      39.712  28.465  28.693  1.00  0.00     0.336 C 
ATOM      7  O   UNL A   1      39.976  28.820  27.546  1.00  0.00    -0.249 OA
BRANCH   6   8
ATOM      8  C   UNL A   1      39.073  29.424  29.790  1.00  0.00     0.161 C 
ATOM      9  C   UNL A   1      39.978  30.585  30.247  1.00  0.00     0.053 C 
BRANCH   8  10
ATOM     10  C   UNL A   1      37.917  30.165  29.032  1.00  0.00    -0.012 A 
ATOM     11  C   UNL A   1      36.844  29.547  28.378  1.00  0.00     0.007 A 
ATOM     12  C   UNL A   1      37.930  31.587  29.053  1.00  0.00     0.007 A 
ATOM     13  C   UNL A   1      35.802  30.323  27.851  1.00  0.00     0.000 A 
ATOM     14  C   UNL A   1      36.894  32.351  28.530  1.00  0.00     0.000 A 
ATOM     15  C   UNL A   1      35.816  31.713  27.949  1.00  0.00     0.000 A 
ENDBRANCH   8  10
BRANCH   8  16
ATOM     16  N   UNL A   1      38.622  28.694  31.005  1.00  0.00    -0.337 N 
ATOM     17  C   UNL A   1      37.749  28.982  32.007  1.00  0.00     0.223 C 
ATOM     18  H   UNL A   1      39.047  27.812  31.105  1.00  0.00     0.164 HD
ATOM     19  O   UNL A   1      37.678  28.140  32.913  1.00  0.00    -0.275 OA
BRANCH  17  20
ATOM     20  C   UNL A   1      36.804  30.186  32.058  1.00  0.00     0.132 C 
BRANCH  20  21
ATOM     21  C   UNL A   1      36.951  31.143  33.242  1.00  0.00     0.127 C 
ATOM     22  C   UNL A   1      36.958  32.628  32.834  1.00  0.00     0.033 C 
ATOM     23  O   UNL A   1      38.090  30.872  34.054  1.00  0.00    -0.378 OA
ATOM     24  C   UNL A   1      38.321  33.112  32.338  1.00  0.00     0.005 C 
ATOM     25  C   UNL A   1      39.367  31.280  33.584  1.00  0.00     0.160 C 
ATOM     26  C   UNL A   1      39.403  32.768  33.349  1.00  0.00     0.029 C 
ENDBRANCH  20  21
ENDBRANCH  17  20
ENDBRANCH   8  16
ENDBRANCH   6   8
ENDBRANCH   5   6
ENDBRANCH   4   5
ENDBRANCH   3   4
ENDBRANCH   2   3
ENDBRANCH   1   2
BRANCH   1  27
ATOM     27  C   UNL A   1      41.182  22.008  26.271  1.00  0.00     0.188 C 
BRANCH  27  28
ATOM     28  O   UNL A   1      42.255  21.729  25.394  1.00  0.00    -0.376 OA
BRANCH  28  29
ATOM     29  C   UNL A   1      43.467  22.418  25.643  1.00  0.00     0.202 C 
BRANCH  29  30
ATOM     30  C   UNL A   1      43.979  23.337  24.522  1.00  0.00     0.261 C 
BRANCH  30  31
ATOM     31  O   UNL A   1      43.899  24.753  24.777  1.00  0.00    -0.460 OA
BRANCH  31  32
ATOM     32  C   UNL A   1      45.047  25.373  25.148  1.00  0.00     0.338 C 
ATOM     33  O   UNL A   1      46.117  25.310  24.574  1.00  0.00    -0.246 OA
BRANCH  32  34
ATOM     34  C   UNL A   1      44.730  26.330  26.242  1.00  0.00     0.060 A 
ATOM     35  C   UNL A   1      45.791  26.995  26.868  1.00  0.00     0.016 A 
ATOM     36  C   UNL A   1      43.416  26.583  26.648  1.00  0.00     0.016 A 
ATOM     37  C   UNL A   1      45.541  27.895  27.908  1.00  0.00     0.010 A 
ATOM     38  C   UNL A   1      43.168  27.476  27.705  1.00  0.00     0.010 A 
ATOM     39  C   UNL A   1      44.230  28.129  28.353  1.00  0.00    -0.014 A 
BRANCH  39  40
ATOM     40  C   UNL A   1      44.022  28.921  29.598  1.00  0.00     0.031 A 
ATOM     41  C   UNL A   1      43.798  30.405  29.476  1.00  0.00     0.074 A 
ATOM     42  C   UNL A   1      43.968  28.339  30.812  1.00  0.00     0.049 A 
ATOM     43  N   UNL A   1      43.548  31.289  30.407  1.00  0.00    -0.248 NA
ATOM     44  C   UNL A   1      43.873  30.960  28.117  1.00  0.00     0.031 C 
ATOM     45  C   UNL A   1      44.165  26.917  31.070  1.00  0.00     0.029 A 
ATOM     46  N   UNL A   1      43.712  28.871  32.056  1.00  0.00    -0.354 N 
ATOM     47  C   UNL A   1      43.434  32.509  29.748  1.00  0.00     0.074 A 
ATOM     48  C   UNL A   1      43.667  32.249  28.342  1.00  0.00     0.031 C 
ATOM     49  C   UNL A   1      43.998  26.684  32.385  1.00  0.00     0.029 A 
ATOM     50  C   UNL A   1      43.707  27.941  33.073  1.00  0.00     0.049 A 
ATOM     51  H   UNL A   1      43.548  29.831  32.206  1.00  0.00     0.167 HD
ATOM     52  C   UNL A   1      43.163  33.733  30.265  1.00  0.00     0.034 A 
ATOM     53  C   UNL A   1      43.497  28.084  34.402  1.00  0.00     0.034 A 
ATOM     54  C   UNL A   1      42.976  33.996  31.671  1.00  0.00     0.049 A 
ATOM     55  C   UNL A   1      43.239  29.471  34.956  1.00  0.00     0.074 A 
ATOM     56  C   UNL A   1      42.743  35.209  32.297  1.00  0.00     0.029 A 
ATOM     57  N   UNL A   1      43.011  33.037  32.674  1.00  0.00    -0.354 N 
ATOM     58  N   UNL A   1      43.136  30.615  34.317  1.00  0.00    -0.248 NA
ATOM     59  C   UNL A   1      43.077  29.586  36.412  1.00  0.00     0.031 C 
ATOM     60  C   UNL A   1      42.705  34.993  33.679  1.00  0.00     0.029 A 
ATOM     61  C   UNL A   1      42.828  33.633  33.914  1.00  0.00     0.049 A 
ATOM     62  H   UNL A   1      43.146  32.073  32.527  1.00  0.00     0.167 HD
ATOM     63  C   UNL A   1      42.893  31.578  35.296  1.00  0.00     0.074 A 
ATOM     64  C   UNL A   1      42.809  30.874  36.557  1.00  0.00     0.031 C 
ATOM     65  C   UNL A   1      42.768  32.925  35.171  1.00  0.00     0.034 A 
BRANCH  52  66
ATOM     66  C   UNL A   1      43.119  34.890  29.297  1.00  0.00     0.023 A 
ATOM     67  C   UNL A   1      44.288  35.564  28.904  1.00  0.00     0.031 A 
ATOM     68  C   UNL A   1      41.891  35.344  28.786  1.00  0.00     0.131 A 
ATOM     69  C   UNL A   1      44.198  36.696  28.080  1.00  0.00     0.055 A 
ATOM     70  C   UNL A   1      41.815  36.422  27.903  1.00  0.00     0.041 A 
ATOM     71  F   UNL A   1      40.741  34.755  29.147  1.00  0.00    -0.206 F 
ATOM     72  C   UNL A   1      42.972  37.114  27.555  1.00  0.00     0.022 A 
BRANCH  69  73
ATOM     73  S   UNL A   1      45.687  37.696  27.814  1.00  0.00     0.124 S 
ATOM     74  O   UNL A   1      45.176  39.047  28.031  1.00  0.00    -0.237 OA
ATOM     75  O   UNL A   1      46.596  37.186  28.834  1.00  0.00    -0.237 OA
ATOM     76  O   UNL A   1      46.062  37.393  26.435  1.00  0.00    -0.744 OA
ENDBRANCH  69  73
ENDBRANCH  52  66
BRANCH  53  77
ATOM     77  C   UNL A   1      43.572  26.912  35.334  1.00  0.00     0.023 A 
ATOM     78  C   UNL A   1      44.783  26.529  35.939  1.00  0.00     0.031 A 
ATOM     79  C   UNL A   1      42.450  26.091  35.548  1.00  0.00     0.131 A 
ATOM     80  C   UNL A   1      44.857  25.329  36.668  1.00  0.00     0.055 A 
ATOM     81  C   UNL A   1      42.512  24.940  36.337  1.00  0.00     0.041 A 
ATOM     82  F   UNL A   1      41.270  26.390  34.984  1.00  0.00    -0.206 F 
ATOM     83  C   UNL A   1      43.725  24.542  36.886  1.00  0.00     0.022 A 
BRANCH  80  84
ATOM     84  S   UNL A   1      46.486  24.736  37.216  1.00  0.00     0.124 S 
ATOM     85  O   UNL A   1      46.512  25.184  38.604  1.00  0.00    -0.237 OA
ATOM     86  O   UNL A   1      46.369  23.297  37.007  1.00  0.00    -0.237 OA
ATOM     87  O   UNL A   1      47.415  25.422  36.321  1.00  0.00    -0.744 OA
ENDBRANCH  80  84
ENDBRANCH  53  77
BRANCH  65  88
ATOM     88  C   UNL A   1      42.507  33.714  36.436  1.00  0.00     0.023 A 
ATOM     89  C   UNL A   1      41.201  33.975  36.889  1.00  0.00     0.031 A 
ATOM     90  C   UNL A   1      43.577  34.241  37.182  1.00  0.00     0.131 A 
ATOM     91  C   UNL A   1      40.996  34.805  38.003  1.00  0.00     0.055 A 
ATOM     92  C   UNL A   1      43.368  35.005  38.333  1.00  0.00     0.041 A 
ATOM     93  F   UNL A   1      44.847  34.028  36.803  1.00  0.00    -0.206 F 
ATOM     94  C   UNL A   1      42.071  35.307  38.738  1.00  0.00     0.022 A 
BRANCH  91  95
ATOM     95  S   UNL A   1      39.303  35.326  38.400  1.00  0.00     0.124 S 
ATOM     96  O   UNL A   1      39.364  36.764  38.157  1.00  0.00    -0.237 OA
ATOM     97  O   UNL A   1      38.509  34.552  37.452  1.00  0.00    -0.237 OA
ATOM     98  O   UNL A   1      39.145  34.940  39.801  1.00  0.00    -0.744 OA
ENDBRANCH  91  95
ENDBRANCH  65  88
ENDBRANCH  39  40
ENDBRANCH  32  34
ENDBRANCH  31  32
ENDBRANCH  30  31
ENDBRANCH  29  30
ENDBRANCH  28  29
ENDBRANCH  27  28
ENDBRANCH   1  27
TORSDOF 24
ENDMDL
MODEL 2
REMARK VINA RESULT:      -6.9      6.354     13.616
REMARK SMILES C[C@](NC(=O)C[C@@H]1CCCCO1)(C(=O)OCCOCCOCCOC(=O)c1ccc(-c2c3nc(c(-c4cc(S(=O)(=O)[O-])ccc4F)c4ccc([nH]4)c(-c4cc(S(=O)(=O)[O-])ccc4F)c4nc(c(-c5cc(S(=O)(=O)[O-])ccc5F)c5ccc2[nH]5)C=C4)C=C3)cc1)c1ccccc1
REMARK SMILES IDX 19 1 18 2 17 3 16 4 15 5 13 6 14 7 2 8 1 9 90 10 91 11 95 12
REMARK SMILES IDX 92 13 94 14 93 15 3 16 4 17 5 19 6 20 7 21 8 22 12 23 9 24
REMARK SMILES IDX 11 25 10 26 20 27 21 28 22 29 23 30 24 31 25 32 26 33 27 34
REMARK SMILES IDX 28 35 89 36 29 37 88 38 30 39 31 40 32 41 82 42 33 43 87 44
REMARK SMILES IDX 81 45 83 46 34 47 86 48 80 49 79 50 35 52 67 53 47 54 66 55
REMARK SMILES IDX 48 56 51 57 65 58 84 59 49 60 50 61 64 63 85 64 52 65 36 66
REMARK SMILES IDX 37 67 45 68 38 69 44 70 46 71 43 72 39 73 40 74 41 75 42 76
REMARK SMILES IDX 68 77 69 78 77 79 70 80 76 81 78 82 75 83 71 84 72 85 73 86
REMARK SMILES IDX 74 87 53 88 54 89 62 90 55 91 61 92 63 93 60 94 56 95 57 96
REMARK SMILES IDX 58 97 59 98
REMARK H PARENT 3 18 83 51 51 62
REMARK Flexibility Score: inf
ROOT
ATOM      1  C   UNL A   1      43.449  42.206  24.912  1.00  0.00     0.188 C 
ENDROOT
BRANCH   1   2
ATOM      2  O   UNL A   1      44.497  41.868  24.005  1.00  0.00    -0.376 OA
BRANCH   2   3
ATOM      3  C   UNL A   1      45.841  41.941  24.464  1.00  0.00     0.202 C 
BRANCH   3   4
ATOM      4  C   UNL A   1      46.960  42.104  23.424  1.00  0.00     0.261 C 
BRANCH   4   5
ATOM      5  O   UNL A   1      46.676  43.053  22.381  1.00  0.00    -0.461 OA
BRANCH   5   6
ATOM      6  C   UNL A   1      45.972  42.583  21.301  1.00  0.00     0.336 C 
ATOM      7  O   UNL A   1      46.084  41.438  20.866  1.00  0.00    -0.249 OA
BRANCH   6   8
ATOM      8  C   UNL A   1      44.921  43.640  20.747  1.00  0.00     0.161 C 
ATOM      9  C   UNL A   1      44.069  44.338  21.825  1.00  0.00     0.053 C 
BRANCH   8  10
ATOM     10  C   UNL A   1      45.803  44.812  20.192  1.00  0.00    -0.012 A 
ATOM     11  C   UNL A   1      45.768  46.139  20.637  1.00  0.00     0.007 A 
ATOM     12  C   UNL A   1      46.756  44.492  19.185  1.00  0.00     0.007 A 
ATOM     13  C   UNL A   1      46.701  47.067  20.152  1.00  0.00     0.000 A 
ATOM     14  C   UNL A   1      47.679  45.415  18.710  1.00  0.00     0.000 A 
ATOM     15  C   UNL A   1      47.664  46.700  19.214  1.00  0.00     0.000 A 
ENDBRANCH   8  10
BRANCH   8  16
ATOM     16  N   UNL A   1      43.992  43.060  19.740  1.00  0.00    -0.337 N 
ATOM     17  C   UNL A   1      43.097  43.594  18.867  1.00  0.00     0.223 C 
ATOM     18  H   UNL A   1      44.036  42.078  19.696  1.00  0.00     0.164 HD
ATOM     19  O   UNL A   1      42.432  42.775  18.215  1.00  0.00    -0.275 OA
BRANCH  17  20
ATOM     20  C   UNL A   1      42.913  45.084  18.565  1.00  0.00     0.132 C 
BRANCH  20  21
ATOM     21  C   UNL A   1      43.139  45.540  17.123  1.00  0.00     0.127 C 
ATOM     22  C   UNL A   1      44.478  46.271  16.914  1.00  0.00     0.033 C 
ATOM     23  O   UNL A   1      42.080  46.339  16.606  1.00  0.00    -0.378 OA
ATOM     24  C   UNL A   1      44.432  47.745  17.320  1.00  0.00     0.005 C 
ATOM     25  C   UNL A   1      42.001  47.700  17.009  1.00  0.00     0.160 C 
ATOM     26  C   UNL A   1      43.261  48.441  16.643  1.00  0.00     0.029 C 
ENDBRANCH  20  21
ENDBRANCH  17  20
ENDBRANCH   8  16
ENDBRANCH   6   8
ENDBRANCH   5   6
ENDBRANCH   4   5
ENDBRANCH   3   4
ENDBRANCH   2   3
ENDBRANCH   1   2
BRANCH   1  27
ATOM     27  C   UNL A   1      43.086  41.209  26.031  1.00  0.00     0.188 C 
BRANCH  27  28
ATOM     28  O   UNL A   1      41.696  40.992  26.181  1.00  0.00    -0.376 OA
BRANCH  28  29
ATOM     29  C   UNL A   1      41.276  39.643  26.281  1.00  0.00     0.202 C 
BRANCH  29  30
ATOM     30  C   UNL A   1      41.915  38.806  27.400  1.00  0.00     0.261 C 
BRANCH  30  31
ATOM     31  O   UNL A   1      42.226  37.438  27.071  1.00  0.00    -0.460 OA
BRANCH  31  32
ATOM     32  C   UNL A   1      43.530  37.074  27.135  1.00  0.00     0.338 C 
ATOM     33  O   UNL A   1      44.477  37.717  26.725  1.00  0.00    -0.246 OA
BRANCH  32  34
ATOM     34  C   UNL A   1      43.639  35.865  27.994  1.00  0.00     0.060 A 
ATOM     35  C   UNL A   1      44.917  35.398  28.323  1.00  0.00     0.016 A 
ATOM     36  C   UNL A   1      42.510  35.199  28.483  1.00  0.00     0.016 A 
ATOM     37  C   UNL A   1      45.066  34.259  29.119  1.00  0.00     0.010 A 
ATOM     38  C   UNL A   1      42.663  34.044  29.270  1.00  0.00     0.010 A 
ATOM     39  C   UNL A   1      43.943  33.557  29.583  1.00  0.00    -0.014 A 
BRANCH  39  40
ATOM     40  C   UNL A   1      44.140  32.234  30.241  1.00  0.00     0.031 A 
ATOM     41  C   UNL A   1      44.216  32.184  31.744  1.00  0.00     0.074 A 
ATOM     42  C   UNL A   1      44.188  31.087  29.535  1.00  0.00     0.049 A 
ATOM     43  N   UNL A   1      44.335  31.151  32.538  1.00  0.00    -0.248 NA
ATOM     44  C   UNL A   1      44.156  33.479  32.437  1.00  0.00     0.031 C 
ATOM     45  C   UNL A   1      44.123  30.995  28.080  1.00  0.00     0.029 A 
ATOM     46  N   UNL A   1      44.284  29.777  29.949  1.00  0.00    -0.354 N 
ATOM     47  C   UNL A   1      44.363  31.669  33.828  1.00  0.00     0.074 A 
ATOM     48  C   UNL A   1      44.272  33.109  33.705  1.00  0.00     0.031 C 
ATOM     49  C   UNL A   1      44.156  29.698  27.723  1.00  0.00     0.029 A 
ATOM     50  C   UNL A   1      44.269  28.863  28.918  1.00  0.00     0.049 A 
ATOM     51  H   UNL A   1      44.358  29.518  30.896  1.00  0.00     0.167 HD
ATOM     52  C   UNL A   1      44.457  31.008  35.009  1.00  0.00     0.034 A 
ATOM     53  C   UNL A   1      44.343  27.512  28.934  1.00  0.00     0.034 A 
ATOM     54  C   UNL A   1      44.592  29.576  35.127  1.00  0.00     0.049 A 
ATOM     55  C   UNL A   1      44.490  26.803  30.265  1.00  0.00     0.074 A 
ATOM     56  C   UNL A   1      44.741  28.817  36.276  1.00  0.00     0.029 A 
ATOM     57  N   UNL A   1      44.607  28.685  34.062  1.00  0.00    -0.354 N 
ATOM     58  N   UNL A   1      44.517  27.310  31.478  1.00  0.00    -0.248 NA
ATOM     59  C   UNL A   1      44.627  25.340  30.229  1.00  0.00     0.031 C 
ATOM     60  C   UNL A   1      44.912  27.480  35.902  1.00  0.00     0.029 A 
ATOM     61  C   UNL A   1      44.786  27.389  34.525  1.00  0.00     0.049 A 
ATOM     62  H   UNL A   1      44.506  28.936  33.116  1.00  0.00     0.167 HD
ATOM     63  C   UNL A   1      44.667  26.225  32.341  1.00  0.00     0.074 A 
ATOM     64  C   UNL A   1      44.669  25.037  31.516  1.00  0.00     0.031 C 
ATOM     65  C   UNL A   1      44.810  26.210  33.693  1.00  0.00     0.034 A 
BRANCH  52  66
ATOM     66  C   UNL A   1      44.482  31.847  36.263  1.00  0.00     0.023 A 
ATOM     67  C   UNL A   1      43.340  32.002  37.066  1.00  0.00     0.031 A 
ATOM     68  C   UNL A   1      45.654  32.526  36.640  1.00  0.00     0.131 A 
ATOM     69  C   UNL A   1      43.375  32.868  38.169  1.00  0.00     0.055 A 
ATOM     70  C   UNL A   1      45.705  33.324  37.785  1.00  0.00     0.041 A 
ATOM     71  F   UNL A   1      46.766  32.435  35.896  1.00  0.00    -0.206 F 
ATOM     72  C   UNL A   1      44.557  33.509  38.550  1.00  0.00     0.022 A 
BRANCH  69  73
ATOM     73  S   UNL A   1      41.820  33.253  39.020  1.00  0.00     0.124 S 
ATOM     74  O   UNL A   1      42.235  34.324  39.922  1.00  0.00    -0.237 OA
ATOM     75  O   UNL A   1      40.948  33.647  37.919  1.00  0.00    -0.237 OA
ATOM     76  O   UNL A   1      41.468  31.995  39.676  1.00  0.00    -0.744 OA
ENDBRANCH  69  73
ENDBRANCH  52  66
BRANCH  53  77
ATOM     77  C   UNL A   1      44.338  26.716  27.664  1.00  0.00     0.023 A 
ATOM     78  C   UNL A   1      45.534  26.318  27.039  1.00  0.00     0.031 A 
ATOM     79  C   UNL A   1      43.132  26.433  26.996  1.00  0.00     0.131 A 
ATOM     80  C   UNL A   1      45.500  25.725  25.764  1.00  0.00     0.055 A 
ATOM     81  C   UNL A   1      43.101  25.774  25.765  1.00  0.00     0.041 A 
ATOM     82  F   UNL A   1      41.957  26.803  27.529  1.00  0.00    -0.206 F 
ATOM     83  C   UNL A   1      44.291  25.434  25.133  1.00  0.00     0.022 A 
BRANCH  80  84
ATOM     84  S   UNL A   1      47.066  25.461  24.880  1.00  0.00     0.124 S 
ATOM     85  O   UNL A   1      47.182  26.694  24.109  1.00  0.00    -0.237 OA
ATOM     86  O   UNL A   1      48.010  25.299  25.980  1.00  0.00    -0.237 OA
ATOM     87  O   UNL A   1      46.813  24.255  24.095  1.00  0.00    -0.744 OA
ENDBRANCH  80  84
ENDBRANCH  53  77
BRANCH  65  88
ATOM     88  C   UNL A   1      44.959  24.857  34.354  1.00  0.00     0.023 A 
ATOM     89  C   UNL A   1      46.223  24.318  34.659  1.00  0.00     0.031 A 
ATOM     90  C   UNL A   1      43.826  24.079  34.654  1.00  0.00     0.131 A 
ATOM     91  C   UNL A   1      46.327  23.014  35.168  1.00  0.00     0.055 A 
ATOM     92  C   UNL A   1      43.933  22.810  35.229  1.00  0.00     0.041 A 
ATOM     93  F   UNL A   1      42.592  24.535  34.387  1.00  0.00    -0.206 F 
ATOM     94  C   UNL A   1      45.190  22.263  35.470  1.00  0.00     0.022 A 
BRANCH  91  95
ATOM     95  S   UNL A   1      47.974  22.262  35.305  1.00  0.00     0.124 S 
ATOM     96  O   UNL A   1      48.387  22.677  36.641  1.00  0.00    -0.237 OA
ATOM     97  O   UNL A   1      47.682  20.842  35.140  1.00  0.00    -0.237 OA
ATOM     98  O   UNL A   1      48.721  22.871  34.206  1.00  0.00    -0.744 OA
ENDBRANCH  91  95
ENDBRANCH  65  88
ENDBRANCH  39  40
ENDBRANCH  32  34
ENDBRANCH  31  32
ENDBRANCH  30  31
ENDBRANCH  29  30
ENDBRANCH  28  29
ENDBRANCH  27  28
ENDBRANCH   1  27
TORSDOF 24
ENDMDL
MODEL 3
REMARK VINA RESULT:      -6.9      4.987     11.948
REMARK SMILES C[C@](NC(=O)C[C@@H]1CCCCO1)(C(=O)OCCOCCOCCOC(=O)c1ccc(-c2c3nc(c(-c4cc(S(=O)(=O)[O-])ccc4F)c4ccc([nH]4)c(-c4cc(S(=O)(=O)[O-])ccc4F)c4nc(c(-c5cc(S(=O)(=O)[O-])ccc5F)c5ccc2[nH]5)C=C4)C=C3)cc1)c1ccccc1
REMARK SMILES IDX 19 1 18 2 17 3 16 4 15 5 13 6 14 7 2 8 1 9 90 10 91 11 95 12
REMARK SMILES IDX 92 13 94 14 93 15 3 16 4 17 5 19 6 20 7 21 8 22 12 23 9 24
REMARK SMILES IDX 11 25 10 26 20 27 21 28 22 29 23 30 24 31 25 32 26 33 27 34
REMARK SMILES IDX 28 35 89 36 29 37 88 38 30 39 31 40 32 41 82 42 33 43 87 44
REMARK SMILES IDX 81 45 83 46 34 47 86 48 80 49 79 50 35 52 67 53 47 54 66 55
REMARK SMILES IDX 48 56 51 57 65 58 84 59 49 60 50 61 64 63 85 64 52 65 36 66
REMARK SMILES IDX 37 67 45 68 38 69 44 70 46 71 43 72 39 73 40 74 41 75 42 76
REMARK SMILES IDX 68 77 69 78 77 79 70 80 76 81 78 82 75 83 71 84 72 85 73 86
REMARK SMILES IDX 74 87 53 88 54 89 62 90 55 91 61 92 63 93 60 94 56 95 57 96
REMARK SMILES IDX 58 97 59 98
REMARK H PARENT 3 18 83 51 51 62
REMARK Flexibility Score: inf
ROOT
ATOM      1  C   UNL A   1      46.095  21.217  38.354  1.00  0.00     0.188 C 
ENDROOT
BRANCH   1   2
ATOM      2  O   UNL A   1      46.509  20.435  37.235  1.00  0.00    -0.376 OA
BRANCH   2   3
ATOM      3  C   UNL A   1      45.916  20.694  35.969  1.00  0.00     0.202 C 
BRANCH   3   4
ATOM      4  C   UNL A   1      46.632  21.659  35.011  1.00  0.00     0.261 C 
BRANCH   4   5
ATOM      5  O   UNL A   1      47.936  21.224  34.587  1.00  0.00    -0.461 OA
BRANCH   5   6
ATOM      6  C   UNL A   1      48.979  22.078  34.847  1.00  0.00     0.336 C 
ATOM      7  O   UNL A   1      48.966  23.271  34.552  1.00  0.00    -0.249 OA
BRANCH   6   8
ATOM      8  C   UNL A   1      50.153  21.382  35.664  1.00  0.00     0.161 C 
ATOM      9  C   UNL A   1      49.790  20.023  36.295  1.00  0.00     0.053 C 
BRANCH   8  10
ATOM     10  C   UNL A   1      51.206  20.985  34.572  1.00  0.00    -0.012 A 
ATOM     11  C   UNL A   1      51.386  21.629  33.342  1.00  0.00     0.007 A 
ATOM     12  C   UNL A   1      52.089  19.911  34.876  1.00  0.00     0.007 A 
ATOM     13  C   UNL A   1      52.451  21.263  32.507  1.00  0.00     0.000 A 
ATOM     14  C   UNL A   1      53.143  19.554  34.045  1.00  0.00     0.000 A 
ATOM     15  C   UNL A   1      53.337  20.249  32.868  1.00  0.00     0.000 A 
ENDBRANCH   8  10
BRANCH   8  16
ATOM     16  N   UNL A   1      50.703  22.249  36.740  1.00  0.00    -0.337 N 
ATOM     17  C   UNL A   1      51.541  23.319  36.751  1.00  0.00     0.223 C 
ATOM     18  H   UNL A   1      50.393  21.993  37.638  1.00  0.00     0.164 HD
ATOM     19  O   UNL A   1      51.839  23.755  37.872  1.00  0.00    -0.275 OA
BRANCH  17  20
ATOM     20  C   UNL A   1      52.059  24.069  35.519  1.00  0.00     0.132 C 
BRANCH  20  21
ATOM     21  C   UNL A   1      53.478  24.636  35.590  1.00  0.00     0.127 C 
ATOM     22  C   UNL A   1      53.929  25.323  34.288  1.00  0.00     0.033 C 
ATOM     23  O   UNL A   1      54.456  23.677  35.980  1.00  0.00    -0.378 OA
ATOM     24  C   UNL A   1      54.429  24.341  33.228  1.00  0.00     0.005 C 
ATOM     25  C   UNL A   1      54.898  22.732  35.016  1.00  0.00     0.160 C 
ATOM     26  C   UNL A   1      55.491  23.425  33.817  1.00  0.00     0.029 C 
ENDBRANCH  20  21
ENDBRANCH  17  20
ENDBRANCH   8  16
ENDBRANCH   6   8
ENDBRANCH   5   6
ENDBRANCH   4   5
ENDBRANCH   3   4
ENDBRANCH   2   3
ENDBRANCH   1   2
BRANCH   1  27
ATOM     27  C   UNL A   1      46.977  22.402  38.798  1.00  0.00     0.188 C 
BRANCH  27  28
ATOM     28  O   UNL A   1      46.706  23.610  38.114  1.00  0.00    -0.376 OA
BRANCH  28  29
ATOM     29  C   UNL A   1      47.826  24.413  37.786  1.00  0.00     0.202 C 
BRANCH  29  30
ATOM     30  C   UNL A   1      47.890  25.803  38.439  1.00  0.00     0.261 C 
BRANCH  30  31
ATOM     31  O   UNL A   1      47.025  26.808  37.874  1.00  0.00    -0.460 OA
BRANCH  31  32
ATOM     32  C   UNL A   1      47.472  27.447  36.764  1.00  0.00     0.338 C 
ATOM     33  O   UNL A   1      48.634  27.649  36.469  1.00  0.00    -0.246 OA
BRANCH  32  34
ATOM     34  C   UNL A   1      46.319  27.658  35.849  1.00  0.00     0.060 A 
ATOM     35  C   UNL A   1      46.367  28.739  34.961  1.00  0.00     0.016 A 
ATOM     36  C   UNL A   1      45.208  26.808  35.848  1.00  0.00     0.016 A 
ATOM     37  C   UNL A   1      45.301  28.982  34.090  1.00  0.00     0.010 A 
ATOM     38  C   UNL A   1      44.130  27.064  34.982  1.00  0.00     0.010 A 
ATOM     39  C   UNL A   1      44.162  28.162  34.106  1.00  0.00    -0.014 A 
BRANCH  39  40
ATOM     40  C   UNL A   1      42.963  28.577  33.324  1.00  0.00     0.031 A 
ATOM     41  C   UNL A   1      42.008  29.561  33.945  1.00  0.00     0.074 A 
ATOM     42  C   UNL A   1      42.748  28.146  32.066  1.00  0.00     0.049 A 
ATOM     43  N   UNL A   1      40.928  30.104  33.443  1.00  0.00    -0.248 NA
ATOM     44  C   UNL A   1      42.315  29.981  35.320  1.00  0.00     0.031 C 
ATOM     45  C   UNL A   1      43.593  27.198  31.348  1.00  0.00     0.029 A 
ATOM     46  N   UNL A   1      41.761  28.465  31.160  1.00  0.00    -0.354 N 
ATOM     47  C   UNL A   1      40.425  30.933  34.440  1.00  0.00     0.074 A 
ATOM     48  C   UNL A   1      41.306  30.799  35.582  1.00  0.00     0.031 C 
ATOM     49  C   UNL A   1      43.104  27.030  30.106  1.00  0.00     0.029 A 
ATOM     50  C   UNL A   1      41.896  27.838  29.940  1.00  0.00     0.049 A 
ATOM     51  H   UNL A   1      41.024  29.085  31.365  1.00  0.00     0.167 HD
ATOM     52  C   UNL A   1      39.328  31.730  34.411  1.00  0.00     0.034 A 
ATOM     53  C   UNL A   1      41.135  27.902  28.824  1.00  0.00     0.034 A 
ATOM     54  C   UNL A   1      38.426  31.827  33.288  1.00  0.00     0.049 A 
ATOM     55  C   UNL A   1      39.892  28.768  28.835  1.00  0.00     0.074 A 
ATOM     56  C   UNL A   1      37.263  32.571  33.179  1.00  0.00     0.029 A 
ATOM     57  N   UNL A   1      38.576  31.152  32.084  1.00  0.00    -0.354 N 
ATOM     58  N   UNL A   1      39.429  29.545  29.789  1.00  0.00    -0.248 NA
ATOM     59  C   UNL A   1      39.064  28.760  27.621  1.00  0.00     0.031 C 
ATOM     60  C   UNL A   1      36.677  32.295  31.939  1.00  0.00     0.029 A 
ATOM     61  C   UNL A   1      37.516  31.445  31.237  1.00  0.00     0.049 A 
ATOM     62  H   UNL A   1      39.325  30.554  31.863  1.00  0.00     0.167 HD
ATOM     63  C   UNL A   1      38.263  30.117  29.283  1.00  0.00     0.074 A 
ATOM     64  C   UNL A   1      38.124  29.640  27.924  1.00  0.00     0.031 C 
ATOM     65  C   UNL A   1      37.373  30.947  29.889  1.00  0.00     0.034 A 
BRANCH  52  66
ATOM     66  C   UNL A   1      39.015  32.510  35.664  1.00  0.00     0.023 A 
ATOM     67  C   UNL A   1      39.436  33.841  35.826  1.00  0.00     0.031 A 
ATOM     68  C   UNL A   1      38.317  31.904  36.723  1.00  0.00     0.131 A 
ATOM     69  C   UNL A   1      39.212  34.501  37.044  1.00  0.00     0.055 A 
ATOM     70  C   UNL A   1      38.027  32.592  37.902  1.00  0.00     0.041 A 
ATOM     71  F   UNL A   1      37.914  30.627  36.634  1.00  0.00    -0.206 F 
ATOM     72  C   UNL A   1      38.487  33.895  38.073  1.00  0.00     0.022 A 
BRANCH  69  73
ATOM     73  S   UNL A   1      40.000  36.111  37.315  1.00  0.00     0.124 S 
ATOM     74  O   UNL A   1      41.331  35.715  37.767  1.00  0.00    -0.237 OA
ATOM     75  O   UNL A   1      39.931  36.723  35.993  1.00  0.00    -0.237 OA
ATOM     76  O   UNL A   1      39.162  36.735  38.336  1.00  0.00    -0.744 OA
ENDBRANCH  69  73
ENDBRANCH  52  66
BRANCH  53  77
ATOM     77  C   UNL A   1      41.468  27.093  27.606  1.00  0.00     0.023 A 
ATOM     78  C   UNL A   1      41.250  25.703  27.563  1.00  0.00     0.031 A 
ATOM     79  C   UNL A   1      42.111  27.683  26.503  1.00  0.00     0.131 A 
ATOM     80  C   UNL A   1      41.729  24.948  26.478  1.00  0.00     0.055 A 
ATOM     81  C   UNL A   1      42.517  26.939  25.393  1.00  0.00     0.041 A 
ATOM     82  F   UNL A   1      42.366  29.001  26.490  1.00  0.00    -0.206 F 
ATOM     83  C   UNL A   1      42.344  25.560  25.385  1.00  0.00     0.022 A 
BRANCH  80  84
ATOM     84  S   UNL A   1      41.659  23.135  26.575  1.00  0.00     0.124 S 
ATOM     85  O   UNL A   1      42.456  22.746  25.416  1.00  0.00    -0.237 OA
ATOM     86  O   UNL A   1      42.257  22.879  27.881  1.00  0.00    -0.237 OA
ATOM     87  O   UNL A   1      40.231  22.844  26.477  1.00  0.00    -0.744 OA
ENDBRANCH  80  84
ENDBRANCH  53  77
BRANCH  65  88
ATOM     88  C   UNL A   1      36.185  31.401  29.069  1.00  0.00     0.023 A 
ATOM     89  C   UNL A   1      35.224  30.491  28.592  1.00  0.00     0.031 A 
ATOM     90  C   UNL A   1      36.028  32.757  28.730  1.00  0.00     0.131 A 
ATOM     91  C   UNL A   1      34.199  30.932  27.740  1.00  0.00     0.055 A 
ATOM     92  C   UNL A   1      34.964  33.202  27.943  1.00  0.00     0.041 A 
ATOM     93  F   UNL A   1      36.911  33.676  29.153  1.00  0.00    -0.206 F 
ATOM     94  C   UNL A   1      34.053  32.285  27.426  1.00  0.00     0.022 A 
BRANCH  91  95
ATOM     95  S   UNL A   1      33.137  29.696  26.942  1.00  0.00     0.124 S 
ATOM     96  O   UNL A   1      31.809  30.272  27.125  1.00  0.00    -0.237 OA
ATOM     97  O   UNL A   1      33.645  29.686  25.574  1.00  0.00    -0.237 OA
ATOM     98  O   UNL A   1      33.396  28.476  27.707  1.00  0.00    -0.744 OA
ENDBRANCH  91  95
ENDBRANCH  65  88
ENDBRANCH  39  40
ENDBRANCH  32  34
ENDBRANCH  31  32
ENDBRANCH  30  31
ENDBRANCH  29  30
ENDBRANCH  28  29
ENDBRANCH  27  28
ENDBRANCH   1  27
TORSDOF 24
ENDMDL
