MODEL 1
REMARK VINA RESULT:      -8.2      0.000      0.000
REMARK SMILES Cc1ccc(S(=O)(=O)n2cc(C(=O)C(=O)NCC(=O)N[C@H](Cc3c[nH]c4ccccc34)C(=O)OCCOCCOCCOC(=O)c3ccc(-c4c5nc(c(-c6cc(S(=O)(=O)[O-])ccc6F)c6ccc([nH]6)c(-c6cc(S(=O)(=O)[O-])ccc6F)c6nc(c(-c7cc(S(=O)(=O)[O-])ccc7F)c7ccc4[nH]7)C=C6)C=C5)cc3)c3ccccc32)cc1
REMARK SMILES IDX 36 1 35 2 34 3 32 4 33 5 21 6 20 7 18 8 19 9 17 11 16 12
REMARK SMILES IDX 14 13 15 14 12 16 13 17 11 18 9 19 10 20 114 21 109 22
REMARK SMILES IDX 113 23 110 24 112 25 111 26 6 27 7 28 8 29 5 30 1 31 2 32
REMARK SMILES IDX 3 33 116 34 4 35 115 36 22 37 23 38 24 39 31 40 25 41 26 42
REMARK SMILES IDX 30 43 27 45 29 46 28 47 37 48 38 49 39 50 40 51 41 52 42 53
REMARK SMILES IDX 43 54 44 55 45 56 46 57 47 58 108 59 48 60 107 61 49 62
REMARK SMILES IDX 50 63 51 64 101 65 52 66 106 67 100 68 102 69 53 70 105 71
REMARK SMILES IDX 99 72 98 73 54 75 86 76 66 77 85 78 67 79 70 80 84 81 103 82
REMARK SMILES IDX 68 83 69 84 83 86 104 87 71 88 55 89 56 90 64 91 57 92 63 93
REMARK SMILES IDX 65 94 62 95 58 96 59 97 60 98 61 99 87 100 88 101 96 102
REMARK SMILES IDX 89 103 95 104 97 105 94 106 90 107 91 108 92 109 93 110
REMARK SMILES IDX 72 111 73 112 81 113 74 114 80 115 82 116 79 117 75 118
REMARK SMILES IDX 76 119 77 120 78 121
REMARK H PARENT 20 10 16 15 25 44 102 74 70 85
REMARK Flexibility Score: inf
ROOT
ATOM      1  C   UNL A   1      44.382  29.525  44.110  1.00  0.00     0.202 C 
ENDROOT
BRANCH   1   2
ATOM      2  C   UNL A   1      44.408  30.791  44.954  1.00  0.00     0.261 C 
BRANCH   2   3
ATOM      3  O   UNL A   1      43.391  31.838  45.001  1.00  0.00    -0.462 OA
BRANCH   3   4
ATOM      4  C   UNL A   1      42.324  32.479  44.509  1.00  0.00     0.329 C 
ATOM      5  O   UNL A   1      41.878  33.512  44.982  1.00  0.00    -0.250 OA
BRANCH   4   6
ATOM      6  C   UNL A   1      41.362  31.741  43.296  1.00  0.00     0.196 C 
BRANCH   6   7
ATOM      7  N   UNL A   1      41.739  32.912  41.869  1.00  0.00    -0.341 N 
ATOM      8  C   UNL A   1      41.628  34.279  41.435  1.00  0.00     0.240 C 
ATOM      9  O   UNL A   1      41.185  35.227  42.099  1.00  0.00    -0.273 OA
ATOM     10  H   UNL A   1      42.175  32.397  41.154  1.00  0.00     0.164 HD
BRANCH   8  11
ATOM     11  C   UNL A   1      42.233  34.748  40.066  1.00  0.00     0.216 C 
BRANCH  11  12
ATOM     12  N   UNL A   1      43.442  34.245  39.442  1.00  0.00    -0.340 N 
ATOM     13  C   UNL A   1      43.766  34.235  38.090  1.00  0.00     0.292 C 
ATOM     14  O   UNL A   1      44.895  33.992  37.679  1.00  0.00    -0.265 OA
ATOM     15  H   UNL A   1      44.115  33.864  40.049  1.00  0.00     0.164 HD
BRANCH  13  16
ATOM     16  C   UNL A   1      42.642  34.458  37.097  1.00  0.00     0.252 C 
ATOM     17  O   UNL A   1      42.356  35.646  36.916  1.00  0.00    -0.283 OA
BRANCH  16  18
ATOM     18  C   UNL A   1      41.806  33.438  36.439  1.00  0.00     0.054 A 
ATOM     19  N   UNL A   1      40.212  31.930  35.922  1.00  0.00    -0.240 N 
ATOM     20  C   UNL A   1      41.449  32.088  36.584  1.00  0.00     0.117 A 
ATOM     21  C   UNL A   1      40.010  33.101  35.160  1.00  0.00     0.065 A 
ATOM     22  C   UNL A   1      41.218  33.764  35.200  1.00  0.00     0.012 A 
ATOM     23  C   UNL A   1      39.043  33.427  34.191  1.00  0.00     0.028 A 
ATOM     24  C   UNL A   1      41.583  34.615  34.147  1.00  0.00     0.011 A 
ATOM     25  C   UNL A   1      39.508  34.091  33.057  1.00  0.00     0.002 A 
ATOM     26  C   UNL A   1      40.778  34.648  33.018  1.00  0.00     0.001 A 
BRANCH  19  27
ATOM     27  S   UNL A   1      39.562  30.571  35.099  1.00  0.00     0.268 S 
ATOM     28  O   UNL A   1      38.137  30.857  35.257  1.00  0.00    -0.201 OA
ATOM     29  O   UNL A   1      40.174  29.462  35.822  1.00  0.00    -0.201 OA
BRANCH  27  30
ATOM     30  C   UNL A   1      39.631  29.933  33.475  1.00  0.00     0.088 A 
ATOM     31  C   UNL A   1      38.956  27.162  30.226  1.00  0.00     0.044 C 
ATOM     32  C   UNL A   1      39.226  28.162  31.308  1.00  0.00    -0.051 A 
ATOM     33  C   UNL A   1      38.181  28.421  32.175  1.00  0.00     0.005 A 
ATOM     34  C   UNL A   1      40.468  28.803  31.522  1.00  0.00     0.005 A 
ATOM     35  C   UNL A   1      38.386  29.292  33.221  1.00  0.00     0.022 A 
ATOM     36  C   UNL A   1      40.688  29.685  32.619  1.00  0.00     0.022 A 
ENDBRANCH  27  30
ENDBRANCH  19  27
ENDBRANCH  16  18
ENDBRANCH  13  16
ENDBRANCH  11  12
ENDBRANCH   8  11
ENDBRANCH   6   7
BRANCH   6  37
ATOM     37  C   UNL A   1      39.459  30.591  43.498  1.00  0.00     0.074 C 
BRANCH  37  38
ATOM     38  C   UNL A   1      37.925  30.625  42.620  1.00  0.00    -0.020 A 
ATOM     39  C   UNL A   1      37.724  30.639  41.244  1.00  0.00     0.087 A 
ATOM     40  C   UNL A   1      36.632  30.881  43.201  1.00  0.00     0.003 A 
ATOM     41  N   UNL A   1      36.604  31.411  41.039  1.00  0.00    -0.361 N 
ATOM     42  C   UNL A   1      35.944  31.608  42.227  1.00  0.00     0.046 A 
ATOM     43  C   UNL A   1      36.113  30.837  44.507  1.00  0.00     0.010 A 
ATOM     44  H   UNL A   1      36.317  31.769  40.168  1.00  0.00     0.166 HD
ATOM     45  C   UNL A   1      34.863  32.438  42.533  1.00  0.00     0.026 A 
ATOM     46  C   UNL A   1      35.008  31.634  44.822  1.00  0.00     0.001 A 
ATOM     47  C   UNL A   1      34.426  32.458  43.859  1.00  0.00     0.002 A 
ENDBRANCH  37  38
ENDBRANCH   6  37
ENDBRANCH   4   6
ENDBRANCH   3   4
ENDBRANCH   2   3
ENDBRANCH   1   2
BRANCH   1  48
ATOM     48  O   UNL A   1      45.380  28.540  44.312  1.00  0.00    -0.376 OA
BRANCH  48  49
ATOM     49  C   UNL A   1      46.082  28.233  43.116  1.00  0.00     0.188 C 
BRANCH  49  50
ATOM     50  C   UNL A   1      45.117  28.006  41.975  1.00  0.00     0.188 C 
BRANCH  50  51
ATOM     51  O   UNL A   1      45.453  26.793  41.321  1.00  0.00    -0.376 OA
BRANCH  51  52
ATOM     52  C   UNL A   1      44.801  26.586  40.091  1.00  0.00     0.202 C 
BRANCH  52  53
ATOM     53  C   UNL A   1      45.529  27.355  38.972  1.00  0.00     0.261 C 
BRANCH  53  54
ATOM     54  O   UNL A   1      44.528  28.049  38.158  1.00  0.00    -0.460 OA
BRANCH  54  55
ATOM     55  C   UNL A   1      44.696  28.705  36.975  1.00  0.00     0.338 C 
ATOM     56  O   UNL A   1      44.622  29.899  36.775  1.00  0.00    -0.246 OA
BRANCH  55  57
ATOM     57  C   UNL A   1      44.807  27.627  35.913  1.00  0.00     0.060 A 
ATOM     58  C   UNL A   1      46.148  26.503  35.520  1.00  0.00     0.016 A 
ATOM     59  C   UNL A   1      43.504  27.818  34.767  1.00  0.00     0.016 A 
ATOM     60  C   UNL A   1      46.116  25.640  33.921  1.00  0.00     0.010 A 
ATOM     61  C   UNL A   1      43.451  27.016  33.189  1.00  0.00     0.010 A 
ATOM     62  C   UNL A   1      44.794  26.044  32.661  1.00  0.00    -0.014 A 
BRANCH  62  63
ATOM     63  C   UNL A   1      44.749  26.582  31.139  1.00  0.00     0.031 A 
ATOM     64  C   UNL A   1      44.653  25.333  30.381  1.00  0.00     0.074 A 
ATOM     65  C   UNL A   1      44.481  27.884  30.585  1.00  0.00     0.049 A 
ATOM     66  N   UNL A   1      45.261  25.087  29.274  1.00  0.00    -0.248 NA
ATOM     67  C   UNL A   1      44.063  24.097  30.962  1.00  0.00     0.031 C 
ATOM     68  C   UNL A   1      43.611  28.237  29.424  1.00  0.00     0.029 A 
ATOM     69  N   UNL A   1      44.770  29.231  30.963  1.00  0.00    -0.354 N 
ATOM     70  C   UNL A   1      44.496  24.050  28.803  1.00  0.00     0.074 A 
ATOM     71  C   UNL A   1      44.244  23.246  29.955  1.00  0.00     0.031 C 
ATOM     72  C   UNL A   1      43.558  29.578  29.164  1.00  0.00     0.029 A 
ATOM     73  C   UNL A   1      44.337  30.307  30.150  1.00  0.00     0.049 A 
ATOM     74  H   UNL A   1      45.272  29.413  31.791  1.00  0.00     0.167 HD
ATOM     75  C   UNL A   1      43.616  24.333  27.797  1.00  0.00     0.034 A 
ATOM     76  C   UNL A   1      45.097  31.449  29.932  1.00  0.00     0.034 A 
ATOM     77  C   UNL A   1      43.827  25.673  27.180  1.00  0.00     0.049 A 
ATOM     78  C   UNL A   1      46.111  30.890  28.883  1.00  0.00     0.074 A 
ATOM     79  C   UNL A   1      43.035  26.660  26.614  1.00  0.00     0.029 A 
ATOM     80  N   UNL A   1      45.097  26.257  27.247  1.00  0.00    -0.354 N 
ATOM     81  N   UNL A   1      46.049  29.623  28.547  1.00  0.00    -0.248 NA
ATOM     82  C   UNL A   1      47.098  31.575  28.044  1.00  0.00     0.031 C 
ATOM     83  C   UNL A   1      43.863  27.815  26.357  1.00  0.00     0.029 A 
ATOM     84  C   UNL A   1      45.154  27.550  26.795  1.00  0.00     0.049 A 
ATOM     85  H   UNL A   1      45.885  25.779  27.592  1.00  0.00     0.167 HD
ATOM     86  C   UNL A   1      46.676  29.377  27.382  1.00  0.00     0.074 A 
ATOM     87  C   UNL A   1      47.442  30.596  27.169  1.00  0.00     0.031 C 
ATOM     88  C   UNL A   1      46.464  28.208  26.698  1.00  0.00     0.034 A 
BRANCH  75  89
ATOM     89  C   UNL A   1      42.484  23.393  27.454  1.00  0.00     0.023 A 
ATOM     90  C   UNL A   1      42.881  22.128  27.023  1.00  0.00     0.031 A 
ATOM     91  C   UNL A   1      41.081  23.581  27.570  1.00  0.00     0.131 A 
ATOM     92  C   UNL A   1      41.954  21.099  26.825  1.00  0.00     0.055 A 
ATOM     93  C   UNL A   1      40.157  22.534  27.438  1.00  0.00     0.041 A 
ATOM     94  F   UNL A   1      40.511  24.777  27.771  1.00  0.00    -0.206 F 
ATOM     95  C   UNL A   1      40.598  21.274  27.078  1.00  0.00     0.022 A 
BRANCH  92  96
ATOM     96  S   UNL A   1      42.601  19.520  26.254  1.00  0.00     0.124 S 
ATOM     97  O   UNL A   1      43.884  19.920  25.685  1.00  0.00    -0.237 OA
ATOM     98  O   UNL A   1      42.655  18.748  27.491  1.00  0.00    -0.237 OA
ATOM     99  O   UNL A   1      41.599  19.078  25.287  1.00  0.00    -0.744 OA
ENDBRANCH  92  96
ENDBRANCH  75  89
BRANCH  76 100
ATOM    100  C   UNL A   1      45.417  32.335  31.182  1.00  0.00     0.023 A 
ATOM    101  C   UNL A   1      46.708  32.779  31.645  1.00  0.00     0.031 A 
ATOM    102  C   UNL A   1      44.379  33.150  31.604  1.00  0.00     0.131 A 
ATOM    103  C   UNL A   1      46.869  34.027  32.366  1.00  0.00     0.055 A 
ATOM    104  C   UNL A   1      44.560  34.405  32.188  1.00  0.00     0.041 A 
ATOM    105  F   UNL A   1      43.177  32.962  31.078  1.00  0.00    -0.206 F 
ATOM    106  C   UNL A   1      45.790  34.872  32.562  1.00  0.00     0.022 A 
BRANCH 103 107
ATOM    107  S   UNL A   1      48.494  34.789  32.800  1.00  0.00     0.124 S 
ATOM    108  O   UNL A   1      48.562  35.909  31.869  1.00  0.00    -0.237 OA
ATOM    109  O   UNL A   1      48.343  35.120  34.208  1.00  0.00    -0.237 OA
ATOM    110  O   UNL A   1      49.454  33.716  32.519  1.00  0.00    -0.744 OA
ENDBRANCH 103 107
ENDBRANCH  76 100
BRANCH  88 111
ATOM    111  C   UNL A   1      47.493  27.580  25.808  1.00  0.00     0.023 A 
ATOM    112  C   UNL A   1      48.548  26.844  26.336  1.00  0.00     0.031 A 
ATOM    113  C   UNL A   1      47.399  27.606  24.393  1.00  0.00     0.131 A 
ATOM    114  C   UNL A   1      49.553  26.353  25.501  1.00  0.00     0.055 A 
ATOM    115  C   UNL A   1      48.322  26.985  23.561  1.00  0.00     0.041 A 
ATOM    116  F   UNL A   1      46.410  28.230  23.740  1.00  0.00    -0.206 F 
ATOM    117  C   UNL A   1      49.442  26.396  24.114  1.00  0.00     0.022 A 
BRANCH 114 118
ATOM    118  S   UNL A   1      51.076  25.831  26.306  1.00  0.00     0.124 S 
ATOM    119  O   UNL A   1      51.926  25.534  25.154  1.00  0.00    -0.237 OA
ATOM    120  O   UNL A   1      51.445  27.016  27.073  1.00  0.00    -0.237 OA
ATOM    121  O   UNL A   1      50.665  24.672  27.092  1.00  0.00    -0.744 OA
ENDBRANCH 114 118
ENDBRANCH  88 111
ENDBRANCH  62  63
ENDBRANCH  55  57
ENDBRANCH  54  55
ENDBRANCH  53  54
ENDBRANCH  52  53
ENDBRANCH  51  52
ENDBRANCH  50  51
ENDBRANCH  49  50
ENDBRANCH  48  49
ENDBRANCH   1  48
TORSDOF 29
ENDMDL
MODEL 2
REMARK VINA RESULT:      -8.2      5.218     11.487
REMARK SMILES Cc1ccc(S(=O)(=O)n2cc(C(=O)C(=O)NCC(=O)N[C@H](Cc3c[nH]c4ccccc34)C(=O)OCCOCCOCCOC(=O)c3ccc(-c4c5nc(c(-c6cc(S(=O)(=O)[O-])ccc6F)c6ccc([nH]6)c(-c6cc(S(=O)(=O)[O-])ccc6F)c6nc(c(-c7cc(S(=O)(=O)[O-])ccc7F)c7ccc4[nH]7)C=C6)C=C5)cc3)c3ccccc32)cc1
REMARK SMILES IDX 36 1 35 2 34 3 32 4 33 5 21 6 20 7 18 8 19 9 17 11 16 12
REMARK SMILES IDX 14 13 15 14 12 16 13 17 11 18 9 19 10 20 114 21 109 22
REMARK SMILES IDX 113 23 110 24 112 25 111 26 6 27 7 28 8 29 5 30 1 31 2 32
REMARK SMILES IDX 3 33 116 34 4 35 115 36 22 37 23 38 24 39 31 40 25 41 26 42
REMARK SMILES IDX 30 43 27 45 29 46 28 47 37 48 38 49 39 50 40 51 41 52 42 53
REMARK SMILES IDX 43 54 44 55 45 56 46 57 47 58 108 59 48 60 107 61 49 62
REMARK SMILES IDX 50 63 51 64 101 65 52 66 106 67 100 68 102 69 53 70 105 71
REMARK SMILES IDX 99 72 98 73 54 75 86 76 66 77 85 78 67 79 70 80 84 81 103 82
REMARK SMILES IDX 68 83 69 84 83 86 104 87 71 88 55 89 56 90 64 91 57 92 63 93
REMARK SMILES IDX 65 94 62 95 58 96 59 97 60 98 61 99 87 100 88 101 96 102
REMARK SMILES IDX 89 103 95 104 97 105 94 106 90 107 91 108 92 109 93 110
REMARK SMILES IDX 72 111 73 112 81 113 74 114 80 115 82 116 79 117 75 118
REMARK SMILES IDX 76 119 77 120 78 121
REMARK H PARENT 20 10 16 15 25 44 102 74 70 85
REMARK Flexibility Score: inf
ROOT
ATOM      1  C   UNL A   1      50.444  38.762  31.805  1.00  0.00     0.202 C 
ENDROOT
BRANCH   1   2
ATOM      2  C   UNL A   1      49.946  38.631  33.237  1.00  0.00     0.261 C 
BRANCH   2   3
ATOM      3  O   UNL A   1      48.926  39.445  33.893  1.00  0.00    -0.462 OA
BRANCH   3   4
ATOM      4  C   UNL A   1      48.407  40.619  34.270  1.00  0.00     0.329 C 
ATOM      5  O   UNL A   1      48.458  41.047  35.411  1.00  0.00    -0.250 OA
BRANCH   4   6
ATOM      6  C   UNL A   1      47.413  41.505  33.189  1.00  0.00     0.196 C 
BRANCH   6   7
ATOM      7  N   UNL A   1      45.886  41.688  34.278  1.00  0.00    -0.341 N 
ATOM      8  C   UNL A   1      45.166  42.610  35.115  1.00  0.00     0.240 C 
ATOM      9  O   UNL A   1      45.450  43.801  35.310  1.00  0.00    -0.273 OA
ATOM     10  H   UNL A   1      45.398  40.834  34.271  1.00  0.00     0.164 HD
BRANCH   8  11
ATOM     11  C   UNL A   1      43.794  42.215  35.766  1.00  0.00     0.216 C 
BRANCH  11  12
ATOM     12  N   UNL A   1      43.341  42.564  37.099  1.00  0.00    -0.340 N 
ATOM     13  C   UNL A   1      43.816  42.087  38.315  1.00  0.00     0.292 C 
ATOM     14  O   UNL A   1      43.523  42.599  39.390  1.00  0.00    -0.265 OA
ATOM     15  H   UNL A   1      42.607  43.217  37.148  1.00  0.00     0.164 HD
BRANCH  13  16
ATOM     16  C   UNL A   1      44.666  40.831  38.295  1.00  0.00     0.252 C 
ATOM     17  O   UNL A   1      45.860  41.025  38.547  1.00  0.00    -0.283 OA
BRANCH  16  18
ATOM     18  C   UNL A   1      44.254  39.472  37.901  1.00  0.00     0.054 A 
ATOM     19  N   UNL A   1      44.202  37.306  37.279  1.00  0.00    -0.240 N 
ATOM     20  C   UNL A   1      44.284  38.624  36.782  1.00  0.00     0.117 A 
ATOM     21  C   UNL A   1      43.834  37.409  38.638  1.00  0.00     0.065 A 
ATOM     22  C   UNL A   1      43.473  38.729  38.809  1.00  0.00     0.012 A 
ATOM     23  C   UNL A   1      43.455  36.432  39.578  1.00  0.00     0.028 A 
ATOM     24  C   UNL A   1      42.545  39.076  39.801  1.00  0.00     0.011 A 
ATOM     25  C   UNL A   1      42.378  36.756  40.401  1.00  0.00     0.002 A 
ATOM     26  C   UNL A   1      41.900  38.057  40.485  1.00  0.00     0.001 A 
BRANCH  19  27
ATOM     27  S   UNL A   1      43.501  35.902  36.584  1.00  0.00     0.268 S 
ATOM     28  O   UNL A   1      44.209  34.878  37.352  1.00  0.00    -0.201 OA
ATOM     29  O   UNL A   1      43.793  36.091  35.167  1.00  0.00    -0.201 OA
BRANCH  27  30
ATOM     30  C   UNL A   1      41.896  35.225  36.462  1.00  0.00     0.088 A 
ATOM     31  C   UNL A   1      38.511  33.235  34.653  1.00  0.00     0.044 C 
ATOM     32  C   UNL A   1      39.646  33.934  35.338  1.00  0.00    -0.051 A 
ATOM     33  C   UNL A   1      40.907  33.412  35.116  1.00  0.00     0.005 A 
ATOM     34  C   UNL A   1      39.515  35.094  36.135  1.00  0.00     0.005 A 
ATOM     35  C   UNL A   1      41.994  34.043  35.676  1.00  0.00     0.022 A 
ATOM     36  C   UNL A   1      40.642  35.761  36.694  1.00  0.00     0.022 A 
ENDBRANCH  27  30
ENDBRANCH  19  27
ENDBRANCH  16  18
ENDBRANCH  13  16
ENDBRANCH  11  12
ENDBRANCH   8  11
ENDBRANCH   6   7
BRANCH   6  37
ATOM     37  C   UNL A   1      47.358  41.469  30.957  1.00  0.00     0.074 C 
BRANCH  37  38
ATOM     38  C   UNL A   1      46.041  41.385  29.780  1.00  0.00    -0.020 A 
ATOM     39  C   UNL A   1      44.800  40.777  29.924  1.00  0.00     0.087 A 
ATOM     40  C   UNL A   1      46.139  41.738  28.387  1.00  0.00     0.003 A 
ATOM     41  N   UNL A   1      44.481  40.282  28.680  1.00  0.00    -0.361 N 
ATOM     42  C   UNL A   1      45.314  40.821  27.731  1.00  0.00     0.046 A 
ATOM     43  C   UNL A   1      47.038  42.506  27.626  1.00  0.00     0.010 A 
ATOM     44  H   UNL A   1      43.761  39.636  28.498  1.00  0.00     0.166 HD
ATOM     45  C   UNL A   1      45.466  40.507  26.379  1.00  0.00     0.026 A 
ATOM     46  C   UNL A   1      47.178  42.228  26.262  1.00  0.00     0.001 A 
ATOM     47  C   UNL A   1      46.437  41.211  25.662  1.00  0.00     0.002 A 
ENDBRANCH  37  38
ENDBRANCH   6  37
ENDBRANCH   4   6
ENDBRANCH   3   4
ENDBRANCH   2   3
ENDBRANCH   1   2
BRANCH   1  48
ATOM     48  O   UNL A   1      49.502  38.860  30.752  1.00  0.00    -0.376 OA
BRANCH  48  49
ATOM     49  C   UNL A   1      48.554  37.802  30.779  1.00  0.00     0.188 C 
BRANCH  49  50
ATOM     50  C   UNL A   1      48.911  36.740  29.764  1.00  0.00     0.188 C 
BRANCH  50  51
ATOM     51  O   UNL A   1      47.909  36.707  28.761  1.00  0.00    -0.376 OA
BRANCH  51  52
ATOM     52  C   UNL A   1      47.639  35.428  28.240  1.00  0.00     0.202 C 
BRANCH  52  53
ATOM     53  C   UNL A   1      46.134  35.118  28.352  1.00  0.00     0.261 C 
BRANCH  53  54
ATOM     54  O   UNL A   1      45.436  36.343  28.749  1.00  0.00    -0.460 OA
BRANCH  54  55
ATOM     55  C   UNL A   1      44.201  36.781  28.372  1.00  0.00     0.338 C 
ATOM     56  O   UNL A   1      43.930  37.520  27.449  1.00  0.00    -0.246 OA
BRANCH  55  57
ATOM     57  C   UNL A   1      43.245  36.315  29.454  1.00  0.00     0.060 A 
ATOM     58  C   UNL A   1      43.488  36.097  31.217  1.00  0.00     0.016 A 
ATOM     59  C   UNL A   1      41.832  35.616  28.704  1.00  0.00     0.016 A 
ATOM     60  C   UNL A   1      42.272  35.116  32.146  1.00  0.00     0.010 A 
ATOM     61  C   UNL A   1      40.640  34.633  29.570  1.00  0.00     0.010 A 
ATOM     62  C   UNL A   1      40.892  34.233  31.244  1.00  0.00    -0.014 A 
BRANCH  62  63
ATOM     63  C   UNL A   1      40.381  32.708  31.087  1.00  0.00     0.031 A 
ATOM     64  C   UNL A   1      41.621  31.953  31.279  1.00  0.00     0.074 A 
ATOM     65  C   UNL A   1      39.066  32.124  31.136  1.00  0.00     0.049 A 
ATOM     66  N   UNL A   1      41.963  30.906  30.616  1.00  0.00    -0.248 NA
ATOM     67  C   UNL A   1      42.759  32.490  32.072  1.00  0.00     0.031 C 
ATOM     68  C   UNL A   1      38.625  30.888  31.850  1.00  0.00     0.029 A 
ATOM     69  N   UNL A   1      37.760  32.516  30.708  1.00  0.00    -0.354 N 
ATOM     70  C   UNL A   1      42.903  30.377  31.464  1.00  0.00     0.074 A 
ATOM     71  C   UNL A   1      43.646  31.509  31.917  1.00  0.00     0.031 C 
ATOM     72  C   UNL A   1      37.294  30.614  31.705  1.00  0.00     0.029 A 
ATOM     73  C   UNL A   1      36.652  31.660  30.926  1.00  0.00     0.049 A 
ATOM     74  H   UNL A   1      37.629  33.382  30.260  1.00  0.00     0.167 HD
ATOM     75  C   UNL A   1      42.527  29.296  32.211  1.00  0.00     0.034 A 
ATOM     76  C   UNL A   1      35.623  31.501  30.009  1.00  0.00     0.034 A 
ATOM     77  C   UNL A   1      41.237  28.690  31.776  1.00  0.00     0.049 A 
ATOM     78  C   UNL A   1      36.327  30.548  28.989  1.00  0.00     0.074 A 
ATOM     79  C   UNL A   1      40.167  28.049  32.381  1.00  0.00     0.029 A 
ATOM     80  N   UNL A   1      40.820  28.864  30.451  1.00  0.00    -0.354 N 
ATOM     81  N   UNL A   1      37.581  30.218  29.185  1.00  0.00    -0.248 NA
ATOM     82  C   UNL A   1      35.790  29.795  27.853  1.00  0.00     0.031 C 
ATOM     83  C   UNL A   1      39.133  27.858  31.391  1.00  0.00     0.029 A 
ATOM     84  C   UNL A   1      39.554  28.410  30.188  1.00  0.00     0.049 A 
ATOM     85  H   UNL A   1      41.390  29.280  29.764  1.00  0.00     0.167 HD
ATOM     86  C   UNL A   1      37.927  29.114  28.498  1.00  0.00     0.074 A 
ATOM     87  C   UNL A   1      36.821  28.960  27.565  1.00  0.00     0.031 C 
ATOM     88  C   UNL A   1      39.072  28.423  28.801  1.00  0.00     0.034 A 
BRANCH  75  89
ATOM     89  C   UNL A   1      43.320  28.862  33.422  1.00  0.00     0.023 A 
ATOM     90  C   UNL A   1      44.183  27.789  33.205  1.00  0.00     0.031 A 
ATOM     91  C   UNL A   1      43.369  29.426  34.724  1.00  0.00     0.131 A 
ATOM     92  C   UNL A   1      45.098  27.379  34.180  1.00  0.00     0.055 A 
ATOM     93  C   UNL A   1      44.330  29.061  35.678  1.00  0.00     0.041 A 
ATOM     94  F   UNL A   1      42.479  30.321  35.175  1.00  0.00    -0.206 F 
ATOM     95  C   UNL A   1      45.217  28.038  35.399  1.00  0.00     0.022 A 
BRANCH  92  96
ATOM     96  S   UNL A   1      46.142  25.970  33.775  1.00  0.00     0.124 S 
ATOM     97  O   UNL A   1      45.877  25.078  34.899  1.00  0.00    -0.237 OA
ATOM     98  O   UNL A   1      45.606  25.556  32.482  1.00  0.00    -0.237 OA
ATOM     99  O   UNL A   1      47.483  26.547  33.737  1.00  0.00    -0.744 OA
ENDBRANCH  92  96
ENDBRANCH  75  89
BRANCH  76 100
ATOM    100  C   UNL A   1      34.762  32.767  29.685  1.00  0.00     0.023 A 
ATOM    101  C   UNL A   1      34.060  33.621  30.610  1.00  0.00     0.031 A 
ATOM    102  C   UNL A   1      35.077  33.401  28.493  1.00  0.00     0.131 A 
ATOM    103  C   UNL A   1      33.842  35.028  30.332  1.00  0.00     0.055 A 
ATOM    104  C   UNL A   1      34.972  34.778  28.290  1.00  0.00     0.041 A 
ATOM    105  F   UNL A   1      35.895  32.786  27.650  1.00  0.00    -0.206 F 
ATOM    106  C   UNL A   1      34.377  35.612  29.196  1.00  0.00     0.022 A 
BRANCH 103 107
ATOM    107  S   UNL A   1      33.161  36.246  31.540  1.00  0.00     0.124 S 
ATOM    108  O   UNL A   1      31.979  35.553  32.036  1.00  0.00    -0.237 OA
ATOM    109  O   UNL A   1      34.254  36.428  32.483  1.00  0.00    -0.237 OA
ATOM    110  O   UNL A   1      32.867  37.417  30.707  1.00  0.00    -0.744 OA
ENDBRANCH 103 107
ENDBRANCH  76 100
BRANCH  88 111
ATOM    111  C   UNL A   1      39.843  27.631  27.789  1.00  0.00     0.023 A 
ATOM    112  C   UNL A   1      39.712  26.249  27.705  1.00  0.00     0.031 A 
ATOM    113  C   UNL A   1      40.657  28.239  26.799  1.00  0.00     0.131 A 
ATOM    114  C   UNL A   1      40.512  25.516  26.828  1.00  0.00     0.055 A 
ATOM    115  C   UNL A   1      41.336  27.516  25.827  1.00  0.00     0.041 A 
ATOM    116  F   UNL A   1      40.838  29.564  26.718  1.00  0.00    -0.206 F 
ATOM    117  C   UNL A   1      41.309  26.135  25.869  1.00  0.00     0.022 A 
BRANCH 114 118
ATOM    118  S   UNL A   1      40.600  23.742  27.118  1.00  0.00     0.124 S 
ATOM    119  O   UNL A   1      39.231  23.329  26.813  1.00  0.00    -0.237 OA
ATOM    120  O   UNL A   1      41.614  23.320  26.158  1.00  0.00    -0.237 OA
ATOM    121  O   UNL A   1      40.982  23.646  28.523  1.00  0.00    -0.744 OA
ENDBRANCH 114 118
ENDBRANCH  88 111
ENDBRANCH  62  63
ENDBRANCH  55  57
ENDBRANCH  54  55
ENDBRANCH  53  54
ENDBRANCH  52  53
ENDBRANCH  51  52
ENDBRANCH  50  51
ENDBRANCH  49  50
ENDBRANCH  48  49
ENDBRANCH   1  48
TORSDOF 29
ENDMDL
MODEL 3
REMARK VINA RESULT:      -8.2      4.040      7.416
REMARK SMILES Cc1ccc(S(=O)(=O)n2cc(C(=O)C(=O)NCC(=O)N[C@H](Cc3c[nH]c4ccccc34)C(=O)OCCOCCOCCOC(=O)c3ccc(-c4c5nc(c(-c6cc(S(=O)(=O)[O-])ccc6F)c6ccc([nH]6)c(-c6cc(S(=O)(=O)[O-])ccc6F)c6nc(c(-c7cc(S(=O)(=O)[O-])ccc7F)c7ccc4[nH]7)C=C6)C=C5)cc3)c3ccccc32)cc1
REMARK SMILES IDX 36 1 35 2 34 3 32 4 33 5 21 6 20 7 18 8 19 9 17 11 16 12
REMARK SMILES IDX 14 13 15 14 12 16 13 17 11 18 9 19 10 20 114 21 109 22
REMARK SMILES IDX 113 23 110 24 112 25 111 26 6 27 7 28 8 29 5 30 1 31 2 32
REMARK SMILES IDX 3 33 116 34 4 35 115 36 22 37 23 38 24 39 31 40 25 41 26 42
REMARK SMILES IDX 30 43 27 45 29 46 28 47 37 48 38 49 39 50 40 51 41 52 42 53
REMARK SMILES IDX 43 54 44 55 45 56 46 57 47 58 108 59 48 60 107 61 49 62
REMARK SMILES IDX 50 63 51 64 101 65 52 66 106 67 100 68 102 69 53 70 105 71
REMARK SMILES IDX 99 72 98 73 54 75 86 76 66 77 85 78 67 79 70 80 84 81 103 82
REMARK SMILES IDX 68 83 69 84 83 86 104 87 71 88 55 89 56 90 64 91 57 92 63 93
REMARK SMILES IDX 65 94 62 95 58 96 59 97 60 98 61 99 87 100 88 101 96 102
REMARK SMILES IDX 89 103 95 104 97 105 94 106 90 107 91 108 92 109 93 110
REMARK SMILES IDX 72 111 73 112 81 113 74 114 80 115 82 116 79 117 75 118
REMARK SMILES IDX 76 119 77 120 78 121
REMARK H PARENT 20 10 16 15 25 44 102 74 70 85
REMARK Flexibility Score: inf
ROOT
ATOM      1  C   UNL A   1      42.538  35.982  43.817  1.00  0.00     0.202 C 
ENDROOT
BRANCH   1   2
ATOM      2  C   UNL A   1      41.457  35.154  44.497  1.00  0.00     0.261 C 
BRANCH   2   3
ATOM      3  O   UNL A   1      40.388  34.399  43.849  1.00  0.00    -0.462 OA
BRANCH   3   4
ATOM      4  C   UNL A   1      39.909  33.621  42.871  1.00  0.00     0.329 C 
ATOM      5  O   UNL A   1      38.724  33.532  42.596  1.00  0.00    -0.250 OA
BRANCH   4   6
ATOM      6  C   UNL A   1      40.941  32.501  42.082  1.00  0.00     0.196 C 
BRANCH   6   7
ATOM      7  N   UNL A   1      40.396  32.803  40.304  1.00  0.00    -0.341 N 
ATOM      8  C   UNL A   1      40.729  32.533  38.931  1.00  0.00     0.240 C 
ATOM      9  O   UNL A   1      41.662  31.825  38.527  1.00  0.00    -0.273 OA
ATOM     10  H   UNL A   1      39.578  33.348  40.320  1.00  0.00     0.164 HD
BRANCH   8  11
ATOM     11  C   UNL A   1      39.798  33.009  37.761  1.00  0.00     0.216 C 
BRANCH  11  12
ATOM     12  N   UNL A   1      38.386  33.323  37.858  1.00  0.00    -0.340 N 
ATOM     13  C   UNL A   1      37.456  33.409  36.828  1.00  0.00     0.292 C 
ATOM     14  O   UNL A   1      36.248  33.463  37.026  1.00  0.00    -0.265 OA
ATOM     15  H   UNL A   1      38.043  33.497  38.763  1.00  0.00     0.164 HD
BRANCH  13  16
ATOM     16  C   UNL A   1      37.986  33.520  35.411  1.00  0.00     0.252 C 
ATOM     17  O   UNL A   1      38.513  34.607  35.152  1.00  0.00    -0.283 OA
BRANCH  16  18
ATOM     18  C   UNL A   1      37.835  32.546  34.315  1.00  0.00     0.054 A 
ATOM     19  N   UNL A   1      37.424  31.528  32.346  1.00  0.00    -0.240 N 
ATOM     20  C   UNL A   1      36.825  31.929  33.559  1.00  0.00     0.117 A 
ATOM     21  C   UNL A   1      38.819  31.649  32.525  1.00  0.00     0.065 A 
ATOM     22  C   UNL A   1      38.986  31.860  33.878  1.00  0.00     0.012 A 
ATOM     23  C   UNL A   1      39.901  31.243  31.722  1.00  0.00     0.028 A 
ATOM     24  C   UNL A   1      40.177  31.464  34.504  1.00  0.00     0.011 A 
ATOM     25  C   UNL A   1      40.975  30.656  32.388  1.00  0.00     0.002 A 
ATOM     26  C   UNL A   1      41.096  30.732  33.768  1.00  0.00     0.001 A 
BRANCH  19  27
ATOM     27  S   UNL A   1      37.074  30.192  31.326  1.00  0.00     0.268 S 
ATOM     28  O   UNL A   1      35.835  30.675  30.719  1.00  0.00    -0.201 OA
ATOM     29  O   UNL A   1      37.045  29.089  32.279  1.00  0.00    -0.201 OA
BRANCH  27  30
ATOM     30  C   UNL A   1      37.855  29.397  29.982  1.00  0.00     0.088 A 
ATOM     31  C   UNL A   1      40.788  27.000  27.898  1.00  0.00     0.044 C 
ATOM     32  C   UNL A   1      39.740  27.843  28.559  1.00  0.00    -0.051 A 
ATOM     33  C   UNL A   1      39.273  27.390  29.779  1.00  0.00     0.005 A 
ATOM     34  C   UNL A   1      39.251  29.067  28.049  1.00  0.00     0.005 A 
ATOM     35  C   UNL A   1      38.348  28.150  30.459  1.00  0.00     0.022 A 
ATOM     36  C   UNL A   1      38.313  29.865  28.764  1.00  0.00     0.022 A 
ENDBRANCH  27  30
ENDBRANCH  19  27
ENDBRANCH  16  18
ENDBRANCH  13  16
ENDBRANCH  11  12
ENDBRANCH   8  11
ENDBRANCH   6   7
BRANCH   6  37
ATOM     37  C   UNL A   1      41.764  30.563  42.824  1.00  0.00     0.074 C 
BRANCH  37  38
ATOM     38  C   UNL A   1      43.403  30.001  43.182  1.00  0.00    -0.020 A 
ATOM     39  C   UNL A   1      44.255  29.266  42.366  1.00  0.00     0.087 A 
ATOM     40  C   UNL A   1      44.030  30.020  44.477  1.00  0.00     0.003 A 
ATOM     41  N   UNL A   1      44.964  28.445  43.212  1.00  0.00    -0.361 N 
ATOM     42  C   UNL A   1      44.807  28.860  44.511  1.00  0.00     0.046 A 
ATOM     43  C   UNL A   1      43.789  30.710  45.679  1.00  0.00     0.010 A 
ATOM     44  H   UNL A   1      45.505  27.673  42.927  1.00  0.00     0.166 HD
ATOM     45  C   UNL A   1      45.206  28.257  45.706  1.00  0.00     0.026 A 
ATOM     46  C   UNL A   1      44.212  30.138  46.883  1.00  0.00     0.001 A 
ATOM     47  C   UNL A   1      44.867  28.906  46.896  1.00  0.00     0.002 A 
ENDBRANCH  37  38
ENDBRANCH   6  37
ENDBRANCH   4   6
ENDBRANCH   3   4
ENDBRANCH   2   3
ENDBRANCH   1   2
BRANCH   1  48
ATOM     48  O   UNL A   1      42.186  37.211  43.208  1.00  0.00    -0.376 OA
BRANCH  48  49
ATOM     49  C   UNL A   1      41.564  37.027  41.944  1.00  0.00     0.188 C 
BRANCH  49  50
ATOM     50  C   UNL A   1      42.509  36.345  40.980  1.00  0.00     0.188 C 
BRANCH  50  51
ATOM     51  O   UNL A   1      42.910  37.280  39.991  1.00  0.00    -0.376 OA
BRANCH  51  52
ATOM     52  C   UNL A   1      42.981  36.760  38.685  1.00  0.00     0.202 C 
BRANCH  52  53
ATOM     53  C   UNL A   1      41.569  36.400  38.182  1.00  0.00     0.261 C 
BRANCH  53  54
ATOM     54  O   UNL A   1      41.699  35.602  36.961  1.00  0.00    -0.460 OA
BRANCH  54  55
ATOM     55  C   UNL A   1      41.547  35.994  35.665  1.00  0.00     0.338 C 
ATOM     56  O   UNL A   1      40.872  36.909  35.244  1.00  0.00    -0.246 OA
BRANCH  55  57
ATOM     57  C   UNL A   1      42.240  34.936  34.826  1.00  0.00     0.060 A 
ATOM     58  C   UNL A   1      43.763  34.032  35.106  1.00  0.00     0.016 A 
ATOM     59  C   UNL A   1      41.524  34.910  33.235  1.00  0.00     0.016 A 
ATOM     60  C   UNL A   1      44.523  33.159  33.705  1.00  0.00     0.010 A 
ATOM     61  C   UNL A   1      42.247  34.093  31.839  1.00  0.00     0.010 A 
ATOM     62  C   UNL A   1      43.808  33.338  31.986  1.00  0.00    -0.014 A 
BRANCH  62  63
ATOM     63  C   UNL A   1      44.331  33.848  30.545  1.00  0.00     0.031 A 
ATOM     64  C   UNL A   1      45.004  32.654  30.029  1.00  0.00     0.074 A 
ATOM     65  C   UNL A   1      43.969  34.983  29.736  1.00  0.00     0.049 A 
ATOM     66  N   UNL A   1      46.108  32.650  29.370  1.00  0.00    -0.248 NA
ATOM     67  C   UNL A   1      44.627  31.283  30.465  1.00  0.00     0.031 C 
ATOM     68  C   UNL A   1      43.700  35.027  28.267  1.00  0.00     0.029 A 
ATOM     69  N   UNL A   1      43.606  36.342  29.989  1.00  0.00    -0.354 N 
ATOM     70  C   UNL A   1      46.029  31.418  28.772  1.00  0.00     0.074 A 
ATOM     71  C   UNL A   1      45.522  30.561  29.795  1.00  0.00     0.031 C 
ATOM     72  C   UNL A   1      43.363  36.269  27.807  1.00  0.00     0.029 A 
ATOM     73  C   UNL A   1      43.303  37.210  28.912  1.00  0.00     0.049 A 
ATOM     74  H   UNL A   1      43.566  36.675  30.915  1.00  0.00     0.167 HD
ATOM     75  C   UNL A   1      45.699  31.392  27.446  1.00  0.00     0.034 A 
ATOM     76  C   UNL A   1      43.676  38.548  28.888  1.00  0.00     0.034 A 
ATOM     77  C   UNL A   1      45.749  32.729  26.792  1.00  0.00     0.049 A 
ATOM     78  C   UNL A   1      45.185  38.391  28.511  1.00  0.00     0.074 A 
ATOM     79  C   UNL A   1      45.062  33.387  25.783  1.00  0.00     0.029 A 
ATOM     80  N   UNL A   1      46.578  33.718  27.335  1.00  0.00    -0.354 N 
ATOM     81  N   UNL A   1      45.690  37.186  28.385  1.00  0.00    -0.248 NA
ATOM     82  C   UNL A   1      46.183  39.388  28.115  1.00  0.00     0.031 C 
ATOM     83  C   UNL A   1      45.504  34.761  25.753  1.00  0.00     0.029 A 
ATOM     84  C   UNL A   1      46.438  34.955  26.763  1.00  0.00     0.049 A 
ATOM     85  H   UNL A   1      47.210  33.539  28.068  1.00  0.00     0.167 HD
ATOM     86  C   UNL A   1      46.838  37.190  27.683  1.00  0.00     0.074 A 
ATOM     87  C   UNL A   1      47.189  38.602  27.654  1.00  0.00     0.031 C 
ATOM     88  C   UNL A   1      47.355  36.029  27.168  1.00  0.00     0.034 A 
BRANCH  75  89
ATOM     89  C   UNL A   1      45.226  30.121  26.779  1.00  0.00     0.023 A 
ATOM     90  C   UNL A   1      46.158  29.518  25.936  1.00  0.00     0.031 A 
ATOM     91  C   UNL A   1      44.004  29.414  26.934  1.00  0.00     0.131 A 
ATOM     92  C   UNL A   1      45.930  28.257  25.376  1.00  0.00     0.055 A 
ATOM     93  C   UNL A   1      43.800  28.122  26.430  1.00  0.00     0.041 A 
ATOM     94  F   UNL A   1      42.924  29.932  27.535  1.00  0.00    -0.206 F 
ATOM     95  C   UNL A   1      44.779  27.527  25.655  1.00  0.00     0.022 A 
BRANCH  92  96
ATOM     96  S   UNL A   1      47.210  27.602  24.294  1.00  0.00     0.124 S 
ATOM     97  O   UNL A   1      48.421  28.083  24.951  1.00  0.00    -0.237 OA
ATOM     98  O   UNL A   1      46.963  26.165  24.366  1.00  0.00    -0.237 OA
ATOM     99  O   UNL A   1      46.908  28.221  23.006  1.00  0.00    -0.744 OA
ENDBRANCH  92  96
ENDBRANCH  75  89
BRANCH  76 100
ATOM    100  C   UNL A   1      43.066  39.473  29.992  1.00  0.00     0.023 A 
ATOM    101  C   UNL A   1      43.666  39.877  31.239  1.00  0.00     0.031 A 
ATOM    102  C   UNL A   1      42.092  40.352  29.548  1.00  0.00     0.131 A 
ATOM    103  C   UNL A   1      43.344  41.148  31.861  1.00  0.00     0.055 A 
ATOM    104  C   UNL A   1      41.882  41.623  30.089  1.00  0.00     0.041 A 
ATOM    105  F   UNL A   1      41.615  40.196  28.321  1.00  0.00    -0.206 F 
ATOM    106  C   UNL A   1      42.504  42.049  31.229  1.00  0.00     0.022 A 
BRANCH 103 107
ATOM    107  S   UNL A   1      44.219  41.854  33.326  1.00  0.00     0.124 S 
ATOM    108  O   UNL A   1      43.234  42.795  33.843  1.00  0.00    -0.237 OA
ATOM    109  O   UNL A   1      44.496  40.684  34.145  1.00  0.00    -0.237 OA
ATOM    110  O   UNL A   1      45.404  42.487  32.736  1.00  0.00    -0.744 OA
ENDBRANCH 103 107
ENDBRANCH  76 100
BRANCH  88 111
ATOM    111  C   UNL A   1      48.821  35.811  26.949  1.00  0.00     0.023 A 
ATOM    112  C   UNL A   1      49.742  36.044  27.964  1.00  0.00     0.031 A 
ATOM    113  C   UNL A   1      49.342  35.262  25.750  1.00  0.00     0.131 A 
ATOM    114  C   UNL A   1      51.111  35.934  27.714  1.00  0.00     0.055 A 
ATOM    115  C   UNL A   1      50.695  35.011  25.557  1.00  0.00     0.041 A 
ATOM    116  F   UNL A   1      48.573  34.936  24.703  1.00  0.00    -0.206 F 
ATOM    117  C   UNL A   1      51.600  35.398  26.526  1.00  0.00     0.022 A 
BRANCH 114 118
ATOM    118  S   UNL A   1      52.208  36.689  28.925  1.00  0.00     0.124 S 
ATOM    119  O   UNL A   1      52.784  35.509  29.569  1.00  0.00    -0.237 OA
ATOM    120  O   UNL A   1      53.120  37.455  28.083  1.00  0.00    -0.237 OA
ATOM    121  O   UNL A   1      51.305  37.475  29.758  1.00  0.00    -0.744 OA
ENDBRANCH 114 118
ENDBRANCH  88 111
ENDBRANCH  62  63
ENDBRANCH  55  57
ENDBRANCH  54  55
ENDBRANCH  53  54
ENDBRANCH  52  53
ENDBRANCH  51  52
ENDBRANCH  50  51
ENDBRANCH  49  50
ENDBRANCH  48  49
ENDBRANCH   1  48
TORSDOF 29
ENDMDL
