MODEL 1
REMARK VINA RESULT:     -11.2      0.000      0.000
REMARK SMILES COc1ccc2c(CC(=O)OCCOCCOCCOC(=O)c3ccc(-c4c5nc(c(-c6cc(S(=O)(=O)[O-])ccc6F)c6ccc([nH]6)c(-c6cc(S(=O)(=O)[O-])ccc6F)c6nc(c(-c7cc(S(=O)(=O)[O-])ccc7F)c7ccc4[nH]7)C=C6)C=C5)cc3)c(C(=O)c3cc(C)ccn3)[nH]c2c1
REMARK SMILES IDX 15 1 14 2 13 3 12 4 11 5 9 6 10 7 8 8 7 9 3 10 4 11 98 12
REMARK SMILES IDX 5 13 97 14 6 15 96 16 86 17 2 19 1 20 87 21 88 22 89 23
REMARK SMILES IDX 90 24 95 25 91 26 94 27 92 28 93 29 16 30 17 31 18 32 19 33
REMARK SMILES IDX 20 34 21 35 22 36 23 37 24 38 85 39 25 40 84 41 26 42 27 43
REMARK SMILES IDX 28 44 78 45 29 46 83 47 77 48 79 49 30 50 82 51 76 52 75 53
REMARK SMILES IDX 31 55 63 56 43 57 62 58 44 59 47 60 61 61 80 62 45 63 46 64
REMARK SMILES IDX 60 66 81 67 48 68 32 69 33 70 41 71 34 72 40 73 42 74 39 75
REMARK SMILES IDX 35 76 36 77 37 78 38 79 64 80 65 81 73 82 66 83 72 84 74 85
REMARK SMILES IDX 71 86 67 87 68 88 69 89 70 90 49 91 50 92 58 93 51 94 57 95
REMARK SMILES IDX 59 96 56 97 52 98 53 99 54 100 55 101
REMARK H PARENT 96 18 79 54 47 65
REMARK Flexibility Score: inf
ROOT
ATOM      1  C   UNL A   1      30.583  27.148  22.621  1.00  0.00     0.188 C 
ENDROOT
BRANCH   1   2
ATOM      2  O   UNL A   1      31.453  26.405  21.769  1.00  0.00    -0.376 OA
BRANCH   2   3
ATOM      3  C   UNL A   1      32.832  26.344  22.104  1.00  0.00     0.202 C 
BRANCH   3   4
ATOM      4  C   UNL A   1      33.294  25.095  22.868  1.00  0.00     0.261 C 
BRANCH   4   5
ATOM      5  O   UNL A   1      32.965  23.871  22.176  1.00  0.00    -0.463 OA
BRANCH   5   6
ATOM      6  C   UNL A   1      33.338  22.705  22.768  1.00  0.00     0.310 C 
ATOM      7  O   UNL A   1      34.509  22.419  23.002  1.00  0.00    -0.252 OA
BRANCH   6   8
ATOM      8  C   UNL A   1      32.171  21.864  23.285  1.00  0.00     0.161 C 
BRANCH   8   9
ATOM      9  C   UNL A   1      32.429  20.853  24.382  1.00  0.00     0.000 A 
ATOM     10  C   UNL A   1      33.286  16.744  24.399  1.00  0.00     0.120 A 
ATOM     11  C   UNL A   1      32.864  17.254  23.173  1.00  0.00     0.047 A 
ATOM     12  C   UNL A   1      33.254  17.521  25.556  1.00  0.00     0.073 A 
ATOM     13  C   UNL A   1      32.477  18.595  23.056  1.00  0.00     0.014 A 
ATOM     14  C   UNL A   1      32.912  18.868  25.407  1.00  0.00     0.050 A 
ATOM     15  C   UNL A   1      32.550  19.435  24.187  1.00  0.00     0.004 A 
ATOM     16  N   UNL A   1      32.902  19.878  26.335  1.00  0.00    -0.351 N 
ATOM     17  C   UNL A   1      32.877  21.097  25.693  1.00  0.00     0.093 A 
ATOM     18  H   UNL A   1      32.912  19.752  27.312  1.00  0.00     0.167 HD
BRANCH  10  19
ATOM     19  O   UNL A   1      33.728  15.452  24.533  1.00  0.00    -0.497 OA
ATOM     20  C   UNL A   1      32.855  14.692  25.373  1.00  0.00     0.278 C 
ENDBRANCH  10  19
BRANCH  17  21
ATOM     21  C   UNL A   1      33.343  22.333  26.309  1.00  0.00     0.227 C 
ATOM     22  O   UNL A   1      32.597  23.081  26.934  1.00  0.00    -0.285 OA
BRANCH  21  23
ATOM     23  C   UNL A   1      34.775  22.740  26.155  1.00  0.00     0.113 A 
ATOM     24  C   UNL A   1      35.775  21.783  25.999  1.00  0.00     0.036 A 
ATOM     25  N   UNL A   1      34.995  24.081  26.100  1.00  0.00    -0.253 NA
ATOM     26  C   UNL A   1      37.079  22.222  25.734  1.00  0.00    -0.047 A 
ATOM     27  C   UNL A   1      36.248  24.467  25.768  1.00  0.00     0.112 A 
ATOM     28  C   UNL A   1      38.235  21.274  25.589  1.00  0.00     0.044 C 
ATOM     29  C   UNL A   1      37.303  23.591  25.572  1.00  0.00     0.023 A 
ENDBRANCH  21  23
ENDBRANCH  17  21
ENDBRANCH   8   9
ENDBRANCH   6   8
ENDBRANCH   5   6
ENDBRANCH   4   5
ENDBRANCH   3   4
ENDBRANCH   2   3
ENDBRANCH   1   2
BRANCH   1  30
ATOM     30  C   UNL A   1      30.152  26.534  23.974  1.00  0.00     0.188 C 
BRANCH  30  31
ATOM     31  O   UNL A   1      30.733  27.167  25.105  1.00  0.00    -0.376 OA
BRANCH  31  32
ATOM     32  C   UNL A   1      31.408  28.379  24.807  1.00  0.00     0.202 C 
BRANCH  32  33
ATOM     33  C   UNL A   1      32.718  28.522  25.583  1.00  0.00     0.261 C 
BRANCH  33  34
ATOM     34  O   UNL A   1      33.264  29.857  25.478  1.00  0.00    -0.460 OA
BRANCH  34  35
ATOM     35  C   UNL A   1      33.087  30.695  26.513  1.00  0.00     0.338 C 
ATOM     36  O   UNL A   1      32.121  31.442  26.673  1.00  0.00    -0.246 OA
BRANCH  35  37
ATOM     37  C   UNL A   1      34.241  30.655  27.449  1.00  0.00     0.060 A 
ATOM     38  C   UNL A   1      35.107  31.737  27.629  1.00  0.00     0.016 A 
ATOM     39  C   UNL A   1      34.546  29.447  28.074  1.00  0.00     0.016 A 
ATOM     40  C   UNL A   1      36.303  31.594  28.347  1.00  0.00     0.010 A 
ATOM     41  C   UNL A   1      35.704  29.327  28.857  1.00  0.00     0.010 A 
ATOM     42  C   UNL A   1      36.622  30.387  28.977  1.00  0.00    -0.014 A 
BRANCH  42  43
ATOM     43  C   UNL A   1      37.919  30.194  29.701  1.00  0.00     0.031 A 
ATOM     44  C   UNL A   1      38.979  29.287  29.121  1.00  0.00     0.074 A 
ATOM     45  C   UNL A   1      38.168  30.806  30.877  1.00  0.00     0.049 A 
ATOM     46  N   UNL A   1      40.052  28.790  29.683  1.00  0.00    -0.248 NA
ATOM     47  C   UNL A   1      38.791  28.876  27.722  1.00  0.00     0.031 C 
ATOM     48  C   UNL A   1      37.293  31.776  31.535  1.00  0.00     0.029 A 
ATOM     49  N   UNL A   1      39.237  30.691  31.739  1.00  0.00    -0.354 N 
ATOM     50  C   UNL A   1      40.641  27.966  28.728  1.00  0.00     0.074 A 
ATOM     51  C   UNL A   1      39.789  28.021  27.556  1.00  0.00     0.031 C 
ATOM     52  C   UNL A   1      37.861  32.176  32.683  1.00  0.00     0.029 A 
ATOM     53  C   UNL A   1      39.093  31.424  32.896  1.00  0.00     0.049 A 
ATOM     54  H   UNL A   1      40.028  30.138  31.546  1.00  0.00     0.167 HD
ATOM     55  C   UNL A   1      41.781  27.232  28.819  1.00  0.00     0.034 A 
ATOM     56  C   UNL A   1      39.831  31.453  34.026  1.00  0.00     0.034 A 
ATOM     57  C   UNL A   1      42.641  27.207  29.981  1.00  0.00     0.049 A 
ATOM     58  C   UNL A   1      41.046  30.566  34.141  1.00  0.00     0.074 A 
ATOM     59  C   UNL A   1      43.814  26.492  30.170  1.00  0.00     0.029 A 
ATOM     60  N   UNL A   1      42.431  27.928  31.150  1.00  0.00    -0.354 N 
ATOM     61  N   UNL A   1      41.551  29.731  33.261  1.00  0.00    -0.248 NA
ATOM     62  C   UNL A   1      41.788  30.624  35.407  1.00  0.00     0.031 C 
ATOM     63  C   UNL A   1      44.272  26.726  31.472  1.00  0.00     0.029 A 
ATOM     64  C   UNL A   1      43.437  27.655  32.070  1.00  0.00     0.049 A 
ATOM     65  H   UNL A   1      41.679  28.544  31.305  1.00  0.00     0.167 HD
ATOM     66  C   UNL A   1      42.684  29.188  33.863  1.00  0.00     0.074 A 
ATOM     67  C   UNL A   1      42.802  29.807  35.165  1.00  0.00     0.031 C 
ATOM     68  C   UNL A   1      43.550  28.260  33.377  1.00  0.00     0.034 A 
BRANCH  55  69
ATOM     69  C   UNL A   1      42.129  26.340  27.648  1.00  0.00     0.023 A 
ATOM     70  C   UNL A   1      41.845  24.963  27.645  1.00  0.00     0.031 A 
ATOM     71  C   UNL A   1      42.781  26.877  26.522  1.00  0.00     0.131 A 
ATOM     72  C   UNL A   1      42.278  24.160  26.578  1.00  0.00     0.055 A 
ATOM     73  C   UNL A   1      43.130  26.087  25.424  1.00  0.00     0.041 A 
ATOM     74  F   UNL A   1      43.101  28.180  26.473  1.00  0.00    -0.206 F 
ATOM     75  C   UNL A   1      42.894  24.717  25.454  1.00  0.00     0.022 A 
BRANCH  72  76
ATOM     76  S   UNL A   1      42.165  22.358  26.751  1.00  0.00     0.124 S 
ATOM     77  O   UNL A   1      41.875  21.942  25.379  1.00  0.00    -0.237 OA
ATOM     78  O   UNL A   1      43.485  22.004  27.255  1.00  0.00    -0.237 OA
ATOM     79  O   UNL A   1      41.064  22.172  27.694  1.00  0.00    -0.744 OA
ENDBRANCH  72  76
ENDBRANCH  55  69
BRANCH  56  80
ATOM     80  C   UNL A   1      39.408  32.298  35.184  1.00  0.00     0.023 A 
ATOM     81  C   UNL A   1      38.746  31.738  36.288  1.00  0.00     0.031 A 
ATOM     82  C   UNL A   1      39.606  33.692  35.172  1.00  0.00     0.131 A 
ATOM     83  C   UNL A   1      38.266  32.571  37.313  1.00  0.00     0.055 A 
ATOM     84  C   UNL A   1      39.188  34.507  36.225  1.00  0.00     0.041 A 
ATOM     85  F   UNL A   1      40.221  34.283  34.135  1.00  0.00    -0.206 F 
ATOM     86  C   UNL A   1      38.500  33.948  37.297  1.00  0.00     0.022 A 
BRANCH  83  87
ATOM     87  S   UNL A   1      37.240  31.842  38.619  1.00  0.00     0.124 S 
ATOM     88  O   UNL A   1      36.054  32.689  38.572  1.00  0.00    -0.237 OA
ATOM     89  O   UNL A   1      37.069  30.473  38.142  1.00  0.00    -0.237 OA
ATOM     90  O   UNL A   1      38.063  31.984  39.817  1.00  0.00    -0.744 OA
ENDBRANCH  83  87
ENDBRANCH  56  80
BRANCH  68  91
ATOM     91  C   UNL A   1      44.735  27.906  34.248  1.00  0.00     0.023 A 
ATOM     92  C   UNL A   1      44.675  26.882  35.211  1.00  0.00     0.031 A 
ATOM     93  C   UNL A   1      45.932  28.641  34.147  1.00  0.00     0.131 A 
ATOM     94  C   UNL A   1      45.754  26.675  36.085  1.00  0.00     0.055 A 
ATOM     95  C   UNL A   1      47.028  28.383  34.973  1.00  0.00     0.041 A 
ATOM     96  F   UNL A   1      46.052  29.634  33.251  1.00  0.00    -0.206 F 
ATOM     97  C   UNL A   1      46.936  27.409  35.961  1.00  0.00     0.022 A 
BRANCH  94  98
ATOM     98  S   UNL A   1      45.545  25.524  37.472  1.00  0.00     0.124 S 
ATOM     99  O   UNL A   1      45.553  24.230  36.797  1.00  0.00    -0.237 OA
ATOM    100  O   UNL A   1      46.710  25.819  38.300  1.00  0.00    -0.237 OA
ATOM    101  O   UNL A   1      44.260  25.914  38.051  1.00  0.00    -0.744 OA
ENDBRANCH  94  98
ENDBRANCH  68  91
ENDBRANCH  42  43
ENDBRANCH  35  37
ENDBRANCH  34  35
ENDBRANCH  33  34
ENDBRANCH  32  33
ENDBRANCH  31  32
ENDBRANCH  30  31
ENDBRANCH   1  30
TORSDOF 24
ENDMDL
MODEL 2
REMARK VINA RESULT:     -10.9      2.083      2.443
REMARK SMILES COc1ccc2c(CC(=O)OCCOCCOCCOC(=O)c3ccc(-c4c5nc(c(-c6cc(S(=O)(=O)[O-])ccc6F)c6ccc([nH]6)c(-c6cc(S(=O)(=O)[O-])ccc6F)c6nc(c(-c7cc(S(=O)(=O)[O-])ccc7F)c7ccc4[nH]7)C=C6)C=C5)cc3)c(C(=O)c3cc(C)ccn3)[nH]c2c1
REMARK SMILES IDX 15 1 14 2 13 3 12 4 11 5 9 6 10 7 8 8 7 9 3 10 4 11 98 12
REMARK SMILES IDX 5 13 97 14 6 15 96 16 86 17 2 19 1 20 87 21 88 22 89 23
REMARK SMILES IDX 90 24 95 25 91 26 94 27 92 28 93 29 16 30 17 31 18 32 19 33
REMARK SMILES IDX 20 34 21 35 22 36 23 37 24 38 85 39 25 40 84 41 26 42 27 43
REMARK SMILES IDX 28 44 78 45 29 46 83 47 77 48 79 49 30 50 82 51 76 52 75 53
REMARK SMILES IDX 31 55 63 56 43 57 62 58 44 59 47 60 61 61 80 62 45 63 46 64
REMARK SMILES IDX 60 66 81 67 48 68 32 69 33 70 41 71 34 72 40 73 42 74 39 75
REMARK SMILES IDX 35 76 36 77 37 78 38 79 64 80 65 81 73 82 66 83 72 84 74 85
REMARK SMILES IDX 71 86 67 87 68 88 69 89 70 90 49 91 50 92 58 93 51 94 57 95
REMARK SMILES IDX 59 96 56 97 52 98 53 99 54 100 55 101
REMARK H PARENT 96 18 79 54 47 65
REMARK Flexibility Score: inf
ROOT
ATOM      1  C   UNL A   1      33.545  28.676  22.648  1.00  0.00     0.188 C 
ENDROOT
BRANCH   1   2
ATOM      2  O   UNL A   1      33.860  27.595  21.771  1.00  0.00    -0.376 OA
BRANCH   2   3
ATOM      3  C   UNL A   1      33.309  26.317  22.053  1.00  0.00     0.202 C 
BRANCH   3   4
ATOM      4  C   UNL A   1      33.986  25.513  23.171  1.00  0.00     0.261 C 
BRANCH   4   5
ATOM      5  O   UNL A   1      33.216  24.356  23.565  1.00  0.00    -0.463 OA
BRANCH   5   6
ATOM      6  C   UNL A   1      33.627  23.148  23.094  1.00  0.00     0.310 C 
ATOM      7  O   UNL A   1      34.791  22.915  22.780  1.00  0.00    -0.252 OA
BRANCH   6   8
ATOM      8  C   UNL A   1      32.563  22.054  23.164  1.00  0.00     0.161 C 
BRANCH   8   9
ATOM      9  C   UNL A   1      32.668  21.001  24.248  1.00  0.00     0.000 A 
ATOM     10  C   UNL A   1      33.025  16.819  24.206  1.00  0.00     0.120 A 
ATOM     11  C   UNL A   1      32.702  17.396  22.981  1.00  0.00     0.047 A 
ATOM     12  C   UNL A   1      33.055  17.576  25.378  1.00  0.00     0.073 A 
ATOM     13  C   UNL A   1      32.482  18.776  22.881  1.00  0.00     0.014 A 
ATOM     14  C   UNL A   1      32.881  18.957  25.246  1.00  0.00     0.050 A 
ATOM     15  C   UNL A   1      32.623  19.582  24.029  1.00  0.00     0.004 A 
ATOM     16  N   UNL A   1      32.967  19.945  26.193  1.00  0.00    -0.351 N 
ATOM     17  C   UNL A   1      33.105  21.169  25.575  1.00  0.00     0.093 A 
ATOM     18  H   UNL A   1      32.935  19.802  27.167  1.00  0.00     0.167 HD
BRANCH  10  19
ATOM     19  O   UNL A   1      33.306  15.482  24.327  1.00  0.00    -0.497 OA
ATOM     20  C   UNL A   1      32.807  14.958  25.560  1.00  0.00     0.278 C 
ENDBRANCH  10  19
BRANCH  17  21
ATOM     21  C   UNL A   1      33.699  22.329  26.226  1.00  0.00     0.227 C 
ATOM     22  O   UNL A   1      33.034  23.140  26.865  1.00  0.00    -0.285 OA
BRANCH  21  23
ATOM     23  C   UNL A   1      35.169  22.579  26.094  1.00  0.00     0.113 A 
ATOM     24  C   UNL A   1      36.041  21.543  25.763  1.00  0.00     0.036 A 
ATOM     25  N   UNL A   1      35.554  23.875  26.238  1.00  0.00    -0.253 NA
ATOM     26  C   UNL A   1      37.386  21.858  25.529  1.00  0.00    -0.047 A 
ATOM     27  C   UNL A   1      36.841  24.153  25.931  1.00  0.00     0.112 A 
ATOM     28  C   UNL A   1      38.413  20.810  25.207  1.00  0.00     0.044 C 
ATOM     29  C   UNL A   1      37.777  23.197  25.573  1.00  0.00     0.023 A 
ENDBRANCH  21  23
ENDBRANCH  17  21
ENDBRANCH   8   9
ENDBRANCH   6   8
ENDBRANCH   5   6
ENDBRANCH   4   5
ENDBRANCH   3   4
ENDBRANCH   2   3
ENDBRANCH   1   2
BRANCH   1  30
ATOM     30  C   UNL A   1      32.282  28.580  23.535  1.00  0.00     0.188 C 
BRANCH  30  31
ATOM     31  O   UNL A   1      32.541  28.132  24.858  1.00  0.00    -0.376 OA
BRANCH  31  32
ATOM     32  C   UNL A   1      31.576  28.553  25.811  1.00  0.00     0.202 C 
BRANCH  32  33
ATOM     33  C   UNL A   1      31.956  29.875  26.479  1.00  0.00     0.261 C 
BRANCH  33  34
ATOM     34  O   UNL A   1      33.390  30.021  26.606  1.00  0.00    -0.460 OA
BRANCH  34  35
ATOM     35  C   UNL A   1      33.860  31.092  27.269  1.00  0.00     0.338 C 
ATOM     36  O   UNL A   1      33.317  32.196  27.322  1.00  0.00    -0.246 OA
BRANCH  35  37
ATOM     37  C   UNL A   1      35.167  30.802  27.913  1.00  0.00     0.060 A 
ATOM     38  C   UNL A   1      35.474  29.561  28.479  1.00  0.00     0.016 A 
ATOM     39  C   UNL A   1      36.073  31.850  28.076  1.00  0.00     0.016 A 
ATOM     40  C   UNL A   1      36.620  29.390  29.267  1.00  0.00     0.010 A 
ATOM     41  C   UNL A   1      37.259  31.655  28.800  1.00  0.00     0.010 A 
ATOM     42  C   UNL A   1      37.536  30.432  29.440  1.00  0.00    -0.014 A 
BRANCH  42  43
ATOM     43  C   UNL A   1      38.737  30.289  30.322  1.00  0.00     0.031 A 
ATOM     44  C   UNL A   1      39.903  29.439  29.877  1.00  0.00     0.074 A 
ATOM     45  C   UNL A   1      38.805  30.897  31.525  1.00  0.00     0.049 A 
ATOM     46  N   UNL A   1      40.918  28.984  30.569  1.00  0.00    -0.248 NA
ATOM     47  C   UNL A   1      39.915  29.038  28.462  1.00  0.00     0.031 C 
ATOM     48  C   UNL A   1      37.809  31.817  32.072  1.00  0.00     0.029 A 
ATOM     49  N   UNL A   1      39.759  30.819  32.516  1.00  0.00    -0.354 N 
ATOM     50  C   UNL A   1      41.662  28.200  29.691  1.00  0.00     0.074 A 
ATOM     51  C   UNL A   1      40.965  28.231  28.420  1.00  0.00     0.031 C 
ATOM     52  C   UNL A   1      38.207  32.228  33.286  1.00  0.00     0.029 A 
ATOM     53  C   UNL A   1      39.435  31.530  33.651  1.00  0.00     0.049 A 
ATOM     54  H   UNL A   1      40.594  30.305  32.423  1.00  0.00     0.167 HD
ATOM     55  C   UNL A   1      42.814  27.517  29.922  1.00  0.00     0.034 A 
ATOM     56  C   UNL A   1      40.021  31.578  34.866  1.00  0.00     0.034 A 
ATOM     57  C   UNL A   1      43.518  27.516  31.185  1.00  0.00     0.049 A 
ATOM     58  C   UNL A   1      41.251  30.745  35.129  1.00  0.00     0.074 A 
ATOM     59  C   UNL A   1      44.690  26.853  31.517  1.00  0.00     0.029 A 
ATOM     60  N   UNL A   1      43.128  28.212  32.322  1.00  0.00    -0.354 N 
ATOM     61  N   UNL A   1      41.902  29.946  34.316  1.00  0.00    -0.248 NA
ATOM     62  C   UNL A   1      41.822  30.821  36.480  1.00  0.00     0.031 C 
ATOM     63  C   UNL A   1      44.967  27.091  32.868  1.00  0.00     0.029 A 
ATOM     64  C   UNL A   1      44.020  27.973  33.361  1.00  0.00     0.049 A 
ATOM     65  H   UNL A   1      42.334  28.791  32.383  1.00  0.00     0.167 HD
ATOM     66  C   UNL A   1      42.974  29.447  35.053  1.00  0.00     0.074 A 
ATOM     67  C   UNL A   1      42.896  30.054  36.364  1.00  0.00     0.031 C 
ATOM     68  C   UNL A   1      43.936  28.566  34.676  1.00  0.00     0.034 A 
BRANCH  55  69
ATOM     69  C   UNL A   1      43.350  26.657  28.799  1.00  0.00     0.023 A 
ATOM     70  C   UNL A   1      44.250  27.154  27.840  1.00  0.00     0.031 A 
ATOM     71  C   UNL A   1      42.931  25.319  28.674  1.00  0.00     0.131 A 
ATOM     72  C   UNL A   1      44.641  26.345  26.761  1.00  0.00     0.055 A 
ATOM     73  C   UNL A   1      43.394  24.493  27.647  1.00  0.00     0.041 A 
ATOM     74  F   UNL A   1      42.055  24.792  29.544  1.00  0.00    -0.206 F 
ATOM     75  C   UNL A   1      44.241  25.010  26.673  1.00  0.00     0.022 A 
BRANCH  72  76
ATOM     76  S   UNL A   1      45.552  27.112  25.392  1.00  0.00     0.124 S 
ATOM     77  O   UNL A   1      44.489  27.831  24.690  1.00  0.00    -0.237 OA
ATOM     78  O   UNL A   1      46.528  27.942  26.086  1.00  0.00    -0.237 OA
ATOM     79  O   UNL A   1      46.104  25.971  24.665  1.00  0.00    -0.744 OA
ENDBRANCH  72  76
ENDBRANCH  55  69
BRANCH  56  80
ATOM     80  C   UNL A   1      39.414  32.388  35.965  1.00  0.00     0.023 A 
ATOM     81  C   UNL A   1      39.821  33.711  36.204  1.00  0.00     0.031 A 
ATOM     82  C   UNL A   1      38.459  31.828  36.833  1.00  0.00     0.131 A 
ATOM     83  C   UNL A   1      39.310  34.412  37.308  1.00  0.00     0.055 A 
ATOM     84  C   UNL A   1      37.904  32.552  37.889  1.00  0.00     0.041 A 
ATOM     85  F   UNL A   1      38.044  30.562  36.662  1.00  0.00    -0.206 F 
ATOM     86  C   UNL A   1      38.340  33.848  38.140  1.00  0.00     0.022 A 
BRANCH  83  87
ATOM     87  S   UNL A   1      40.007  36.040  37.704  1.00  0.00     0.124 S 
ATOM     88  O   UNL A   1      39.924  36.720  36.417  1.00  0.00    -0.237 OA
ATOM     89  O   UNL A   1      39.096  36.516  38.740  1.00  0.00    -0.237 OA
ATOM     90  O   UNL A   1      41.359  35.729  38.161  1.00  0.00    -0.744 OA
ENDBRANCH  83  87
ENDBRANCH  56  80
BRANCH  68  91
ATOM     91  C   UNL A   1      45.017  28.255  35.689  1.00  0.00     0.023 A 
ATOM     92  C   UNL A   1      44.844  27.280  36.689  1.00  0.00     0.031 A 
ATOM     93  C   UNL A   1      46.221  28.983  35.685  1.00  0.00     0.131 A 
ATOM     94  C   UNL A   1      45.819  27.116  37.687  1.00  0.00     0.055 A 
ATOM     95  C   UNL A   1      47.218  28.766  36.639  1.00  0.00     0.041 A 
ATOM     96  F   UNL A   1      46.446  29.929  34.759  1.00  0.00    -0.206 F 
ATOM     97  C   UNL A   1      47.012  27.842  37.658  1.00  0.00     0.022 A 
BRANCH  94  98
ATOM     98  S   UNL A   1      45.450  26.036  39.097  1.00  0.00     0.124 S 
ATOM     99  O   UNL A   1      44.363  26.754  39.755  1.00  0.00    -0.237 OA
ATOM    100  O   UNL A   1      45.084  24.784  38.443  1.00  0.00    -0.237 OA
ATOM    101  O   UNL A   1      46.709  26.001  39.841  1.00  0.00    -0.744 OA
ENDBRANCH  94  98
ENDBRANCH  68  91
ENDBRANCH  42  43
ENDBRANCH  35  37
ENDBRANCH  34  35
ENDBRANCH  33  34
ENDBRANCH  32  33
ENDBRANCH  31  32
ENDBRANCH  30  31
ENDBRANCH   1  30
TORSDOF 24
ENDMDL
MODEL 3
REMARK VINA RESULT:     -10.7      1.804      2.123
REMARK SMILES COc1ccc2c(CC(=O)OCCOCCOCCOC(=O)c3ccc(-c4c5nc(c(-c6cc(S(=O)(=O)[O-])ccc6F)c6ccc([nH]6)c(-c6cc(S(=O)(=O)[O-])ccc6F)c6nc(c(-c7cc(S(=O)(=O)[O-])ccc7F)c7ccc4[nH]7)C=C6)C=C5)cc3)c(C(=O)c3cc(C)ccn3)[nH]c2c1
REMARK SMILES IDX 15 1 14 2 13 3 12 4 11 5 9 6 10 7 8 8 7 9 3 10 4 11 98 12
REMARK SMILES IDX 5 13 97 14 6 15 96 16 86 17 2 19 1 20 87 21 88 22 89 23
REMARK SMILES IDX 90 24 95 25 91 26 94 27 92 28 93 29 16 30 17 31 18 32 19 33
REMARK SMILES IDX 20 34 21 35 22 36 23 37 24 38 85 39 25 40 84 41 26 42 27 43
REMARK SMILES IDX 28 44 78 45 29 46 83 47 77 48 79 49 30 50 82 51 76 52 75 53
REMARK SMILES IDX 31 55 63 56 43 57 62 58 44 59 47 60 61 61 80 62 45 63 46 64
REMARK SMILES IDX 60 66 81 67 48 68 32 69 33 70 41 71 34 72 40 73 42 74 39 75
REMARK SMILES IDX 35 76 36 77 37 78 38 79 64 80 65 81 73 82 66 83 72 84 74 85
REMARK SMILES IDX 71 86 67 87 68 88 69 89 70 90 49 91 50 92 58 93 51 94 57 95
REMARK SMILES IDX 59 96 56 97 52 98 53 99 54 100 55 101
REMARK H PARENT 96 18 79 54 47 65
REMARK Flexibility Score: inf
ROOT
ATOM      1  C   UNL A   1      33.361  28.572  22.715  1.00  0.00     0.188 C 
ENDROOT
BRANCH   1   2
ATOM      2  O   UNL A   1      33.651  27.586  21.725  1.00  0.00    -0.376 OA
BRANCH   2   3
ATOM      3  C   UNL A   1      33.091  26.290  21.880  1.00  0.00     0.202 C 
BRANCH   3   4
ATOM      4  C   UNL A   1      33.713  25.404  22.968  1.00  0.00     0.261 C 
BRANCH   4   5
ATOM      5  O   UNL A   1      32.885  24.265  23.293  1.00  0.00    -0.463 OA
BRANCH   5   6
ATOM      6  C   UNL A   1      33.336  23.042  22.907  1.00  0.00     0.310 C 
ATOM      7  O   UNL A   1      34.502  22.830  22.584  1.00  0.00    -0.252 OA
BRANCH   6   8
ATOM      8  C   UNL A   1      32.319  21.915  23.086  1.00  0.00     0.161 C 
BRANCH   8   9
ATOM      9  C   UNL A   1      32.514  20.928  24.218  1.00  0.00     0.000 A 
ATOM     10  C   UNL A   1      33.244  16.797  24.370  1.00  0.00     0.120 A 
ATOM     11  C   UNL A   1      32.874  17.286  23.119  1.00  0.00     0.047 A 
ATOM     12  C   UNL A   1      33.203  17.606  25.505  1.00  0.00     0.073 A 
ATOM     13  C   UNL A   1      32.532  18.634  22.955  1.00  0.00     0.014 A 
ATOM     14  C   UNL A   1      32.907  18.959  25.309  1.00  0.00     0.050 A 
ATOM     15  C   UNL A   1      32.597  19.502  24.065  1.00  0.00     0.004 A 
ATOM     16  N   UNL A   1      32.901  19.994  26.209  1.00  0.00    -0.351 N 
ATOM     17  C   UNL A   1      32.931  21.195  25.535  1.00  0.00     0.093 A 
ATOM     18  H   UNL A   1      32.879  19.894  27.189  1.00  0.00     0.167 HD
BRANCH  10  19
ATOM     19  O   UNL A   1      33.643  15.497  24.552  1.00  0.00    -0.497 OA
ATOM     20  C   UNL A   1      34.998  15.432  25.006  1.00  0.00     0.278 C 
ENDBRANCH  10  19
BRANCH  17  21
ATOM     21  C   UNL A   1      33.416  22.433  26.131  1.00  0.00     0.227 C 
ATOM     22  O   UNL A   1      32.676  23.221  26.712  1.00  0.00    -0.285 OA
BRANCH  21  23
ATOM     23  C   UNL A   1      34.865  22.792  26.011  1.00  0.00     0.113 A 
ATOM     24  C   UNL A   1      35.830  21.805  25.822  1.00  0.00     0.036 A 
ATOM     25  N   UNL A   1      35.136  24.125  26.018  1.00  0.00    -0.253 NA
ATOM     26  C   UNL A   1      37.153  22.206  25.591  1.00  0.00    -0.047 A 
ATOM     27  C   UNL A   1      36.406  24.477  25.717  1.00  0.00     0.112 A 
ATOM     28  C   UNL A   1      38.274  21.222  25.416  1.00  0.00     0.044 C 
ATOM     29  C   UNL A   1      37.430  23.571  25.493  1.00  0.00     0.023 A 
ENDBRANCH  21  23
ENDBRANCH  17  21
ENDBRANCH   8   9
ENDBRANCH   6   8
ENDBRANCH   5   6
ENDBRANCH   4   5
ENDBRANCH   3   4
ENDBRANCH   2   3
ENDBRANCH   1   2
BRANCH   1  30
ATOM     30  C   UNL A   1      32.076  28.427  23.564  1.00  0.00     0.188 C 
BRANCH  30  31
ATOM     31  O   UNL A   1      32.320  28.115  24.928  1.00  0.00    -0.376 OA
BRANCH  31  32
ATOM     32  C   UNL A   1      31.323  28.593  25.819  1.00  0.00     0.202 C 
BRANCH  32  33
ATOM     33  C   UNL A   1      31.642  29.990  26.353  1.00  0.00     0.261 C 
BRANCH  33  34
ATOM     34  O   UNL A   1      33.057  30.280  26.292  1.00  0.00    -0.460 OA
BRANCH  34  35
ATOM     35  C   UNL A   1      33.532  31.279  27.055  1.00  0.00     0.338 C 
ATOM     36  O   UNL A   1      32.977  32.363  27.242  1.00  0.00    -0.246 OA
BRANCH  35  37
ATOM     37  C   UNL A   1      34.858  30.940  27.633  1.00  0.00     0.060 A 
ATOM     38  C   UNL A   1      35.245  29.629  27.924  1.00  0.00     0.016 A 
ATOM     39  C   UNL A   1      35.699  31.983  28.020  1.00  0.00     0.016 A 
ATOM     40  C   UNL A   1      36.405  29.365  28.665  1.00  0.00     0.010 A 
ATOM     41  C   UNL A   1      36.899  31.712  28.694  1.00  0.00     0.010 A 
ATOM     42  C   UNL A   1      37.255  30.401  29.062  1.00  0.00    -0.014 A 
BRANCH  42  43
ATOM     43  C   UNL A   1      38.469  30.148  29.902  1.00  0.00     0.031 A 
ATOM     44  C   UNL A   1      39.563  29.240  29.393  1.00  0.00     0.074 A 
ATOM     45  C   UNL A   1      38.612  30.707  31.121  1.00  0.00     0.049 A 
ATOM     46  N   UNL A   1      40.565  28.695  30.037  1.00  0.00    -0.248 NA
ATOM     47  C   UNL A   1      39.508  28.889  27.966  1.00  0.00     0.031 C 
ATOM     48  C   UNL A   1      37.695  31.671  31.730  1.00  0.00     0.029 A 
ATOM     49  N   UNL A   1      39.586  30.532  32.080  1.00  0.00    -0.354 N 
ATOM     50  C   UNL A   1      41.229  27.895  29.111  1.00  0.00     0.074 A 
ATOM     51  C   UNL A   1      40.500  28.017  27.864  1.00  0.00     0.031 C 
ATOM     52  C   UNL A   1      38.153  32.012  32.944  1.00  0.00     0.029 A 
ATOM     53  C   UNL A   1      39.342  31.222  33.247  1.00  0.00     0.049 A 
ATOM     54  H   UNL A   1      40.381  29.968  31.944  1.00  0.00     0.167 HD
ATOM     55  C   UNL A   1      42.339  27.131  29.284  1.00  0.00     0.034 A 
ATOM     56  C   UNL A   1      39.964  31.188  34.444  1.00  0.00     0.034 A 
ATOM     57  C   UNL A   1      43.077  27.038  30.524  1.00  0.00     0.049 A 
ATOM     58  C   UNL A   1      41.143  30.268  34.642  1.00  0.00     0.074 A 
ATOM     59  C   UNL A   1      44.211  26.289  30.798  1.00  0.00     0.029 A 
ATOM     60  N   UNL A   1      42.767  27.717  31.695  1.00  0.00    -0.354 N 
ATOM     61  N   UNL A   1      41.716  29.456  33.783  1.00  0.00    -0.248 NA
ATOM     62  C   UNL A   1      41.756  30.258  35.977  1.00  0.00     0.031 C 
ATOM     63  C   UNL A   1      44.541  26.459  32.147  1.00  0.00     0.029 A 
ATOM     64  C   UNL A   1      43.669  27.384  32.698  1.00  0.00     0.049 A 
ATOM     65  H   UNL A   1      42.015  28.345  31.800  1.00  0.00     0.167 HD
ATOM     66  C   UNL A   1      42.773  28.862  34.470  1.00  0.00     0.074 A 
ATOM     67  C   UNL A   1      42.772  29.426  35.802  1.00  0.00     0.031 C 
ATOM     68  C   UNL A   1      43.663  27.934  34.034  1.00  0.00     0.034 A 
BRANCH  55  69
ATOM     69  C   UNL A   1      42.784  26.278  28.117  1.00  0.00     0.023 A 
ATOM     70  C   UNL A   1      42.368  24.943  27.963  1.00  0.00     0.031 A 
ATOM     71  C   UNL A   1      43.663  26.805  27.153  1.00  0.00     0.131 A 
ATOM     72  C   UNL A   1      42.889  24.163  26.918  1.00  0.00     0.055 A 
ATOM     73  C   UNL A   1      44.108  26.050  26.065  1.00  0.00     0.041 A 
ATOM     74  F   UNL A   1      44.115  28.066  27.256  1.00  0.00    -0.206 F 
ATOM     75  C   UNL A   1      43.734  24.715  25.952  1.00  0.00     0.022 A 
BRANCH  72  76
ATOM     76  S   UNL A   1      42.570  22.377  26.931  1.00  0.00     0.124 S 
ATOM     77  O   UNL A   1      43.865  21.838  26.522  1.00  0.00    -0.237 OA
ATOM     78  O   UNL A   1      42.189  22.134  28.317  1.00  0.00    -0.237 OA
ATOM     79  O   UNL A   1      41.499  22.213  25.950  1.00  0.00    -0.744 OA
ENDBRANCH  72  76
ENDBRANCH  55  69
BRANCH  56  80
ATOM     80  C   UNL A   1      39.444  31.997  35.589  1.00  0.00     0.023 A 
ATOM     81  C   UNL A   1      40.009  33.240  35.917  1.00  0.00     0.031 A 
ATOM     82  C   UNL A   1      38.411  31.507  36.409  1.00  0.00     0.131 A 
ATOM     83  C   UNL A   1      39.570  33.929  37.059  1.00  0.00     0.055 A 
ATOM     84  C   UNL A   1      37.932  32.227  37.505  1.00  0.00     0.041 A 
ATOM     85  F   UNL A   1      37.844  30.317  36.151  1.00  0.00    -0.206 F 
ATOM     86  C   UNL A   1      38.522  33.439  37.843  1.00  0.00     0.022 A 
BRANCH  83  87
ATOM     87  S   UNL A   1      40.458  35.426  37.568  1.00  0.00     0.124 S 
ATOM     88  O   UNL A   1      40.428  35.310  39.021  1.00  0.00    -0.237 OA
ATOM     89  O   UNL A   1      41.760  35.237  36.936  1.00  0.00    -0.237 OA
ATOM     90  O   UNL A   1      39.650  36.508  37.010  1.00  0.00    -0.744 OA
ENDBRANCH  83  87
ENDBRANCH  56  80
BRANCH  68  91
ATOM     91  C   UNL A   1      44.748  27.517  35.003  1.00  0.00     0.023 A 
ATOM     92  C   UNL A   1      45.993  28.172  35.056  1.00  0.00     0.031 A 
ATOM     93  C   UNL A   1      44.553  26.411  35.852  1.00  0.00     0.131 A 
ATOM     94  C   UNL A   1      47.016  27.670  35.876  1.00  0.00     0.055 A 
ATOM     95  C   UNL A   1      45.551  25.960  36.717  1.00  0.00     0.041 A 
ATOM     96  F   UNL A   1      43.389  25.741  35.846  1.00  0.00    -0.206 F 
ATOM     97  C   UNL A   1      46.797  26.577  36.719  1.00  0.00     0.022 A 
BRANCH  94  98
ATOM     98  S   UNL A   1      48.679  28.381  35.730  1.00  0.00     0.124 S 
ATOM     99  O   UNL A   1      49.169  27.761  34.504  1.00  0.00    -0.237 OA
ATOM    100  O   UNL A   1      48.400  29.812  35.655  1.00  0.00    -0.237 OA
ATOM    101  O   UNL A   1      49.348  27.946  36.956  1.00  0.00    -0.744 OA
ENDBRANCH  94  98
ENDBRANCH  68  91
ENDBRANCH  42  43
ENDBRANCH  35  37
ENDBRANCH  34  35
ENDBRANCH  33  34
ENDBRANCH  32  33
ENDBRANCH  31  32
ENDBRANCH  30  31
ENDBRANCH   1  30
TORSDOF 24
ENDMDL
