MODEL 1
REMARK VINA RESULT:      -8.1      0.000      0.000
REMARK SMILES CC(=O)N1CCC[C@H](C(=O)N(CC(=O)OCCOCCOCCOC(=O)c2ccc(-c3c4nc(c(-c5cc(S(=O)(=O)[O-])ccc5F)c5ccc([nH]5)c(-c5cc(S(=O)(=O)[O-])ccc5F)c5nc(c(-c6cc(S(=O)(=O)[O-])ccc6F)c6ccc3[nH]6)C=C5)C=C4)cc2)CC(F)(F)F)C1
REMARK SMILES IDX 19 1 18 2 17 3 16 4 15 5 13 6 14 7 12 8 11 9 9 10 10 11 8 12
REMARK SMILES IDX 4 13 5 14 95 15 6 16 7 17 2 18 1 19 3 20 90 21 91 22 92 23
REMARK SMILES IDX 93 24 94 25 20 26 21 27 22 28 23 29 24 30 25 31 26 32 27 33
REMARK SMILES IDX 28 34 89 35 29 36 88 37 30 38 31 39 32 40 82 41 33 42 87 43
REMARK SMILES IDX 81 44 83 45 34 46 86 47 80 48 79 49 35 51 67 52 47 53 66 54
REMARK SMILES IDX 48 55 51 56 65 57 84 58 49 59 50 60 64 62 85 63 52 64 36 65
REMARK SMILES IDX 37 66 45 67 38 68 44 69 46 70 43 71 39 72 40 73 41 74 42 75
REMARK SMILES IDX 68 76 69 77 77 78 70 79 76 80 78 81 75 82 71 83 72 84 73 85
REMARK SMILES IDX 74 86 53 87 54 88 62 89 55 90 61 91 63 92 60 93 56 94 57 95
REMARK SMILES IDX 58 96 59 97
REMARK H PARENT 83 50 51 61
REMARK Flexibility Score: inf
ROOT
ATOM      1  C   UNL A   1      36.216  30.290  29.244  1.00  0.00     0.188 C 
ENDROOT
BRANCH   1   2
ATOM      2  O   UNL A   1      36.099  31.022  28.027  1.00  0.00    -0.376 OA
BRANCH   2   3
ATOM      3  C   UNL A   1      34.845  31.558  27.635  1.00  0.00     0.202 C 
BRANCH   3   4
ATOM      4  C   UNL A   1      33.685  30.561  27.507  1.00  0.00     0.261 C 
BRANCH   4   5
ATOM      5  O   UNL A   1      33.226  30.307  26.156  1.00  0.00    -0.462 OA
BRANCH   5   6
ATOM      6  C   UNL A   1      32.880  29.017  25.903  1.00  0.00     0.325 C 
ATOM      7  O   UNL A   1      32.367  28.279  26.738  1.00  0.00    -0.250 OA
BRANCH   6   8
ATOM      8  C   UNL A   1      33.112  28.528  24.459  1.00  0.00     0.242 C 
BRANCH   8   9
ATOM      9  N   UNL A   1      32.581  27.339  23.756  1.00  0.00    -0.322 N 
BRANCH   9  10
ATOM     10  C   UNL A   1      32.708  26.010  24.134  1.00  0.00     0.228 C 
ATOM     11  O   UNL A   1      33.621  25.707  24.918  1.00  0.00    -0.274 OA
BRANCH  10  12
ATOM     12  C   UNL A   1      31.849  24.839  23.635  1.00  0.00     0.098 C 
ATOM     13  N   UNL A   1      31.489  23.138  25.403  1.00  0.00    -0.342 N 
ATOM     14  C   UNL A   1      32.063  22.059  24.593  1.00  0.00     0.119 C 
ATOM     15  C   UNL A   1      30.893  24.239  24.663  1.00  0.00     0.132 C 
ATOM     16  C   UNL A   1      32.947  22.525  23.434  1.00  0.00     0.022 C 
ATOM     17  C   UNL A   1      32.529  23.813  22.743  1.00  0.00     0.017 C 
BRANCH  13  18
ATOM     18  C   UNL A   1      31.485  23.007  26.790  1.00  0.00     0.219 C 
ATOM     19  C   UNL A   1      32.758  22.598  27.493  1.00  0.00     0.114 C 
ATOM     20  O   UNL A   1      30.468  23.206  27.455  1.00  0.00    -0.275 OA
ENDBRANCH  13  18
ENDBRANCH  10  12
ENDBRANCH   9  10
BRANCH   9  21
ATOM     21  C   UNL A   1      31.455  27.587  22.810  1.00  0.00     0.235 C 
BRANCH  21  22
ATOM     22  C   UNL A   1      30.123  28.099  23.382  1.00  0.00     0.406 C 
ATOM     23  F   UNL A   1      30.230  29.278  24.027  1.00  0.00    -0.169 F 
ATOM     24  F   UNL A   1      29.253  28.301  22.361  1.00  0.00    -0.169 F 
ATOM     25  F   UNL A   1      29.545  27.202  24.211  1.00  0.00    -0.169 F 
ENDBRANCH  21  22
ENDBRANCH   9  21
ENDBRANCH   8   9
ENDBRANCH   6   8
ENDBRANCH   5   6
ENDBRANCH   4   5
ENDBRANCH   3   4
ENDBRANCH   2   3
ENDBRANCH   1   2
BRANCH   1  26
ATOM     26  C   UNL A   1      36.552  31.037  30.536  1.00  0.00     0.188 C 
BRANCH  26  27
ATOM     27  O   UNL A   1      35.400  31.609  31.128  1.00  0.00    -0.376 OA
BRANCH  27  28
ATOM     28  C   UNL A   1      35.281  33.009  30.973  1.00  0.00     0.202 C 
BRANCH  28  29
ATOM     29  C   UNL A   1      35.159  33.706  32.331  1.00  0.00     0.261 C 
BRANCH  29  30
ATOM     30  O   UNL A   1      36.413  34.039  32.965  1.00  0.00    -0.460 OA
BRANCH  30  31
ATOM     31  C   UNL A   1      36.788  33.287  34.022  1.00  0.00     0.338 C 
ATOM     32  O   UNL A   1      36.218  33.229  35.110  1.00  0.00    -0.246 OA
BRANCH  31  33
ATOM     33  C   UNL A   1      37.862  32.359  33.601  1.00  0.00     0.060 A 
ATOM     34  C   UNL A   1      37.835  31.028  34.046  1.00  0.00     0.016 A 
ATOM     35  C   UNL A   1      38.911  32.803  32.795  1.00  0.00     0.016 A 
ATOM     36  C   UNL A   1      38.874  30.150  33.721  1.00  0.00     0.010 A 
ATOM     37  C   UNL A   1      39.961  31.930  32.488  1.00  0.00     0.010 A 
ATOM     38  C   UNL A   1      39.967  30.609  32.976  1.00  0.00    -0.014 A 
BRANCH  38  39
ATOM     39  C   UNL A   1      41.209  29.795  32.869  1.00  0.00     0.031 A 
ATOM     40  C   UNL A   1      42.272  29.980  33.922  1.00  0.00     0.074 A 
ATOM     41  C   UNL A   1      41.406  28.928  31.860  1.00  0.00     0.049 A 
ATOM     42  N   UNL A   1      43.497  29.525  33.962  1.00  0.00    -0.248 NA
ATOM     43  C   UNL A   1      41.897  30.803  35.082  1.00  0.00     0.031 C 
ATOM     44  C   UNL A   1      40.432  28.606  30.819  1.00  0.00     0.029 A 
ATOM     45  N   UNL A   1      42.507  28.172  31.534  1.00  0.00    -0.354 N 
ATOM     46  C   UNL A   1      44.050  30.030  35.135  1.00  0.00     0.074 A 
ATOM     47  C   UNL A   1      43.030  30.840  35.766  1.00  0.00     0.031 C 
ATOM     48  C   UNL A   1      40.989  27.739  29.954  1.00  0.00     0.029 A 
ATOM     49  C   UNL A   1      42.376  27.489  30.346  1.00  0.00     0.049 A 
ATOM     50  H   UNL A   1      43.314  28.124  32.097  1.00  0.00     0.167 HD
ATOM     51  C   UNL A   1      45.296  29.838  35.635  1.00  0.00     0.034 A 
ATOM     52  C   UNL A   1      43.282  26.785  29.635  1.00  0.00     0.034 A 
ATOM     53  C   UNL A   1      46.300  29.025  34.992  1.00  0.00     0.049 A 
ATOM     54  C   UNL A   1      44.692  26.654  30.166  1.00  0.00     0.074 A 
ATOM     55  C   UNL A   1      47.584  28.743  35.422  1.00  0.00     0.029 A 
ATOM     56  N   UNL A   1      46.138  28.373  33.776  1.00  0.00    -0.354 N 
ATOM     57  N   UNL A   1      45.209  27.142  31.272  1.00  0.00    -0.248 NA
ATOM     58  C   UNL A   1      45.641  25.876  29.357  1.00  0.00     0.031 C 
ATOM     59  C   UNL A   1      48.224  27.992  34.432  1.00  0.00     0.029 A 
ATOM     60  C   UNL A   1      47.311  27.723  33.424  1.00  0.00     0.049 A 
ATOM     61  H   UNL A   1      45.311  28.372  33.242  1.00  0.00     0.167 HD
ATOM     62  C   UNL A   1      46.531  26.698  31.303  1.00  0.00     0.074 A 
ATOM     63  C   UNL A   1      46.727  25.896  30.114  1.00  0.00     0.031 C 
ATOM     64  C   UNL A   1      47.495  26.928  32.232  1.00  0.00     0.034 A 
BRANCH  51  65
ATOM     65  C   UNL A   1      45.663  30.575  36.901  1.00  0.00     0.023 A 
ATOM     66  C   UNL A   1      45.508  30.000  38.174  1.00  0.00     0.031 A 
ATOM     67  C   UNL A   1      46.162  31.889  36.830  1.00  0.00     0.131 A 
ATOM     68  C   UNL A   1      45.785  30.757  39.322  1.00  0.00     0.055 A 
ATOM     69  C   UNL A   1      46.513  32.608  37.973  1.00  0.00     0.041 A 
ATOM     70  F   UNL A   1      46.307  32.501  35.644  1.00  0.00    -0.206 F 
ATOM     71  C   UNL A   1      46.312  32.048  39.230  1.00  0.00     0.022 A 
BRANCH  68  72
ATOM     72  S   UNL A   1      45.320  30.082  40.941  1.00  0.00     0.124 S 
ATOM     73  O   UNL A   1      45.529  28.650  40.734  1.00  0.00    -0.237 OA
ATOM     74  O   UNL A   1      46.260  30.741  41.840  1.00  0.00    -0.237 OA
ATOM     75  O   UNL A   1      43.923  30.485  41.092  1.00  0.00    -0.744 OA
ENDBRANCH  68  72
ENDBRANCH  51  65
BRANCH  52  76
ATOM     76  C   UNL A   1      42.921  26.204  28.306  1.00  0.00     0.023 A 
ATOM     77  C   UNL A   1      42.443  24.889  28.188  1.00  0.00     0.031 A 
ATOM     78  C   UNL A   1      43.120  26.937  27.121  1.00  0.00     0.131 A 
ATOM     79  C   UNL A   1      42.227  24.331  26.916  1.00  0.00     0.055 A 
ATOM     80  C   UNL A   1      42.845  26.400  25.862  1.00  0.00     0.041 A 
ATOM     81  F   UNL A   1      43.589  28.194  27.171  1.00  0.00    -0.206 F 
ATOM     82  C   UNL A   1      42.409  25.084  25.753  1.00  0.00     0.022 A 
BRANCH  79  83
ATOM     83  S   UNL A   1      41.811  22.569  26.798  1.00  0.00     0.124 S 
ATOM     84  O   UNL A   1      42.654  21.995  27.840  1.00  0.00    -0.237 OA
ATOM     85  O   UNL A   1      40.377  22.577  27.066  1.00  0.00    -0.237 OA
ATOM     86  O   UNL A   1      42.186  22.221  25.429  1.00  0.00    -0.744 OA
ENDBRANCH  79  83
ENDBRANCH  52  76
BRANCH  64  87
ATOM     87  C   UNL A   1      48.831  26.252  32.028  1.00  0.00     0.023 A 
ATOM     88  C   UNL A   1      49.148  25.025  32.638  1.00  0.00     0.031 A 
ATOM     89  C   UNL A   1      49.805  26.853  31.209  1.00  0.00     0.131 A 
ATOM     90  C   UNL A   1      50.424  24.467  32.463  1.00  0.00     0.055 A 
ATOM     91  C   UNL A   1      51.049  26.259  30.986  1.00  0.00     0.041 A 
ATOM     92  F   UNL A   1      49.561  28.026  30.603  1.00  0.00    -0.206 F 
ATOM     93  C   UNL A   1      51.369  25.066  31.627  1.00  0.00     0.022 A 
BRANCH  90  94
ATOM     94  S   UNL A   1      50.870  22.993  33.423  1.00  0.00     0.124 S 
ATOM     95  O   UNL A   1      51.944  23.498  34.271  1.00  0.00    -0.237 OA
ATOM     96  O   UNL A   1      49.618  22.671  34.100  1.00  0.00    -0.237 OA
ATOM     97  O   UNL A   1      51.285  22.032  32.402  1.00  0.00    -0.744 OA
ENDBRANCH  90  94
ENDBRANCH  64  87
ENDBRANCH  38  39
ENDBRANCH  31  33
ENDBRANCH  30  31
ENDBRANCH  29  30
ENDBRANCH  28  29
ENDBRANCH  27  28
ENDBRANCH  26  27
ENDBRANCH   1  26
TORSDOF 26
ENDMDL
MODEL 2
REMARK VINA RESULT:      -7.8      5.079      8.132
REMARK SMILES CC(=O)N1CCC[C@H](C(=O)N(CC(=O)OCCOCCOCCOC(=O)c2ccc(-c3c4nc(c(-c5cc(S(=O)(=O)[O-])ccc5F)c5ccc([nH]5)c(-c5cc(S(=O)(=O)[O-])ccc5F)c5nc(c(-c6cc(S(=O)(=O)[O-])ccc6F)c6ccc3[nH]6)C=C5)C=C4)cc2)CC(F)(F)F)C1
REMARK SMILES IDX 19 1 18 2 17 3 16 4 15 5 13 6 14 7 12 8 11 9 9 10 10 11 8 12
REMARK SMILES IDX 4 13 5 14 95 15 6 16 7 17 2 18 1 19 3 20 90 21 91 22 92 23
REMARK SMILES IDX 93 24 94 25 20 26 21 27 22 28 23 29 24 30 25 31 26 32 27 33
REMARK SMILES IDX 28 34 89 35 29 36 88 37 30 38 31 39 32 40 82 41 33 42 87 43
REMARK SMILES IDX 81 44 83 45 34 46 86 47 80 48 79 49 35 51 67 52 47 53 66 54
REMARK SMILES IDX 48 55 51 56 65 57 84 58 49 59 50 60 64 62 85 63 52 64 36 65
REMARK SMILES IDX 37 66 45 67 38 68 44 69 46 70 43 71 39 72 40 73 41 74 42 75
REMARK SMILES IDX 68 76 69 77 77 78 70 79 76 80 78 81 75 82 71 83 72 84 73 85
REMARK SMILES IDX 74 86 53 87 54 88 62 89 55 90 61 91 63 92 60 93 56 94 57 95
REMARK SMILES IDX 58 96 59 97
REMARK H PARENT 83 50 51 61
REMARK Flexibility Score: inf
ROOT
ATOM      1  C   UNL A   1      35.974  33.172  27.910  1.00  0.00     0.188 C 
ENDROOT
BRANCH   1   2
ATOM      2  O   UNL A   1      34.837  32.319  27.813  1.00  0.00    -0.376 OA
BRANCH   2   3
ATOM      3  C   UNL A   1      34.972  30.923  28.029  1.00  0.00     0.202 C 
BRANCH   3   4
ATOM      4  C   UNL A   1      33.784  30.047  27.608  1.00  0.00     0.261 C 
BRANCH   4   5
ATOM      5  O   UNL A   1      33.653  29.814  26.183  1.00  0.00    -0.462 OA
BRANCH   5   6
ATOM      6  C   UNL A   1      32.675  28.937  25.835  1.00  0.00     0.325 C 
ATOM      7  O   UNL A   1      31.721  28.666  26.558  1.00  0.00    -0.250 OA
BRANCH   6   8
ATOM      8  C   UNL A   1      32.789  28.325  24.424  1.00  0.00     0.242 C 
BRANCH   8   9
ATOM      9  N   UNL A   1      32.220  27.074  23.876  1.00  0.00    -0.322 N 
BRANCH   9  10
ATOM     10  C   UNL A   1      32.516  25.774  24.262  1.00  0.00     0.228 C 
ATOM     11  O   UNL A   1      31.626  25.109  24.815  1.00  0.00    -0.274 OA
BRANCH  10  12
ATOM     12  C   UNL A   1      33.874  25.073  24.118  1.00  0.00     0.098 C 
ATOM     13  N   UNL A   1      33.622  22.623  23.827  1.00  0.00    -0.342 N 
ATOM     14  C   UNL A   1      34.453  22.318  24.995  1.00  0.00     0.119 C 
ATOM     15  C   UNL A   1      33.903  23.884  23.160  1.00  0.00     0.132 C 
ATOM     16  C   UNL A   1      34.620  23.473  25.985  1.00  0.00     0.022 C 
ATOM     17  C   UNL A   1      34.686  24.869  25.387  1.00  0.00     0.017 C 
BRANCH  13  18
ATOM     18  C   UNL A   1      32.693  21.677  23.398  1.00  0.00     0.219 C 
ATOM     19  C   UNL A   1      32.704  20.301  24.023  1.00  0.00     0.114 C 
ATOM     20  O   UNL A   1      31.873  21.930  22.516  1.00  0.00    -0.275 OA
ENDBRANCH  13  18
ENDBRANCH  10  12
ENDBRANCH   9  10
BRANCH   9  21
ATOM     21  C   UNL A   1      30.918  27.205  23.163  1.00  0.00     0.235 C 
BRANCH  21  22
ATOM     22  C   UNL A   1      30.336  28.614  22.962  1.00  0.00     0.406 C 
ATOM     23  F   UNL A   1      31.244  29.517  22.541  1.00  0.00    -0.169 F 
ATOM     24  F   UNL A   1      29.377  28.563  22.004  1.00  0.00    -0.169 F 
ATOM     25  F   UNL A   1      29.742  29.086  24.080  1.00  0.00    -0.169 F 
ENDBRANCH  21  22
ENDBRANCH   9  21
ENDBRANCH   8   9
ENDBRANCH   6   8
ENDBRANCH   5   6
ENDBRANCH   4   5
ENDBRANCH   3   4
ENDBRANCH   2   3
ENDBRANCH   1   2
BRANCH   1  26
ATOM     26  C   UNL A   1      36.361  33.750  29.273  1.00  0.00     0.188 C 
BRANCH  26  27
ATOM     27  O   UNL A   1      35.234  34.244  29.974  1.00  0.00    -0.376 OA
BRANCH  27  28
ATOM     28  C   UNL A   1      34.763  33.408  31.013  1.00  0.00     0.202 C 
BRANCH  28  29
ATOM     29  C   UNL A   1      35.913  32.632  31.661  1.00  0.00     0.261 C 
BRANCH  29  30
ATOM     30  O   UNL A   1      36.000  31.239  31.288  1.00  0.00    -0.460 OA
BRANCH  30  31
ATOM     31  C   UNL A   1      36.877  30.472  31.971  1.00  0.00     0.338 C 
ATOM     32  O   UNL A   1      36.598  29.642  32.833  1.00  0.00    -0.246 OA
BRANCH  31  33
ATOM     33  C   UNL A   1      38.220  30.612  31.363  1.00  0.00     0.060 A 
ATOM     34  C   UNL A   1      38.347  30.603  29.965  1.00  0.00     0.016 A 
ATOM     35  C   UNL A   1      39.357  30.719  32.165  1.00  0.00     0.016 A 
ATOM     36  C   UNL A   1      39.610  30.663  29.368  1.00  0.00     0.010 A 
ATOM     37  C   UNL A   1      40.621  30.757  31.566  1.00  0.00     0.010 A 
ATOM     38  C   UNL A   1      40.758  30.694  30.167  1.00  0.00    -0.014 A 
BRANCH  38  39
ATOM     39  C   UNL A   1      42.104  30.460  29.573  1.00  0.00     0.031 A 
ATOM     40  C   UNL A   1      42.491  29.045  29.230  1.00  0.00     0.074 A 
ATOM     41  C   UNL A   1      42.972  31.466  29.359  1.00  0.00     0.049 A 
ATOM     42  N   UNL A   1      43.650  28.560  28.867  1.00  0.00    -0.248 NA
ATOM     43  C   UNL A   1      41.420  28.040  29.321  1.00  0.00     0.031 C 
ATOM     44  C   UNL A   1      42.695  32.884  29.582  1.00  0.00     0.029 A 
ATOM     45  N   UNL A   1      44.275  31.443  28.923  1.00  0.00    -0.354 N 
ATOM     46  C   UNL A   1      43.456  27.190  28.715  1.00  0.00     0.074 A 
ATOM     47  C   UNL A   1      42.073  26.922  29.044  1.00  0.00     0.031 C 
ATOM     48  C   UNL A   1      43.805  33.592  29.308  1.00  0.00     0.029 A 
ATOM     49  C   UNL A   1      44.887  32.676  28.945  1.00  0.00     0.049 A 
ATOM     50  H   UNL A   1      44.729  30.622  28.622  1.00  0.00     0.167 HD
ATOM     51  C   UNL A   1      44.354  26.244  28.341  1.00  0.00     0.034 A 
ATOM     52  C   UNL A   1      46.177  33.019  28.745  1.00  0.00     0.034 A 
ATOM     53  C   UNL A   1      45.729  26.530  28.016  1.00  0.00     0.049 A 
ATOM     54  C   UNL A   1      47.181  31.937  28.413  1.00  0.00     0.074 A 
ATOM     55  C   UNL A   1      46.717  25.653  27.602  1.00  0.00     0.029 A 
ATOM     56  N   UNL A   1      46.318  27.787  28.078  1.00  0.00    -0.354 N 
ATOM     57  N   UNL A   1      46.991  30.643  28.280  1.00  0.00    -0.248 NA
ATOM     58  C   UNL A   1      48.572  32.361  28.201  1.00  0.00     0.031 C 
ATOM     59  C   UNL A   1      47.917  26.363  27.495  1.00  0.00     0.029 A 
ATOM     60  C   UNL A   1      47.662  27.701  27.749  1.00  0.00     0.049 A 
ATOM     61  H   UNL A   1      45.849  28.618  28.321  1.00  0.00     0.167 HD
ATOM     62  C   UNL A   1      48.233  30.109  27.935  1.00  0.00     0.074 A 
ATOM     63  C   UNL A   1      49.158  31.220  27.869  1.00  0.00     0.031 C 
ATOM     64  C   UNL A   1      48.576  28.818  27.691  1.00  0.00     0.034 A 
BRANCH  51  65
ATOM     65  C   UNL A   1      43.892  24.807  28.334  1.00  0.00     0.023 A 
ATOM     66  C   UNL A   1      43.540  24.140  27.147  1.00  0.00     0.031 A 
ATOM     67  C   UNL A   1      43.785  24.096  29.543  1.00  0.00     0.131 A 
ATOM     68  C   UNL A   1      43.038  22.830  27.203  1.00  0.00     0.055 A 
ATOM     69  C   UNL A   1      43.362  22.766  29.584  1.00  0.00     0.041 A 
ATOM     70  F   UNL A   1      44.082  24.688  30.711  1.00  0.00    -0.206 F 
ATOM     71  C   UNL A   1      42.972  22.130  28.411  1.00  0.00     0.022 A 
BRANCH  68  72
ATOM     72  S   UNL A   1      42.343  22.101  25.694  1.00  0.00     0.124 S 
ATOM     73  O   UNL A   1      40.911  22.321  25.894  1.00  0.00    -0.237 OA
ATOM     74  O   UNL A   1      42.970  22.892  24.643  1.00  0.00    -0.237 OA
ATOM     75  O   UNL A   1      42.766  20.704  25.762  1.00  0.00    -0.744 OA
ENDBRANCH  68  72
ENDBRANCH  51  65
BRANCH  52  76
ATOM     76  C   UNL A   1      46.625  34.434  28.919  1.00  0.00     0.023 A 
ATOM     77  C   UNL A   1      46.662  35.328  27.836  1.00  0.00     0.031 A 
ATOM     78  C   UNL A   1      47.093  34.893  30.164  1.00  0.00     0.131 A 
ATOM     79  C   UNL A   1      47.201  36.614  28.006  1.00  0.00     0.055 A 
ATOM     80  C   UNL A   1      47.569  36.194  30.343  1.00  0.00     0.041 A 
ATOM     81  F   UNL A   1      47.094  34.079  31.231  1.00  0.00    -0.206 F 
ATOM     82  C   UNL A   1      47.639  37.059  29.256  1.00  0.00     0.022 A 
BRANCH  79  83
ATOM     83  S   UNL A   1      47.423  37.664  26.542  1.00  0.00     0.124 S 
ATOM     84  O   UNL A   1      46.248  37.323  25.751  1.00  0.00    -0.237 OA
ATOM     85  O   UNL A   1      47.437  39.001  27.127  1.00  0.00    -0.237 OA
ATOM     86  O   UNL A   1      48.700  37.213  25.991  1.00  0.00    -0.744 OA
ENDBRANCH  79  83
ENDBRANCH  52  76
BRANCH  64  87
ATOM     87  C   UNL A   1      50.002  28.547  27.268  1.00  0.00     0.023 A 
ATOM     88  C   UNL A   1      50.426  28.690  25.936  1.00  0.00     0.031 A 
ATOM     89  C   UNL A   1      50.952  28.136  28.222  1.00  0.00     0.131 A 
ATOM     90  C   UNL A   1      51.747  28.370  25.584  1.00  0.00     0.055 A 
ATOM     91  C   UNL A   1      52.281  27.884  27.878  1.00  0.00     0.041 A 
ATOM     92  F   UNL A   1      50.605  27.979  29.510  1.00  0.00    -0.206 F 
ATOM     93  C   UNL A   1      52.682  27.987  26.550  1.00  0.00     0.022 A 
BRANCH  90  94
ATOM     94  S   UNL A   1      52.207  28.368  23.829  1.00  0.00     0.124 S 
ATOM     95  O   UNL A   1      51.011  28.918  23.202  1.00  0.00    -0.237 OA
ATOM     96  O   UNL A   1      53.388  29.226  23.815  1.00  0.00    -0.237 OA
ATOM     97  O   UNL A   1      52.465  26.957  23.544  1.00  0.00    -0.744 OA
ENDBRANCH  90  94
ENDBRANCH  64  87
ENDBRANCH  38  39
ENDBRANCH  31  33
ENDBRANCH  30  31
ENDBRANCH  29  30
ENDBRANCH  28  29
ENDBRANCH  27  28
ENDBRANCH  26  27
ENDBRANCH   1  26
TORSDOF 26
ENDMDL
MODEL 3
REMARK VINA RESULT:      -7.6      1.742      7.570
REMARK SMILES CC(=O)N1CCC[C@H](C(=O)N(CC(=O)OCCOCCOCCOC(=O)c2ccc(-c3c4nc(c(-c5cc(S(=O)(=O)[O-])ccc5F)c5ccc([nH]5)c(-c5cc(S(=O)(=O)[O-])ccc5F)c5nc(c(-c6cc(S(=O)(=O)[O-])ccc6F)c6ccc3[nH]6)C=C5)C=C4)cc2)CC(F)(F)F)C1
REMARK SMILES IDX 19 1 18 2 17 3 16 4 15 5 13 6 14 7 12 8 11 9 9 10 10 11 8 12
REMARK SMILES IDX 4 13 5 14 95 15 6 16 7 17 2 18 1 19 3 20 90 21 91 22 92 23
REMARK SMILES IDX 93 24 94 25 20 26 21 27 22 28 23 29 24 30 25 31 26 32 27 33
REMARK SMILES IDX 28 34 89 35 29 36 88 37 30 38 31 39 32 40 82 41 33 42 87 43
REMARK SMILES IDX 81 44 83 45 34 46 86 47 80 48 79 49 35 51 67 52 47 53 66 54
REMARK SMILES IDX 48 55 51 56 65 57 84 58 49 59 50 60 64 62 85 63 52 64 36 65
REMARK SMILES IDX 37 66 45 67 38 68 44 69 46 70 43 71 39 72 40 73 41 74 42 75
REMARK SMILES IDX 68 76 69 77 77 78 70 79 76 80 78 81 75 82 71 83 72 84 73 85
REMARK SMILES IDX 74 86 53 87 54 88 62 89 55 90 61 91 63 92 60 93 56 94 57 95
REMARK SMILES IDX 58 96 59 97
REMARK H PARENT 83 50 51 61
REMARK Flexibility Score: inf
ROOT
ATOM      1  C   UNL A   1      37.136  30.512  28.179  1.00  0.00     0.188 C 
ENDROOT
BRANCH   1   2
ATOM      2  O   UNL A   1      36.055  30.188  27.310  1.00  0.00    -0.376 OA
BRANCH   2   3
ATOM      3  C   UNL A   1      35.579  28.853  27.229  1.00  0.00     0.202 C 
BRANCH   3   4
ATOM      4  C   UNL A   1      34.072  28.678  26.993  1.00  0.00     0.261 C 
BRANCH   4   5
ATOM      5  O   UNL A   1      33.420  29.760  26.284  1.00  0.00    -0.462 OA
BRANCH   5   6
ATOM      6  C   UNL A   1      32.062  29.710  26.289  1.00  0.00     0.325 C 
ATOM      7  O   UNL A   1      31.399  29.433  27.284  1.00  0.00    -0.250 OA
BRANCH   6   8
ATOM      8  C   UNL A   1      31.369  30.088  24.963  1.00  0.00     0.242 C 
BRANCH   8   9
ATOM      9  N   UNL A   1      30.572  29.259  24.031  1.00  0.00    -0.322 N 
BRANCH   9  10
ATOM     10  C   UNL A   1      30.604  27.879  23.894  1.00  0.00     0.228 C 
ATOM     11  O   UNL A   1      29.984  27.192  24.721  1.00  0.00    -0.274 OA
BRANCH  10  12
ATOM     12  C   UNL A   1      31.384  27.091  22.832  1.00  0.00     0.098 C 
ATOM     13  N   UNL A   1      32.361  25.008  23.758  1.00  0.00    -0.342 N 
ATOM     14  C   UNL A   1      33.725  25.383  23.376  1.00  0.00     0.119 C 
ATOM     15  C   UNL A   1      31.296  25.571  22.943  1.00  0.00     0.132 C 
ATOM     16  C   UNL A   1      33.930  26.875  23.104  1.00  0.00     0.022 C 
ATOM     17  C   UNL A   1      32.765  27.609  22.460  1.00  0.00     0.017 C 
BRANCH  13  18
ATOM     18  C   UNL A   1      32.180  24.103  24.801  1.00  0.00     0.219 C 
ATOM     19  C   UNL A   1      30.976  23.189  24.781  1.00  0.00     0.114 C 
ATOM     20  O   UNL A   1      32.969  24.036  25.744  1.00  0.00    -0.275 OA
ENDBRANCH  13  18
ENDBRANCH  10  12
ENDBRANCH   9  10
BRANCH   9  21
ATOM     21  C   UNL A   1      29.328  29.885  23.500  1.00  0.00     0.235 C 
BRANCH  21  22
ATOM     22  C   UNL A   1      29.305  30.322  22.025  1.00  0.00     0.406 C 
ATOM     23  F   UNL A   1      30.407  29.961  21.339  1.00  0.00    -0.169 F 
ATOM     24  F   UNL A   1      28.256  29.727  21.405  1.00  0.00    -0.169 F 
ATOM     25  F   UNL A   1      29.129  31.655  21.891  1.00  0.00    -0.169 F 
ENDBRANCH  21  22
ENDBRANCH   9  21
ENDBRANCH   8   9
ENDBRANCH   6   8
ENDBRANCH   5   6
ENDBRANCH   4   5
ENDBRANCH   3   4
ENDBRANCH   2   3
ENDBRANCH   1   2
BRANCH   1  26
ATOM     26  C   UNL A   1      36.836  31.043  29.582  1.00  0.00     0.188 C 
BRANCH  26  27
ATOM     27  O   UNL A   1      36.215  32.315  29.541  1.00  0.00    -0.376 OA
BRANCH  27  28
ATOM     28  C   UNL A   1      34.890  32.349  30.035  1.00  0.00     0.202 C 
BRANCH  28  29
ATOM     29  C   UNL A   1      34.817  33.100  31.367  1.00  0.00     0.261 C 
BRANCH  29  30
ATOM     30  O   UNL A   1      34.979  32.279  32.544  1.00  0.00    -0.460 OA
BRANCH  30  31
ATOM     31  C   UNL A   1      35.940  32.641  33.420  1.00  0.00     0.338 C 
ATOM     32  O   UNL A   1      35.768  33.229  34.486  1.00  0.00    -0.246 OA
BRANCH  31  33
ATOM     33  C   UNL A   1      37.222  32.017  33.019  1.00  0.00     0.060 A 
ATOM     34  C   UNL A   1      37.427  30.650  33.262  1.00  0.00     0.016 A 
ATOM     35  C   UNL A   1      38.233  32.780  32.434  1.00  0.00     0.016 A 
ATOM     36  C   UNL A   1      38.655  30.052  32.958  1.00  0.00     0.010 A 
ATOM     37  C   UNL A   1      39.467  32.186  32.149  1.00  0.00     0.010 A 
ATOM     38  C   UNL A   1      39.698  30.828  32.440  1.00  0.00    -0.014 A 
BRANCH  38  39
ATOM     39  C   UNL A   1      41.087  30.294  32.386  1.00  0.00     0.031 A 
ATOM     40  C   UNL A   1      41.453  29.381  31.244  1.00  0.00     0.074 A 
ATOM     41  C   UNL A   1      42.000  30.591  33.329  1.00  0.00     0.049 A 
ATOM     42  N   UNL A   1      42.528  28.659  31.062  1.00  0.00    -0.248 NA
ATOM     43  C   UNL A   1      40.458  29.263  30.166  1.00  0.00     0.031 C 
ATOM     44  C   UNL A   1      41.796  31.513  34.444  1.00  0.00     0.029 A 
ATOM     45  N   UNL A   1      43.281  30.125  33.509  1.00  0.00    -0.354 N 
ATOM     46  C   UNL A   1      42.327  27.977  29.866  1.00  0.00     0.074 A 
ATOM     47  C   UNL A   1      41.020  28.360  29.377  1.00  0.00     0.031 C 
ATOM     48  C   UNL A   1      42.903  31.524  35.208  1.00  0.00     0.029 A 
ATOM     49  C   UNL A   1      43.872  30.570  34.670  1.00  0.00     0.049 A 
ATOM     50  H   UNL A   1      43.734  29.530  32.868  1.00  0.00     0.167 HD
ATOM     51  C   UNL A   1      43.157  27.107  29.237  1.00  0.00     0.034 A 
ATOM     52  C   UNL A   1      45.035  30.212  35.255  1.00  0.00     0.034 A 
ATOM     53  C   UNL A   1      44.458  26.738  29.739  1.00  0.00     0.049 A 
ATOM     54  C   UNL A   1      45.907  29.176  34.582  1.00  0.00     0.074 A 
ATOM     55  C   UNL A   1      45.389  25.886  29.172  1.00  0.00     0.029 A 
ATOM     56  N   UNL A   1      45.009  27.188  30.933  1.00  0.00    -0.354 N 
ATOM     57  N   UNL A   1      45.706  28.529  33.455  1.00  0.00    -0.248 NA
ATOM     58  C   UNL A   1      47.164  28.822  35.256  1.00  0.00     0.031 C 
ATOM     59  C   UNL A   1      46.463  25.757  30.058  1.00  0.00     0.029 A 
ATOM     60  C   UNL A   1      46.248  26.601  31.137  1.00  0.00     0.049 A 
ATOM     61  H   UNL A   1      44.581  27.829  31.545  1.00  0.00     0.167 HD
ATOM     62  C   UNL A   1      46.829  27.722  33.273  1.00  0.00     0.074 A 
ATOM     63  C   UNL A   1      47.706  27.971  34.397  1.00  0.00     0.031 C 
ATOM     64  C   UNL A   1      47.112  26.855  32.266  1.00  0.00     0.034 A 
BRANCH  51  65
ATOM     65  C   UNL A   1      42.651  26.445  27.978  1.00  0.00     0.023 A 
ATOM     66  C   UNL A   1      42.048  25.176  27.989  1.00  0.00     0.031 A 
ATOM     67  C   UNL A   1      42.793  27.094  26.737  1.00  0.00     0.131 A 
ATOM     68  C   UNL A   1      41.670  24.569  26.781  1.00  0.00     0.055 A 
ATOM     69  C   UNL A   1      42.342  26.520  25.548  1.00  0.00     0.041 A 
ATOM     70  F   UNL A   1      43.385  28.296  26.659  1.00  0.00    -0.206 F 
ATOM     71  C   UNL A   1      41.789  25.244  25.563  1.00  0.00     0.022 A 
BRANCH  68  72
ATOM     72  S   UNL A   1      41.149  22.832  26.807  1.00  0.00     0.124 S 
ATOM     73  O   UNL A   1      42.037  22.243  25.806  1.00  0.00    -0.237 OA
ATOM     74  O   UNL A   1      41.401  22.446  28.190  1.00  0.00    -0.237 OA
ATOM     75  O   UNL A   1      39.740  22.890  26.422  1.00  0.00    -0.744 OA
ENDBRANCH  68  72
ENDBRANCH  51  65
BRANCH  52  76
ATOM     76  C   UNL A   1      45.424  30.774  36.584  1.00  0.00     0.023 A 
ATOM     77  C   UNL A   1      46.158  31.967  36.687  1.00  0.00     0.031 A 
ATOM     78  C   UNL A   1      45.126  30.084  37.774  1.00  0.00     0.131 A 
ATOM     79  C   UNL A   1      46.611  32.406  37.942  1.00  0.00     0.055 A 
ATOM     80  C   UNL A   1      45.525  30.557  39.025  1.00  0.00     0.041 A 
ATOM     81  F   UNL A   1      44.439  28.931  37.736  1.00  0.00    -0.206 F 
ATOM     82  C   UNL A   1      46.285  31.719  39.113  1.00  0.00     0.022 A 
BRANCH  79  83
ATOM     83  S   UNL A   1      47.730  33.834  38.012  1.00  0.00     0.124 S 
ATOM     84  O   UNL A   1      47.596  34.381  36.668  1.00  0.00    -0.237 OA
ATOM     85  O   UNL A   1      47.145  34.626  39.088  1.00  0.00    -0.237 OA
ATOM     86  O   UNL A   1      49.028  33.235  38.316  1.00  0.00    -0.744 OA
ENDBRANCH  79  83
ENDBRANCH  52  76
BRANCH  64  87
ATOM     87  C   UNL A   1      48.453  26.160  32.304  1.00  0.00     0.023 A 
ATOM     88  C   UNL A   1      48.636  24.926  32.952  1.00  0.00     0.031 A 
ATOM     89  C   UNL A   1      49.569  26.750  31.682  1.00  0.00     0.131 A 
ATOM     90  C   UNL A   1      49.915  24.349  33.010  1.00  0.00     0.055 A 
ATOM     91  C   UNL A   1      50.824  26.138  31.685  1.00  0.00     0.041 A 
ATOM     92  F   UNL A   1      49.456  27.929  31.050  1.00  0.00    -0.206 F 
ATOM     93  C   UNL A   1      51.005  24.937  32.364  1.00  0.00     0.022 A 
BRANCH  90  94
ATOM     94  S   UNL A   1      50.157  22.864  34.024  1.00  0.00     0.124 S 
ATOM     95  O   UNL A   1      48.793  22.552  34.435  1.00  0.00    -0.237 OA
ATOM     96  O   UNL A   1      50.767  21.936  33.077  1.00  0.00    -0.237 OA
ATOM     97  O   UNL A   1      51.040  23.321  35.096  1.00  0.00    -0.744 OA
ENDBRANCH  90  94
ENDBRANCH  64  87
ENDBRANCH  38  39
ENDBRANCH  31  33
ENDBRANCH  30  31
ENDBRANCH  29  30
ENDBRANCH  28  29
ENDBRANCH  27  28
ENDBRANCH  26  27
ENDBRANCH   1  26
TORSDOF 26
ENDMDL
