MODEL 1
REMARK VINA RESULT:      -7.8      0.000      0.000
REMARK SMILES CC(C)[C@H](NC(=O)Cc1csc(-c2c(Cl)cccc2Cl)n1)C(=O)OCCOCCOCCOC(=O)c1ccc(-c2c3nc(c(-c4cc(S(=O)(=O)[O-])ccc4F)c4ccc([nH]4)c(-c4cc(S(=O)(=O)[O-])ccc4F)c4nc(c(-c5cc(S(=O)(=O)[O-])ccc5F)c5ccc2[nH]5)C=C4)C=C3)cc1
REMARK SMILES IDX 28 1 27 2 26 3 25 4 24 5 22 6 23 7 4 8 2 9 1 10 3 11 5 12
REMARK SMILES IDX 6 13 7 15 8 16 9 17 10 18 21 19 11 20 12 21 13 22 14 23
REMARK SMILES IDX 19 24 15 25 16 26 18 27 20 28 17 29 29 30 30 31 31 32 32 33
REMARK SMILES IDX 33 34 34 35 35 36 36 37 37 38 98 39 38 40 97 41 39 42 40 43
REMARK SMILES IDX 41 44 91 45 42 46 96 47 90 48 92 49 43 50 95 51 89 52 88 53
REMARK SMILES IDX 44 55 76 56 56 57 75 58 57 59 60 60 74 61 93 62 58 63 59 64
REMARK SMILES IDX 73 66 94 67 61 68 45 69 46 70 54 71 47 72 53 73 55 74 52 75
REMARK SMILES IDX 48 76 49 77 50 78 51 79 77 80 78 81 86 82 79 83 85 84 87 85
REMARK SMILES IDX 84 86 80 87 81 88 82 89 83 90 62 91 63 92 71 93 64 94 70 95
REMARK SMILES IDX 72 96 69 97 65 98 66 99 67 100 68 101
REMARK H PARENT 5 14 92 54 60 65
REMARK Flexibility Score: inf
ROOT
ATOM      1  C   UNL A   1      39.946  23.877  27.140  1.00  0.00     0.188 C 
ENDROOT
BRANCH   1   2
ATOM      2  O   UNL A   1      40.104  24.906  28.295  1.00  0.00    -0.376 OA
BRANCH   2   3
ATOM      3  C   UNL A   1      39.661  26.812  28.896  1.00  0.00     0.202 C 
BRANCH   3   4
ATOM      4  C   UNL A   1      38.842  27.340  30.431  1.00  0.00     0.261 C 
BRANCH   4   5
ATOM      5  O   UNL A   1      39.662  28.141  31.379  1.00  0.00    -0.462 OA
BRANCH   5   6
ATOM      6  C   UNL A   1      39.278  28.336  32.677  1.00  0.00     0.328 C 
ATOM      7  O   UNL A   1      38.251  27.855  33.141  1.00  0.00    -0.250 OA
BRANCH   6   8
ATOM      8  C   UNL A   1      40.326  29.158  33.558  1.00  0.00     0.194 C 
BRANCH   8   9
ATOM      9  C   UNL A   1      41.745  28.535  33.564  1.00  0.00     0.017 C 
ATOM     10  C   UNL A   1      42.726  29.286  32.636  1.00  0.00     0.010 C 
ATOM     11  C   UNL A   1      42.338  28.460  34.966  1.00  0.00     0.010 C 
ENDBRANCH   8   9
BRANCH   8  12
ATOM     12  N   UNL A   1      40.010  29.735  34.879  1.00  0.00    -0.342 N 
ATOM     13  C   UNL A   1      39.027  30.632  35.170  1.00  0.00     0.226 C 
ATOM     14  H   UNL A   1      40.571  29.439  35.633  1.00  0.00     0.164 HD
ATOM     15  O   UNL A   1      38.069  30.277  35.858  1.00  0.00    -0.275 OA
BRANCH  13  16
ATOM     16  C   UNL A   1      39.190  32.037  34.669  1.00  0.00     0.157 C 
BRANCH  16  17
ATOM     17  C   UNL A   1      39.454  32.138  33.180  1.00  0.00     0.061 A 
ATOM     18  C   UNL A   1      40.957  32.443  32.219  1.00  0.00     0.091 A 
ATOM     19  N   UNL A   1      38.056  31.552  32.050  1.00  0.00    -0.240 NA
ATOM     20  S   UNL A   1      40.598  31.960  29.992  1.00  0.00    -0.122 S 
ATOM     21  C   UNL A   1      38.417  31.391  30.465  1.00  0.00     0.126 A 
BRANCH  21  22
ATOM     22  C   UNL A   1      37.607  31.320  29.213  1.00  0.00     0.048 A 
ATOM     23  C   UNL A   1      37.418  30.107  28.525  1.00  0.00     0.052 A 
ATOM     24  C   UNL A   1      36.760  32.363  28.833  1.00  0.00     0.052 A 
ATOM     25  Cl  UNL A   1      38.703  29.624  27.425  1.00  0.00    -0.084 Cl
ATOM     26  C   UNL A   1      36.199  29.802  27.896  1.00  0.00     0.021 A 
ATOM     27  C   UNL A   1      35.678  32.135  27.964  1.00  0.00     0.021 A 
ATOM     28  Cl  UNL A   1      37.038  33.987  29.353  1.00  0.00    -0.084 Cl
ATOM     29  C   UNL A   1      35.344  30.841  27.569  1.00  0.00     0.003 A 
ENDBRANCH  21  22
ENDBRANCH  16  17
ENDBRANCH  13  16
ENDBRANCH   8  12
ENDBRANCH   6   8
ENDBRANCH   5   6
ENDBRANCH   4   5
ENDBRANCH   3   4
ENDBRANCH   2   3
ENDBRANCH   1   2
BRANCH   1  30
ATOM     30  C   UNL A   1      40.182  22.370  27.337  1.00  0.00     0.188 C 
BRANCH  30  31
ATOM     31  O   UNL A   1      40.204  21.490  26.255  1.00  0.00    -0.376 OA
BRANCH  31  32
ATOM     32  C   UNL A   1      41.055  20.361  26.210  1.00  0.00     0.202 C 
BRANCH  32  33
ATOM     33  C   UNL A   1      42.566  20.376  25.955  1.00  0.00     0.261 C 
BRANCH  33  34
ATOM     34  O   UNL A   1      43.337  21.505  26.381  1.00  0.00    -0.460 OA
BRANCH  34  35
ATOM     35  C   UNL A   1      43.705  22.374  25.408  1.00  0.00     0.338 C 
ATOM     36  O   UNL A   1      43.455  22.272  24.221  1.00  0.00    -0.246 OA
BRANCH  35  37
ATOM     37  C   UNL A   1      44.117  23.639  26.082  1.00  0.00     0.060 A 
ATOM     38  C   UNL A   1      45.481  23.776  26.392  1.00  0.00     0.016 A 
ATOM     39  C   UNL A   1      43.243  24.710  26.296  1.00  0.00     0.016 A 
ATOM     40  C   UNL A   1      45.958  24.937  26.989  1.00  0.00     0.010 A 
ATOM     41  C   UNL A   1      43.711  25.863  26.944  1.00  0.00     0.010 A 
ATOM     42  C   UNL A   1      45.056  25.940  27.361  1.00  0.00    -0.014 A 
BRANCH  42  43
ATOM     43  C   UNL A   1      45.445  26.765  28.536  1.00  0.00     0.031 A 
ATOM     44  C   UNL A   1      45.745  28.220  28.251  1.00  0.00     0.074 A 
ATOM     45  C   UNL A   1      45.389  26.313  29.801  1.00  0.00     0.049 A 
ATOM     46  N   UNL A   1      45.985  29.205  29.076  1.00  0.00    -0.248 NA
ATOM     47  C   UNL A   1      45.767  28.613  26.832  1.00  0.00     0.031 C 
ATOM     48  C   UNL A   1      45.054  24.948  30.204  1.00  0.00     0.029 A 
ATOM     49  N   UNL A   1      45.594  26.973  30.988  1.00  0.00    -0.354 N 
ATOM     50  C   UNL A   1      46.172  30.327  28.272  1.00  0.00     0.074 A 
ATOM     51  C   UNL A   1      46.083  29.893  26.900  1.00  0.00     0.031 C 
ATOM     52  C   UNL A   1      45.074  24.874  31.548  1.00  0.00     0.029 A 
ATOM     53  C   UNL A   1      45.434  26.180  32.101  1.00  0.00     0.049 A 
ATOM     54  H   UNL A   1      45.834  27.926  31.036  1.00  0.00     0.167 HD
ATOM     55  C   UNL A   1      46.373  31.615  28.640  1.00  0.00     0.034 A 
ATOM     56  C   UNL A   1      45.567  26.483  33.410  1.00  0.00     0.034 A 
ATOM     57  C   UNL A   1      46.478  32.036  30.011  1.00  0.00     0.049 A 
ATOM     58  C   UNL A   1      45.887  27.911  33.798  1.00  0.00     0.074 A 
ATOM     59  C   UNL A   1      46.697  33.306  30.508  1.00  0.00     0.029 A 
ATOM     60  N   UNL A   1      46.384  31.188  31.107  1.00  0.00    -0.354 N 
ATOM     61  N   UNL A   1      46.047  28.965  33.029  1.00  0.00    -0.248 NA
ATOM     62  C   UNL A   1      46.025  28.190  35.233  1.00  0.00     0.031 C 
ATOM     63  C   UNL A   1      46.812  33.215  31.899  1.00  0.00     0.029 A 
ATOM     64  C   UNL A   1      46.576  31.902  32.277  1.00  0.00     0.049 A 
ATOM     65  H   UNL A   1      46.207  30.221  31.058  1.00  0.00     0.167 HD
ATOM     66  C   UNL A   1      46.272  30.037  33.892  1.00  0.00     0.074 A 
ATOM     67  C   UNL A   1      46.200  29.503  35.237  1.00  0.00     0.031 C 
ATOM     68  C   UNL A   1      46.515  31.344  33.607  1.00  0.00     0.034 A 
BRANCH  55  69
ATOM     69  C   UNL A   1      46.552  32.625  27.532  1.00  0.00     0.023 A 
ATOM     70  C   UNL A   1      47.824  32.969  27.037  1.00  0.00     0.031 A 
ATOM     71  C   UNL A   1      45.439  33.304  27.009  1.00  0.00     0.131 A 
ATOM     72  C   UNL A   1      47.957  34.016  26.112  1.00  0.00     0.055 A 
ATOM     73  C   UNL A   1      45.570  34.284  26.024  1.00  0.00     0.041 A 
ATOM     74  F   UNL A   1      44.204  33.045  27.467  1.00  0.00    -0.206 F 
ATOM     75  C   UNL A   1      46.836  34.656  25.581  1.00  0.00     0.022 A 
BRANCH  72  76
ATOM     76  S   UNL A   1      49.619  34.635  25.730  1.00  0.00     0.124 S 
ATOM     77  O   UNL A   1      50.103  35.011  27.057  1.00  0.00    -0.237 OA
ATOM     78  O   UNL A   1      50.256  33.474  25.121  1.00  0.00    -0.237 OA
ATOM     79  O   UNL A   1      49.367  35.756  24.825  1.00  0.00    -0.744 OA
ENDBRANCH  72  76
ENDBRANCH  55  69
BRANCH  56  80
ATOM     80  C   UNL A   1      45.426  25.427  34.460  1.00  0.00     0.023 A 
ATOM     81  C   UNL A   1      46.548  24.815  35.044  1.00  0.00     0.031 A 
ATOM     82  C   UNL A   1      44.155  24.960  34.838  1.00  0.00     0.131 A 
ATOM     83  C   UNL A   1      46.379  23.739  35.932  1.00  0.00     0.055 A 
ATOM     84  C   UNL A   1      43.990  23.925  35.763  1.00  0.00     0.041 A 
ATOM     85  F   UNL A   1      43.046  25.501  34.309  1.00  0.00    -0.206 F 
ATOM     86  C   UNL A   1      45.108  23.300  36.305  1.00  0.00     0.022 A 
BRANCH  83  87
ATOM     87  S   UNL A   1      47.850  22.855  36.524  1.00  0.00     0.124 S 
ATOM     88  O   UNL A   1      47.316  22.119  37.664  1.00  0.00    -0.237 OA
ATOM     89  O   UNL A   1      48.214  22.058  35.358  1.00  0.00    -0.237 OA
ATOM     90  O   UNL A   1      48.782  23.931  36.857  1.00  0.00    -0.744 OA
ENDBRANCH  83  87
ENDBRANCH  56  80
BRANCH  68  91
ATOM     91  C   UNL A   1      46.682  32.282  34.779  1.00  0.00     0.023 A 
ATOM     92  C   UNL A   1      47.944  32.543  35.342  1.00  0.00     0.031 A 
ATOM     93  C   UNL A   1      45.561  32.907  35.356  1.00  0.00     0.131 A 
ATOM     94  C   UNL A   1      48.045  33.336  36.494  1.00  0.00     0.055 A 
ATOM     95  C   UNL A   1      45.677  33.757  36.456  1.00  0.00     0.041 A 
ATOM     96  F   UNL A   1      44.331  32.698  34.860  1.00  0.00    -0.206 F 
ATOM     97  C   UNL A   1      46.922  33.961  37.044  1.00  0.00     0.022 A 
BRANCH  94  98
ATOM     98  S   UNL A   1      49.645  33.430  37.343  1.00  0.00     0.124 S 
ATOM     99  O   UNL A   1      50.432  34.233  36.414  1.00  0.00    -0.237 OA
ATOM    100  O   UNL A   1      49.291  34.079  38.602  1.00  0.00    -0.237 OA
ATOM    101  O   UNL A   1      50.054  32.032  37.459  1.00  0.00    -0.744 OA
ENDBRANCH  94  98
ENDBRANCH  68  91
ENDBRANCH  42  43
ENDBRANCH  35  37
ENDBRANCH  34  35
ENDBRANCH  33  34
ENDBRANCH  32  33
ENDBRANCH  31  32
ENDBRANCH  30  31
ENDBRANCH   1  30
TORSDOF 25
ENDMDL
MODEL 2
REMARK VINA RESULT:      -7.7      7.724     14.887
REMARK SMILES CC(C)[C@H](NC(=O)Cc1csc(-c2c(Cl)cccc2Cl)n1)C(=O)OCCOCCOCCOC(=O)c1ccc(-c2c3nc(c(-c4cc(S(=O)(=O)[O-])ccc4F)c4ccc([nH]4)c(-c4cc(S(=O)(=O)[O-])ccc4F)c4nc(c(-c5cc(S(=O)(=O)[O-])ccc5F)c5ccc2[nH]5)C=C4)C=C3)cc1
REMARK SMILES IDX 28 1 27 2 26 3 25 4 24 5 22 6 23 7 4 8 2 9 1 10 3 11 5 12
REMARK SMILES IDX 6 13 7 15 8 16 9 17 10 18 21 19 11 20 12 21 13 22 14 23
REMARK SMILES IDX 19 24 15 25 16 26 18 27 20 28 17 29 29 30 30 31 31 32 32 33
REMARK SMILES IDX 33 34 34 35 35 36 36 37 37 38 98 39 38 40 97 41 39 42 40 43
REMARK SMILES IDX 41 44 91 45 42 46 96 47 90 48 92 49 43 50 95 51 89 52 88 53
REMARK SMILES IDX 44 55 76 56 56 57 75 58 57 59 60 60 74 61 93 62 58 63 59 64
REMARK SMILES IDX 73 66 94 67 61 68 45 69 46 70 54 71 47 72 53 73 55 74 52 75
REMARK SMILES IDX 48 76 49 77 50 78 51 79 77 80 78 81 86 82 79 83 85 84 87 85
REMARK SMILES IDX 84 86 80 87 81 88 82 89 83 90 62 91 63 92 71 93 64 94 70 95
REMARK SMILES IDX 72 96 69 97 65 98 66 99 67 100 68 101
REMARK H PARENT 5 14 92 54 60 65
REMARK Flexibility Score: inf
ROOT
ATOM      1  C   UNL A   1      52.326  43.323  28.435  1.00  0.00     0.188 C 
ENDROOT
BRANCH   1   2
ATOM      2  O   UNL A   1      51.521  44.640  28.251  1.00  0.00    -0.376 OA
BRANCH   2   3
ATOM      3  C   UNL A   1      49.824  45.453  27.448  1.00  0.00     0.202 C 
BRANCH   3   4
ATOM      4  C   UNL A   1      48.213  44.650  27.184  1.00  0.00     0.261 C 
BRANCH   4   5
ATOM      5  O   UNL A   1      48.136  43.197  27.496  1.00  0.00    -0.462 OA
BRANCH   5   6
ATOM      6  C   UNL A   1      47.051  42.651  28.122  1.00  0.00     0.328 C 
ATOM      7  O   UNL A   1      46.214  43.330  28.705  1.00  0.00    -0.250 OA
BRANCH   6   8
ATOM      8  C   UNL A   1      46.915  41.069  27.946  1.00  0.00     0.194 C 
BRANCH   8   9
ATOM      9  C   UNL A   1      48.115  40.281  28.531  1.00  0.00     0.017 C 
ATOM     10  C   UNL A   1      49.003  39.652  27.434  1.00  0.00     0.010 C 
ATOM     11  C   UNL A   1      48.980  41.141  29.446  1.00  0.00     0.010 C 
ENDBRANCH   8   9
BRANCH   8  12
ATOM     12  N   UNL A   1      46.423  40.421  26.715  1.00  0.00    -0.342 N 
ATOM     13  C   UNL A   1      45.130  40.328  26.298  1.00  0.00     0.226 C 
ATOM     14  H   UNL A   1      47.103  40.013  26.133  1.00  0.00     0.164 HD
ATOM     15  O   UNL A   1      44.771  40.948  25.297  1.00  0.00    -0.275 OA
BRANCH  13  16
ATOM     16  C   UNL A   1      44.209  39.422  27.063  1.00  0.00     0.157 C 
BRANCH  16  17
ATOM     17  C   UNL A   1      43.255  40.149  27.991  1.00  0.00     0.061 A 
ATOM     18  C   UNL A   1      41.454  40.313  28.013  1.00  0.00     0.091 A 
ATOM     19  N   UNL A   1      43.996  40.773  29.615  1.00  0.00    -0.240 NA
ATOM     20  S   UNL A   1      40.752  41.183  30.032  1.00  0.00    -0.122 S 
ATOM     21  C   UNL A   1      42.940  41.307  30.741  1.00  0.00     0.126 A 
BRANCH  21  22
ATOM     22  C   UNL A   1      43.055  42.177  31.949  1.00  0.00     0.048 A 
ATOM     23  C   UNL A   1      43.268  43.563  31.841  1.00  0.00     0.052 A 
ATOM     24  C   UNL A   1      42.661  41.727  33.211  1.00  0.00     0.052 A 
ATOM     25  Cl  UNL A   1      44.934  44.083  31.615  1.00  0.00    -0.084 Cl
ATOM     26  C   UNL A   1      42.670  44.470  32.732  1.00  0.00     0.021 A 
ATOM     27  C   UNL A   1      42.320  42.638  34.228  1.00  0.00     0.021 A 
ATOM     28  Cl  UNL A   1      42.639  40.045  33.605  1.00  0.00    -0.084 Cl
ATOM     29  C   UNL A   1      42.238  44.003  33.961  1.00  0.00     0.003 A 
ENDBRANCH  21  22
ENDBRANCH  16  17
ENDBRANCH  13  16
ENDBRANCH   8  12
ENDBRANCH   6   8
ENDBRANCH   5   6
ENDBRANCH   4   5
ENDBRANCH   3   4
ENDBRANCH   2   3
ENDBRANCH   1   2
BRANCH   1  30
ATOM     30  C   UNL A   1      52.850  42.857  29.804  1.00  0.00     0.188 C 
BRANCH  30  31
ATOM     31  O   UNL A   1      52.265  43.291  30.993  1.00  0.00    -0.376 OA
BRANCH  31  32
ATOM     32  C   UNL A   1      52.590  42.730  32.250  1.00  0.00     0.202 C 
BRANCH  32  33
ATOM     33  C   UNL A   1      51.636  41.960  33.170  1.00  0.00     0.261 C 
BRANCH  33  34
ATOM     34  O   UNL A   1      50.416  41.436  32.634  1.00  0.00    -0.460 OA
BRANCH  34  35
ATOM     35  C   UNL A   1      49.299  42.164  32.880  1.00  0.00     0.338 C 
ATOM     36  O   UNL A   1      49.092  43.308  32.518  1.00  0.00    -0.246 OA
BRANCH  35  37
ATOM     37  C   UNL A   1      48.242  41.209  33.321  1.00  0.00     0.060 A 
ATOM     38  C   UNL A   1      48.638  39.876  33.528  1.00  0.00     0.016 A 
ATOM     39  C   UNL A   1      46.940  41.607  33.644  1.00  0.00     0.016 A 
ATOM     40  C   UNL A   1      47.726  38.927  33.974  1.00  0.00     0.010 A 
ATOM     41  C   UNL A   1      46.005  40.642  34.046  1.00  0.00     0.010 A 
ATOM     42  C   UNL A   1      46.383  39.287  34.133  1.00  0.00    -0.014 A 
BRANCH  42  43
ATOM     43  C   UNL A   1      45.388  38.201  33.923  1.00  0.00     0.031 A 
ATOM     44  C   UNL A   1      44.590  37.791  35.141  1.00  0.00     0.074 A 
ATOM     45  C   UNL A   1      45.085  37.708  32.709  1.00  0.00     0.049 A 
ATOM     46  N   UNL A   1      43.576  36.974  35.245  1.00  0.00    -0.248 NA
ATOM     47  C   UNL A   1      44.995  38.402  36.419  1.00  0.00     0.031 C 
ATOM     48  C   UNL A   1      45.743  38.069  31.455  1.00  0.00     0.029 A 
ATOM     49  N   UNL A   1      44.120  36.805  32.335  1.00  0.00    -0.354 N 
ATOM     50  C   UNL A   1      43.222  36.987  36.592  1.00  0.00     0.074 A 
ATOM     51  C   UNL A   1      44.164  37.839  37.275  1.00  0.00     0.031 C 
ATOM     52  C   UNL A   1      45.157  37.395  30.447  1.00  0.00     0.029 A 
ATOM     53  C   UNL A   1      44.093  36.546  30.985  1.00  0.00     0.049 A 
ATOM     54  H   UNL A   1      43.504  36.383  32.976  1.00  0.00     0.167 HD
ATOM     55  C   UNL A   1      42.187  36.369  37.208  1.00  0.00     0.034 A 
ATOM     56  C   UNL A   1      43.299  35.716  30.274  1.00  0.00     0.034 A 
ATOM     57  C   UNL A   1      41.263  35.507  36.521  1.00  0.00     0.049 A 
ATOM     58  C   UNL A   1      42.207  34.958  30.997  1.00  0.00     0.074 A 
ATOM     59  C   UNL A   1      40.186  34.812  37.038  1.00  0.00     0.029 A 
ATOM     60  N   UNL A   1      41.316  35.212  35.165  1.00  0.00    -0.354 N 
ATOM     61  N   UNL A   1      41.873  34.991  32.269  1.00  0.00    -0.248 NA
ATOM     62  C   UNL A   1      41.371  34.066  30.183  1.00  0.00     0.031 C 
ATOM     63  C   UNL A   1      39.636  34.038  36.011  1.00  0.00     0.029 A 
ATOM     64  C   UNL A   1      40.313  34.318  34.834  1.00  0.00     0.049 A 
ATOM     65  H   UNL A   1      41.972  35.585  34.533  1.00  0.00     0.167 HD
ATOM     66  C   UNL A   1      40.769  34.149  32.397  1.00  0.00     0.074 A 
ATOM     67  C   UNL A   1      40.481  33.646  31.069  1.00  0.00     0.031 C 
ATOM     68  C   UNL A   1      40.054  33.818  33.505  1.00  0.00     0.034 A 
BRANCH  55  69
ATOM     69  C   UNL A   1      42.059  36.564  38.700  1.00  0.00     0.023 A 
ATOM     70  C   UNL A   1      41.320  37.628  39.250  1.00  0.00     0.031 A 
ATOM     71  C   UNL A   1      42.742  35.712  39.584  1.00  0.00     0.131 A 
ATOM     72  C   UNL A   1      41.347  37.858  40.634  1.00  0.00     0.055 A 
ATOM     73  C   UNL A   1      42.693  35.895  40.967  1.00  0.00     0.041 A 
ATOM     74  F   UNL A   1      43.492  34.701  39.117  1.00  0.00    -0.206 F 
ATOM     75  C   UNL A   1      42.005  36.982  41.499  1.00  0.00     0.022 A 
BRANCH  72  76
ATOM     76  S   UNL A   1      40.644  39.403  41.274  1.00  0.00     0.124 S 
ATOM     77  O   UNL A   1      40.755  40.279  40.109  1.00  0.00    -0.237 OA
ATOM     78  O   UNL A   1      39.293  39.004  41.649  1.00  0.00    -0.237 OA
ATOM     79  O   UNL A   1      41.526  39.746  42.388  1.00  0.00    -0.744 OA
ENDBRANCH  72  76
ENDBRANCH  55  69
BRANCH  56  80
ATOM     80  C   UNL A   1      43.506  35.526  28.805  1.00  0.00     0.023 A 
ATOM     81  C   UNL A   1      44.528  34.701  28.306  1.00  0.00     0.031 A 
ATOM     82  C   UNL A   1      42.726  36.237  27.875  1.00  0.00     0.131 A 
ATOM     83  C   UNL A   1      44.776  34.647  26.924  1.00  0.00     0.055 A 
ATOM     84  C   UNL A   1      42.941  36.137  26.498  1.00  0.00     0.041 A 
ATOM     85  F   UNL A   1      41.741  37.047  28.292  1.00  0.00    -0.206 F 
ATOM     86  C   UNL A   1      43.981  35.349  26.017  1.00  0.00     0.022 A 
BRANCH  83  87
ATOM     87  S   UNL A   1      46.216  33.715  26.330  1.00  0.00     0.124 S 
ATOM     88  O   UNL A   1      47.057  33.676  27.521  1.00  0.00    -0.237 OA
ATOM     89  O   UNL A   1      45.612  32.449  25.927  1.00  0.00    -0.237 OA
ATOM     90  O   UNL A   1      46.724  34.537  25.233  1.00  0.00    -0.744 OA
ENDBRANCH  83  87
ENDBRANCH  56  80
BRANCH  68  91
ATOM     91  C   UNL A   1      38.873  32.897  33.309  1.00  0.00     0.023 A 
ATOM     92  C   UNL A   1      37.616  33.383  32.908  1.00  0.00     0.031 A 
ATOM     93  C   UNL A   1      39.001  31.516  33.550  1.00  0.00     0.131 A 
ATOM     94  C   UNL A   1      36.520  32.511  32.840  1.00  0.00     0.055 A 
ATOM     95  C   UNL A   1      37.923  30.642  33.406  1.00  0.00     0.041 A 
ATOM     96  F   UNL A   1      40.177  30.995  33.933  1.00  0.00    -0.206 F 
ATOM     97  C   UNL A   1      36.669  31.140  33.068  1.00  0.00     0.022 A 
BRANCH  94  98
ATOM     98  S   UNL A   1      34.868  33.216  32.582  1.00  0.00     0.124 S 
ATOM     99  O   UNL A   1      34.318  32.328  31.563  1.00  0.00    -0.237 OA
ATOM    100  O   UNL A   1      34.273  33.108  33.910  1.00  0.00    -0.237 OA
ATOM    101  O   UNL A   1      35.144  34.579  32.134  1.00  0.00    -0.744 OA
ENDBRANCH  94  98
ENDBRANCH  68  91
ENDBRANCH  42  43
ENDBRANCH  35  37
ENDBRANCH  34  35
ENDBRANCH  33  34
ENDBRANCH  32  33
ENDBRANCH  31  32
ENDBRANCH  30  31
ENDBRANCH   1  30
TORSDOF 25
ENDMDL
MODEL 3
REMARK VINA RESULT:      -7.2      1.724      2.025
REMARK SMILES CC(C)[C@H](NC(=O)Cc1csc(-c2c(Cl)cccc2Cl)n1)C(=O)OCCOCCOCCOC(=O)c1ccc(-c2c3nc(c(-c4cc(S(=O)(=O)[O-])ccc4F)c4ccc([nH]4)c(-c4cc(S(=O)(=O)[O-])ccc4F)c4nc(c(-c5cc(S(=O)(=O)[O-])ccc5F)c5ccc2[nH]5)C=C4)C=C3)cc1
REMARK SMILES IDX 28 1 27 2 26 3 25 4 24 5 22 6 23 7 4 8 2 9 1 10 3 11 5 12
REMARK SMILES IDX 6 13 7 15 8 16 9 17 10 18 21 19 11 20 12 21 13 22 14 23
REMARK SMILES IDX 19 24 15 25 16 26 18 27 20 28 17 29 29 30 30 31 31 32 32 33
REMARK SMILES IDX 33 34 34 35 35 36 36 37 37 38 98 39 38 40 97 41 39 42 40 43
REMARK SMILES IDX 41 44 91 45 42 46 96 47 90 48 92 49 43 50 95 51 89 52 88 53
REMARK SMILES IDX 44 55 76 56 56 57 75 58 57 59 60 60 74 61 93 62 58 63 59 64
REMARK SMILES IDX 73 66 94 67 61 68 45 69 46 70 54 71 47 72 53 73 55 74 52 75
REMARK SMILES IDX 48 76 49 77 50 78 51 79 77 80 78 81 86 82 79 83 85 84 87 85
REMARK SMILES IDX 84 86 80 87 81 88 82 89 83 90 62 91 63 92 71 93 64 94 70 95
REMARK SMILES IDX 72 96 69 97 65 98 66 99 67 100 68 101
REMARK H PARENT 5 14 92 54 60 65
REMARK Flexibility Score: inf
ROOT
ATOM      1  C   UNL A   1      40.022  23.915  27.017  1.00  0.00     0.188 C 
ENDROOT
BRANCH   1   2
ATOM      2  O   UNL A   1      40.218  24.949  28.161  1.00  0.00    -0.376 OA
BRANCH   2   3
ATOM      3  C   UNL A   1      39.843  26.873  28.747  1.00  0.00     0.202 C 
BRANCH   3   4
ATOM      4  C   UNL A   1      39.025  27.442  30.268  1.00  0.00     0.261 C 
BRANCH   4   5
ATOM      5  O   UNL A   1      39.901  28.042  31.309  1.00  0.00    -0.462 OA
BRANCH   5   6
ATOM      6  C   UNL A   1      39.463  28.253  32.586  1.00  0.00     0.328 C 
ATOM      7  O   UNL A   1      38.342  27.930  32.962  1.00  0.00    -0.250 OA
BRANCH   6   8
ATOM      8  C   UNL A   1      40.564  28.862  33.570  1.00  0.00     0.194 C 
BRANCH   8   9
ATOM      9  C   UNL A   1      41.843  27.993  33.673  1.00  0.00     0.017 C 
ATOM     10  C   UNL A   1      43.085  28.693  33.076  1.00  0.00     0.010 C 
ATOM     11  C   UNL A   1      42.143  27.573  35.107  1.00  0.00     0.010 C 
ENDBRANCH   8   9
BRANCH   8  12
ATOM     12  N   UNL A   1      40.248  29.471  34.876  1.00  0.00    -0.342 N 
ATOM     13  C   UNL A   1      39.305  30.419  35.133  1.00  0.00     0.226 C 
ATOM     14  H   UNL A   1      40.776  29.158  35.646  1.00  0.00     0.164 HD
ATOM     15  O   UNL A   1      38.315  30.122  35.803  1.00  0.00    -0.275 OA
BRANCH  13  16
ATOM     16  C   UNL A   1      39.548  31.808  34.619  1.00  0.00     0.157 C 
BRANCH  16  17
ATOM     17  C   UNL A   1      39.785  31.883  33.123  1.00  0.00     0.061 A 
ATOM     18  C   UNL A   1      41.290  31.931  32.121  1.00  0.00     0.091 A 
ATOM     19  N   UNL A   1      38.273  31.572  32.030  1.00  0.00    -0.240 NA
ATOM     20  S   UNL A   1      40.789  31.553  29.901  1.00  0.00    -0.122 S 
ATOM     21  C   UNL A   1      38.556  31.373  30.433  1.00  0.00     0.126 A 
BRANCH  21  22
ATOM     22  C   UNL A   1      37.711  31.466  29.206  1.00  0.00     0.048 A 
ATOM     23  C   UNL A   1      37.325  30.319  28.488  1.00  0.00     0.052 A 
ATOM     24  C   UNL A   1      37.020  32.636  28.884  1.00  0.00     0.052 A 
ATOM     25  Cl  UNL A   1      38.493  29.688  27.335  1.00  0.00    -0.084 Cl
ATOM     26  C   UNL A   1      36.057  30.220  27.889  1.00  0.00     0.021 A 
ATOM     27  C   UNL A   1      35.893  32.601  28.042  1.00  0.00     0.021 A 
ATOM     28  Cl  UNL A   1      37.551  34.182  29.443  1.00  0.00    -0.084 Cl
ATOM     29  C   UNL A   1      35.360  31.385  27.619  1.00  0.00     0.003 A 
ENDBRANCH  21  22
ENDBRANCH  16  17
ENDBRANCH  13  16
ENDBRANCH   8  12
ENDBRANCH   6   8
ENDBRANCH   5   6
ENDBRANCH   4   5
ENDBRANCH   3   4
ENDBRANCH   2   3
ENDBRANCH   1   2
BRANCH   1  30
ATOM     30  C   UNL A   1      40.178  22.400  27.233  1.00  0.00     0.188 C 
BRANCH  30  31
ATOM     31  O   UNL A   1      40.374  21.529  26.162  1.00  0.00    -0.376 OA
BRANCH  31  32
ATOM     32  C   UNL A   1      41.356  20.512  26.179  1.00  0.00     0.202 C 
BRANCH  32  33
ATOM     33  C   UNL A   1      42.873  20.717  26.107  1.00  0.00     0.261 C 
BRANCH  33  34
ATOM     34  O   UNL A   1      43.428  21.978  26.496  1.00  0.00    -0.460 OA
BRANCH  34  35
ATOM     35  C   UNL A   1      43.717  22.836  25.486  1.00  0.00     0.338 C 
ATOM     36  O   UNL A   1      43.374  22.720  24.324  1.00  0.00    -0.246 OA
BRANCH  35  37
ATOM     37  C   UNL A   1      44.182  24.108  26.111  1.00  0.00     0.060 A 
ATOM     38  C   UNL A   1      45.572  24.303  26.191  1.00  0.00     0.016 A 
ATOM     39  C   UNL A   1      43.311  25.133  26.493  1.00  0.00     0.016 A 
ATOM     40  C   UNL A   1      46.092  25.476  26.726  1.00  0.00     0.010 A 
ATOM     41  C   UNL A   1      43.831  26.296  27.079  1.00  0.00     0.010 A 
ATOM     42  C   UNL A   1      45.222  26.430  27.267  1.00  0.00    -0.014 A 
BRANCH  42  43
ATOM     43  C   UNL A   1      45.768  27.254  28.379  1.00  0.00     0.031 A 
ATOM     44  C   UNL A   1      46.097  28.690  28.037  1.00  0.00     0.074 A 
ATOM     45  C   UNL A   1      45.827  26.823  29.651  1.00  0.00     0.049 A 
ATOM     46  N   UNL A   1      46.464  29.675  28.813  1.00  0.00    -0.248 NA
ATOM     47  C   UNL A   1      45.986  29.061  26.616  1.00  0.00     0.031 C 
ATOM     48  C   UNL A   1      45.479  25.479  30.112  1.00  0.00     0.029 A 
ATOM     49  N   UNL A   1      46.184  27.490  30.797  1.00  0.00    -0.354 N 
ATOM     50  C   UNL A   1      46.612  30.777  27.973  1.00  0.00     0.074 A 
ATOM     51  C   UNL A   1      46.361  30.327  26.627  1.00  0.00     0.031 C 
ATOM     52  C   UNL A   1      45.638  25.424  31.448  1.00  0.00     0.029 A 
ATOM     53  C   UNL A   1      46.109  26.721  31.936  1.00  0.00     0.049 A 
ATOM     54  H   UNL A   1      46.467  28.432  30.802  1.00  0.00     0.167 HD
ATOM     55  C   UNL A   1      46.905  32.059  28.293  1.00  0.00     0.034 A 
ATOM     56  C   UNL A   1      46.392  27.037  33.218  1.00  0.00     0.034 A 
ATOM     57  C   UNL A   1      47.172  32.495  29.638  1.00  0.00     0.049 A 
ATOM     58  C   UNL A   1      46.811  28.454  33.543  1.00  0.00     0.074 A 
ATOM     59  C   UNL A   1      47.496  33.762  30.084  1.00  0.00     0.029 A 
ATOM     60  N   UNL A   1      47.159  31.668  30.753  1.00  0.00    -0.354 N 
ATOM     61  N   UNL A   1      46.934  29.490  32.741  1.00  0.00    -0.248 NA
ATOM     62  C   UNL A   1      47.111  28.748  34.950  1.00  0.00     0.031 C 
ATOM     63  C   UNL A   1      47.753  33.685  31.457  1.00  0.00     0.029 A 
ATOM     64  C   UNL A   1      47.503  32.390  31.883  1.00  0.00     0.049 A 
ATOM     65  H   UNL A   1      46.937  30.709  30.741  1.00  0.00     0.167 HD
ATOM     66  C   UNL A   1      47.293  30.563  33.556  1.00  0.00     0.074 A 
ATOM     67  C   UNL A   1      47.341  30.052  34.911  1.00  0.00     0.031 C 
ATOM     68  C   UNL A   1      47.559  31.854  33.223  1.00  0.00     0.034 A 
BRANCH  55  69
ATOM     69  C   UNL A   1      47.009  33.045  27.154  1.00  0.00     0.023 A 
ATOM     70  C   UNL A   1      48.252  33.499  26.674  1.00  0.00     0.031 A 
ATOM     71  C   UNL A   1      45.846  33.589  26.583  1.00  0.00     0.131 A 
ATOM     72  C   UNL A   1      48.300  34.523  25.715  1.00  0.00     0.055 A 
ATOM     73  C   UNL A   1      45.902  34.543  25.567  1.00  0.00     0.041 A 
ATOM     74  F   UNL A   1      44.632  33.220  27.023  1.00  0.00    -0.206 F 
ATOM     75  C   UNL A   1      47.134  35.027  25.138  1.00  0.00     0.022 A 
BRANCH  72  76
ATOM     76  S   UNL A   1      49.900  35.295  25.347  1.00  0.00     0.124 S 
ATOM     77  O   UNL A   1      50.548  34.258  24.546  1.00  0.00    -0.237 OA
ATOM     78  O   UNL A   1      49.510  36.505  24.633  1.00  0.00    -0.237 OA
ATOM     79  O   UNL A   1      50.488  35.511  26.668  1.00  0.00    -0.744 OA
ENDBRANCH  72  76
ENDBRANCH  55  69
BRANCH  56  80
ATOM     80  C   UNL A   1      46.319  26.004  34.297  1.00  0.00     0.023 A 
ATOM     81  C   UNL A   1      45.299  26.019  35.263  1.00  0.00     0.031 A 
ATOM     82  C   UNL A   1      47.323  25.027  34.420  1.00  0.00     0.131 A 
ATOM     83  C   UNL A   1      45.335  25.111  36.336  1.00  0.00     0.055 A 
ATOM     84  C   UNL A   1      47.324  24.091  35.458  1.00  0.00     0.041 A 
ATOM     85  F   UNL A   1      48.327  24.967  33.531  1.00  0.00    -0.206 F 
ATOM     86  C   UNL A   1      46.332  24.140  36.432  1.00  0.00     0.022 A 
BRANCH  83  87
ATOM     87  S   UNL A   1      44.105  25.277  37.662  1.00  0.00     0.124 S 
ATOM     88  O   UNL A   1      42.912  24.724  37.032  1.00  0.00    -0.237 OA
ATOM     89  O   UNL A   1      44.700  24.477  38.727  1.00  0.00    -0.237 OA
ATOM     90  O   UNL A   1      44.068  26.717  37.913  1.00  0.00    -0.744 OA
ENDBRANCH  83  87
ENDBRANCH  56  80
BRANCH  68  91
ATOM     91  C   UNL A   1      47.889  32.801  34.353  1.00  0.00     0.023 A 
ATOM     92  C   UNL A   1      46.887  33.508  35.039  1.00  0.00     0.031 A 
ATOM     93  C   UNL A   1      49.227  33.015  34.733  1.00  0.00     0.131 A 
ATOM     94  C   UNL A   1      47.241  34.456  36.010  1.00  0.00     0.055 A 
ATOM     95  C   UNL A   1      49.568  33.903  35.754  1.00  0.00     0.041 A 
ATOM     96  F   UNL A   1      50.226  32.365  34.115  1.00  0.00    -0.206 F 
ATOM     97  C   UNL A   1      48.575  34.644  36.386  1.00  0.00     0.022 A 
BRANCH  94  98
ATOM     98  S   UNL A   1      45.947  35.535  36.680  1.00  0.00     0.124 S 
ATOM     99  O   UNL A   1      45.168  34.605  37.491  1.00  0.00    -0.237 OA
ATOM    100  O   UNL A   1      46.721  36.529  37.418  1.00  0.00    -0.237 OA
ATOM    101  O   UNL A   1      45.269  36.038  35.488  1.00  0.00    -0.744 OA
ENDBRANCH  94  98
ENDBRANCH  68  91
ENDBRANCH  42  43
ENDBRANCH  35  37
ENDBRANCH  34  35
ENDBRANCH  33  34
ENDBRANCH  32  33
ENDBRANCH  31  32
ENDBRANCH  30  31
ENDBRANCH   1  30
TORSDOF 25
ENDMDL
