MODEL 1
REMARK VINA RESULT:     -10.2      0.000      0.000
REMARK SMILES Cc1ccc(Cl)c(Nc2ccccc2C(=O)N[C@@H](C)C(=O)OCCOCCOCCOC(=O)c2ccc(-c3c4nc(c(-c5cc(S(=O)(=O)[O-])ccc5F)c5ccc([nH]5)c(-c5cc(S(=O)(=O)[O-])ccc5F)c5nc(c(-c6cc(S(=O)(=O)[O-])ccc6F)c6ccc3[nH]6)C=C5)C=C4)cc2)c1Cl
REMARK SMILES IDX 26 1 25 2 24 3 23 4 22 5 20 6 21 7 18 8 19 9 17 10 15 11
REMARK SMILES IDX 16 12 14 14 9 15 10 16 11 17 13 18 12 19 8 20 7 22 1 23 2 24
REMARK SMILES IDX 3 25 97 26 4 27 98 28 5 29 6 30 27 31 28 32 29 33 30 34
REMARK SMILES IDX 31 35 32 36 33 37 34 38 35 39 96 40 36 41 95 42 37 43 38 44
REMARK SMILES IDX 39 45 89 46 40 47 94 48 88 49 90 50 41 51 93 52 87 53 86 54
REMARK SMILES IDX 42 56 74 57 54 58 73 59 55 60 58 61 72 62 91 63 56 64 57 65
REMARK SMILES IDX 71 67 92 68 59 69 43 70 44 71 52 72 45 73 51 74 53 75 50 76
REMARK SMILES IDX 46 77 47 78 48 79 49 80 75 81 76 82 84 83 77 84 83 85 85 86
REMARK SMILES IDX 82 87 78 88 79 89 80 90 81 91 60 92 61 93 69 94 62 95 68 96
REMARK SMILES IDX 70 97 67 98 63 99 64 100 65 101 66 102
REMARK H PARENT 17 13 8 21 90 55 58 66
REMARK Flexibility Score: inf
ROOT
ATOM      1  C   UNL A   1      33.625  29.829  26.638  1.00  0.00     0.188 C 
ENDROOT
BRANCH   1   2
ATOM      2  O   UNL A   1      33.254  29.519  25.256  1.00  0.00    -0.376 OA
BRANCH   2   3
ATOM      3  C   UNL A   1      32.661  28.262  24.852  1.00  0.00     0.202 C 
BRANCH   3   4
ATOM      4  C   UNL A   1      31.011  28.133  24.540  1.00  0.00     0.261 C 
BRANCH   4   5
ATOM      5  O   UNL A   1      30.323  26.791  24.549  1.00  0.00    -0.462 OA
BRANCH   5   6
ATOM      6  C   UNL A   1      30.548  25.787  25.494  1.00  0.00     0.328 C 
ATOM      7  O   UNL A   1      29.766  25.618  26.432  1.00  0.00    -0.250 OA
BRANCH   6   8
ATOM      8  C   UNL A   1      31.802  24.662  25.198  1.00  0.00     0.189 C 
ATOM      9  C   UNL A   1      32.918  24.813  26.231  1.00  0.00     0.043 C 
BRANCH   8  10
ATOM     10  N   UNL A   1      32.479  24.314  23.907  1.00  0.00    -0.339 N 
ATOM     11  C   UNL A   1      33.596  23.593  23.463  1.00  0.00     0.254 C 
ATOM     12  O   UNL A   1      33.850  23.904  22.281  1.00  0.00    -0.269 OA
ATOM     13  H   UNL A   1      31.996  24.708  23.146  1.00  0.00     0.164 HD
BRANCH  11  14
ATOM     14  C   UNL A   1      34.512  22.486  24.063  1.00  0.00     0.063 A 
ATOM     15  C   UNL A   1      34.276  21.262  24.746  1.00  0.00     0.051 A 
ATOM     16  C   UNL A   1      35.358  20.352  25.010  1.00  0.00     0.027 A 
ATOM     17  C   UNL A   1      36.667  20.602  24.634  1.00  0.00     0.002 A 
ATOM     18  C   UNL A   1      35.900  22.725  23.776  1.00  0.00     0.016 A 
ATOM     19  C   UNL A   1      36.945  21.812  24.036  1.00  0.00     0.001 A 
BRANCH  15  20
ATOM     20  N   UNL A   1      33.028  20.641  24.974  1.00  0.00    -0.352 N 
ATOM     21  H   UNL A   1      32.431  21.022  25.659  1.00  0.00     0.167 HD
BRANCH  20  22
ATOM     22  C   UNL A   1      32.597  19.487  24.254  1.00  0.00     0.077 A 
ATOM     23  C   UNL A   1      34.889  16.859  24.609  1.00  0.00     0.046 C 
ATOM     24  C   UNL A   1      33.678  17.446  23.936  1.00  0.00    -0.030 A 
ATOM     25  C   UNL A   1      33.292  17.453  22.590  1.00  0.00     0.006 A 
ATOM     26  C   UNL A   1      32.919  18.235  24.743  1.00  0.00     0.069 A 
ATOM     27  C   UNL A   1      32.530  18.499  22.069  1.00  0.00     0.023 A 
ATOM     28  Cl  UNL A   1      32.531  17.672  26.315  1.00  0.00    -0.082 Cl
ATOM     29  C   UNL A   1      32.301  19.589  22.890  1.00  0.00     0.066 A 
ATOM     30  Cl  UNL A   1      31.776  21.075  22.203  1.00  0.00    -0.082 Cl
ENDBRANCH  20  22
ENDBRANCH  15  20
ENDBRANCH  11  14
ENDBRANCH   8  10
ENDBRANCH   6   8
ENDBRANCH   5   6
ENDBRANCH   4   5
ENDBRANCH   3   4
ENDBRANCH   2   3
ENDBRANCH   1   2
BRANCH   1  31
ATOM     31  C   UNL A   1      33.165  31.144  27.371  1.00  0.00     0.188 C 
BRANCH  31  32
ATOM     32  O   UNL A   1      34.146  32.128  27.671  1.00  0.00    -0.376 OA
BRANCH  32  33
ATOM     33  C   UNL A   1      34.839  31.894  28.883  1.00  0.00     0.202 C 
BRANCH  33  34
ATOM     34  C   UNL A   1      34.641  32.922  30.029  1.00  0.00     0.261 C 
BRANCH  34  35
ATOM     35  O   UNL A   1      35.615  33.994  30.132  1.00  0.00    -0.460 OA
BRANCH  35  36
ATOM     36  C   UNL A   1      36.326  34.056  31.296  1.00  0.00     0.338 C 
ATOM     37  O   UNL A   1      35.951  34.621  32.330  1.00  0.00    -0.246 OA
BRANCH  36  38
ATOM     38  C   UNL A   1      37.525  33.169  31.274  1.00  0.00     0.060 A 
ATOM     39  C   UNL A   1      37.461  31.935  31.945  1.00  0.00     0.016 A 
ATOM     40  C   UNL A   1      38.724  33.544  30.666  1.00  0.00     0.016 A 
ATOM     41  C   UNL A   1      38.568  31.077  31.992  1.00  0.00     0.010 A 
ATOM     42  C   UNL A   1      39.849  32.695  30.752  1.00  0.00     0.010 A 
ATOM     43  C   UNL A   1      39.781  31.453  31.415  1.00  0.00    -0.014 A 
BRANCH  43  44
ATOM     44  C   UNL A   1      41.019  30.693  31.758  1.00  0.00     0.031 A 
ATOM     45  C   UNL A   1      41.421  29.591  30.817  1.00  0.00     0.074 A 
ATOM     46  C   UNL A   1      41.832  30.998  32.787  1.00  0.00     0.049 A 
ATOM     47  N   UNL A   1      42.255  28.601  30.987  1.00  0.00    -0.248 NA
ATOM     48  C   UNL A   1      40.788  29.628  29.490  1.00  0.00     0.031 C 
ATOM     49  C   UNL A   1      41.716  32.176  33.645  1.00  0.00     0.029 A 
ATOM     50  N   UNL A   1      42.928  30.330  33.289  1.00  0.00    -0.354 N 
ATOM     51  C   UNL A   1      42.203  27.863  29.808  1.00  0.00     0.074 A 
ATOM     52  C   UNL A   1      41.273  28.533  28.929  1.00  0.00     0.031 C 
ATOM     53  C   UNL A   1      42.680  32.130  34.584  1.00  0.00     0.029 A 
ATOM     54  C   UNL A   1      43.422  30.875  34.455  1.00  0.00     0.049 A 
ATOM     55  H   UNL A   1      43.321  29.538  32.856  1.00  0.00     0.167 HD
ATOM     56  C   UNL A   1      42.856  26.713  29.508  1.00  0.00     0.034 A 
ATOM     57  C   UNL A   1      44.306  30.377  35.349  1.00  0.00     0.034 A 
ATOM     58  C   UNL A   1      43.785  26.079  30.407  1.00  0.00     0.049 A 
ATOM     59  C   UNL A   1      44.889  28.999  35.093  1.00  0.00     0.074 A 
ATOM     60  C   UNL A   1      44.461  24.884  30.251  1.00  0.00     0.029 A 
ATOM     61  N   UNL A   1      44.168  26.597  31.638  1.00  0.00    -0.354 N 
ATOM     62  N   UNL A   1      44.735  28.216  34.049  1.00  0.00    -0.248 NA
ATOM     63  C   UNL A   1      45.740  28.426  36.147  1.00  0.00     0.031 C 
ATOM     64  C   UNL A   1      45.189  24.640  31.421  1.00  0.00     0.029 A 
ATOM     65  C   UNL A   1      45.039  25.725  32.270  1.00  0.00     0.049 A 
ATOM     66  H   UNL A   1      43.865  27.458  32.006  1.00  0.00     0.167 HD
ATOM     67  C   UNL A   1      45.482  27.070  34.315  1.00  0.00     0.074 A 
ATOM     68  C   UNL A   1      46.104  27.273  35.607  1.00  0.00     0.031 C 
ATOM     69  C   UNL A   1      45.642  25.949  33.564  1.00  0.00     0.034 A 
BRANCH  56  70
ATOM     70  C   UNL A   1      42.477  26.026  28.220  1.00  0.00     0.023 A 
ATOM     71  C   UNL A   1      41.654  24.888  28.185  1.00  0.00     0.031 A 
ATOM     72  C   UNL A   1      43.026  26.479  27.006  1.00  0.00     0.131 A 
ATOM     73  C   UNL A   1      41.472  24.196  26.977  1.00  0.00     0.055 A 
ATOM     74  C   UNL A   1      42.767  25.837  25.794  1.00  0.00     0.041 A 
ATOM     75  F   UNL A   1      43.848  27.541  26.980  1.00  0.00    -0.206 F 
ATOM     76  C   UNL A   1      42.000  24.678  25.777  1.00  0.00     0.022 A 
BRANCH  73  77
ATOM     77  S   UNL A   1      40.678  22.565  27.023  1.00  0.00     0.124 S 
ATOM     78  O   UNL A   1      39.268  22.921  26.882  1.00  0.00    -0.237 OA
ATOM     79  O   UNL A   1      41.283  21.888  25.881  1.00  0.00    -0.237 OA
ATOM     80  O   UNL A   1      41.052  22.038  28.332  1.00  0.00    -0.744 OA
ENDBRANCH  73  77
ENDBRANCH  56  70
BRANCH  57  81
ATOM     81  C   UNL A   1      44.603  31.092  36.632  1.00  0.00     0.023 A 
ATOM     82  C   UNL A   1      43.638  31.215  37.648  1.00  0.00     0.031 A 
ATOM     83  C   UNL A   1      45.832  31.752  36.823  1.00  0.00     0.131 A 
ATOM     84  C   UNL A   1      43.905  32.006  38.781  1.00  0.00     0.055 A 
ATOM     85  C   UNL A   1      46.116  32.483  37.979  1.00  0.00     0.041 A 
ATOM     86  F   UNL A   1      46.785  31.701  35.877  1.00  0.00    -0.206 F 
ATOM     87  C   UNL A   1      45.143  32.625  38.961  1.00  0.00     0.022 A 
BRANCH  84  88
ATOM     88  S   UNL A   1      42.569  32.306  39.973  1.00  0.00     0.124 S 
ATOM     89  O   UNL A   1      42.883  33.652  40.438  1.00  0.00    -0.237 OA
ATOM     90  O   UNL A   1      41.381  32.175  39.136  1.00  0.00    -0.237 OA
ATOM     91  O   UNL A   1      42.750  31.246  40.964  1.00  0.00    -0.744 OA
ENDBRANCH  84  88
ENDBRANCH  57  81
BRANCH  69  92
ATOM     92  C   UNL A   1      46.556  24.875  34.103  1.00  0.00     0.023 A 
ATOM     93  C   UNL A   1      47.933  24.869  33.827  1.00  0.00     0.031 A 
ATOM     94  C   UNL A   1      46.040  23.858  34.927  1.00  0.00     0.131 A 
ATOM     95  C   UNL A   1      48.741  23.841  34.335  1.00  0.00     0.055 A 
ATOM     96  C   UNL A   1      46.861  22.876  35.483  1.00  0.00     0.041 A 
ATOM     97  F   UNL A   1      44.731  23.815  35.222  1.00  0.00    -0.206 F 
ATOM     98  C   UNL A   1      48.218  22.857  35.178  1.00  0.00     0.022 A 
BRANCH  95  99
ATOM     99  S   UNL A   1      50.475  23.758  33.811  1.00  0.00     0.124 S 
ATOM    100  O   UNL A   1      51.174  23.670  35.089  1.00  0.00    -0.237 OA
ATOM    101  O   UNL A   1      50.497  22.552  32.989  1.00  0.00    -0.237 OA
ATOM    102  O   UNL A   1      50.674  25.009  33.080  1.00  0.00    -0.744 OA
ENDBRANCH  95  99
ENDBRANCH  69  92
ENDBRANCH  43  44
ENDBRANCH  36  38
ENDBRANCH  35  36
ENDBRANCH  34  35
ENDBRANCH  33  34
ENDBRANCH  32  33
ENDBRANCH  31  32
ENDBRANCH   1  31
TORSDOF 24
ENDMDL
MODEL 2
REMARK VINA RESULT:      -9.9      6.064     11.118
REMARK SMILES Cc1ccc(Cl)c(Nc2ccccc2C(=O)N[C@@H](C)C(=O)OCCOCCOCCOC(=O)c2ccc(-c3c4nc(c(-c5cc(S(=O)(=O)[O-])ccc5F)c5ccc([nH]5)c(-c5cc(S(=O)(=O)[O-])ccc5F)c5nc(c(-c6cc(S(=O)(=O)[O-])ccc6F)c6ccc3[nH]6)C=C5)C=C4)cc2)c1Cl
REMARK SMILES IDX 26 1 25 2 24 3 23 4 22 5 20 6 21 7 18 8 19 9 17 10 15 11
REMARK SMILES IDX 16 12 14 14 9 15 10 16 11 17 13 18 12 19 8 20 7 22 1 23 2 24
REMARK SMILES IDX 3 25 97 26 4 27 98 28 5 29 6 30 27 31 28 32 29 33 30 34
REMARK SMILES IDX 31 35 32 36 33 37 34 38 35 39 96 40 36 41 95 42 37 43 38 44
REMARK SMILES IDX 39 45 89 46 40 47 94 48 88 49 90 50 41 51 93 52 87 53 86 54
REMARK SMILES IDX 42 56 74 57 54 58 73 59 55 60 58 61 72 62 91 63 56 64 57 65
REMARK SMILES IDX 71 67 92 68 59 69 43 70 44 71 52 72 45 73 51 74 53 75 50 76
REMARK SMILES IDX 46 77 47 78 48 79 49 80 75 81 76 82 84 83 77 84 83 85 85 86
REMARK SMILES IDX 82 87 78 88 79 89 80 90 81 91 60 92 61 93 69 94 62 95 68 96
REMARK SMILES IDX 70 97 67 98 63 99 64 100 65 101 66 102
REMARK H PARENT 17 13 8 21 90 55 58 66
REMARK Flexibility Score: inf
ROOT
ATOM      1  C   UNL A   1      45.188  24.531  38.463  1.00  0.00     0.188 C 
ENDROOT
BRANCH   1   2
ATOM      2  O   UNL A   1      44.000  24.822  37.660  1.00  0.00    -0.376 OA
BRANCH   2   3
ATOM      3  C   UNL A   1      43.187  26.006  37.836  1.00  0.00     0.202 C 
BRANCH   3   4
ATOM      4  C   UNL A   1      41.587  26.057  37.312  1.00  0.00     0.261 C 
BRANCH   4   5
ATOM      5  O   UNL A   1      41.177  26.932  36.154  1.00  0.00    -0.462 OA
BRANCH   5   6
ATOM      6  C   UNL A   1      41.590  26.749  34.832  1.00  0.00     0.328 C 
ATOM      7  O   UNL A   1      42.334  25.814  34.528  1.00  0.00    -0.250 OA
BRANCH   6   8
ATOM      8  C   UNL A   1      40.867  27.711  33.617  1.00  0.00     0.189 C 
ATOM      9  C   UNL A   1      41.485  29.109  33.597  1.00  0.00     0.043 C 
BRANCH   8  10
ATOM     10  N   UNL A   1      39.416  27.897  33.292  1.00  0.00    -0.339 N 
ATOM     11  C   UNL A   1      38.624  28.356  32.231  1.00  0.00     0.254 C 
ATOM     12  O   UNL A   1      37.465  28.572  32.639  1.00  0.00    -0.269 OA
ATOM     13  H   UNL A   1      38.854  27.612  34.047  1.00  0.00     0.164 HD
BRANCH  11  14
ATOM     14  C   UNL A   1      38.836  28.580  30.704  1.00  0.00     0.063 A 
ATOM     15  C   UNL A   1      38.525  29.632  29.801  1.00  0.00     0.051 A 
ATOM     16  C   UNL A   1      39.035  29.615  28.456  1.00  0.00     0.027 A 
ATOM     17  C   UNL A   1      39.833  28.597  27.961  1.00  0.00     0.002 A 
ATOM     18  C   UNL A   1      39.596  27.515  30.107  1.00  0.00     0.016 A 
ATOM     19  C   UNL A   1      40.093  27.525  28.786  1.00  0.00     0.001 A 
BRANCH  15  20
ATOM     20  N   UNL A   1      37.991  30.899  30.121  1.00  0.00    -0.352 N 
ATOM     21  H   UNL A   1      37.113  30.942  30.565  1.00  0.00     0.167 HD
BRANCH  20  22
ATOM     22  C   UNL A   1      38.671  32.120  29.830  1.00  0.00     0.077 A 
ATOM     23  C   UNL A   1      40.198  33.420  32.705  1.00  0.00     0.046 C 
ATOM     24  C   UNL A   1      39.775  33.584  31.270  1.00  0.00    -0.030 A 
ATOM     25  C   UNL A   1      39.196  34.672  30.605  1.00  0.00     0.006 A 
ATOM     26  C   UNL A   1      39.813  32.435  30.543  1.00  0.00     0.069 A 
ATOM     27  C   UNL A   1      38.343  34.475  29.519  1.00  0.00     0.023 A 
ATOM     28  Cl  UNL A   1      41.198  31.432  30.660  1.00  0.00    -0.082 Cl
ATOM     29  C   UNL A   1      37.980  33.174  29.224  1.00  0.00     0.066 A 
ATOM     30  Cl  UNL A   1      36.615  32.881  28.219  1.00  0.00    -0.082 Cl
ENDBRANCH  20  22
ENDBRANCH  15  20
ENDBRANCH  11  14
ENDBRANCH   8  10
ENDBRANCH   6   8
ENDBRANCH   5   6
ENDBRANCH   4   5
ENDBRANCH   3   4
ENDBRANCH   2   3
ENDBRANCH   1   2
BRANCH   1  31
ATOM     31  C   UNL A   1      46.077  23.250  38.242  1.00  0.00     0.188 C 
BRANCH  31  32
ATOM     32  O   UNL A   1      45.586  22.000  38.706  1.00  0.00    -0.376 OA
BRANCH  32  33
ATOM     33  C   UNL A   1      46.582  21.002  38.824  1.00  0.00     0.202 C 
BRANCH  33  34
ATOM     34  C   UNL A   1      46.360  19.675  38.051  1.00  0.00     0.261 C 
BRANCH  34  35
ATOM     35  O   UNL A   1      46.959  19.568  36.733  1.00  0.00    -0.460 OA
BRANCH  35  36
ATOM     36  C   UNL A   1      46.108  19.679  35.671  1.00  0.00     0.338 C 
ATOM     37  O   UNL A   1      45.394  18.771  35.234  1.00  0.00    -0.246 OA
BRANCH  36  38
ATOM     38  C   UNL A   1      45.955  21.092  35.216  1.00  0.00     0.060 A 
ATOM     39  C   UNL A   1      44.661  21.638  35.147  1.00  0.00     0.016 A 
ATOM     40  C   UNL A   1      47.038  21.868  34.799  1.00  0.00     0.016 A 
ATOM     41  C   UNL A   1      44.451  22.947  34.691  1.00  0.00     0.010 A 
ATOM     42  C   UNL A   1      46.816  23.170  34.301  1.00  0.00     0.010 A 
ATOM     43  C   UNL A   1      45.520  23.722  34.243  1.00  0.00    -0.014 A 
BRANCH  43  44
ATOM     44  C   UNL A   1      45.245  24.963  33.462  1.00  0.00     0.031 A 
ATOM     45  C   UNL A   1      44.745  24.783  32.055  1.00  0.00     0.074 A 
ATOM     46  C   UNL A   1      45.324  26.209  33.969  1.00  0.00     0.049 A 
ATOM     47  N   UNL A   1      44.690  25.632  31.065  1.00  0.00    -0.248 NA
ATOM     48  C   UNL A   1      44.225  23.445  31.734  1.00  0.00     0.031 C 
ATOM     49  C   UNL A   1      45.558  26.544  35.372  1.00  0.00     0.029 A 
ATOM     50  N   UNL A   1      45.213  27.435  33.349  1.00  0.00    -0.354 N 
ATOM     51  C   UNL A   1      44.184  24.914  29.986  1.00  0.00     0.074 A 
ATOM     52  C   UNL A   1      43.929  23.570  30.451  1.00  0.00     0.031 C 
ATOM     53  C   UNL A   1      45.606  27.884  35.499  1.00  0.00     0.029 A 
ATOM     54  C   UNL A   1      45.501  28.500  34.176  1.00  0.00     0.049 A 
ATOM     55  H   UNL A   1      44.955  27.540  32.405  1.00  0.00     0.167 HD
ATOM     56  C   UNL A   1      43.980  25.341  28.715  1.00  0.00     0.034 A 
ATOM     57  C   UNL A   1      45.732  29.800  33.882  1.00  0.00     0.034 A 
ATOM     58  C   UNL A   1      44.235  26.693  28.289  1.00  0.00     0.049 A 
ATOM     59  C   UNL A   1      45.686  30.227  32.426  1.00  0.00     0.074 A 
ATOM     60  C   UNL A   1      44.132  27.235  27.022  1.00  0.00     0.029 A 
ATOM     61  N   UNL A   1      44.648  27.719  29.130  1.00  0.00    -0.354 N 
ATOM     62  N   UNL A   1      45.353  29.524  31.367  1.00  0.00    -0.248 NA
ATOM     63  C   UNL A   1      46.076  31.612  32.122  1.00  0.00     0.031 C 
ATOM     64  C   UNL A   1      44.560  28.566  27.083  1.00  0.00     0.029 A 
ATOM     65  C   UNL A   1      44.843  28.881  28.403  1.00  0.00     0.049 A 
ATOM     66  H   UNL A   1      44.780  27.632  30.102  1.00  0.00     0.167 HD
ATOM     67  C   UNL A   1      45.475  30.386  30.279  1.00  0.00     0.074 A 
ATOM     68  C   UNL A   1      45.892  31.666  30.812  1.00  0.00     0.031 C 
ATOM     69  C   UNL A   1      45.265  30.146  28.958  1.00  0.00     0.034 A 
BRANCH  56  70
ATOM     70  C   UNL A   1      43.587  24.300  27.696  1.00  0.00     0.023 A 
ATOM     71  C   UNL A   1      44.530  23.638  26.891  1.00  0.00     0.031 A 
ATOM     72  C   UNL A   1      42.225  24.028  27.474  1.00  0.00     0.131 A 
ATOM     73  C   UNL A   1      44.093  22.804  25.849  1.00  0.00     0.055 A 
ATOM     74  C   UNL A   1      41.802  23.128  26.496  1.00  0.00     0.041 A 
ATOM     75  F   UNL A   1      41.276  24.655  28.189  1.00  0.00    -0.206 F 
ATOM     76  C   UNL A   1      42.737  22.523  25.664  1.00  0.00     0.022 A 
BRANCH  73  77
ATOM     77  S   UNL A   1      45.309  22.225  24.634  1.00  0.00     0.124 S 
ATOM     78  O   UNL A   1      44.514  21.285  23.847  1.00  0.00    -0.237 OA
ATOM     79  O   UNL A   1      45.692  23.460  23.960  1.00  0.00    -0.237 OA
ATOM     80  O   UNL A   1      46.350  21.613  25.456  1.00  0.00    -0.744 OA
ENDBRANCH  73  77
ENDBRANCH  56  70
BRANCH  57  81
ATOM     81  C   UNL A   1      46.164  30.772  34.938  1.00  0.00     0.023 A 
ATOM     82  C   UNL A   1      47.392  30.635  35.609  1.00  0.00     0.031 A 
ATOM     83  C   UNL A   1      45.305  31.804  35.361  1.00  0.00     0.131 A 
ATOM     84  C   UNL A   1      47.705  31.486  36.685  1.00  0.00     0.055 A 
ATOM     85  C   UNL A   1      45.648  32.687  36.388  1.00  0.00     0.041 A 
ATOM     86  F   UNL A   1      44.104  31.970  34.784  1.00  0.00    -0.206 F 
ATOM     87  C   UNL A   1      46.850  32.522  37.067  1.00  0.00     0.022 A 
BRANCH  84  88
ATOM     88  S   UNL A   1      49.203  31.154  37.656  1.00  0.00     0.124 S 
ATOM     89  O   UNL A   1      48.681  30.320  38.732  1.00  0.00    -0.237 OA
ATOM     90  O   UNL A   1      50.055  30.485  36.678  1.00  0.00    -0.237 OA
ATOM     91  O   UNL A   1      49.650  32.487  38.060  1.00  0.00    -0.744 OA
ENDBRANCH  84  88
ENDBRANCH  57  81
BRANCH  69  92
ATOM     92  C   UNL A   1      45.444  31.302  28.005  1.00  0.00     0.023 A 
ATOM     93  C   UNL A   1      46.716  31.788  27.661  1.00  0.00     0.031 A 
ATOM     94  C   UNL A   1      44.321  31.909  27.414  1.00  0.00     0.131 A 
ATOM     95  C   UNL A   1      46.834  32.876  26.784  1.00  0.00     0.055 A 
ATOM     96  C   UNL A   1      44.447  32.949  26.492  1.00  0.00     0.041 A 
ATOM     97  F   UNL A   1      43.080  31.487  27.709  1.00  0.00    -0.206 F 
ATOM     98  C   UNL A   1      45.709  33.446  26.181  1.00  0.00     0.022 A 
BRANCH  95  99
ATOM     99  S   UNL A   1      48.475  33.595  26.504  1.00  0.00     0.124 S 
ATOM    100  O   UNL A   1      49.352  32.462  26.779  1.00  0.00    -0.237 OA
ATOM    101  O   UNL A   1      48.398  34.018  25.110  1.00  0.00    -0.237 OA
ATOM    102  O   UNL A   1      48.543  34.684  27.478  1.00  0.00    -0.744 OA
ENDBRANCH  95  99
ENDBRANCH  69  92
ENDBRANCH  43  44
ENDBRANCH  36  38
ENDBRANCH  35  36
ENDBRANCH  34  35
ENDBRANCH  33  34
ENDBRANCH  32  33
ENDBRANCH  31  32
ENDBRANCH   1  31
TORSDOF 24
ENDMDL
MODEL 3
REMARK VINA RESULT:      -9.9      5.240      8.338
REMARK SMILES Cc1ccc(Cl)c(Nc2ccccc2C(=O)N[C@@H](C)C(=O)OCCOCCOCCOC(=O)c2ccc(-c3c4nc(c(-c5cc(S(=O)(=O)[O-])ccc5F)c5ccc([nH]5)c(-c5cc(S(=O)(=O)[O-])ccc5F)c5nc(c(-c6cc(S(=O)(=O)[O-])ccc6F)c6ccc3[nH]6)C=C5)C=C4)cc2)c1Cl
REMARK SMILES IDX 26 1 25 2 24 3 23 4 22 5 20 6 21 7 18 8 19 9 17 10 15 11
REMARK SMILES IDX 16 12 14 14 9 15 10 16 11 17 13 18 12 19 8 20 7 22 1 23 2 24
REMARK SMILES IDX 3 25 97 26 4 27 98 28 5 29 6 30 27 31 28 32 29 33 30 34
REMARK SMILES IDX 31 35 32 36 33 37 34 38 35 39 96 40 36 41 95 42 37 43 38 44
REMARK SMILES IDX 39 45 89 46 40 47 94 48 88 49 90 50 41 51 93 52 87 53 86 54
REMARK SMILES IDX 42 56 74 57 54 58 73 59 55 60 58 61 72 62 91 63 56 64 57 65
REMARK SMILES IDX 71 67 92 68 59 69 43 70 44 71 52 72 45 73 51 74 53 75 50 76
REMARK SMILES IDX 46 77 47 78 48 79 49 80 75 81 76 82 84 83 77 84 83 85 85 86
REMARK SMILES IDX 82 87 78 88 79 89 80 90 81 91 60 92 61 93 69 94 62 95 68 96
REMARK SMILES IDX 70 97 67 98 63 99 64 100 65 101 66 102
REMARK H PARENT 17 13 8 21 90 55 58 66
REMARK Flexibility Score: inf
ROOT
ATOM      1  C   UNL A   1      31.998  27.082  24.821  1.00  0.00     0.188 C 
ENDROOT
BRANCH   1   2
ATOM      2  O   UNL A   1      32.012  25.659  24.481  1.00  0.00    -0.376 OA
BRANCH   2   3
ATOM      3  C   UNL A   1      31.778  24.606  25.446  1.00  0.00     0.202 C 
BRANCH   3   4
ATOM      4  C   UNL A   1      32.574  23.125  25.336  1.00  0.00     0.261 C 
BRANCH   4   5
ATOM      5  O   UNL A   1      33.722  22.792  26.255  1.00  0.00    -0.462 OA
BRANCH   5   6
ATOM      6  C   UNL A   1      34.800  21.970  25.918  1.00  0.00     0.328 C 
ATOM      7  O   UNL A   1      34.613  20.825  25.503  1.00  0.00    -0.250 OA
BRANCH   6   8
ATOM      8  C   UNL A   1      36.365  22.660  25.884  1.00  0.00     0.189 C 
ATOM      9  C   UNL A   1      36.489  23.658  24.734  1.00  0.00     0.043 C 
BRANCH   8  10
ATOM     10  N   UNL A   1      37.700  21.989  25.995  1.00  0.00    -0.339 N 
ATOM     11  C   UNL A   1      39.016  22.313  26.350  1.00  0.00     0.254 C 
ATOM     12  O   UNL A   1      39.788  21.415  25.956  1.00  0.00    -0.269 OA
ATOM     13  H   UNL A   1      37.632  21.041  25.743  1.00  0.00     0.164 HD
BRANCH  11  14
ATOM     14  C   UNL A   1      39.698  23.459  27.155  1.00  0.00     0.063 A 
ATOM     15  C   UNL A   1      40.804  23.529  28.045  1.00  0.00     0.051 A 
ATOM     16  C   UNL A   1      41.309  24.801  28.486  1.00  0.00     0.027 A 
ATOM     17  C   UNL A   1      40.763  26.011  28.091  1.00  0.00     0.002 A 
ATOM     18  C   UNL A   1      39.125  24.742  26.850  1.00  0.00     0.016 A 
ATOM     19  C   UNL A   1      39.644  25.980  27.288  1.00  0.00     0.001 A 
BRANCH  15  20
ATOM     20  N   UNL A   1      41.707  22.491  28.363  1.00  0.00    -0.352 N 
ATOM     21  H   UNL A   1      41.572  21.989  29.201  1.00  0.00     0.167 HD
BRANCH  20  22
ATOM     22  C   UNL A   1      42.804  22.137  27.522  1.00  0.00     0.077 A 
ATOM     23  C   UNL A   1      43.379  24.610  25.106  1.00  0.00     0.046 C 
ATOM     24  C   UNL A   1      43.647  23.231  25.644  1.00  0.00    -0.030 A 
ATOM     25  C   UNL A   1      43.775  22.001  24.987  1.00  0.00     0.006 A 
ATOM     26  C   UNL A   1      43.597  23.142  27.000  1.00  0.00     0.069 A 
ATOM     27  C   UNL A   1      43.418  20.811  25.621  1.00  0.00     0.023 A 
ATOM     28  Cl  UNL A   1      44.407  24.330  27.934  1.00  0.00    -0.082 Cl
ATOM     29  C   UNL A   1      42.801  20.908  26.855  1.00  0.00     0.066 A 
ATOM     30  Cl  UNL A   1      41.942  19.557  27.483  1.00  0.00    -0.082 Cl
ENDBRANCH  20  22
ENDBRANCH  15  20
ENDBRANCH  11  14
ENDBRANCH   8  10
ENDBRANCH   6   8
ENDBRANCH   5   6
ENDBRANCH   4   5
ENDBRANCH   3   4
ENDBRANCH   2   3
ENDBRANCH   1   2
BRANCH   1  31
ATOM     31  C   UNL A   1      31.744  27.609  26.283  1.00  0.00     0.188 C 
BRANCH  31  32
ATOM     32  O   UNL A   1      32.829  28.203  26.984  1.00  0.00    -0.376 OA
BRANCH  32  33
ATOM     33  C   UNL A   1      33.638  29.042  26.181  1.00  0.00     0.202 C 
BRANCH  33  34
ATOM     34  C   UNL A   1      34.277  30.283  26.860  1.00  0.00     0.261 C 
BRANCH  34  35
ATOM     35  O   UNL A   1      33.576  30.847  28.000  1.00  0.00    -0.460 OA
BRANCH  35  36
ATOM     36  C   UNL A   1      33.726  32.189  28.198  1.00  0.00     0.338 C 
ATOM     37  O   UNL A   1      33.003  33.066  27.710  1.00  0.00    -0.246 OA
BRANCH  36  38
ATOM     38  C   UNL A   1      34.730  32.496  29.257  1.00  0.00     0.060 A 
ATOM     39  C   UNL A   1      34.816  33.813  29.740  1.00  0.00     0.016 A 
ATOM     40  C   UNL A   1      35.626  31.540  29.741  1.00  0.00     0.016 A 
ATOM     41  C   UNL A   1      35.767  34.169  30.707  1.00  0.00     0.010 A 
ATOM     42  C   UNL A   1      36.608  31.913  30.684  1.00  0.00     0.010 A 
ATOM     43  C   UNL A   1      36.686  33.232  31.177  1.00  0.00    -0.014 A 
BRANCH  43  44
ATOM     44  C   UNL A   1      37.881  33.700  31.939  1.00  0.00     0.031 A 
ATOM     45  C   UNL A   1      39.076  34.126  31.133  1.00  0.00     0.074 A 
ATOM     46  C   UNL A   1      37.912  33.853  33.277  1.00  0.00     0.049 A 
ATOM     47  N   UNL A   1      40.317  34.303  31.496  1.00  0.00    -0.248 NA
ATOM     48  C   UNL A   1      38.818  34.396  29.710  1.00  0.00     0.031 C 
ATOM     49  C   UNL A   1      36.768  33.715  34.177  1.00  0.00     0.029 A 
ATOM     50  N   UNL A   1      38.959  34.159  34.118  1.00  0.00    -0.354 N 
ATOM     51  C   UNL A   1      41.001  34.649  30.334  1.00  0.00     0.074 A 
ATOM     52  C   UNL A   1      40.030  34.677  29.264  1.00  0.00     0.031 C 
ATOM     53  C   UNL A   1      37.182  33.904  35.444  1.00  0.00     0.029 A 
ATOM     54  C   UNL A   1      38.635  34.082  35.456  1.00  0.00     0.049 A 
ATOM     55  H   UNL A   1      39.855  34.409  33.795  1.00  0.00     0.167 HD
ATOM     56  C   UNL A   1      42.325  34.893  30.179  1.00  0.00     0.034 A 
ATOM     57  C   UNL A   1      39.429  34.075  36.551  1.00  0.00     0.034 A 
ATOM     58  C   UNL A   1      43.262  34.867  31.273  1.00  0.00     0.049 A 
ATOM     59  C   UNL A   1      40.931  34.158  36.350  1.00  0.00     0.074 A 
ATOM     60  C   UNL A   1      44.634  35.031  31.242  1.00  0.00     0.029 A 
ATOM     61  N   UNL A   1      42.915  34.661  32.603  1.00  0.00    -0.354 N 
ATOM     62  N   UNL A   1      41.609  34.337  35.239  1.00  0.00    -0.248 NA
ATOM     63  C   UNL A   1      41.776  34.009  37.545  1.00  0.00     0.031 C 
ATOM     64  C   UNL A   1      45.124  34.844  32.538  1.00  0.00     0.029 A 
ATOM     65  C   UNL A   1      44.051  34.653  33.395  1.00  0.00     0.049 A 
ATOM     66  H   UNL A   1      41.996  34.539  32.933  1.00  0.00     0.167 HD
ATOM     67  C   UNL A   1      42.954  34.341  35.605  1.00  0.00     0.074 A 
ATOM     68  C   UNL A   1      42.991  34.167  37.042  1.00  0.00     0.031 C 
ATOM     69  C   UNL A   1      44.061  34.472  34.828  1.00  0.00     0.034 A 
BRANCH  56  70
ATOM     70  C   UNL A   1      42.830  35.073  28.770  1.00  0.00     0.023 A 
ATOM     71  C   UNL A   1      43.283  33.997  27.987  1.00  0.00     0.031 A 
ATOM     72  C   UNL A   1      42.935  36.369  28.232  1.00  0.00     0.131 A 
ATOM     73  C   UNL A   1      43.894  34.246  26.747  1.00  0.00     0.055 A 
ATOM     74  C   UNL A   1      43.461  36.599  26.960  1.00  0.00     0.041 A 
ATOM     75  F   UNL A   1      42.551  37.439  28.945  1.00  0.00    -0.206 F 
ATOM     76  C   UNL A   1      43.961  35.536  26.217  1.00  0.00     0.022 A 
BRANCH  73  77
ATOM     77  S   UNL A   1      44.751  32.881  25.914  1.00  0.00     0.124 S 
ATOM     78  O   UNL A   1      46.100  33.005  26.461  1.00  0.00    -0.237 OA
ATOM     79  O   UNL A   1      43.989  31.717  26.350  1.00  0.00    -0.237 OA
ATOM     80  O   UNL A   1      44.628  33.213  24.497  1.00  0.00    -0.744 OA
ENDBRANCH  73  77
ENDBRANCH  56  70
BRANCH  57  81
ATOM     81  C   UNL A   1      38.865  33.846  37.921  1.00  0.00     0.023 A 
ATOM     82  C   UNL A   1      38.310  32.609  38.292  1.00  0.00     0.031 A 
ATOM     83  C   UNL A   1      38.786  34.898  38.852  1.00  0.00     0.131 A 
ATOM     84  C   UNL A   1      37.670  32.469  39.538  1.00  0.00     0.055 A 
ATOM     85  C   UNL A   1      38.206  34.737  40.113  1.00  0.00     0.041 A 
ATOM     86  F   UNL A   1      39.268  36.115  38.548  1.00  0.00    -0.206 F 
ATOM     87  C   UNL A   1      37.631  33.520  40.457  1.00  0.00     0.022 A 
BRANCH  84  88
ATOM     88  S   UNL A   1      36.791  30.923  39.902  1.00  0.00     0.124 S 
ATOM     89  O   UNL A   1      37.633  30.341  40.940  1.00  0.00    -0.237 OA
ATOM     90  O   UNL A   1      35.485  31.412  40.332  1.00  0.00    -0.237 OA
ATOM     91  O   UNL A   1      36.799  30.216  38.622  1.00  0.00    -0.744 OA
ENDBRANCH  84  88
ENDBRANCH  57  81
BRANCH  69  92
ATOM     92  C   UNL A   1      45.401  34.475  35.523  1.00  0.00     0.023 A 
ATOM     93  C   UNL A   1      46.073  35.670  35.830  1.00  0.00     0.031 A 
ATOM     94  C   UNL A   1      46.001  33.261  35.904  1.00  0.00     0.131 A 
ATOM     95  C   UNL A   1      47.325  35.625  36.460  1.00  0.00     0.055 A 
ATOM     96  C   UNL A   1      47.216  33.225  36.590  1.00  0.00     0.041 A 
ATOM     97  F   UNL A   1      45.404  32.089  35.633  1.00  0.00    -0.206 F 
ATOM     98  C   UNL A   1      47.890  34.411  36.861  1.00  0.00     0.022 A 
BRANCH  95  99
ATOM     99  S   UNL A   1      48.247  37.171  36.677  1.00  0.00     0.124 S 
ATOM    100  O   UNL A   1      48.254  37.712  35.322  1.00  0.00    -0.237 OA
ATOM    101  O   UNL A   1      47.429  37.891  37.647  1.00  0.00    -0.237 OA
ATOM    102  O   UNL A   1      49.549  36.727  37.174  1.00  0.00    -0.744 OA
ENDBRANCH  95  99
ENDBRANCH  69  92
ENDBRANCH  43  44
ENDBRANCH  36  38
ENDBRANCH  35  36
ENDBRANCH  34  35
ENDBRANCH  33  34
ENDBRANCH  32  33
ENDBRANCH  31  32
ENDBRANCH   1  31
TORSDOF 24
ENDMDL
