MODEL 1
REMARK VINA RESULT:     -11.7      0.000      0.000
REMARK SMILES Cc1ccc(C(=O)OCCOCCOCCOC(=O)c2ccc(-c3c4nc(c(-c5cc(S(=O)(=O)[O-])ccc5F)c5ccc([nH]5)c(-c5cc(S(=O)(=O)[O-])ccc5F)c5nc(c(-c6cc(S(=O)(=O)[O-])ccc6F)c6ccc3[nH]6)C=C5)C=C4)cc2)cc1NC(=O)c1ccc(Br)o1
REMARK SMILES IDX 13 1 12 2 11 3 10 4 9 5 8 6 6 7 7 8 5 9 1 10 2 11 3 12 84 13
REMARK SMILES IDX 4 14 83 15 85 16 86 17 87 19 88 20 89 21 93 22 90 23 91 24
REMARK SMILES IDX 92 25 14 26 15 27 16 28 17 29 18 30 19 31 20 32 21 33 82 34
REMARK SMILES IDX 22 35 81 36 23 37 24 38 25 39 75 40 26 41 80 42 74 43 76 44
REMARK SMILES IDX 27 45 79 46 73 47 72 48 28 50 60 51 40 52 59 53 41 54 44 55
REMARK SMILES IDX 58 56 77 57 42 58 43 59 57 61 78 62 45 63 29 64 30 65 38 66
REMARK SMILES IDX 31 67 37 68 39 69 36 70 32 71 33 72 34 73 35 74 61 75 62 76
REMARK SMILES IDX 70 77 63 78 69 79 71 80 68 81 64 82 65 83 66 84 67 85 46 86
REMARK SMILES IDX 47 87 55 88 48 89 54 90 56 91 53 92 49 93 50 94 51 95 52 96
REMARK H PARENT 85 18 76 49 44 60
REMARK Flexibility Score: inf
ROOT
ATOM      1  C   UNL A   1      33.279  36.674  28.749  1.00  0.00     0.188 C 
ENDROOT
BRANCH   1   2
ATOM      2  C   UNL A   1      34.004  35.376  28.392  1.00  0.00     0.188 C 
BRANCH   2   3
ATOM      3  O   UNL A   1      33.313  34.127  28.330  1.00  0.00    -0.376 OA
BRANCH   3   4
ATOM      4  C   UNL A   1      34.017  32.872  28.362  1.00  0.00     0.202 C 
BRANCH   4   5
ATOM      5  C   UNL A   1      33.602  31.617  27.486  1.00  0.00     0.261 C 
BRANCH   5   6
ATOM      6  O   UNL A   1      33.925  30.202  27.968  1.00  0.00    -0.460 OA
BRANCH   6   7
ATOM      7  C   UNL A   1      33.926  29.337  26.919  1.00  0.00     0.338 C 
ATOM      8  O   UNL A   1      35.069  29.144  26.553  1.00  0.00    -0.246 OA
BRANCH   7   9
ATOM      9  C   UNL A   1      32.759  28.490  26.226  1.00  0.00     0.062 A 
ATOM     10  C   UNL A   1      29.547  26.318  24.036  1.00  0.00     0.046 C 
ATOM     11  C   UNL A   1      30.627  26.990  24.838  1.00  0.00    -0.027 A 
ATOM     12  C   UNL A   1      31.042  28.197  24.361  1.00  0.00     0.006 A 
ATOM     13  C   UNL A   1      31.311  26.526  25.981  1.00  0.00     0.045 A 
ATOM     14  C   UNL A   1      32.025  28.887  25.077  1.00  0.00     0.016 A 
ATOM     15  C   UNL A   1      32.470  27.192  26.509  1.00  0.00     0.042 A 
BRANCH  13  16
ATOM     16  N   UNL A   1      30.755  25.450  26.684  1.00  0.00    -0.319 N 
ATOM     17  C   UNL A   1      30.949  24.089  26.495  1.00  0.00     0.291 C 
ATOM     18  H   UNL A   1      30.141  25.693  27.415  1.00  0.00     0.170 HD
ATOM     19  O   UNL A   1      30.340  23.327  27.249  1.00  0.00    -0.265 OA
BRANCH  17  20
ATOM     20  C   UNL A   1      31.854  23.617  25.465  1.00  0.00     0.193 A 
ATOM     21  C   UNL A   1      31.646  22.963  24.259  1.00  0.00     0.057 A 
ATOM     22  O   UNL A   1      33.195  23.600  25.758  1.00  0.00    -0.444 OA
ATOM     23  C   UNL A   1      32.912  22.475  23.832  1.00  0.00     0.059 A 
ATOM     24  C   UNL A   1      33.816  22.869  24.791  1.00  0.00     0.170 A 
ATOM     25  Br  UNL A   1      35.610  22.363  24.848  1.00  0.00    -0.008 Br
ENDBRANCH  17  20
ENDBRANCH  13  16
ENDBRANCH   7   9
ENDBRANCH   6   7
ENDBRANCH   5   6
ENDBRANCH   4   5
ENDBRANCH   3   4
ENDBRANCH   2   3
ENDBRANCH   1   2
BRANCH   1  26
ATOM     26  O   UNL A   1      32.466  36.487  29.905  1.00  0.00    -0.376 OA
BRANCH  26  27
ATOM     27  C   UNL A   1      32.944  37.137  31.069  1.00  0.00     0.202 C 
BRANCH  27  28
ATOM     28  C   UNL A   1      33.612  36.191  32.088  1.00  0.00     0.261 C 
BRANCH  28  29
ATOM     29  O   UNL A   1      33.116  34.835  31.948  1.00  0.00    -0.460 OA
BRANCH  29  30
ATOM     30  C   UNL A   1      33.708  33.843  32.697  1.00  0.00     0.338 C 
ATOM     31  O   UNL A   1      33.077  33.077  33.420  1.00  0.00    -0.246 OA
BRANCH  30  32
ATOM     32  C   UNL A   1      35.206  33.865  32.509  1.00  0.00     0.060 A 
ATOM     33  C   UNL A   1      35.950  33.751  31.320  1.00  0.00     0.016 A 
ATOM     34  C   UNL A   1      35.913  33.668  33.642  1.00  0.00     0.016 A 
ATOM     35  C   UNL A   1      37.312  33.192  31.305  1.00  0.00     0.010 A 
ATOM     36  C   UNL A   1      36.980  32.793  33.499  1.00  0.00     0.010 A 
ATOM     37  C   UNL A   1      37.854  32.536  32.407  1.00  0.00    -0.014 A 
BRANCH  37  38
ATOM     38  C   UNL A   1      39.204  31.489  32.477  1.00  0.00     0.031 A 
ATOM     39  C   UNL A   1      39.480  29.955  31.776  1.00  0.00     0.074 A 
ATOM     40  C   UNL A   1      40.375  32.151  32.554  1.00  0.00     0.049 A 
ATOM     41  N   UNL A   1      40.142  29.712  30.659  1.00  0.00    -0.248 NA
ATOM     42  C   UNL A   1      38.885  28.673  32.243  1.00  0.00     0.031 C 
ATOM     43  C   UNL A   1      41.707  31.710  32.150  1.00  0.00     0.029 A 
ATOM     44  N   UNL A   1      40.616  33.237  33.371  1.00  0.00    -0.354 N 
ATOM     45  C   UNL A   1      39.898  28.434  30.143  1.00  0.00     0.074 A 
ATOM     46  C   UNL A   1      39.041  27.851  31.183  1.00  0.00     0.031 C 
ATOM     47  C   UNL A   1      42.597  32.213  33.021  1.00  0.00     0.029 A 
ATOM     48  C   UNL A   1      41.819  32.909  34.032  1.00  0.00     0.049 A 
ATOM     49  H   UNL A   1      40.074  34.053  33.471  1.00  0.00     0.167 HD
ATOM     50  C   UNL A   1      40.959  27.714  29.640  1.00  0.00     0.034 A 
ATOM     51  C   UNL A   1      41.677  32.533  35.337  1.00  0.00     0.034 A 
ATOM     52  C   UNL A   1      42.097  27.908  30.489  1.00  0.00     0.049 A 
ATOM     53  C   UNL A   1      41.945  31.031  35.467  1.00  0.00     0.074 A 
ATOM     54  C   UNL A   1      43.247  28.664  30.460  1.00  0.00     0.029 A 
ATOM     55  N   UNL A   1      41.935  27.467  31.778  1.00  0.00    -0.354 N 
ATOM     56  N   UNL A   1      41.805  30.145  34.504  1.00  0.00    -0.248 NA
ATOM     57  C   UNL A   1      42.572  30.453  36.650  1.00  0.00     0.031 C 
ATOM     58  C   UNL A   1      43.638  28.842  31.825  1.00  0.00     0.029 A 
ATOM     59  C   UNL A   1      42.749  28.150  32.636  1.00  0.00     0.049 A 
ATOM     60  H   UNL A   1      41.314  26.752  32.049  1.00  0.00     0.167 HD
ATOM     61  C   UNL A   1      42.399  28.963  34.875  1.00  0.00     0.074 A 
ATOM     62  C   UNL A   1      42.822  29.196  36.244  1.00  0.00     0.031 C 
ATOM     63  C   UNL A   1      42.615  27.888  34.052  1.00  0.00     0.034 A 
BRANCH  50  64
ATOM     64  C   UNL A   1      41.000  26.991  28.306  1.00  0.00     0.023 A 
ATOM     65  C   UNL A   1      40.999  25.575  28.251  1.00  0.00     0.031 A 
ATOM     66  C   UNL A   1      41.060  27.639  27.060  1.00  0.00     0.131 A 
ATOM     67  C   UNL A   1      41.087  24.876  27.023  1.00  0.00     0.055 A 
ATOM     68  C   UNL A   1      41.165  26.947  25.835  1.00  0.00     0.041 A 
ATOM     69  F   UNL A   1      40.995  28.973  26.993  1.00  0.00    -0.206 F 
ATOM     70  C   UNL A   1      41.184  25.557  25.812  1.00  0.00     0.022 A 
BRANCH  67  71
ATOM     71  S   UNL A   1      41.070  23.054  27.024  1.00  0.00     0.124 S 
ATOM     72  O   UNL A   1      39.649  22.754  26.885  1.00  0.00    -0.237 OA
ATOM     73  O   UNL A   1      41.913  22.738  25.876  1.00  0.00    -0.237 OA
ATOM     74  O   UNL A   1      41.647  22.705  28.322  1.00  0.00    -0.744 OA
ENDBRANCH  67  71
ENDBRANCH  50  64
BRANCH  51  75
ATOM     75  C   UNL A   1      40.647  33.436  35.999  1.00  0.00     0.023 A 
ATOM     76  C   UNL A   1      39.414  32.798  36.351  1.00  0.00     0.031 A 
ATOM     77  C   UNL A   1      40.950  34.617  36.684  1.00  0.00     0.131 A 
ATOM     78  C   UNL A   1      38.702  33.175  37.503  1.00  0.00     0.055 A 
ATOM     79  C   UNL A   1      40.124  35.091  37.728  1.00  0.00     0.041 A 
ATOM     80  F   UNL A   1      42.118  35.246  36.486  1.00  0.00    -0.206 F 
ATOM     81  C   UNL A   1      39.044  34.331  38.192  1.00  0.00     0.022 A 
BRANCH  78  82
ATOM     82  S   UNL A   1      37.582  31.955  38.280  1.00  0.00     0.124 S 
ATOM     83  O   UNL A   1      37.727  30.807  37.392  1.00  0.00    -0.237 OA
ATOM     84  O   UNL A   1      38.143  31.804  39.621  1.00  0.00    -0.237 OA
ATOM     85  O   UNL A   1      36.279  32.615  38.249  1.00  0.00    -0.744 OA
ENDBRANCH  78  82
ENDBRANCH  51  75
BRANCH  63  86
ATOM     86  C   UNL A   1      42.751  26.456  34.543  1.00  0.00     0.023 A 
ATOM     87  C   UNL A   1      43.839  25.666  34.167  1.00  0.00     0.031 A 
ATOM     88  C   UNL A   1      41.878  25.867  35.498  1.00  0.00     0.131 A 
ATOM     89  C   UNL A   1      43.951  24.334  34.587  1.00  0.00     0.055 A 
ATOM     90  C   UNL A   1      42.067  24.584  36.020  1.00  0.00     0.041 A 
ATOM     91  F   UNL A   1      40.813  26.514  35.992  1.00  0.00    -0.206 F 
ATOM     92  C   UNL A   1      43.091  23.791  35.533  1.00  0.00     0.022 A 
BRANCH  89  93
ATOM     93  S   UNL A   1      45.167  23.312  33.730  1.00  0.00     0.124 S 
ATOM     94  O   UNL A   1      45.045  22.047  34.451  1.00  0.00    -0.237 OA
ATOM     95  O   UNL A   1      44.661  23.312  32.362  1.00  0.00    -0.237 OA
ATOM     96  O   UNL A   1      46.422  24.029  33.938  1.00  0.00    -0.744 OA
ENDBRANCH  89  93
ENDBRANCH  63  86
ENDBRANCH  37  38
ENDBRANCH  30  32
ENDBRANCH  29  30
ENDBRANCH  28  29
ENDBRANCH  27  28
ENDBRANCH  26  27
ENDBRANCH   1  26
TORSDOF 22
ENDMDL
MODEL 2
REMARK VINA RESULT:     -11.5      2.047      2.687
REMARK SMILES Cc1ccc(C(=O)OCCOCCOCCOC(=O)c2ccc(-c3c4nc(c(-c5cc(S(=O)(=O)[O-])ccc5F)c5ccc([nH]5)c(-c5cc(S(=O)(=O)[O-])ccc5F)c5nc(c(-c6cc(S(=O)(=O)[O-])ccc6F)c6ccc3[nH]6)C=C5)C=C4)cc2)cc1NC(=O)c1ccc(Br)o1
REMARK SMILES IDX 13 1 12 2 11 3 10 4 9 5 8 6 6 7 7 8 5 9 1 10 2 11 3 12 84 13
REMARK SMILES IDX 4 14 83 15 85 16 86 17 87 19 88 20 89 21 93 22 90 23 91 24
REMARK SMILES IDX 92 25 14 26 15 27 16 28 17 29 18 30 19 31 20 32 21 33 82 34
REMARK SMILES IDX 22 35 81 36 23 37 24 38 25 39 75 40 26 41 80 42 74 43 76 44
REMARK SMILES IDX 27 45 79 46 73 47 72 48 28 50 60 51 40 52 59 53 41 54 44 55
REMARK SMILES IDX 58 56 77 57 42 58 43 59 57 61 78 62 45 63 29 64 30 65 38 66
REMARK SMILES IDX 31 67 37 68 39 69 36 70 32 71 33 72 34 73 35 74 61 75 62 76
REMARK SMILES IDX 70 77 63 78 69 79 71 80 68 81 64 82 65 83 66 84 67 85 46 86
REMARK SMILES IDX 47 87 55 88 48 89 54 90 56 91 53 92 49 93 50 94 51 95 52 96
REMARK H PARENT 85 18 76 49 44 60
REMARK Flexibility Score: inf
ROOT
ATOM      1  C   UNL A   1      33.045  36.704  30.025  1.00  0.00     0.188 C 
ENDROOT
BRANCH   1   2
ATOM      2  C   UNL A   1      32.968  35.208  29.717  1.00  0.00     0.188 C 
BRANCH   2   3
ATOM      3  O   UNL A   1      34.130  34.459  29.357  1.00  0.00    -0.376 OA
BRANCH   3   4
ATOM      4  C   UNL A   1      34.093  33.026  29.221  1.00  0.00     0.202 C 
BRANCH   4   5
ATOM      5  C   UNL A   1      34.823  32.242  28.053  1.00  0.00     0.261 C 
BRANCH   5   6
ATOM      6  O   UNL A   1      34.005  31.587  26.938  1.00  0.00    -0.460 OA
BRANCH   6   7
ATOM      7  C   UNL A   1      34.031  30.233  27.071  1.00  0.00     0.338 C 
ATOM      8  O   UNL A   1      34.986  29.910  27.749  1.00  0.00    -0.246 OA
BRANCH   7   9
ATOM      9  C   UNL A   1      33.003  29.093  26.623  1.00  0.00     0.062 A 
ATOM     10  C   UNL A   1      30.021  25.924  25.675  1.00  0.00     0.046 C 
ATOM     11  C   UNL A   1      31.046  26.998  25.910  1.00  0.00    -0.027 A 
ATOM     12  C   UNL A   1      31.298  27.289  27.217  1.00  0.00     0.006 A 
ATOM     13  C   UNL A   1      31.746  27.786  24.972  1.00  0.00     0.045 A 
ATOM     14  C   UNL A   1      32.263  28.259  27.503  1.00  0.00     0.016 A 
ATOM     15  C   UNL A   1      32.537  28.922  25.357  1.00  0.00     0.042 A 
BRANCH  13  16
ATOM     16  N   UNL A   1      31.757  27.359  23.638  1.00  0.00    -0.319 N 
ATOM     17  C   UNL A   1      30.865  27.658  22.617  1.00  0.00     0.291 C 
ATOM     18  H   UNL A   1      32.501  26.765  23.389  1.00  0.00     0.170 HD
ATOM     19  O   UNL A   1      31.088  27.155  21.514  1.00  0.00    -0.265 OA
BRANCH  17  20
ATOM     20  C   UNL A   1      29.745  28.547  22.863  1.00  0.00     0.193 A 
ATOM     21  C   UNL A   1      28.397  28.316  23.097  1.00  0.00     0.057 A 
ATOM     22  O   UNL A   1      29.939  29.887  22.643  1.00  0.00    -0.444 OA
ATOM     23  C   UNL A   1      27.735  29.567  22.951  1.00  0.00     0.059 A 
ATOM     24  C   UNL A   1      28.715  30.484  22.652  1.00  0.00     0.170 A 
ATOM     25  Br  UNL A   1      28.412  32.264  22.182  1.00  0.00    -0.008 Br
ENDBRANCH  17  20
ENDBRANCH  13  16
ENDBRANCH   7   9
ENDBRANCH   6   7
ENDBRANCH   5   6
ENDBRANCH   4   5
ENDBRANCH   3   4
ENDBRANCH   2   3
ENDBRANCH   1   2
BRANCH   1  26
ATOM     26  O   UNL A   1      32.609  36.960  31.358  1.00  0.00    -0.376 OA
BRANCH  26  27
ATOM     27  C   UNL A   1      33.601  37.521  32.201  1.00  0.00     0.202 C 
BRANCH  27  28
ATOM     28  C   UNL A   1      34.412  36.478  32.997  1.00  0.00     0.261 C 
BRANCH  28  29
ATOM     29  O   UNL A   1      33.589  35.339  33.361  1.00  0.00    -0.460 OA
BRANCH  29  30
ATOM     30  C   UNL A   1      34.069  34.076  33.096  1.00  0.00     0.338 C 
ATOM     31  O   UNL A   1      33.345  33.092  32.973  1.00  0.00    -0.246 OA
BRANCH  30  32
ATOM     32  C   UNL A   1      35.576  34.094  33.009  1.00  0.00     0.060 A 
ATOM     33  C   UNL A   1      36.396  34.138  31.866  1.00  0.00     0.016 A 
ATOM     34  C   UNL A   1      36.204  33.720  34.143  1.00  0.00     0.016 A 
ATOM     35  C   UNL A   1      37.749  33.558  31.856  1.00  0.00     0.010 A 
ATOM     36  C   UNL A   1      37.268  32.853  33.942  1.00  0.00     0.010 A 
ATOM     37  C   UNL A   1      38.210  32.738  32.883  1.00  0.00    -0.014 A 
BRANCH  37  38
ATOM     38  C   UNL A   1      39.540  31.664  32.885  1.00  0.00     0.031 A 
ATOM     39  C   UNL A   1      39.759  30.138  32.148  1.00  0.00     0.074 A 
ATOM     40  C   UNL A   1      40.726  32.301  32.931  1.00  0.00     0.049 A 
ATOM     41  N   UNL A   1      40.375  29.902  31.004  1.00  0.00    -0.248 NA
ATOM     42  C   UNL A   1      39.155  28.860  32.614  1.00  0.00     0.031 C 
ATOM     43  C   UNL A   1      42.033  31.842  32.471  1.00  0.00     0.029 A 
ATOM     44  N   UNL A   1      41.018  33.368  33.757  1.00  0.00    -0.354 N 
ATOM     45  C   UNL A   1      40.087  28.639  30.475  1.00  0.00     0.074 A 
ATOM     46  C   UNL A   1      39.256  28.054  31.535  1.00  0.00     0.031 C 
ATOM     47  C   UNL A   1      42.964  32.312  33.317  1.00  0.00     0.029 A 
ATOM     48  C   UNL A   1      42.238  33.005  34.368  1.00  0.00     0.049 A 
ATOM     49  H   UNL A   1      40.497  34.192  33.891  1.00  0.00     0.167 HD
ATOM     50  C   UNL A   1      41.114  27.907  29.921  1.00  0.00     0.034 A 
ATOM     51  C   UNL A   1      42.136  32.608  35.670  1.00  0.00     0.034 A 
ATOM     52  C   UNL A   1      42.286  28.063  30.731  1.00  0.00     0.049 A 
ATOM     53  C   UNL A   1      42.378  31.099  35.764  1.00  0.00     0.074 A 
ATOM     54  C   UNL A   1      43.449  28.798  30.673  1.00  0.00     0.029 A 
ATOM     55  N   UNL A   1      42.162  27.602  32.017  1.00  0.00    -0.354 N 
ATOM     56  N   UNL A   1      42.185  30.233  34.792  1.00  0.00    -0.248 NA
ATOM     57  C   UNL A   1      43.036  30.487  36.913  1.00  0.00     0.031 C 
ATOM     58  C   UNL A   1      43.892  28.943  32.025  1.00  0.00     0.029 A 
ATOM     59  C   UNL A   1      43.020  28.254  32.856  1.00  0.00     0.049 A 
ATOM     60  H   UNL A   1      41.537  26.895  32.298  1.00  0.00     0.167 HD
ATOM     61  C   UNL A   1      42.769  29.033  35.120  1.00  0.00     0.074 A 
ATOM     62  C   UNL A   1      43.245  29.233  36.477  1.00  0.00     0.031 C 
ATOM     63  C   UNL A   1      42.933  27.969  34.271  1.00  0.00     0.034 A 
BRANCH  50  64
ATOM     64  C   UNL A   1      41.092  27.207  28.574  1.00  0.00     0.023 A 
ATOM     65  C   UNL A   1      41.082  25.793  28.494  1.00  0.00     0.031 A 
ATOM     66  C   UNL A   1      41.099  27.877  27.338  1.00  0.00     0.131 A 
ATOM     67  C   UNL A   1      41.111  25.116  27.252  1.00  0.00     0.055 A 
ATOM     68  C   UNL A   1      41.146  27.206  26.098  1.00  0.00     0.041 A 
ATOM     69  F   UNL A   1      41.038  29.213  27.298  1.00  0.00    -0.206 F 
ATOM     70  C   UNL A   1      41.158  25.817  26.050  1.00  0.00     0.022 A 
BRANCH  67  71
ATOM     71  S   UNL A   1      41.086  23.293  27.221  1.00  0.00     0.124 S 
ATOM     72  O   UNL A   1      41.727  22.951  28.486  1.00  0.00    -0.237 OA
ATOM     73  O   UNL A   1      39.659  23.007  27.121  1.00  0.00    -0.237 OA
ATOM     74  O   UNL A   1      41.864  22.958  26.029  1.00  0.00    -0.744 OA
ENDBRANCH  67  71
ENDBRANCH  50  64
BRANCH  51  75
ATOM     75  C   UNL A   1      41.149  33.518  36.385  1.00  0.00     0.023 A 
ATOM     76  C   UNL A   1      39.813  33.012  36.485  1.00  0.00     0.031 A 
ATOM     77  C   UNL A   1      41.506  34.506  37.309  1.00  0.00     0.131 A 
ATOM     78  C   UNL A   1      39.014  33.279  37.610  1.00  0.00     0.055 A 
ATOM     79  C   UNL A   1      40.620  34.904  38.336  1.00  0.00     0.041 A 
ATOM     80  F   UNL A   1      42.757  34.987  37.352  1.00  0.00    -0.206 F 
ATOM     81  C   UNL A   1      39.406  34.236  38.537  1.00  0.00     0.022 A 
BRANCH  78  82
ATOM     82  S   UNL A   1      37.666  32.114  38.025  1.00  0.00     0.124 S 
ATOM     83  O   UNL A   1      37.932  31.010  37.110  1.00  0.00    -0.237 OA
ATOM     84  O   UNL A   1      37.895  31.841  39.443  1.00  0.00    -0.237 OA
ATOM     85  O   UNL A   1      36.453  32.881  37.753  1.00  0.00    -0.744 OA
ENDBRANCH  78  82
ENDBRANCH  51  75
BRANCH  63  86
ATOM     86  C   UNL A   1      43.057  26.526  34.732  1.00  0.00     0.023 A 
ATOM     87  C   UNL A   1      44.306  25.957  34.987  1.00  0.00     0.031 A 
ATOM     88  C   UNL A   1      41.942  25.706  35.057  1.00  0.00     0.131 A 
ATOM     89  C   UNL A   1      44.429  24.617  35.376  1.00  0.00     0.055 A 
ATOM     90  C   UNL A   1      42.066  24.414  35.575  1.00  0.00     0.041 A 
ATOM     91  F   UNL A   1      40.676  26.124  34.911  1.00  0.00    -0.206 F 
ATOM     92  C   UNL A   1      43.321  23.845  35.702  1.00  0.00     0.022 A 
BRANCH  89  93
ATOM     93  S   UNL A   1      46.081  23.895  35.291  1.00  0.00     0.124 S 
ATOM     94  O   UNL A   1      46.220  23.654  33.856  1.00  0.00    -0.237 OA
ATOM     95  O   UNL A   1      46.913  24.962  35.836  1.00  0.00    -0.237 OA
ATOM     96  O   UNL A   1      45.972  22.696  36.116  1.00  0.00    -0.744 OA
ENDBRANCH  89  93
ENDBRANCH  63  86
ENDBRANCH  37  38
ENDBRANCH  30  32
ENDBRANCH  29  30
ENDBRANCH  28  29
ENDBRANCH  27  28
ENDBRANCH  26  27
ENDBRANCH   1  26
TORSDOF 22
ENDMDL
MODEL 3
REMARK VINA RESULT:     -10.6      4.665     11.209
REMARK SMILES Cc1ccc(C(=O)OCCOCCOCCOC(=O)c2ccc(-c3c4nc(c(-c5cc(S(=O)(=O)[O-])ccc5F)c5ccc([nH]5)c(-c5cc(S(=O)(=O)[O-])ccc5F)c5nc(c(-c6cc(S(=O)(=O)[O-])ccc6F)c6ccc3[nH]6)C=C5)C=C4)cc2)cc1NC(=O)c1ccc(Br)o1
REMARK SMILES IDX 13 1 12 2 11 3 10 4 9 5 8 6 6 7 7 8 5 9 1 10 2 11 3 12 84 13
REMARK SMILES IDX 4 14 83 15 85 16 86 17 87 19 88 20 89 21 93 22 90 23 91 24
REMARK SMILES IDX 92 25 14 26 15 27 16 28 17 29 18 30 19 31 20 32 21 33 82 34
REMARK SMILES IDX 22 35 81 36 23 37 24 38 25 39 75 40 26 41 80 42 74 43 76 44
REMARK SMILES IDX 27 45 79 46 73 47 72 48 28 50 60 51 40 52 59 53 41 54 44 55
REMARK SMILES IDX 58 56 77 57 42 58 43 59 57 61 78 62 45 63 29 64 30 65 38 66
REMARK SMILES IDX 31 67 37 68 39 69 36 70 32 71 33 72 34 73 35 74 61 75 62 76
REMARK SMILES IDX 70 77 63 78 69 79 71 80 68 81 64 82 65 83 66 84 67 85 46 86
REMARK SMILES IDX 47 87 55 88 48 89 54 90 56 91 53 92 49 93 50 94 51 95 52 96
REMARK H PARENT 85 18 76 49 44 60
REMARK Flexibility Score: inf
ROOT
ATOM      1  C   UNL A   1      49.861  26.954  28.835  1.00  0.00     0.188 C 
ENDROOT
BRANCH   1   2
ATOM      2  C   UNL A   1      50.639  27.326  27.572  1.00  0.00     0.188 C 
BRANCH   2   3
ATOM      3  O   UNL A   1      50.094  28.212  26.592  1.00  0.00    -0.376 OA
BRANCH   3   4
ATOM      4  C   UNL A   1      49.714  27.748  25.284  1.00  0.00     0.202 C 
BRANCH   4   5
ATOM      5  C   UNL A   1      49.383  26.231  24.959  1.00  0.00     0.261 C 
BRANCH   5   6
ATOM      6  O   UNL A   1      48.397  25.455  25.835  1.00  0.00    -0.460 OA
BRANCH   6   7
ATOM      7  C   UNL A   1      47.373  24.977  25.077  1.00  0.00     0.338 C 
ATOM      8  O   UNL A   1      47.579  25.233  23.908  1.00  0.00    -0.246 OA
BRANCH   7   9
ATOM      9  C   UNL A   1      46.101  24.078  25.440  1.00  0.00     0.062 A 
ATOM     10  C   UNL A   1      42.525  21.517  26.135  1.00  0.00     0.046 C 
ATOM     11  C   UNL A   1      43.745  22.383  25.987  1.00  0.00    -0.027 A 
ATOM     12  C   UNL A   1      43.992  22.831  24.724  1.00  0.00     0.006 A 
ATOM     13  C   UNL A   1      44.700  22.754  26.956  1.00  0.00     0.045 A 
ATOM     14  C   UNL A   1      45.097  23.664  24.524  1.00  0.00     0.016 A 
ATOM     15  C   UNL A   1      45.930  23.412  26.613  1.00  0.00     0.042 A 
BRANCH  13  16
ATOM     16  N   UNL A   1      44.366  22.577  28.304  1.00  0.00    -0.319 N 
ATOM     17  C   UNL A   1      43.558  23.362  29.116  1.00  0.00     0.291 C 
ATOM     18  H   UNL A   1      44.758  21.785  28.738  1.00  0.00     0.170 HD
ATOM     19  O   UNL A   1      43.414  22.997  30.284  1.00  0.00    -0.265 OA
BRANCH  17  20
ATOM     20  C   UNL A   1      42.906  24.540  28.575  1.00  0.00     0.193 A 
ATOM     21  C   UNL A   1      43.358  25.824  28.307  1.00  0.00     0.057 A 
ATOM     22  O   UNL A   1      41.538  24.515  28.471  1.00  0.00    -0.444 OA
ATOM     23  C   UNL A   1      42.205  26.628  28.089  1.00  0.00     0.059 A 
ATOM     24  C   UNL A   1      41.123  25.789  28.223  1.00  0.00     0.170 A 
ATOM     25  Br  UNL A   1      39.338  26.328  28.215  1.00  0.00    -0.008 Br
ENDBRANCH  17  20
ENDBRANCH  13  16
ENDBRANCH   7   9
ENDBRANCH   6   7
ENDBRANCH   5   6
ENDBRANCH   4   5
ENDBRANCH   3   4
ENDBRANCH   2   3
ENDBRANCH   1   2
BRANCH   1  26
ATOM     26  O   UNL A   1      48.704  27.777  28.966  1.00  0.00    -0.376 OA
BRANCH  26  27
ATOM     27  C   UNL A   1      47.476  27.097  28.769  1.00  0.00     0.202 C 
BRANCH  27  28
ATOM     28  C   UNL A   1      46.552  27.758  27.726  1.00  0.00     0.261 C 
BRANCH  28  29
ATOM     29  O   UNL A   1      46.978  29.114  27.433  1.00  0.00    -0.460 OA
BRANCH  29  30
ATOM     30  C   UNL A   1      46.309  29.810  26.451  1.00  0.00     0.338 C 
ATOM     31  O   UNL A   1      46.624  29.774  25.265  1.00  0.00    -0.246 OA
BRANCH  30  32
ATOM     32  C   UNL A   1      45.182  30.615  27.053  1.00  0.00     0.060 A 
ATOM     33  C   UNL A   1      45.225  31.552  28.101  1.00  0.00     0.016 A 
ATOM     34  C   UNL A   1      43.948  30.157  26.752  1.00  0.00     0.016 A 
ATOM     35  C   UNL A   1      44.065  31.798  28.974  1.00  0.00     0.010 A 
ATOM     36  C   UNL A   1      43.077  30.126  27.831  1.00  0.00     0.010 A 
ATOM     37  C   UNL A   1      42.947  30.968  28.969  1.00  0.00    -0.014 A 
BRANCH  37  38
ATOM     38  C   UNL A   1      41.709  30.827  30.139  1.00  0.00     0.031 A 
ATOM     39  C   UNL A   1      40.405  31.859  30.534  1.00  0.00     0.074 A 
ATOM     40  C   UNL A   1      41.334  29.550  30.352  1.00  0.00     0.049 A 
ATOM     41  N   UNL A   1      39.158  31.741  30.115  1.00  0.00    -0.248 NA
ATOM     42  C   UNL A   1      40.514  33.136  31.292  1.00  0.00     0.031 C 
ATOM     43  C   UNL A   1      40.061  29.037  30.849  1.00  0.00     0.029 A 
ATOM     44  N   UNL A   1      42.203  28.486  30.496  1.00  0.00    -0.354 N 
ATOM     45  C   UNL A   1      38.407  32.908  30.293  1.00  0.00     0.074 A 
ATOM     46  C   UNL A   1      39.360  33.772  31.000  1.00  0.00     0.031 C 
ATOM     47  C   UNL A   1      40.312  27.961  31.613  1.00  0.00     0.029 A 
ATOM     48  C   UNL A   1      41.759  27.837  31.669  1.00  0.00     0.049 A 
ATOM     49  H   UNL A   1      42.957  28.236  29.915  1.00  0.00     0.167 HD
ATOM     50  C   UNL A   1      37.112  32.795  30.746  1.00  0.00     0.034 A 
ATOM     51  C   UNL A   1      42.541  28.038  32.770  1.00  0.00     0.034 A 
ATOM     52  C   UNL A   1      37.060  31.782  31.759  1.00  0.00     0.049 A 
ATOM     53  C   UNL A   1      41.804  28.944  33.760  1.00  0.00     0.074 A 
ATOM     54  C   UNL A   1      36.670  30.464  31.835  1.00  0.00     0.029 A 
ATOM     55  N   UNL A   1      37.815  32.046  32.873  1.00  0.00    -0.354 N 
ATOM     56  N   UNL A   1      40.866  29.813  33.448  1.00  0.00    -0.248 NA
ATOM     57  C   UNL A   1      41.946  28.796  35.205  1.00  0.00     0.031 C 
ATOM     58  C   UNL A   1      37.409  29.895  32.920  1.00  0.00     0.029 A 
ATOM     59  C   UNL A   1      38.183  30.890  33.501  1.00  0.00     0.049 A 
ATOM     60  H   UNL A   1      38.059  32.949  33.181  1.00  0.00     0.167 HD
ATOM     61  C   UNL A   1      40.228  30.236  34.589  1.00  0.00     0.074 A 
ATOM     62  C   UNL A   1      40.974  29.604  35.663  1.00  0.00     0.031 C 
ATOM     63  C   UNL A   1      39.082  30.987  34.630  1.00  0.00     0.034 A 
BRANCH  50  64
ATOM     64  C   UNL A   1      35.890  33.471  30.151  1.00  0.00     0.023 A 
ATOM     65  C   UNL A   1      35.089  34.337  30.935  1.00  0.00     0.031 A 
ATOM     66  C   UNL A   1      35.455  33.288  28.826  1.00  0.00     0.131 A 
ATOM     67  C   UNL A   1      33.917  34.942  30.419  1.00  0.00     0.055 A 
ATOM     68  C   UNL A   1      34.279  33.875  28.313  1.00  0.00     0.041 A 
ATOM     69  F   UNL A   1      36.177  32.547  27.978  1.00  0.00    -0.206 F 
ATOM     70  C   UNL A   1      33.499  34.703  29.113  1.00  0.00     0.022 A 
BRANCH  67  71
ATOM     71  S   UNL A   1      32.938  36.053  31.481  1.00  0.00     0.124 S 
ATOM     72  O   UNL A   1      33.933  36.527  32.438  1.00  0.00    -0.237 OA
ATOM     73  O   UNL A   1      32.442  37.036  30.523  1.00  0.00    -0.237 OA
ATOM     74  O   UNL A   1      31.913  35.176  32.046  1.00  0.00    -0.744 OA
ENDBRANCH  67  71
ENDBRANCH  50  64
BRANCH  51  75
ATOM     75  C   UNL A   1      44.001  27.977  32.353  1.00  0.00     0.023 A 
ATOM     76  C   UNL A   1      44.758  29.168  32.602  1.00  0.00     0.031 A 
ATOM     77  C   UNL A   1      44.738  26.796  32.210  1.00  0.00     0.131 A 
ATOM     78  C   UNL A   1      46.115  29.107  32.964  1.00  0.00     0.055 A 
ATOM     79  C   UNL A   1      46.139  26.779  32.397  1.00  0.00     0.041 A 
ATOM     80  F   UNL A   1      44.120  25.616  32.056  1.00  0.00    -0.206 F 
ATOM     81  C   UNL A   1      46.818  27.915  32.852  1.00  0.00     0.022 A 
BRANCH  78  82
ATOM     82  S   UNL A   1      46.832  30.496  33.914  1.00  0.00     0.124 S 
ATOM     83  O   UNL A   1      45.959  30.543  35.082  1.00  0.00    -0.237 OA
ATOM     84  O   UNL A   1      48.203  30.053  34.156  1.00  0.00    -0.237 OA
ATOM     85  O   UNL A   1      46.724  31.630  33.000  1.00  0.00    -0.744 OA
ENDBRANCH  78  82
ENDBRANCH  51  75
BRANCH  63  86
ATOM     86  C   UNL A   1      38.695  31.883  35.795  1.00  0.00     0.023 A 
ATOM     87  C   UNL A   1      38.124  31.352  36.952  1.00  0.00     0.031 A 
ATOM     88  C   UNL A   1      38.993  33.272  35.851  1.00  0.00     0.131 A 
ATOM     89  C   UNL A   1      37.731  32.176  38.015  1.00  0.00     0.055 A 
ATOM     90  C   UNL A   1      38.723  34.069  36.967  1.00  0.00     0.041 A 
ATOM     91  F   UNL A   1      39.582  33.921  34.836  1.00  0.00    -0.206 F 
ATOM     92  C   UNL A   1      38.050  33.528  38.048  1.00  0.00     0.022 A 
BRANCH  89  93
ATOM     93  S   UNL A   1      36.662  31.435  39.265  1.00  0.00     0.124 S 
ATOM     94  O   UNL A   1      37.542  31.420  40.431  1.00  0.00    -0.237 OA
ATOM     95  O   UNL A   1      35.553  32.381  39.322  1.00  0.00    -0.237 OA
ATOM     96  O   UNL A   1      36.344  30.123  38.708  1.00  0.00    -0.744 OA
ENDBRANCH  89  93
ENDBRANCH  63  86
ENDBRANCH  37  38
ENDBRANCH  30  32
ENDBRANCH  29  30
ENDBRANCH  28  29
ENDBRANCH  27  28
ENDBRANCH  26  27
ENDBRANCH   1  26
TORSDOF 22
ENDMDL
