MODEL 1
REMARK VINA RESULT:      -9.3      0.000      0.000
REMARK SMILES C[C@H](NC(=O)N1CCN(/C=C/c2ccccc2)CC1)C(=O)OCCOCCOCCOC(=O)c1ccc(-c2c3nc(c(-c4cc(S(=O)(=O)[O-])ccc4F)c4ccc([nH]4)c(-c4cc(S(=O)(=O)[O-])ccc4F)c4nc(c(-c5cc(S(=O)(=O)[O-])ccc5F)c5ccc2[nH]5)C=C4)C=C3)cc1
REMARK SMILES IDX 26 1 25 2 24 3 23 4 22 5 20 6 21 7 2 8 1 9 3 10 4 11 5 13
REMARK SMILES IDX 6 14 7 15 19 16 8 17 18 18 9 19 10 20 11 21 12 22 13 23
REMARK SMILES IDX 17 24 14 25 16 26 15 27 27 28 28 29 29 30 30 31 31 32 32 33
REMARK SMILES IDX 33 34 34 35 35 36 96 37 36 38 95 39 37 40 38 41 39 42 89 43
REMARK SMILES IDX 40 44 94 45 88 46 90 47 41 48 93 49 87 50 86 51 42 53 74 54
REMARK SMILES IDX 54 55 73 56 55 57 58 58 72 59 91 60 56 61 57 62 71 64 92 65
REMARK SMILES IDX 59 66 43 67 44 68 52 69 45 70 51 71 53 72 50 73 46 74 47 75
REMARK SMILES IDX 48 76 49 77 75 78 76 79 84 80 77 81 83 82 85 83 82 84 78 85
REMARK SMILES IDX 79 86 80 87 81 88 60 89 61 90 69 91 62 92 68 93 70 94 67 95
REMARK SMILES IDX 63 96 64 97 65 98 66 99
REMARK H PARENT 3 12 90 52 58 63
REMARK Flexibility Score: inf
ROOT
ATOM      1  C   UNL A   1      34.054  33.188  28.410  1.00  0.00     0.188 C 
ENDROOT
BRANCH   1   2
ATOM      2  O   UNL A   1      33.896  32.039  27.598  1.00  0.00    -0.376 OA
BRANCH   2   3
ATOM      3  C   UNL A   1      34.419  30.779  27.993  1.00  0.00     0.202 C 
BRANCH   3   4
ATOM      4  C   UNL A   1      34.135  29.461  27.251  1.00  0.00     0.261 C 
BRANCH   4   5
ATOM      5  O   UNL A   1      33.974  29.538  25.829  1.00  0.00    -0.462 OA
BRANCH   5   6
ATOM      6  C   UNL A   1      32.687  29.565  25.396  1.00  0.00     0.328 C 
ATOM      7  O   UNL A   1      31.784  30.188  25.944  1.00  0.00    -0.250 OA
BRANCH   6   8
ATOM      8  C   UNL A   1      32.429  28.636  24.201  1.00  0.00     0.190 C 
ATOM      9  C   UNL A   1      33.519  29.033  23.217  1.00  0.00     0.043 C 
BRANCH   8  10
ATOM     10  N   UNL A   1      31.091  28.670  23.609  1.00  0.00    -0.325 N 
ATOM     11  C   UNL A   1      30.055  27.803  23.635  1.00  0.00     0.318 C 
ATOM     12  H   UNL A   1      30.910  29.488  23.090  1.00  0.00     0.166 HD
ATOM     13  O   UNL A   1      29.073  28.078  22.942  1.00  0.00    -0.249 OA
ATOM     14  N   UNL A   1      30.163  26.603  24.267  1.00  0.00    -0.321 N 
ATOM     15  C   UNL A   1      29.637  25.428  23.592  1.00  0.00     0.143 C 
ATOM     16  C   UNL A   1      30.707  26.286  25.584  1.00  0.00     0.143 C 
ATOM     17  C   UNL A   1      30.802  24.481  23.291  1.00  0.00     0.137 C 
ATOM     18  C   UNL A   1      31.738  25.135  25.569  1.00  0.00     0.137 C 
ATOM     19  N   UNL A   1      31.550  24.099  24.512  1.00  0.00    -0.374 N 
BRANCH  19  20
ATOM     20  C   UNL A   1      32.269  22.915  24.594  1.00  0.00     0.081 C 
ATOM     21  C   UNL A   1      32.271  21.853  23.774  1.00  0.00     0.025 C 
BRANCH  21  22
ATOM     22  C   UNL A   1      32.970  20.599  24.084  1.00  0.00    -0.024 A 
ATOM     23  C   UNL A   1      34.267  20.632  24.610  1.00  0.00     0.008 A 
ATOM     24  C   UNL A   1      32.407  19.358  23.752  1.00  0.00     0.008 A 
ATOM     25  C   UNL A   1      34.977  19.445  24.814  1.00  0.00     0.001 A 
ATOM     26  C   UNL A   1      33.115  18.174  23.956  1.00  0.00     0.001 A 
ATOM     27  C   UNL A   1      34.402  18.219  24.484  1.00  0.00     0.000 A 
ENDBRANCH  21  22
ENDBRANCH  19  20
ENDBRANCH   8  10
ENDBRANCH   6   8
ENDBRANCH   5   6
ENDBRANCH   4   5
ENDBRANCH   3   4
ENDBRANCH   2   3
ENDBRANCH   1   2
BRANCH   1  28
ATOM     28  C   UNL A   1      34.552  33.022  29.854  1.00  0.00     0.188 C 
BRANCH  28  29
ATOM     29  O   UNL A   1      35.845  33.521  30.096  1.00  0.00    -0.376 OA
BRANCH  29  30
ATOM     30  C   UNL A   1      36.955  32.839  29.524  1.00  0.00     0.202 C 
BRANCH  30  31
ATOM     31  C   UNL A   1      37.564  31.525  30.072  1.00  0.00     0.261 C 
BRANCH  31  32
ATOM     32  O   UNL A   1      36.719  30.621  30.796  1.00  0.00    -0.460 OA
BRANCH  32  33
ATOM     33  C   UNL A   1      37.331  29.706  31.593  1.00  0.00     0.338 C 
ATOM     34  O   UNL A   1      37.660  28.584  31.288  1.00  0.00    -0.246 OA
BRANCH  33  35
ATOM     35  C   UNL A   1      37.752  30.416  32.830  1.00  0.00     0.060 A 
ATOM     36  C   UNL A   1      37.065  31.578  33.212  1.00  0.00     0.016 A 
ATOM     37  C   UNL A   1      38.792  29.924  33.618  1.00  0.00     0.016 A 
ATOM     38  C   UNL A   1      37.423  32.258  34.378  1.00  0.00     0.010 A 
ATOM     39  C   UNL A   1      39.174  30.626  34.767  1.00  0.00     0.010 A 
ATOM     40  C   UNL A   1      38.509  31.809  35.140  1.00  0.00    -0.014 A 
BRANCH  40  41
ATOM     41  C   UNL A   1      39.085  32.682  36.195  1.00  0.00     0.031 A 
ATOM     42  C   UNL A   1      38.420  32.688  37.545  1.00  0.00     0.074 A 
ATOM     43  C   UNL A   1      40.174  33.441  35.975  1.00  0.00     0.049 A 
ATOM     44  N   UNL A   1      38.664  33.431  38.593  1.00  0.00    -0.248 NA
ATOM     45  C   UNL A   1      37.323  31.725  37.730  1.00  0.00     0.031 C 
ATOM     46  C   UNL A   1      40.946  33.473  34.735  1.00  0.00     0.029 A 
ATOM     47  N   UNL A   1      40.811  34.344  36.792  1.00  0.00    -0.354 N 
ATOM     48  C   UNL A   1      37.743  33.037  39.557  1.00  0.00     0.074 A 
ATOM     49  C   UNL A   1      36.917  32.012  38.956  1.00  0.00     0.031 C 
ATOM     50  C   UNL A   1      41.944  34.366  34.867  1.00  0.00     0.029 A 
ATOM     51  C   UNL A   1      41.854  35.002  36.180  1.00  0.00     0.049 A 
ATOM     52  H   UNL A   1      40.547  34.504  37.726  1.00  0.00     0.167 HD
ATOM     53  C   UNL A   1      37.604  33.484  40.829  1.00  0.00     0.034 A 
ATOM     54  C   UNL A   1      42.619  36.025  36.619  1.00  0.00     0.034 A 
ATOM     55  C   UNL A   1      38.428  34.517  41.408  1.00  0.00     0.049 A 
ATOM     56  C   UNL A   1      42.376  36.585  38.004  1.00  0.00     0.074 A 
ATOM     57  C   UNL A   1      38.376  35.041  42.689  1.00  0.00     0.029 A 
ATOM     58  N   UNL A   1      39.440  35.195  40.743  1.00  0.00    -0.354 N 
ATOM     59  N   UNL A   1      41.499  36.209  38.907  1.00  0.00    -0.248 NA
ATOM     60  C   UNL A   1      43.228  37.704  38.428  1.00  0.00     0.031 C 
ATOM     61  C   UNL A   1      39.297  36.091  42.770  1.00  0.00     0.029 A 
ATOM     62  C   UNL A   1      39.994  36.158  41.574  1.00  0.00     0.049 A 
ATOM     63  H   UNL A   1      39.723  35.019  39.817  1.00  0.00     0.167 HD
ATOM     64  C   UNL A   1      41.726  37.020  40.019  1.00  0.00     0.074 A 
ATOM     65  C   UNL A   1      42.825  37.896  39.675  1.00  0.00     0.031 C 
ATOM     66  C   UNL A   1      41.089  37.031  41.219  1.00  0.00     0.034 A 
BRANCH  53  67
ATOM     67  C   UNL A   1      36.480  32.900  41.651  1.00  0.00     0.023 A 
ATOM     68  C   UNL A   1      35.171  33.407  41.590  1.00  0.00     0.031 A 
ATOM     69  C   UNL A   1      36.731  31.836  42.536  1.00  0.00     0.131 A 
ATOM     70  C   UNL A   1      34.183  32.902  42.447  1.00  0.00     0.055 A 
ATOM     71  C   UNL A   1      35.723  31.278  43.323  1.00  0.00     0.041 A 
ATOM     72  F   UNL A   1      37.968  31.326  42.660  1.00  0.00    -0.206 F 
ATOM     73  C   UNL A   1      34.442  31.822  43.294  1.00  0.00     0.022 A 
BRANCH  70  74
ATOM     74  S   UNL A   1      32.596  33.775  42.551  1.00  0.00     0.124 S 
ATOM     75  O   UNL A   1      31.935  33.331  41.325  1.00  0.00    -0.237 OA
ATOM     76  O   UNL A   1      32.038  33.267  43.798  1.00  0.00    -0.237 OA
ATOM     77  O   UNL A   1      32.982  35.184  42.567  1.00  0.00    -0.744 OA
ENDBRANCH  70  74
ENDBRANCH  53  67
BRANCH  54  78
ATOM     78  C   UNL A   1      43.657  36.633  35.733  1.00  0.00     0.023 A 
ATOM     79  C   UNL A   1      43.372  37.762  34.949  1.00  0.00     0.031 A 
ATOM     80  C   UNL A   1      44.930  36.050  35.605  1.00  0.00     0.131 A 
ATOM     81  C   UNL A   1      44.327  38.242  34.037  1.00  0.00     0.055 A 
ATOM     82  C   UNL A   1      45.899  36.567  34.742  1.00  0.00     0.041 A 
ATOM     83  F   UNL A   1      45.255  34.962  36.323  1.00  0.00    -0.206 F 
ATOM     84  C   UNL A   1      45.594  37.662  33.940  1.00  0.00     0.022 A 
BRANCH  81  85
ATOM     85  S   UNL A   1      43.853  39.576  32.903  1.00  0.00     0.124 S 
ATOM     86  O   UNL A   1      44.921  40.545  33.123  1.00  0.00    -0.237 OA
ATOM     87  O   UNL A   1      43.860  38.894  31.613  1.00  0.00    -0.237 OA
ATOM     88  O   UNL A   1      42.533  39.980  33.385  1.00  0.00    -0.744 OA
ENDBRANCH  81  85
ENDBRANCH  54  78
BRANCH  66  89
ATOM     89  C   UNL A   1      41.608  37.981  42.275  1.00  0.00     0.023 A 
ATOM     90  C   UNL A   1      41.142  39.303  42.388  1.00  0.00     0.031 A 
ATOM     91  C   UNL A   1      42.588  37.548  43.188  1.00  0.00     0.131 A 
ATOM     92  C   UNL A   1      41.695  40.159  43.354  1.00  0.00     0.055 A 
ATOM     93  C   UNL A   1      43.084  38.383  44.190  1.00  0.00     0.041 A 
ATOM     94  F   UNL A   1      43.076  36.298  43.126  1.00  0.00    -0.206 F 
ATOM     95  C   UNL A   1      42.647  39.702  44.269  1.00  0.00     0.022 A 
BRANCH  92  96
ATOM     96  S   UNL A   1      41.226  41.912  43.338  1.00  0.00     0.124 S 
ATOM     97  O   UNL A   1      39.771  41.836  43.262  1.00  0.00    -0.237 OA
ATOM     98  O   UNL A   1      41.773  42.393  44.603  1.00  0.00    -0.237 OA
ATOM     99  O   UNL A   1      41.883  42.433  42.142  1.00  0.00    -0.744 OA
ENDBRANCH  92  96
ENDBRANCH  66  89
ENDBRANCH  40  41
ENDBRANCH  33  35
ENDBRANCH  32  33
ENDBRANCH  31  32
ENDBRANCH  30  31
ENDBRANCH  29  30
ENDBRANCH  28  29
ENDBRANCH   1  28
TORSDOF 23
ENDMDL
MODEL 2
REMARK VINA RESULT:      -9.0      7.266     11.731
REMARK SMILES C[C@H](NC(=O)N1CCN(/C=C/c2ccccc2)CC1)C(=O)OCCOCCOCCOC(=O)c1ccc(-c2c3nc(c(-c4cc(S(=O)(=O)[O-])ccc4F)c4ccc([nH]4)c(-c4cc(S(=O)(=O)[O-])ccc4F)c4nc(c(-c5cc(S(=O)(=O)[O-])ccc5F)c5ccc2[nH]5)C=C4)C=C3)cc1
REMARK SMILES IDX 26 1 25 2 24 3 23 4 22 5 20 6 21 7 2 8 1 9 3 10 4 11 5 13
REMARK SMILES IDX 6 14 7 15 19 16 8 17 18 18 9 19 10 20 11 21 12 22 13 23
REMARK SMILES IDX 17 24 14 25 16 26 15 27 27 28 28 29 29 30 30 31 31 32 32 33
REMARK SMILES IDX 33 34 34 35 35 36 96 37 36 38 95 39 37 40 38 41 39 42 89 43
REMARK SMILES IDX 40 44 94 45 88 46 90 47 41 48 93 49 87 50 86 51 42 53 74 54
REMARK SMILES IDX 54 55 73 56 55 57 58 58 72 59 91 60 56 61 57 62 71 64 92 65
REMARK SMILES IDX 59 66 43 67 44 68 52 69 45 70 51 71 53 72 50 73 46 74 47 75
REMARK SMILES IDX 48 76 49 77 75 78 76 79 84 80 77 81 83 82 85 83 82 84 78 85
REMARK SMILES IDX 79 86 80 87 81 88 60 89 61 90 69 91 62 92 68 93 70 94 67 95
REMARK SMILES IDX 63 96 64 97 65 98 66 99
REMARK H PARENT 3 12 90 52 58 63
REMARK Flexibility Score: inf
ROOT
ATOM      1  C   UNL A   1      33.448  35.346  30.301  1.00  0.00     0.188 C 
ENDROOT
BRANCH   1   2
ATOM      2  O   UNL A   1      34.253  34.529  29.470  1.00  0.00    -0.376 OA
BRANCH   2   3
ATOM      3  C   UNL A   1      33.698  33.437  28.750  1.00  0.00     0.202 C 
BRANCH   3   4
ATOM      4  C   UNL A   1      34.449  32.123  28.471  1.00  0.00     0.261 C 
BRANCH   4   5
ATOM      5  O   UNL A   1      34.014  31.354  27.342  1.00  0.00    -0.462 OA
BRANCH   5   6
ATOM      6  C   UNL A   1      34.482  30.080  27.297  1.00  0.00     0.328 C 
ATOM      7  O   UNL A   1      35.602  29.740  27.661  1.00  0.00    -0.250 OA
BRANCH   6   8
ATOM      8  C   UNL A   1      33.507  29.099  26.630  1.00  0.00     0.190 C 
ATOM      9  C   UNL A   1      34.432  28.169  25.859  1.00  0.00     0.043 C 
BRANCH   8  10
ATOM     10  N   UNL A   1      32.454  29.673  25.793  1.00  0.00    -0.325 N 
ATOM     11  C   UNL A   1      31.369  29.141  25.190  1.00  0.00     0.318 C 
ATOM     12  H   UNL A   1      32.557  30.641  25.639  1.00  0.00     0.166 HD
ATOM     13  O   UNL A   1      30.712  29.881  24.454  1.00  0.00    -0.249 OA
ATOM     14  N   UNL A   1      31.114  27.806  25.263  1.00  0.00    -0.321 N 
ATOM     15  C   UNL A   1      30.699  27.125  24.047  1.00  0.00     0.143 C 
ATOM     16  C   UNL A   1      31.150  26.909  26.414  1.00  0.00     0.143 C 
ATOM     17  C   UNL A   1      31.772  26.095  23.680  1.00  0.00     0.137 C 
ATOM     18  C   UNL A   1      31.978  25.626  26.176  1.00  0.00     0.137 C 
ATOM     19  N   UNL A   1      32.022  25.125  24.771  1.00  0.00    -0.374 N 
BRANCH  19  20
ATOM     20  C   UNL A   1      32.523  23.854  24.525  1.00  0.00     0.081 C 
ATOM     21  C   UNL A   1      32.215  22.683  25.102  1.00  0.00     0.025 C 
BRANCH  21  22
ATOM     22  C   UNL A   1      32.953  21.440  24.843  1.00  0.00    -0.024 A 
ATOM     23  C   UNL A   1      32.263  20.281  24.468  1.00  0.00     0.008 A 
ATOM     24  C   UNL A   1      34.333  21.358  25.077  1.00  0.00     0.008 A 
ATOM     25  C   UNL A   1      32.944  19.070  24.317  1.00  0.00     0.001 A 
ATOM     26  C   UNL A   1      35.014  20.150  24.925  1.00  0.00     0.001 A 
ATOM     27  C   UNL A   1      34.318  19.006  24.548  1.00  0.00     0.000 A 
ENDBRANCH  21  22
ENDBRANCH  19  20
ENDBRANCH   8  10
ENDBRANCH   6   8
ENDBRANCH   5   6
ENDBRANCH   4   5
ENDBRANCH   3   4
ENDBRANCH   2   3
ENDBRANCH   1   2
BRANCH   1  28
ATOM     28  C   UNL A   1      33.734  35.391  31.810  1.00  0.00     0.188 C 
BRANCH  28  29
ATOM     29  O   UNL A   1      33.095  34.389  32.564  1.00  0.00    -0.376 OA
BRANCH  29  30
ATOM     30  C   UNL A   1      33.745  33.133  32.715  1.00  0.00     0.202 C 
BRANCH  30  31
ATOM     31  C   UNL A   1      35.158  32.936  33.319  1.00  0.00     0.261 C 
BRANCH  31  32
ATOM     32  O   UNL A   1      36.272  32.776  32.430  1.00  0.00    -0.460 OA
BRANCH  32  33
ATOM     33  C   UNL A   1      36.814  31.533  32.336  1.00  0.00     0.338 C 
ATOM     34  O   UNL A   1      36.259  30.482  32.562  1.00  0.00    -0.246 OA
BRANCH  33  35
ATOM     35  C   UNL A   1      38.131  31.679  31.665  1.00  0.00     0.060 A 
ATOM     36  C   UNL A   1      39.288  31.768  32.454  1.00  0.00     0.016 A 
ATOM     37  C   UNL A   1      38.227  31.699  30.273  1.00  0.00     0.016 A 
ATOM     38  C   UNL A   1      40.544  31.887  31.853  1.00  0.00     0.010 A 
ATOM     39  C   UNL A   1      39.482  31.855  29.674  1.00  0.00     0.010 A 
ATOM     40  C   UNL A   1      40.644  31.975  30.459  1.00  0.00    -0.014 A 
BRANCH  40  41
ATOM     41  C   UNL A   1      41.920  32.404  29.833  1.00  0.00     0.031 A 
ATOM     42  C   UNL A   1      42.913  31.337  29.455  1.00  0.00     0.074 A 
ATOM     43  C   UNL A   1      42.195  33.699  29.592  1.00  0.00     0.049 A 
ATOM     44  N   UNL A   1      44.130  31.457  28.993  1.00  0.00    -0.248 NA
ATOM     45  C   UNL A   1      42.466  29.947  29.631  1.00  0.00     0.031 C 
ATOM     46  C   UNL A   1      41.292  34.818  29.851  1.00  0.00     0.029 A 
ATOM     47  N   UNL A   1      43.327  34.291  29.084  1.00  0.00    -0.354 N 
ATOM     48  C   UNL A   1      44.602  30.157  28.836  1.00  0.00     0.074 A 
ATOM     49  C   UNL A   1      43.549  29.271  29.283  1.00  0.00     0.031 C 
ATOM     50  C   UNL A   1      41.912  35.964  29.516  1.00  0.00     0.029 A 
ATOM     51  C   UNL A   1      43.271  35.666  29.065  1.00  0.00     0.049 A 
ATOM     52  H   UNL A   1      44.104  33.779  28.763  1.00  0.00     0.167 HD
ATOM     53  C   UNL A   1      45.800  29.743  28.358  1.00  0.00     0.034 A 
ATOM     54  C   UNL A   1      44.220  36.575  28.756  1.00  0.00     0.034 A 
ATOM     55  C   UNL A   1      46.844  30.641  27.929  1.00  0.00     0.049 A 
ATOM     56  C   UNL A   1      45.589  36.093  28.328  1.00  0.00     0.074 A 
ATOM     57  C   UNL A   1      48.093  30.327  27.423  1.00  0.00     0.029 A 
ATOM     58  N   UNL A   1      46.770  32.027  27.972  1.00  0.00    -0.354 N 
ATOM     59  N   UNL A   1      46.028  34.862  28.187  1.00  0.00    -0.248 NA
ATOM     60  C   UNL A   1      46.588  37.123  28.013  1.00  0.00     0.031 C 
ATOM     61  C   UNL A   1      48.804  31.519  27.240  1.00  0.00     0.029 A 
ATOM     62  C   UNL A   1      47.964  32.581  27.537  1.00  0.00     0.049 A 
ATOM     63  H   UNL A   1      45.985  32.541  28.268  1.00  0.00     0.167 HD
ATOM     64  C   UNL A   1      47.340  34.976  27.729  1.00  0.00     0.074 A 
ATOM     65  C   UNL A   1      47.616  36.391  27.609  1.00  0.00     0.031 C 
ATOM     66  C   UNL A   1      48.232  33.997  27.425  1.00  0.00     0.034 A 
BRANCH  53  67
ATOM     67  C   UNL A   1      46.062  28.256  28.336  1.00  0.00     0.023 A 
ATOM     68  C   UNL A   1      45.790  27.469  27.203  1.00  0.00     0.031 A 
ATOM     69  C   UNL A   1      46.563  27.609  29.480  1.00  0.00     0.131 A 
ATOM     70  C   UNL A   1      45.951  26.077  27.263  1.00  0.00     0.055 A 
ATOM     71  C   UNL A   1      46.805  26.235  29.504  1.00  0.00     0.041 A 
ATOM     72  F   UNL A   1      46.816  28.302  30.602  1.00  0.00    -0.206 F 
ATOM     73  C   UNL A   1      46.483  25.457  28.395  1.00  0.00     0.022 A 
BRANCH  70  74
ATOM     74  S   UNL A   1      45.313  25.072  25.894  1.00  0.00     0.124 S 
ATOM     75  O   UNL A   1      43.882  25.361  25.958  1.00  0.00    -0.237 OA
ATOM     76  O   UNL A   1      46.024  25.617  24.744  1.00  0.00    -0.237 OA
ATOM     77  O   UNL A   1      45.683  23.709  26.269  1.00  0.00    -0.744 OA
ENDBRANCH  70  74
ENDBRANCH  53  67
BRANCH  54  78
ATOM     78  C   UNL A   1      43.943  38.037  28.884  1.00  0.00     0.023 A 
ATOM     79  C   UNL A   1      43.983  38.678  30.133  1.00  0.00     0.031 A 
ATOM     80  C   UNL A   1      43.565  38.803  27.767  1.00  0.00     0.131 A 
ATOM     81  C   UNL A   1      43.604  40.026  30.242  1.00  0.00     0.055 A 
ATOM     82  C   UNL A   1      43.248  40.158  27.870  1.00  0.00     0.041 A 
ATOM     83  F   UNL A   1      43.499  38.241  26.548  1.00  0.00    -0.206 F 
ATOM     84  C   UNL A   1      43.252  40.775  29.117  1.00  0.00     0.022 A 
BRANCH  81  85
ATOM     85  S   UNL A   1      43.478  40.762  31.895  1.00  0.00     0.124 S 
ATOM     86  O   UNL A   1      43.999  39.691  32.737  1.00  0.00    -0.237 OA
ATOM     87  O   UNL A   1      44.323  41.946  31.764  1.00  0.00    -0.237 OA
ATOM     88  O   UNL A   1      42.049  41.033  32.039  1.00  0.00    -0.744 OA
ENDBRANCH  81  85
ENDBRANCH  54  78
BRANCH  66  89
ATOM     89  C   UNL A   1      49.573  34.423  26.870  1.00  0.00     0.023 A 
ATOM     90  C   UNL A   1      50.731  34.474  27.666  1.00  0.00     0.031 A 
ATOM     91  C   UNL A   1      49.690  34.781  25.515  1.00  0.00     0.131 A 
ATOM     92  C   UNL A   1      51.940  34.925  27.113  1.00  0.00     0.055 A 
ATOM     93  C   UNL A   1      50.909  35.163  24.954  1.00  0.00     0.041 A 
ATOM     94  F   UNL A   1      48.618  34.758  24.706  1.00  0.00    -0.206 F 
ATOM     95  C   UNL A   1      52.041  35.250  25.758  1.00  0.00     0.022 A 
BRANCH  92  96
ATOM     96  S   UNL A   1      53.362  35.179  28.212  1.00  0.00     0.124 S 
ATOM     97  O   UNL A   1      54.200  34.028  27.893  1.00  0.00    -0.237 OA
ATOM     98  O   UNL A   1      53.867  36.476  27.774  1.00  0.00    -0.237 OA
ATOM     99  O   UNL A   1      52.770  35.165  29.548  1.00  0.00    -0.744 OA
ENDBRANCH  92  96
ENDBRANCH  66  89
ENDBRANCH  40  41
ENDBRANCH  33  35
ENDBRANCH  32  33
ENDBRANCH  31  32
ENDBRANCH  30  31
ENDBRANCH  29  30
ENDBRANCH  28  29
ENDBRANCH   1  28
TORSDOF 23
ENDMDL
MODEL 3
REMARK VINA RESULT:      -8.9      9.189     12.544
REMARK SMILES C[C@H](NC(=O)N1CCN(/C=C/c2ccccc2)CC1)C(=O)OCCOCCOCCOC(=O)c1ccc(-c2c3nc(c(-c4cc(S(=O)(=O)[O-])ccc4F)c4ccc([nH]4)c(-c4cc(S(=O)(=O)[O-])ccc4F)c4nc(c(-c5cc(S(=O)(=O)[O-])ccc5F)c5ccc2[nH]5)C=C4)C=C3)cc1
REMARK SMILES IDX 26 1 25 2 24 3 23 4 22 5 20 6 21 7 2 8 1 9 3 10 4 11 5 13
REMARK SMILES IDX 6 14 7 15 19 16 8 17 18 18 9 19 10 20 11 21 12 22 13 23
REMARK SMILES IDX 17 24 14 25 16 26 15 27 27 28 28 29 29 30 30 31 31 32 32 33
REMARK SMILES IDX 33 34 34 35 35 36 96 37 36 38 95 39 37 40 38 41 39 42 89 43
REMARK SMILES IDX 40 44 94 45 88 46 90 47 41 48 93 49 87 50 86 51 42 53 74 54
REMARK SMILES IDX 54 55 73 56 55 57 58 58 72 59 91 60 56 61 57 62 71 64 92 65
REMARK SMILES IDX 59 66 43 67 44 68 52 69 45 70 51 71 53 72 50 73 46 74 47 75
REMARK SMILES IDX 48 76 49 77 75 78 76 79 84 80 77 81 83 82 85 83 82 84 78 85
REMARK SMILES IDX 79 86 80 87 81 88 60 89 61 90 69 91 62 92 68 93 70 94 67 95
REMARK SMILES IDX 63 96 64 97 65 98 66 99
REMARK H PARENT 3 12 90 52 58 63
REMARK Flexibility Score: inf
ROOT
ATOM      1  C   UNL A   1      35.561  34.628  31.600  1.00  0.00     0.188 C 
ENDROOT
BRANCH   1   2
ATOM      2  O   UNL A   1      35.234  33.746  30.541  1.00  0.00    -0.376 OA
BRANCH   2   3
ATOM      3  C   UNL A   1      34.129  33.998  29.686  1.00  0.00     0.202 C 
BRANCH   3   4
ATOM      4  C   UNL A   1      34.078  33.583  28.204  1.00  0.00     0.261 C 
BRANCH   4   5
ATOM      5  O   UNL A   1      33.344  32.393  27.889  1.00  0.00    -0.462 OA
BRANCH   5   6
ATOM      6  C   UNL A   1      34.101  31.280  27.709  1.00  0.00     0.328 C 
ATOM      7  O   UNL A   1      35.305  31.216  27.936  1.00  0.00    -0.250 OA
BRANCH   6   8
ATOM      8  C   UNL A   1      33.327  30.116  27.074  1.00  0.00     0.190 C 
ATOM      9  C   UNL A   1      34.434  29.228  26.524  1.00  0.00     0.043 C 
BRANCH   8  10
ATOM     10  N   UNL A   1      32.322  30.457  26.066  1.00  0.00    -0.325 N 
ATOM     11  C   UNL A   1      31.430  29.715  25.374  1.00  0.00     0.318 C 
ATOM     12  H   UNL A   1      32.289  31.418  25.851  1.00  0.00     0.166 HD
ATOM     13  O   UNL A   1      30.771  30.292  24.506  1.00  0.00    -0.249 OA
ATOM     14  N   UNL A   1      31.383  28.363  25.518  1.00  0.00    -0.321 N 
ATOM     15  C   UNL A   1      31.255  27.554  24.317  1.00  0.00     0.143 C 
ATOM     16  C   UNL A   1      31.403  27.551  26.732  1.00  0.00     0.143 C 
ATOM     17  C   UNL A   1      32.518  26.702  24.170  1.00  0.00     0.137 C 
ATOM     18  C   UNL A   1      32.450  26.415  26.701  1.00  0.00     0.137 C 
ATOM     19  N   UNL A   1      32.767  25.851  25.358  1.00  0.00    -0.374 N 
BRANCH  19  20
ATOM     20  C   UNL A   1      33.494  24.670  25.277  1.00  0.00     0.081 C 
ATOM     21  C   UNL A   1      34.730  24.392  25.714  1.00  0.00     0.025 C 
BRANCH  21  22
ATOM     22  C   UNL A   1      35.427  23.135  25.408  1.00  0.00    -0.024 A 
ATOM     23  C   UNL A   1      36.638  23.159  24.705  1.00  0.00     0.008 A 
ATOM     24  C   UNL A   1      34.843  21.895  25.705  1.00  0.00     0.008 A 
ATOM     25  C   UNL A   1      37.256  21.966  24.322  1.00  0.00     0.001 A 
ATOM     26  C   UNL A   1      35.461  20.704  25.325  1.00  0.00     0.001 A 
ATOM     27  C   UNL A   1      36.666  20.740  24.630  1.00  0.00     0.000 A 
ENDBRANCH  21  22
ENDBRANCH  19  20
ENDBRANCH   8  10
ENDBRANCH   6   8
ENDBRANCH   5   6
ENDBRANCH   4   5
ENDBRANCH   3   4
ENDBRANCH   2   3
ENDBRANCH   1   2
BRANCH   1  28
ATOM     28  C   UNL A   1      35.658  34.077  33.031  1.00  0.00     0.188 C 
BRANCH  28  29
ATOM     29  O   UNL A   1      35.561  32.677  33.135  1.00  0.00    -0.376 OA
BRANCH  29  30
ATOM     30  C   UNL A   1      36.678  31.953  33.636  1.00  0.00     0.202 C 
BRANCH  30  31
ATOM     31  C   UNL A   1      37.995  31.709  32.858  1.00  0.00     0.261 C 
BRANCH  31  32
ATOM     32  O   UNL A   1      38.068  30.596  31.956  1.00  0.00    -0.460 OA
BRANCH  32  33
ATOM     33  C   UNL A   1      38.574  30.837  30.718  1.00  0.00     0.338 C 
ATOM     34  O   UNL A   1      38.154  31.627  29.905  1.00  0.00    -0.246 OA
BRANCH  33  35
ATOM     35  C   UNL A   1      39.885  30.141  30.638  1.00  0.00     0.060 A 
ATOM     36  C   UNL A   1      39.930  28.754  30.848  1.00  0.00     0.016 A 
ATOM     37  C   UNL A   1      41.051  30.843  30.332  1.00  0.00     0.016 A 
ATOM     38  C   UNL A   1      41.143  28.067  30.762  1.00  0.00     0.010 A 
ATOM     39  C   UNL A   1      42.271  30.159  30.281  1.00  0.00     0.010 A 
ATOM     40  C   UNL A   1      42.328  28.773  30.520  1.00  0.00    -0.014 A 
BRANCH  40  41
ATOM     41  C   UNL A   1      43.641  28.111  30.728  1.00  0.00     0.031 A 
ATOM     42  C   UNL A   1      44.244  28.160  32.106  1.00  0.00     0.074 A 
ATOM     43  C   UNL A   1      44.282  27.473  29.732  1.00  0.00     0.049 A 
ATOM     44  N   UNL A   1      45.415  27.752  32.519  1.00  0.00    -0.248 NA
ATOM     45  C   UNL A   1      43.408  28.760  33.157  1.00  0.00     0.031 C 
ATOM     46  C   UNL A   1      43.774  27.299  28.373  1.00  0.00     0.029 A 
ATOM     47  N   UNL A   1      45.512  26.860  29.712  1.00  0.00    -0.354 N 
ATOM     48  C   UNL A   1      45.463  28.057  33.875  1.00  0.00     0.074 A 
ATOM     49  C   UNL A   1      44.216  28.713  34.204  1.00  0.00     0.031 C 
ATOM     50  C   UNL A   1      44.694  26.639  27.646  1.00  0.00     0.029 A 
ATOM     51  C   UNL A   1      45.874  26.386  28.471  1.00  0.00     0.049 A 
ATOM     52  H   UNL A   1      46.081  26.769  30.510  1.00  0.00     0.167 HD
ATOM     53  C   UNL A   1      46.454  27.808  34.766  1.00  0.00     0.034 A 
ATOM     54  C   UNL A   1      47.037  25.847  28.046  1.00  0.00     0.034 A 
ATOM     55  C   UNL A   1      47.698  27.165  34.419  1.00  0.00     0.049 A 
ATOM     56  C   UNL A   1      48.173  25.677  29.032  1.00  0.00     0.074 A 
ATOM     57  C   UNL A   1      48.767  26.859  35.243  1.00  0.00     0.029 A 
ATOM     58  N   UNL A   1      48.049  26.745  33.142  1.00  0.00    -0.354 N 
ATOM     59  N   UNL A   1      48.210  25.973  30.311  1.00  0.00    -0.248 NA
ATOM     60  C   UNL A   1      49.419  25.096  28.516  1.00  0.00     0.031 C 
ATOM     61  C   UNL A   1      49.794  26.333  34.452  1.00  0.00     0.029 A 
ATOM     62  C   UNL A   1      49.331  26.218  33.151  1.00  0.00     0.049 A 
ATOM     63  H   UNL A   1      47.472  26.812  32.348  1.00  0.00     0.167 HD
ATOM     64  C   UNL A   1      49.470  25.576  30.757  1.00  0.00     0.074 A 
ATOM     65  C   UNL A   1      50.155  25.011  29.614  1.00  0.00     0.031 C 
ATOM     66  C   UNL A   1      50.008  25.660  32.002  1.00  0.00     0.034 A 
BRANCH  53  67
ATOM     67  C   UNL A   1      46.253  28.291  36.182  1.00  0.00     0.023 A 
ATOM     68  C   UNL A   1      45.868  27.422  37.217  1.00  0.00     0.031 A 
ATOM     69  C   UNL A   1      46.419  29.652  36.495  1.00  0.00     0.131 A 
ATOM     70  C   UNL A   1      45.592  27.933  38.494  1.00  0.00     0.055 A 
ATOM     71  C   UNL A   1      46.228  30.140  37.789  1.00  0.00     0.041 A 
ATOM     72  F   UNL A   1      46.759  30.537  35.543  1.00  0.00    -0.206 F 
ATOM     73  C   UNL A   1      45.796  29.281  38.794  1.00  0.00     0.022 A 
BRANCH  70  74
ATOM     74  S   UNL A   1      44.815  26.838  39.716  1.00  0.00     0.124 S 
ATOM     75  O   UNL A   1      44.529  27.769  40.805  1.00  0.00    -0.237 OA
ATOM     76  O   UNL A   1      43.659  26.327  38.990  1.00  0.00    -0.237 OA
ATOM     77  O   UNL A   1      45.857  25.855  40.004  1.00  0.00    -0.744 OA
ENDBRANCH  70  74
ENDBRANCH  53  67
BRANCH  54  78
ATOM     78  C   UNL A   1      47.221  25.471  26.613  1.00  0.00     0.023 A 
ATOM     79  C   UNL A   1      47.836  26.349  25.704  1.00  0.00     0.031 A 
ATOM     80  C   UNL A   1      46.723  24.255  26.113  1.00  0.00     0.131 A 
ATOM     81  C   UNL A   1      47.891  26.020  24.340  1.00  0.00     0.055 A 
ATOM     82  C   UNL A   1      46.834  23.905  24.766  1.00  0.00     0.041 A 
ATOM     83  F   UNL A   1      46.116  23.381  26.934  1.00  0.00    -0.206 F 
ATOM     84  C   UNL A   1      47.409  24.798  23.867  1.00  0.00     0.022 A 
BRANCH  81  85
ATOM     85  S   UNL A   1      48.512  27.261  23.172  1.00  0.00     0.124 S 
ATOM     86  O   UNL A   1      47.289  27.973  22.818  1.00  0.00    -0.237 OA
ATOM     87  O   UNL A   1      49.470  27.997  23.992  1.00  0.00    -0.237 OA
ATOM     88  O   UNL A   1      49.100  26.457  22.102  1.00  0.00    -0.744 OA
ENDBRANCH  81  85
ENDBRANCH  54  78
BRANCH  66  89
ATOM     89  C   UNL A   1      51.385  25.070  32.209  1.00  0.00     0.023 A 
ATOM     90  C   UNL A   1      51.575  23.735  32.610  1.00  0.00     0.031 A 
ATOM     91  C   UNL A   1      52.528  25.862  31.996  1.00  0.00     0.131 A 
ATOM     92  C   UNL A   1      52.873  23.251  32.836  1.00  0.00     0.055 A 
ATOM     93  C   UNL A   1      53.819  25.355  32.156  1.00  0.00     0.041 A 
ATOM     94  F   UNL A   1      52.410  27.145  31.618  1.00  0.00    -0.206 F 
ATOM     95  C   UNL A   1      53.996  24.046  32.593  1.00  0.00     0.022 A 
BRANCH  92  96
ATOM     96  S   UNL A   1      53.076  21.596  33.553  1.00  0.00     0.124 S 
ATOM     97  O   UNL A   1      54.488  21.596  33.920  1.00  0.00    -0.237 OA
ATOM     98  O   UNL A   1      52.129  21.618  34.663  1.00  0.00    -0.237 OA
ATOM     99  O   UNL A   1      52.720  20.700  32.454  1.00  0.00    -0.744 OA
ENDBRANCH  92  96
ENDBRANCH  66  89
ENDBRANCH  40  41
ENDBRANCH  33  35
ENDBRANCH  32  33
ENDBRANCH  31  32
ENDBRANCH  30  31
ENDBRANCH  29  30
ENDBRANCH  28  29
ENDBRANCH   1  28
TORSDOF 23
ENDMDL
