MODEL 1
REMARK VINA RESULT:     -10.0      0.000      0.000
REMARK SMILES C[C@@H]1[NH2+]CC[C@H]1C(=O)Nc1ccc(C(=O)OCCOCCOCCOC(=O)c2ccc(-c3c4nc(c(-c5cc(S(=O)(=O)[O-])ccc5F)c5ccc([nH]5)c(-c5cc(S(=O)(=O)[O-])ccc5F)c5nc(c(-c6cc(S(=O)(=O)[O-])ccc6F)c6ccc3[nH]6)C=C5)C=C4)cc2)c(Cl)c1
REMARK SMILES IDX 21 1 20 2 19 3 18 4 17 5 16 6 14 7 15 8 13 9 10 10 11 11
REMARK SMILES IDX 93 12 12 13 91 14 92 15 9 16 7 17 8 18 6 20 1 21 2 22 3 23
REMARK SMILES IDX 4 24 5 27 22 28 23 29 24 30 25 31 26 32 27 33 28 34 29 35
REMARK SMILES IDX 90 36 30 37 89 38 31 39 32 40 33 41 83 42 34 43 88 44 82 45
REMARK SMILES IDX 84 46 35 47 87 48 81 49 80 50 36 52 68 53 48 54 67 55 49 56
REMARK SMILES IDX 52 57 66 58 85 59 50 60 51 61 65 63 86 64 53 65 37 66 38 67
REMARK SMILES IDX 46 68 39 69 45 70 47 71 44 72 40 73 41 74 42 75 43 76 69 77
REMARK SMILES IDX 70 78 78 79 71 80 77 81 79 82 76 83 72 84 73 85 74 86 75 87
REMARK SMILES IDX 54 88 55 89 63 90 56 91 62 92 64 93 61 94 57 95 58 96 59 97
REMARK SMILES IDX 60 98
REMARK H PARENT 9 19 3 25 3 26 84 51 52 62
REMARK Flexibility Score: inf
ROOT
ATOM      1  C   UNL A   1      37.645  23.720  26.043  1.00  0.00     0.188 C 
ENDROOT
BRANCH   1   2
ATOM      2  C   UNL A   1      36.410  23.420  25.167  1.00  0.00     0.188 C 
BRANCH   2   3
ATOM      3  O   UNL A   1      35.112  23.737  25.644  1.00  0.00    -0.376 OA
BRANCH   3   4
ATOM      4  C   UNL A   1      34.573  22.991  26.729  1.00  0.00     0.202 C 
BRANCH   4   5
ATOM      5  C   UNL A   1      34.422  21.475  26.601  1.00  0.00     0.261 C 
BRANCH   5   6
ATOM      6  O   UNL A   1      34.205  21.074  25.240  1.00  0.00    -0.460 OA
BRANCH   6   7
ATOM      7  C   UNL A   1      32.909  20.880  24.909  1.00  0.00     0.339 C 
ATOM      8  O   UNL A   1      32.184  19.969  25.285  1.00  0.00    -0.246 OA
BRANCH   7   9
ATOM      9  C   UNL A   1      32.394  22.049  24.176  1.00  0.00     0.078 A 
ATOM     10  C   UNL A   1      31.619  24.324  22.709  1.00  0.00     0.042 A 
ATOM     11  C   UNL A   1      32.673  23.529  22.270  1.00  0.00     0.027 A 
ATOM     12  C   UNL A   1      30.982  23.994  23.914  1.00  0.00     0.047 A 
ATOM     13  C   UNL A   1      33.054  22.392  22.990  1.00  0.00     0.019 A 
ATOM     14  C   UNL A   1      31.352  22.851  24.641  1.00  0.00     0.057 A 
ATOM     15  Cl  UNL A   1      30.527  22.538  26.124  1.00  0.00    -0.083 Cl
BRANCH  10  16
ATOM     16  N   UNL A   1      31.295  25.548  22.111  1.00  0.00    -0.326 N 
ATOM     17  C   UNL A   1      31.207  26.833  22.564  1.00  0.00     0.233 C 
ATOM     18  O   UNL A   1      30.494  27.600  21.903  1.00  0.00    -0.274 OA
ATOM     19  H   UNL A   1      31.084  25.463  21.153  1.00  0.00     0.169 HD
BRANCH  17  20
ATOM     20  C   UNL A   1      32.092  27.408  23.670  1.00  0.00     0.142 C 
ATOM     21  C   UNL A   1      34.238  28.772  23.630  1.00  0.00     0.076 C 
ATOM     22  C   UNL A   1      32.716  28.781  23.448  1.00  0.00     0.192 C 
ATOM     23  N   UNL A   1      32.112  29.664  24.464  1.00  0.00    -0.343 N 
ATOM     24  C   UNL A   1      31.785  28.806  25.603  1.00  0.00     0.261 C 
ATOM     25  H   UNL A   1      31.267  30.102  24.095  1.00  0.00     0.346 HD
ATOM     26  H   UNL A   1      32.749  30.414  24.732  1.00  0.00     0.346 HD
ATOM     27  C   UNL A   1      31.383  27.473  25.018  1.00  0.00     0.081 C 
ENDBRANCH  17  20
ENDBRANCH  10  16
ENDBRANCH   7   9
ENDBRANCH   6   7
ENDBRANCH   5   6
ENDBRANCH   4   5
ENDBRANCH   3   4
ENDBRANCH   2   3
ENDBRANCH   1   2
BRANCH   1  28
ATOM     28  O   UNL A   1      38.848  23.005  25.857  1.00  0.00    -0.376 OA
BRANCH  28  29
ATOM     29  C   UNL A   1      39.035  21.735  26.464  1.00  0.00     0.202 C 
BRANCH  29  30
ATOM     30  C   UNL A   1      39.604  20.506  25.740  1.00  0.00     0.261 C 
BRANCH  30  31
ATOM     31  O   UNL A   1      40.372  19.598  26.534  1.00  0.00    -0.460 OA
BRANCH  31  32
ATOM     32  C   UNL A   1      41.693  19.575  26.231  1.00  0.00     0.338 C 
ATOM     33  O   UNL A   1      42.320  18.655  25.724  1.00  0.00    -0.246 OA
BRANCH  32  34
ATOM     34  C   UNL A   1      42.278  20.901  26.452  1.00  0.00     0.060 A 
ATOM     35  C   UNL A   1      42.369  21.361  27.767  1.00  0.00     0.016 A 
ATOM     36  C   UNL A   1      42.622  21.729  25.385  1.00  0.00     0.016 A 
ATOM     37  C   UNL A   1      42.784  22.662  28.030  1.00  0.00     0.010 A 
ATOM     38  C   UNL A   1      43.029  23.041  25.649  1.00  0.00     0.010 A 
ATOM     39  C   UNL A   1      43.087  23.522  26.970  1.00  0.00    -0.014 A 
BRANCH  39  40
ATOM     40  C   UNL A   1      43.300  24.961  27.249  1.00  0.00     0.031 A 
ATOM     41  C   UNL A   1      44.638  25.567  26.931  1.00  0.00     0.074 A 
ATOM     42  C   UNL A   1      42.300  25.729  27.720  1.00  0.00     0.049 A 
ATOM     43  N   UNL A   1      45.086  26.769  27.178  1.00  0.00    -0.248 NA
ATOM     44  C   UNL A   1      45.598  24.693  26.238  1.00  0.00     0.031 C 
ATOM     45  C   UNL A   1      40.932  25.273  27.967  1.00  0.00     0.029 A 
ATOM     46  N   UNL A   1      42.284  27.053  28.075  1.00  0.00    -0.354 N 
ATOM     47  C   UNL A   1      46.386  26.797  26.684  1.00  0.00     0.074 A 
ATOM     48  C   UNL A   1      46.659  25.482  26.143  1.00  0.00     0.031 C 
ATOM     49  C   UNL A   1      40.213  26.302  28.451  1.00  0.00     0.029 A 
ATOM     50  C   UNL A   1      41.079  27.469  28.595  1.00  0.00     0.049 A 
ATOM     51  H   UNL A   1      43.059  27.650  27.969  1.00  0.00     0.167 HD
ATOM     52  C   UNL A   1      47.267  27.827  26.680  1.00  0.00     0.034 A 
ATOM     53  C   UNL A   1      40.734  28.644  29.160  1.00  0.00     0.034 A 
ATOM     54  C   UNL A   1      46.978  29.128  27.231  1.00  0.00     0.049 A 
ATOM     55  C   UNL A   1      41.771  29.740  29.253  1.00  0.00     0.074 A 
ATOM     56  C   UNL A   1      47.803  30.236  27.305  1.00  0.00     0.029 A 
ATOM     57  N   UNL A   1      45.770  29.494  27.810  1.00  0.00    -0.354 N 
ATOM     58  N   UNL A   1      43.013  29.742  28.826  1.00  0.00    -0.248 NA
ATOM     59  C   UNL A   1      41.357  30.989  29.904  1.00  0.00     0.031 C 
ATOM     60  C   UNL A   1      47.118  31.250  27.985  1.00  0.00     0.029 A 
ATOM     61  C   UNL A   1      45.837  30.801  28.268  1.00  0.00     0.049 A 
ATOM     62  H   UNL A   1      44.980  28.911  27.883  1.00  0.00     0.167 HD
ATOM     63  C   UNL A   1      43.517  31.005  29.131  1.00  0.00     0.074 A 
ATOM     64  C   UNL A   1      42.442  31.738  29.765  1.00  0.00     0.031 C 
ATOM     65  C   UNL A   1      44.755  31.515  28.905  1.00  0.00     0.034 A 
BRANCH  52  66
ATOM     66  C   UNL A   1      48.643  27.555  26.126  1.00  0.00     0.023 A 
ATOM     67  C   UNL A   1      49.754  27.352  26.961  1.00  0.00     0.031 A 
ATOM     68  C   UNL A   1      48.850  27.535  24.735  1.00  0.00     0.131 A 
ATOM     69  C   UNL A   1      51.032  27.205  26.400  1.00  0.00     0.055 A 
ATOM     70  C   UNL A   1      50.112  27.314  24.182  1.00  0.00     0.041 A 
ATOM     71  F   UNL A   1      47.829  27.749  23.889  1.00  0.00    -0.206 F 
ATOM     72  C   UNL A   1      51.215  27.159  25.015  1.00  0.00     0.022 A 
BRANCH  69  73
ATOM     73  S   UNL A   1      52.473  27.203  27.503  1.00  0.00     0.124 S 
ATOM     74  O   UNL A   1      53.577  27.167  26.548  1.00  0.00    -0.237 OA
ATOM     75  O   UNL A   1      52.306  28.450  28.242  1.00  0.00    -0.237 OA
ATOM     76  O   UNL A   1      52.300  25.985  28.291  1.00  0.00    -0.744 OA
ENDBRANCH  69  73
ENDBRANCH  52  66
BRANCH  53  77
ATOM     77  C   UNL A   1      39.377  28.835  29.748  1.00  0.00     0.023 A 
ATOM     78  C   UNL A   1      38.357  29.483  29.034  1.00  0.00     0.031 A 
ATOM     79  C   UNL A   1      39.103  28.437  31.070  1.00  0.00     0.131 A 
ATOM     80  C   UNL A   1      37.131  29.759  29.660  1.00  0.00     0.055 A 
ATOM     81  C   UNL A   1      37.863  28.665  31.669  1.00  0.00     0.041 A 
ATOM     82  F   UNL A   1      40.044  27.820  31.803  1.00  0.00    -0.206 F 
ATOM     83  C   UNL A   1      36.872  29.343  30.967  1.00  0.00     0.022 A 
BRANCH  80  84
ATOM     84  S   UNL A   1      35.908  30.762  28.770  1.00  0.00     0.124 S 
ATOM     85  O   UNL A   1      36.762  31.641  27.980  1.00  0.00    -0.237 OA
ATOM     86  O   UNL A   1      35.168  29.747  28.027  1.00  0.00    -0.237 OA
ATOM     87  O   UNL A   1      35.160  31.415  29.842  1.00  0.00    -0.744 OA
ENDBRANCH  80  84
ENDBRANCH  53  77
BRANCH  65  88
ATOM     88  C   UNL A   1      44.988  32.952  29.301  1.00  0.00     0.023 A 
ATOM     89  C   UNL A   1      44.842  34.009  28.385  1.00  0.00     0.031 A 
ATOM     90  C   UNL A   1      45.368  33.267  30.618  1.00  0.00     0.131 A 
ATOM     91  C   UNL A   1      45.126  35.323  28.784  1.00  0.00     0.055 A 
ATOM     92  C   UNL A   1      45.594  34.582  31.025  1.00  0.00     0.041 A 
ATOM     93  F   UNL A   1      45.523  32.297  31.534  1.00  0.00    -0.206 F 
ATOM     94  C   UNL A   1      45.485  35.618  30.102  1.00  0.00     0.022 A 
BRANCH  91  95
ATOM     95  S   UNL A   1      45.102  36.640  27.535  1.00  0.00     0.124 S 
ATOM     96  O   UNL A   1      45.151  35.878  26.291  1.00  0.00    -0.237 OA
ATOM     97  O   UNL A   1      43.840  37.315  27.819  1.00  0.00    -0.237 OA
ATOM     98  O   UNL A   1      46.301  37.418  27.835  1.00  0.00    -0.744 OA
ENDBRANCH  91  95
ENDBRANCH  65  88
ENDBRANCH  39  40
ENDBRANCH  32  34
ENDBRANCH  31  32
ENDBRANCH  30  31
ENDBRANCH  29  30
ENDBRANCH  28  29
ENDBRANCH   1  28
TORSDOF 22
ENDMDL
MODEL 2
REMARK VINA RESULT:      -9.9      2.792      7.995
REMARK SMILES C[C@@H]1[NH2+]CC[C@H]1C(=O)Nc1ccc(C(=O)OCCOCCOCCOC(=O)c2ccc(-c3c4nc(c(-c5cc(S(=O)(=O)[O-])ccc5F)c5ccc([nH]5)c(-c5cc(S(=O)(=O)[O-])ccc5F)c5nc(c(-c6cc(S(=O)(=O)[O-])ccc6F)c6ccc3[nH]6)C=C5)C=C4)cc2)c(Cl)c1
REMARK SMILES IDX 21 1 20 2 19 3 18 4 17 5 16 6 14 7 15 8 13 9 10 10 11 11
REMARK SMILES IDX 93 12 12 13 91 14 92 15 9 16 7 17 8 18 6 20 1 21 2 22 3 23
REMARK SMILES IDX 4 24 5 27 22 28 23 29 24 30 25 31 26 32 27 33 28 34 29 35
REMARK SMILES IDX 90 36 30 37 89 38 31 39 32 40 33 41 83 42 34 43 88 44 82 45
REMARK SMILES IDX 84 46 35 47 87 48 81 49 80 50 36 52 68 53 48 54 67 55 49 56
REMARK SMILES IDX 52 57 66 58 85 59 50 60 51 61 65 63 86 64 53 65 37 66 38 67
REMARK SMILES IDX 46 68 39 69 45 70 47 71 44 72 40 73 41 74 42 75 43 76 69 77
REMARK SMILES IDX 70 78 78 79 71 80 77 81 79 82 76 83 72 84 73 85 74 86 75 87
REMARK SMILES IDX 54 88 55 89 63 90 56 91 62 92 64 93 61 94 57 95 58 96 59 97
REMARK SMILES IDX 60 98
REMARK H PARENT 9 19 3 25 3 26 84 51 52 62
REMARK Flexibility Score: inf
ROOT
ATOM      1  C   UNL A   1      34.624  21.456  24.923  1.00  0.00     0.188 C 
ENDROOT
BRANCH   1   2
ATOM      2  C   UNL A   1      33.482  20.460  24.630  1.00  0.00     0.188 C 
BRANCH   2   3
ATOM      3  O   UNL A   1      32.234  20.601  25.290  1.00  0.00    -0.376 OA
BRANCH   3   4
ATOM      4  C   UNL A   1      31.389  21.693  24.945  1.00  0.00     0.202 C 
BRANCH   4   5
ATOM      5  C   UNL A   1      31.227  22.858  25.921  1.00  0.00     0.261 C 
BRANCH   5   6
ATOM      6  O   UNL A   1      31.801  24.069  25.405  1.00  0.00    -0.460 OA
BRANCH   6   7
ATOM      7  C   UNL A   1      31.421  25.193  26.053  1.00  0.00     0.339 C 
ATOM      8  O   UNL A   1      31.593  25.451  27.236  1.00  0.00    -0.246 OA
BRANCH   7   9
ATOM      9  C   UNL A   1      30.939  26.194  25.087  1.00  0.00     0.078 A 
ATOM     10  C   UNL A   1      29.866  27.957  23.171  1.00  0.00     0.042 A 
ATOM     11  C   UNL A   1      29.048  27.032  23.811  1.00  0.00     0.027 A 
ATOM     12  C   UNL A   1      31.237  27.964  23.466  1.00  0.00     0.047 A 
ATOM     13  C   UNL A   1      29.575  26.162  24.772  1.00  0.00     0.019 A 
ATOM     14  C   UNL A   1      31.775  27.099  24.433  1.00  0.00     0.057 A 
ATOM     15  Cl  UNL A   1      33.476  27.163  24.714  1.00  0.00    -0.083 Cl
BRANCH  10  16
ATOM     16  N   UNL A   1      29.424  28.745  22.101  1.00  0.00    -0.326 N 
ATOM     17  C   UNL A   1      28.630  29.852  22.001  1.00  0.00     0.233 C 
ATOM     18  O   UNL A   1      28.094  30.045  20.902  1.00  0.00    -0.274 OA
ATOM     19  H   UNL A   1      29.759  28.433  21.230  1.00  0.00     0.169 HD
BRANCH  17  20
ATOM     20  C   UNL A   1      28.557  30.946  23.067  1.00  0.00     0.142 C 
ATOM     21  C   UNL A   1      30.080  31.573  25.004  1.00  0.00     0.076 C 
ATOM     22  C   UNL A   1      29.856  31.623  23.489  1.00  0.00     0.192 C 
ATOM     23  N   UNL A   1      29.730  33.031  23.064  1.00  0.00    -0.343 N 
ATOM     24  C   UNL A   1      28.300  33.337  23.100  1.00  0.00     0.261 C 
ATOM     25  H   UNL A   1      30.094  33.149  22.119  1.00  0.00     0.346 HD
ATOM     26  H   UNL A   1      30.260  33.653  23.674  1.00  0.00     0.346 HD
ATOM     27  C   UNL A   1      27.591  32.066  22.697  1.00  0.00     0.081 C 
ENDBRANCH  17  20
ENDBRANCH  10  16
ENDBRANCH   7   9
ENDBRANCH   6   7
ENDBRANCH   5   6
ENDBRANCH   4   5
ENDBRANCH   3   4
ENDBRANCH   2   3
ENDBRANCH   1   2
BRANCH   1  28
ATOM     28  O   UNL A   1      35.830  21.014  25.509  1.00  0.00    -0.376 OA
BRANCH  28  29
ATOM     29  C   UNL A   1      36.555  19.932  24.943  1.00  0.00     0.202 C 
BRANCH  29  30
ATOM     30  C   UNL A   1      38.087  19.833  24.926  1.00  0.00     0.261 C 
BRANCH  30  31
ATOM     31  O   UNL A   1      38.806  21.013  25.292  1.00  0.00    -0.460 OA
BRANCH  31  32
ATOM     32  C   UNL A   1      39.741  20.819  26.253  1.00  0.00     0.338 C 
ATOM     33  O   UNL A   1      40.286  19.766  26.555  1.00  0.00    -0.246 OA
BRANCH  32  34
ATOM     34  C   UNL A   1      40.153  22.109  26.815  1.00  0.00     0.060 A 
ATOM     35  C   UNL A   1      39.698  23.269  26.186  1.00  0.00     0.016 A 
ATOM     36  C   UNL A   1      41.066  22.184  27.866  1.00  0.00     0.016 A 
ATOM     37  C   UNL A   1      40.166  24.516  26.585  1.00  0.00     0.010 A 
ATOM     38  C   UNL A   1      41.545  23.437  28.261  1.00  0.00     0.010 A 
ATOM     39  C   UNL A   1      41.117  24.607  27.605  1.00  0.00    -0.014 A 
BRANCH  39  40
ATOM     40  C   UNL A   1      41.777  25.909  27.860  1.00  0.00     0.031 A 
ATOM     41  C   UNL A   1      41.023  26.960  28.624  1.00  0.00     0.074 A 
ATOM     42  C   UNL A   1      43.046  26.128  27.471  1.00  0.00     0.049 A 
ATOM     43  N   UNL A   1      41.353  28.199  28.881  1.00  0.00    -0.248 NA
ATOM     44  C   UNL A   1      39.720  26.555  29.176  1.00  0.00     0.031 C 
ATOM     45  C   UNL A   1      43.908  25.146  26.815  1.00  0.00     0.029 A 
ATOM     46  N   UNL A   1      43.828  27.250  27.572  1.00  0.00    -0.354 N 
ATOM     47  C   UNL A   1      40.294  28.728  29.612  1.00  0.00     0.074 A 
ATOM     48  C   UNL A   1      39.303  27.680  29.737  1.00  0.00     0.031 C 
ATOM     49  C   UNL A   1      45.098  25.717  26.557  1.00  0.00     0.029 A 
ATOM     50  C   UNL A   1      45.064  27.115  26.982  1.00  0.00     0.049 A 
ATOM     51  H   UNL A   1      43.534  28.074  28.024  1.00  0.00     0.167 HD
ATOM     52  C   UNL A   1      40.166  29.973  30.131  1.00  0.00     0.034 A 
ATOM     53  C   UNL A   1      46.034  28.028  26.773  1.00  0.00     0.034 A 
ATOM     54  C   UNL A   1      41.162  31.007  29.988  1.00  0.00     0.049 A 
ATOM     55  C   UNL A   1      45.818  29.443  27.257  1.00  0.00     0.074 A 
ATOM     56  C   UNL A   1      41.126  32.310  30.450  1.00  0.00     0.029 A 
ATOM     57  N   UNL A   1      42.374  30.854  29.326  1.00  0.00    -0.354 N 
ATOM     58  N   UNL A   1      44.793  29.949  27.905  1.00  0.00    -0.248 NA
ATOM     59  C   UNL A   1      46.888  30.409  26.978  1.00  0.00     0.031 C 
ATOM     60  C   UNL A   1      42.284  32.964  30.013  1.00  0.00     0.029 A 
ATOM     61  C   UNL A   1      43.079  32.047  29.343  1.00  0.00     0.049 A 
ATOM     62  H   UNL A   1      42.686  30.020  28.907  1.00  0.00     0.167 HD
ATOM     63  C   UNL A   1      45.113  31.284  28.139  1.00  0.00     0.074 A 
ATOM     64  C   UNL A   1      46.428  31.500  27.573  1.00  0.00     0.031 C 
ATOM     65  C   UNL A   1      44.389  32.246  28.767  1.00  0.00     0.034 A 
BRANCH  52  66
ATOM     66  C   UNL A   1      38.872  30.296  30.835  1.00  0.00     0.023 A 
ATOM     67  C   UNL A   1      37.842  31.015  30.205  1.00  0.00     0.031 A 
ATOM     68  C   UNL A   1      38.683  29.907  32.174  1.00  0.00     0.131 A 
ATOM     69  C   UNL A   1      36.699  31.380  30.933  1.00  0.00     0.055 A 
ATOM     70  C   UNL A   1      37.512  30.209  32.870  1.00  0.00     0.041 A 
ATOM     71  F   UNL A   1      39.644  29.241  32.833  1.00  0.00    -0.206 F 
ATOM     72  C   UNL A   1      36.516  30.961  32.254  1.00  0.00     0.022 A 
BRANCH  69  73
ATOM     73  S   UNL A   1      35.511  32.522  30.174  1.00  0.00     0.124 S 
ATOM     74  O   UNL A   1      34.754  31.626  29.303  1.00  0.00    -0.237 OA
ATOM     75  O   UNL A   1      34.793  33.047  31.330  1.00  0.00    -0.237 OA
ATOM     76  O   UNL A   1      36.360  33.486  29.477  1.00  0.00    -0.744 OA
ENDBRANCH  69  73
ENDBRANCH  52  66
BRANCH  53  77
ATOM     77  C   UNL A   1      47.267  27.668  26.015  1.00  0.00     0.023 A 
ATOM     78  C   UNL A   1      47.376  27.919  24.638  1.00  0.00     0.031 A 
ATOM     79  C   UNL A   1      48.329  26.994  26.647  1.00  0.00     0.131 A 
ATOM     80  C   UNL A   1      48.496  27.455  23.930  1.00  0.00     0.055 A 
ATOM     81  C   UNL A   1      49.465  26.585  25.948  1.00  0.00     0.041 A 
ATOM     82  F   UNL A   1      48.275  26.722  27.961  1.00  0.00    -0.206 F 
ATOM     83  C   UNL A   1      49.547  26.802  24.577  1.00  0.00     0.022 A 
BRANCH  80  84
ATOM     84  S   UNL A   1      48.514  27.631  22.124  1.00  0.00     0.124 S 
ATOM     85  O   UNL A   1      49.641  28.535  21.923  1.00  0.00    -0.237 OA
ATOM     86  O   UNL A   1      48.712  26.252  21.689  1.00  0.00    -0.237 OA
ATOM     87  O   UNL A   1      47.199  28.193  21.824  1.00  0.00    -0.744 OA
ENDBRANCH  80  84
ENDBRANCH  53  77
BRANCH  65  88
ATOM     88  C   UNL A   1      45.034  33.602  28.918  1.00  0.00     0.023 A 
ATOM     89  C   UNL A   1      45.811  33.935  30.041  1.00  0.00     0.031 A 
ATOM     90  C   UNL A   1      44.860  34.579  27.920  1.00  0.00     0.131 A 
ATOM     91  C   UNL A   1      46.341  35.228  30.164  1.00  0.00     0.055 A 
ATOM     92  C   UNL A   1      45.438  35.845  28.022  1.00  0.00     0.041 A 
ATOM     93  F   UNL A   1      44.127  34.315  26.827  1.00  0.00    -0.206 F 
ATOM     94  C   UNL A   1      46.173  36.179  29.155  1.00  0.00     0.022 A 
BRANCH  91  95
ATOM     95  S   UNL A   1      47.186  35.681  31.705  1.00  0.00     0.124 S 
ATOM     96  O   UNL A   1      46.075  35.773  32.646  1.00  0.00    -0.237 OA
ATOM     97  O   UNL A   1      48.097  34.558  31.903  1.00  0.00    -0.237 OA
ATOM     98  O   UNL A   1      47.832  36.951  31.381  1.00  0.00    -0.744 OA
ENDBRANCH  91  95
ENDBRANCH  65  88
ENDBRANCH  39  40
ENDBRANCH  32  34
ENDBRANCH  31  32
ENDBRANCH  30  31
ENDBRANCH  29  30
ENDBRANCH  28  29
ENDBRANCH   1  28
TORSDOF 22
ENDMDL
MODEL 3
REMARK VINA RESULT:      -9.9      2.291      7.767
REMARK SMILES C[C@@H]1[NH2+]CC[C@H]1C(=O)Nc1ccc(C(=O)OCCOCCOCCOC(=O)c2ccc(-c3c4nc(c(-c5cc(S(=O)(=O)[O-])ccc5F)c5ccc([nH]5)c(-c5cc(S(=O)(=O)[O-])ccc5F)c5nc(c(-c6cc(S(=O)(=O)[O-])ccc6F)c6ccc3[nH]6)C=C5)C=C4)cc2)c(Cl)c1
REMARK SMILES IDX 21 1 20 2 19 3 18 4 17 5 16 6 14 7 15 8 13 9 10 10 11 11
REMARK SMILES IDX 93 12 12 13 91 14 92 15 9 16 7 17 8 18 6 20 1 21 2 22 3 23
REMARK SMILES IDX 4 24 5 27 22 28 23 29 24 30 25 31 26 32 27 33 28 34 29 35
REMARK SMILES IDX 90 36 30 37 89 38 31 39 32 40 33 41 83 42 34 43 88 44 82 45
REMARK SMILES IDX 84 46 35 47 87 48 81 49 80 50 36 52 68 53 48 54 67 55 49 56
REMARK SMILES IDX 52 57 66 58 85 59 50 60 51 61 65 63 86 64 53 65 37 66 38 67
REMARK SMILES IDX 46 68 39 69 45 70 47 71 44 72 40 73 41 74 42 75 43 76 69 77
REMARK SMILES IDX 70 78 78 79 71 80 77 81 79 82 76 83 72 84 73 85 74 86 75 87
REMARK SMILES IDX 54 88 55 89 63 90 56 91 62 92 64 93 61 94 57 95 58 96 59 97
REMARK SMILES IDX 60 98
REMARK H PARENT 9 19 3 25 3 26 84 51 52 62
REMARK Flexibility Score: inf
ROOT
ATOM      1  C   UNL A   1      41.394  20.781  26.098  1.00  0.00     0.188 C 
ENDROOT
BRANCH   1   2
ATOM      2  C   UNL A   1      39.982  21.346  26.362  1.00  0.00     0.188 C 
BRANCH   2   3
ATOM      3  O   UNL A   1      38.911  21.005  25.497  1.00  0.00    -0.376 OA
BRANCH   3   4
ATOM      4  C   UNL A   1      37.661  21.666  25.652  1.00  0.00     0.202 C 
BRANCH   4   5
ATOM      5  C   UNL A   1      36.364  20.886  25.440  1.00  0.00     0.261 C 
BRANCH   5   6
ATOM      6  O   UNL A   1      35.298  21.390  26.258  1.00  0.00    -0.460 OA
BRANCH   6   7
ATOM      7  C   UNL A   1      34.058  21.178  25.764  1.00  0.00     0.339 C 
ATOM      8  O   UNL A   1      33.204  20.431  26.222  1.00  0.00    -0.246 OA
BRANCH   7   9
ATOM      9  C   UNL A   1      33.772  22.139  24.686  1.00  0.00     0.078 A 
ATOM     10  C   UNL A   1      33.214  24.136  22.781  1.00  0.00     0.042 A 
ATOM     11  C   UNL A   1      33.945  24.440  23.925  1.00  0.00     0.027 A 
ATOM     12  C   UNL A   1      32.727  22.831  22.618  1.00  0.00     0.047 A 
ATOM     13  C   UNL A   1      34.234  23.448  24.868  1.00  0.00     0.019 A 
ATOM     14  C   UNL A   1      33.017  21.827  23.556  1.00  0.00     0.057 A 
ATOM     15  Cl  UNL A   1      32.356  20.256  23.284  1.00  0.00    -0.083 Cl
BRANCH  10  16
ATOM     16  N   UNL A   1      32.772  25.116  21.883  1.00  0.00    -0.326 N 
ATOM     17  C   UNL A   1      31.694  25.953  21.846  1.00  0.00     0.233 C 
ATOM     18  O   UNL A   1      31.372  26.383  20.730  1.00  0.00    -0.274 OA
ATOM     19  H   UNL A   1      33.370  25.224  21.109  1.00  0.00     0.169 HD
BRANCH  17  20
ATOM     20  C   UNL A   1      31.033  26.545  23.090  1.00  0.00     0.142 C 
ATOM     21  C   UNL A   1      30.950  28.900  24.047  1.00  0.00     0.076 C 
ATOM     22  C   UNL A   1      30.416  27.935  22.982  1.00  0.00     0.192 C 
ATOM     23  N   UNL A   1      28.966  27.746  23.182  1.00  0.00    -0.343 N 
ATOM     24  C   UNL A   1      28.827  26.576  24.049  1.00  0.00     0.261 C 
ATOM     25  H   UNL A   1      28.504  27.583  22.288  1.00  0.00     0.346 HD
ATOM     26  H   UNL A   1      28.537  28.572  23.600  1.00  0.00     0.346 HD
ATOM     27  C   UNL A   1      29.950  25.641  23.669  1.00  0.00     0.081 C 
ENDBRANCH  17  20
ENDBRANCH  10  16
ENDBRANCH   7   9
ENDBRANCH   6   7
ENDBRANCH   5   6
ENDBRANCH   4   5
ENDBRANCH   3   4
ENDBRANCH   2   3
ENDBRANCH   1   2
BRANCH   1  28
ATOM     28  O   UNL A   1      41.570  19.427  25.739  1.00  0.00    -0.376 OA
BRANCH  28  29
ATOM     29  C   UNL A   1      42.683  18.689  26.222  1.00  0.00     0.202 C 
BRANCH  29  30
ATOM     30  C   UNL A   1      43.920  18.340  25.381  1.00  0.00     0.261 C 
BRANCH  30  31
ATOM     31  O   UNL A   1      44.950  19.330  25.323  1.00  0.00    -0.460 OA
BRANCH  31  32
ATOM     32  C   UNL A   1      44.753  20.281  24.378  1.00  0.00     0.338 C 
ATOM     33  O   UNL A   1      44.518  20.108  23.190  1.00  0.00    -0.246 OA
BRANCH  32  34
ATOM     34  C   UNL A   1      44.703  21.605  25.007  1.00  0.00     0.060 A 
ATOM     35  C   UNL A   1      44.551  22.715  24.175  1.00  0.00     0.016 A 
ATOM     36  C   UNL A   1      44.922  21.767  26.373  1.00  0.00     0.016 A 
ATOM     37  C   UNL A   1      44.636  24.002  24.696  1.00  0.00     0.010 A 
ATOM     38  C   UNL A   1      45.019  23.061  26.896  1.00  0.00     0.010 A 
ATOM     39  C   UNL A   1      44.903  24.184  26.056  1.00  0.00    -0.014 A 
BRANCH  39  40
ATOM     40  C   UNL A   1      45.222  25.543  26.552  1.00  0.00     0.031 A 
ATOM     41  C   UNL A   1      44.112  26.380  27.123  1.00  0.00     0.074 A 
ATOM     42  C   UNL A   1      46.487  26.000  26.549  1.00  0.00     0.049 A 
ATOM     43  N   UNL A   1      44.131  27.625  27.523  1.00  0.00    -0.248 NA
ATOM     44  C   UNL A   1      42.805  25.719  27.263  1.00  0.00     0.031 C 
ATOM     45  C   UNL A   1      47.658  25.238  26.115  1.00  0.00     0.029 A 
ATOM     46  N   UNL A   1      46.997  27.217  26.922  1.00  0.00    -0.354 N 
ATOM     47  C   UNL A   1      42.837  27.903  27.950  1.00  0.00     0.074 A 
ATOM     48  C   UNL A   1      42.056  26.703  27.739  1.00  0.00     0.031 C 
ATOM     49  C   UNL A   1      48.750  26.015  26.233  1.00  0.00     0.029 A 
ATOM     50  C   UNL A   1      48.349  27.340  26.699  1.00  0.00     0.049 A 
ATOM     51  H   UNL A   1      46.448  27.935  27.313  1.00  0.00     0.167 HD
ATOM     52  C   UNL A   1      42.350  29.055  28.473  1.00  0.00     0.034 A 
ATOM     53  C   UNL A   1      49.157  28.413  26.819  1.00  0.00     0.034 A 
ATOM     54  C   UNL A   1      43.143  30.243  28.669  1.00  0.00     0.049 A 
ATOM     55  C   UNL A   1      48.566  29.721  27.292  1.00  0.00     0.074 A 
ATOM     56  C   UNL A   1      42.748  31.472  29.166  1.00  0.00     0.029 A 
ATOM     57  N   UNL A   1      44.495  30.352  28.370  1.00  0.00    -0.354 N 
ATOM     58  N   UNL A   1      47.331  29.990  27.648  1.00  0.00    -0.248 NA
ATOM     59  C   UNL A   1      49.478  30.868  27.375  1.00  0.00     0.031 C 
ATOM     60  C   UNL A   1      43.843  32.342  29.107  1.00  0.00     0.029 A 
ATOM     61  C   UNL A   1      44.942  31.636  28.645  1.00  0.00     0.049 A 
ATOM     62  H   UNL A   1      45.055  29.625  28.015  1.00  0.00     0.167 HD
ATOM     63  C   UNL A   1      47.329  31.330  28.029  1.00  0.00     0.074 A 
ATOM     64  C   UNL A   1      48.686  31.808  27.869  1.00  0.00     0.031 C 
ATOM     65  C   UNL A   1      46.300  32.097  28.473  1.00  0.00     0.034 A 
BRANCH  52  66
ATOM     66  C   UNL A   1      40.878  29.095  28.798  1.00  0.00     0.023 A 
ATOM     67  C   UNL A   1      40.407  29.070  30.122  1.00  0.00     0.031 A 
ATOM     68  C   UNL A   1      39.928  29.123  27.760  1.00  0.00     0.131 A 
ATOM     69  C   UNL A   1      39.027  29.006  30.372  1.00  0.00     0.055 A 
ATOM     70  C   UNL A   1      38.557  29.134  28.017  1.00  0.00     0.041 A 
ATOM     71  F   UNL A   1      40.320  29.122  26.476  1.00  0.00    -0.206 F 
ATOM     72  C   UNL A   1      38.098  29.063  29.329  1.00  0.00     0.022 A 
BRANCH  69  73
ATOM     73  S   UNL A   1      38.463  28.715  32.071  1.00  0.00     0.124 S 
ATOM     74  O   UNL A   1      38.855  27.323  32.279  1.00  0.00    -0.237 OA
ATOM     75  O   UNL A   1      39.213  29.711  32.828  1.00  0.00    -0.237 OA
ATOM     76  O   UNL A   1      37.021  28.944  31.998  1.00  0.00    -0.744 OA
ENDBRANCH  69  73
ENDBRANCH  52  66
BRANCH  53  77
ATOM     77  C   UNL A   1      50.593  28.331  26.424  1.00  0.00     0.023 A 
ATOM     78  C   UNL A   1      50.999  28.558  25.099  1.00  0.00     0.031 A 
ATOM     79  C   UNL A   1      51.575  27.947  27.356  1.00  0.00     0.131 A 
ATOM     80  C   UNL A   1      52.339  28.351  24.733  1.00  0.00     0.055 A 
ATOM     81  C   UNL A   1      52.916  27.796  26.998  1.00  0.00     0.041 A 
ATOM     82  F   UNL A   1      51.242  27.710  28.635  1.00  0.00    -0.206 F 
ATOM     83  C   UNL A   1      53.302  27.985  25.675  1.00  0.00     0.022 A 
BRANCH  80  84
ATOM     84  S   UNL A   1      52.787  28.470  22.979  1.00  0.00     0.124 S 
ATOM     85  O   UNL A   1      53.709  27.350  22.830  1.00  0.00    -0.237 OA
ATOM     86  O   UNL A   1      51.490  28.325  22.326  1.00  0.00    -0.237 OA
ATOM     87  O   UNL A   1      53.391  29.796  22.872  1.00  0.00    -0.744 OA
ENDBRANCH  80  84
ENDBRANCH  53  77
BRANCH  65  88
ATOM     88  C   UNL A   1      46.623  33.518  28.867  1.00  0.00     0.023 A 
ATOM     89  C   UNL A   1      46.518  34.583  27.956  1.00  0.00     0.031 A 
ATOM     90  C   UNL A   1      47.050  33.806  30.176  1.00  0.00     0.131 A 
ATOM     91  C   UNL A   1      46.886  35.878  28.351  1.00  0.00     0.055 A 
ATOM     92  C   UNL A   1      47.359  35.105  30.580  1.00  0.00     0.041 A 
ATOM     93  F   UNL A   1      47.168  32.826  31.086  1.00  0.00    -0.206 F 
ATOM     94  C   UNL A   1      47.290  36.148  29.661  1.00  0.00     0.022 A 
BRANCH  91  95
ATOM     95  S   UNL A   1      46.910  37.197  27.105  1.00  0.00     0.124 S 
ATOM     96  O   UNL A   1      45.762  38.008  27.498  1.00  0.00    -0.237 OA
ATOM     97  O   UNL A   1      48.221  37.803  27.318  1.00  0.00    -0.237 OA
ATOM     98  O   UNL A   1      46.759  36.479  25.842  1.00  0.00    -0.744 OA
ENDBRANCH  91  95
ENDBRANCH  65  88
ENDBRANCH  39  40
ENDBRANCH  32  34
ENDBRANCH  31  32
ENDBRANCH  30  31
ENDBRANCH  29  30
ENDBRANCH  28  29
ENDBRANCH   1  28
TORSDOF 22
ENDMDL
