MODEL 1
REMARK VINA RESULT:     -10.3      0.000      0.000
REMARK SMILES O=C(CC1(CC(=O)OCCOCCOCCOC(=O)c2ccc(-c3c4nc(c(-c5cc(S(=O)(=O)[O-])ccc5F)c5ccc([nH]5)c(-c5cc(S(=O)(=O)[O-])ccc5F)c5nc(c(-c6cc(S(=O)(=O)[O-])ccc6F)c6ccc3[nH]6)C=C5)C=C4)cc2)CCCC1)NNc1ccc([N+](=O)[O-])cc1
REMARK SMILES IDX 11 1 10 2 9 3 8 4 6 5 7 6 5 7 4 8 83 9 86 10 84 11 85 12
REMARK SMILES IDX 3 13 2 14 1 15 87 16 88 18 89 20 90 21 97 22 91 23 96 24
REMARK SMILES IDX 92 25 93 26 94 27 95 28 12 29 13 30 14 31 15 32 16 33 17 34
REMARK SMILES IDX 18 35 19 36 20 37 21 38 82 39 22 40 81 41 23 42 24 43 25 44
REMARK SMILES IDX 75 45 26 46 80 47 74 48 76 49 27 50 79 51 73 52 72 53 28 55
REMARK SMILES IDX 60 56 40 57 59 58 41 59 44 60 58 61 77 62 42 63 43 64 57 66
REMARK SMILES IDX 78 67 45 68 29 69 30 70 38 71 31 72 37 73 39 74 36 75 32 76
REMARK SMILES IDX 33 77 34 78 35 79 61 80 62 81 70 82 63 83 69 84 71 85 68 86
REMARK SMILES IDX 64 87 65 88 66 89 67 90 46 91 47 92 55 93 48 94 54 95 56 96
REMARK SMILES IDX 53 97 49 98 50 99 51 100 52 101
REMARK H PARENT 87 17 88 19 76 54 44 65
REMARK Flexibility Score: inf
ROOT
ATOM      1  O   UNL A   1      35.739  22.502  24.771  1.00  0.00    -0.376 OA
ENDROOT
BRANCH   1   2
ATOM      2  C   UNL A   1      35.678  23.286  23.583  1.00  0.00     0.202 C 
BRANCH   2   3
ATOM      3  C   UNL A   1      34.274  23.597  23.047  1.00  0.00     0.261 C 
BRANCH   3   4
ATOM      4  O   UNL A   1      34.023  25.010  22.890  1.00  0.00    -0.463 OA
BRANCH   4   5
ATOM      5  C   UNL A   1      32.782  25.321  22.421  1.00  0.00     0.306 C 
ATOM      6  O   UNL A   1      32.553  25.751  21.295  1.00  0.00    -0.252 OA
BRANCH   5   7
ATOM      7  C   UNL A   1      31.670  24.979  23.396  1.00  0.00     0.130 C 
BRANCH   7   8
ATOM      8  C   UNL A   1      31.362  25.969  24.558  1.00  0.00    -0.010 C 
ATOM      9  C   UNL A   1      29.852  25.884  24.895  1.00  0.00     0.008 C 
ATOM     10  C   UNL A   1      31.451  27.453  24.146  1.00  0.00     0.008 C 
ATOM     11  C   UNL A   1      29.152  26.723  23.826  1.00  0.00     0.001 C 
ATOM     12  C   UNL A   1      30.191  27.725  23.332  1.00  0.00     0.001 C 
BRANCH   8  13
ATOM     13  C   UNL A   1      32.182  25.562  25.809  1.00  0.00     0.109 C 
BRANCH  13  14
ATOM     14  C   UNL A   1      31.822  24.213  26.401  1.00  0.00     0.238 C 
ATOM     15  O   UNL A   1      30.892  24.055  27.185  1.00  0.00    -0.273 OA
ATOM     16  N   UNL A   1      32.705  23.227  26.004  1.00  0.00    -0.270 N 
ATOM     17  H   UNL A   1      33.477  23.446  25.432  1.00  0.00     0.191 HD
BRANCH  16  18
ATOM     18  N   UNL A   1      32.488  21.925  26.424  1.00  0.00    -0.299 N 
ATOM     19  H   UNL A   1      32.217  21.717  27.347  1.00  0.00     0.188 HD
BRANCH  18  20
ATOM     20  C   UNL A   1      32.674  20.927  25.469  1.00  0.00     0.055 A 
ATOM     21  C   UNL A   1      33.287  19.721  25.832  1.00  0.00     0.034 A 
ATOM     22  C   UNL A   1      32.168  21.056  24.166  1.00  0.00     0.034 A 
ATOM     23  C   UNL A   1      33.369  18.657  24.928  1.00  0.00     0.088 A 
ATOM     24  C   UNL A   1      32.260  20.012  23.245  1.00  0.00     0.088 A 
ATOM     25  C   UNL A   1      32.848  18.807  23.636  1.00  0.00     0.269 A 
BRANCH  25  26
ATOM     26  N   UNL A   1      32.902  17.685  22.692  1.00  0.00     0.062 N 
ATOM     27  O   UNL A   1      33.750  16.804  22.893  1.00  0.00    -0.258 OA
ATOM     28  O   UNL A   1      32.090  17.677  21.756  1.00  0.00    -0.258 OA
ENDBRANCH  25  26
ENDBRANCH  18  20
ENDBRANCH  16  18
ENDBRANCH  13  14
ENDBRANCH   8  13
ENDBRANCH   7   8
ENDBRANCH   5   7
ENDBRANCH   4   5
ENDBRANCH   3   4
ENDBRANCH   2   3
ENDBRANCH   1   2
BRANCH   1  29
ATOM     29  C   UNL A   1      36.322  23.116  25.915  1.00  0.00     0.188 C 
BRANCH  29  30
ATOM     30  C   UNL A   1      37.851  23.126  25.955  1.00  0.00     0.188 C 
BRANCH  30  31
ATOM     31  O   UNL A   1      38.493  21.983  25.362  1.00  0.00    -0.376 OA
BRANCH  31  32
ATOM     32  C   UNL A   1      39.254  21.227  26.321  1.00  0.00     0.202 C 
BRANCH  32  33
ATOM     33  C   UNL A   1      39.826  19.906  25.789  1.00  0.00     0.261 C 
BRANCH  33  34
ATOM     34  O   UNL A   1      40.987  19.498  26.531  1.00  0.00    -0.460 OA
BRANCH  34  35
ATOM     35  C   UNL A   1      42.170  19.847  25.962  1.00  0.00     0.338 C 
ATOM     36  O   UNL A   1      42.769  19.221  25.101  1.00  0.00    -0.246 OA
BRANCH  35  37
ATOM     37  C   UNL A   1      42.532  21.229  26.355  1.00  0.00     0.060 A 
ATOM     38  C   UNL A   1      42.656  22.178  25.328  1.00  0.00     0.016 A 
ATOM     39  C   UNL A   1      42.678  21.618  27.689  1.00  0.00     0.016 A 
ATOM     40  C   UNL A   1      42.948  23.508  25.627  1.00  0.00     0.010 A 
ATOM     41  C   UNL A   1      42.989  22.950  27.987  1.00  0.00     0.010 A 
ATOM     42  C   UNL A   1      43.150  23.894  26.956  1.00  0.00    -0.014 A 
BRANCH  42  43
ATOM     43  C   UNL A   1      43.727  25.228  27.251  1.00  0.00     0.031 A 
ATOM     44  C   UNL A   1      42.825  26.270  27.852  1.00  0.00     0.074 A 
ATOM     45  C   UNL A   1      45.024  25.502  27.024  1.00  0.00     0.049 A 
ATOM     46  N   UNL A   1      43.064  27.528  28.117  1.00  0.00    -0.248 NA
ATOM     47  C   UNL A   1      41.465  25.827  28.196  1.00  0.00     0.031 C 
ATOM     48  C   UNL A   1      46.013  24.553  26.514  1.00  0.00     0.029 A 
ATOM     49  N   UNL A   1      45.732  26.667  27.190  1.00  0.00    -0.354 N 
ATOM     50  C   UNL A   1      41.880  28.031  28.649  1.00  0.00     0.074 A 
ATOM     51  C   UNL A   1      40.919  26.949  28.635  1.00  0.00     0.031 C 
ATOM     52  C   UNL A   1      47.198  25.179  26.398  1.00  0.00     0.029 A 
ATOM     53  C   UNL A   1      47.042  26.582  26.779  1.00  0.00     0.049 A 
ATOM     54  H   UNL A   1      45.338  27.486  27.568  1.00  0.00     0.167 HD
ATOM     55  C   UNL A   1      41.623  29.279  29.109  1.00  0.00     0.034 A 
ATOM     56  C   UNL A   1      47.992  27.537  26.689  1.00  0.00     0.034 A 
ATOM     57  C   UNL A   1      42.590  30.349  29.104  1.00  0.00     0.049 A 
ATOM     58  C   UNL A   1      47.652  28.950  27.109  1.00  0.00     0.074 A 
ATOM     59  C   UNL A   1      42.436  31.652  29.540  1.00  0.00     0.029 A 
ATOM     60  N   UNL A   1      43.892  30.241  28.629  1.00  0.00    -0.354 N 
ATOM     61  N   UNL A   1      46.524  29.421  27.592  1.00  0.00    -0.248 NA
ATOM     62  C   UNL A   1      48.713  29.955  26.977  1.00  0.00     0.031 C 
ATOM     63  C   UNL A   1      43.616  32.351  29.259  1.00  0.00     0.029 A 
ATOM     64  C   UNL A   1      44.539  31.462  28.730  1.00  0.00     0.049 A 
ATOM     65  H   UNL A   1      44.295  29.416  28.273  1.00  0.00     0.167 HD
ATOM     66  C   UNL A   1      46.755  30.772  27.851  1.00  0.00     0.074 A 
ATOM     67  C   UNL A   1      48.132  31.032  27.484  1.00  0.00     0.031 C 
ATOM     68  C   UNL A   1      45.910  31.710  28.352  1.00  0.00     0.034 A 
BRANCH  55  69
ATOM     69  C   UNL A   1      40.220  29.561  29.590  1.00  0.00     0.023 A 
ATOM     70  C   UNL A   1      39.896  29.603  30.958  1.00  0.00     0.031 A 
ATOM     71  C   UNL A   1      39.179  29.743  28.662  1.00  0.00     0.131 A 
ATOM     72  C   UNL A   1      38.558  29.748  31.356  1.00  0.00     0.055 A 
ATOM     73  C   UNL A   1      37.863  29.971  29.066  1.00  0.00     0.041 A 
ATOM     74  F   UNL A   1      39.421  29.683  27.343  1.00  0.00    -0.206 F 
ATOM     75  C   UNL A   1      37.543  29.958  30.420  1.00  0.00     0.022 A 
BRANCH  72  76
ATOM     76  S   UNL A   1      38.142  29.501  33.104  1.00  0.00     0.124 S 
ATOM     77  O   UNL A   1      37.379  30.711  33.398  1.00  0.00    -0.237 OA
ATOM     78  O   UNL A   1      37.382  28.257  33.075  1.00  0.00    -0.237 OA
ATOM     79  O   UNL A   1      39.446  29.421  33.758  1.00  0.00    -0.744 OA
ENDBRANCH  72  76
ENDBRANCH  55  69
BRANCH  56  80
ATOM     80  C   UNL A   1      49.339  27.220  26.127  1.00  0.00     0.023 A 
ATOM     81  C   UNL A   1      50.422  26.904  26.963  1.00  0.00     0.031 A 
ATOM     82  C   UNL A   1      49.579  27.299  24.743  1.00  0.00     0.131 A 
ATOM     83  C   UNL A   1      51.702  26.726  26.413  1.00  0.00     0.055 A 
ATOM     84  C   UNL A   1      50.841  27.065  24.196  1.00  0.00     0.041 A 
ATOM     85  F   UNL A   1      48.581  27.605  23.897  1.00  0.00    -0.206 F 
ATOM     86  C   UNL A   1      51.916  26.790  25.034  1.00  0.00     0.022 A 
BRANCH  83  87
ATOM     87  S   UNL A   1      53.109  26.504  27.538  1.00  0.00     0.124 S 
ATOM     88  O   UNL A   1      53.772  25.343  26.957  1.00  0.00    -0.237 OA
ATOM     89  O   UNL A   1      53.807  27.778  27.401  1.00  0.00    -0.237 OA
ATOM     90  O   UNL A   1      52.476  26.279  28.835  1.00  0.00    -0.744 OA
ENDBRANCH  83  87
ENDBRANCH  56  80
BRANCH  68  91
ATOM     91  C   UNL A   1      46.473  33.094  28.582  1.00  0.00     0.023 A 
ATOM     92  C   UNL A   1      47.002  33.486  29.824  1.00  0.00     0.031 A 
ATOM     93  C   UNL A   1      46.472  34.037  27.538  1.00  0.00     0.131 A 
ATOM     94  C   UNL A   1      47.453  34.802  30.007  1.00  0.00     0.055 A 
ATOM     95  C   UNL A   1      46.983  35.324  27.708  1.00  0.00     0.041 A 
ATOM     96  F   UNL A   1      45.978  33.720  26.330  1.00  0.00    -0.206 F 
ATOM     97  C   UNL A   1      47.465  35.718  28.952  1.00  0.00     0.022 A 
BRANCH  94  98
ATOM     98  S   UNL A   1      47.937  35.334  31.673  1.00  0.00     0.124 S 
ATOM     99  O   UNL A   1      47.014  36.437  31.919  1.00  0.00    -0.237 OA
ATOM    100  O   UNL A   1      47.714  34.127  32.463  1.00  0.00    -0.237 OA
ATOM    101  O   UNL A   1      49.338  35.720  31.517  1.00  0.00    -0.744 OA
ENDBRANCH  94  98
ENDBRANCH  68  91
ENDBRANCH  42  43
ENDBRANCH  35  37
ENDBRANCH  34  35
ENDBRANCH  33  34
ENDBRANCH  32  33
ENDBRANCH  31  32
ENDBRANCH  30  31
ENDBRANCH  29  30
ENDBRANCH   1  29
TORSDOF 26
ENDMDL
MODEL 2
REMARK VINA RESULT:     -10.1      2.249      7.637
REMARK SMILES O=C(CC1(CC(=O)OCCOCCOCCOC(=O)c2ccc(-c3c4nc(c(-c5cc(S(=O)(=O)[O-])ccc5F)c5ccc([nH]5)c(-c5cc(S(=O)(=O)[O-])ccc5F)c5nc(c(-c6cc(S(=O)(=O)[O-])ccc6F)c6ccc3[nH]6)C=C5)C=C4)cc2)CCCC1)NNc1ccc([N+](=O)[O-])cc1
REMARK SMILES IDX 11 1 10 2 9 3 8 4 6 5 7 6 5 7 4 8 83 9 86 10 84 11 85 12
REMARK SMILES IDX 3 13 2 14 1 15 87 16 88 18 89 20 90 21 97 22 91 23 96 24
REMARK SMILES IDX 92 25 93 26 94 27 95 28 12 29 13 30 14 31 15 32 16 33 17 34
REMARK SMILES IDX 18 35 19 36 20 37 21 38 82 39 22 40 81 41 23 42 24 43 25 44
REMARK SMILES IDX 75 45 26 46 80 47 74 48 76 49 27 50 79 51 73 52 72 53 28 55
REMARK SMILES IDX 60 56 40 57 59 58 41 59 44 60 58 61 77 62 42 63 43 64 57 66
REMARK SMILES IDX 78 67 45 68 29 69 30 70 38 71 31 72 37 73 39 74 36 75 32 76
REMARK SMILES IDX 33 77 34 78 35 79 61 80 62 81 70 82 63 83 69 84 71 85 68 86
REMARK SMILES IDX 64 87 65 88 66 89 67 90 46 91 47 92 55 93 48 94 54 95 56 96
REMARK SMILES IDX 53 97 49 98 50 99 51 100 52 101
REMARK H PARENT 87 17 88 19 76 54 44 65
REMARK Flexibility Score: inf
ROOT
ATOM      1  O   UNL A   1      35.038  21.980  24.290  1.00  0.00    -0.376 OA
ENDROOT
BRANCH   1   2
ATOM      2  C   UNL A   1      35.063  23.306  23.770  1.00  0.00     0.202 C 
BRANCH   2   3
ATOM      3  C   UNL A   1      34.189  23.566  22.536  1.00  0.00     0.261 C 
BRANCH   3   4
ATOM      4  O   UNL A   1      33.881  24.963  22.338  1.00  0.00    -0.463 OA
BRANCH   4   5
ATOM      5  C   UNL A   1      32.566  25.231  22.106  1.00  0.00     0.306 C 
ATOM      6  O   UNL A   1      32.113  25.605  21.029  1.00  0.00    -0.252 OA
BRANCH   5   7
ATOM      7  C   UNL A   1      31.673  24.916  23.291  1.00  0.00     0.130 C 
BRANCH   7   8
ATOM      8  C   UNL A   1      31.772  25.808  24.564  1.00  0.00    -0.010 C 
ATOM      9  C   UNL A   1      30.339  26.163  25.035  1.00  0.00     0.008 C 
ATOM     10  C   UNL A   1      32.310  27.226  24.283  1.00  0.00     0.008 C 
ATOM     11  C   UNL A   1      29.885  27.299  24.120  1.00  0.00     0.001 C 
ATOM     12  C   UNL A   1      31.159  27.974  23.622  1.00  0.00     0.001 C 
BRANCH   8  13
ATOM     13  C   UNL A   1      32.492  25.019  25.687  1.00  0.00     0.109 C 
BRANCH  13  14
ATOM     14  C   UNL A   1      31.773  23.769  26.156  1.00  0.00     0.238 C 
ATOM     15  O   UNL A   1      30.957  23.773  27.074  1.00  0.00    -0.273 OA
ATOM     16  N   UNL A   1      32.201  22.645  25.476  1.00  0.00    -0.270 N 
ATOM     17  H   UNL A   1      32.918  22.709  24.803  1.00  0.00     0.191 HD
BRANCH  16  18
ATOM     18  N   UNL A   1      31.608  21.425  25.757  1.00  0.00    -0.299 N 
ATOM     19  H   UNL A   1      30.800  21.358  26.316  1.00  0.00     0.188 HD
BRANCH  18  20
ATOM     20  C   UNL A   1      32.215  20.299  25.205  1.00  0.00     0.055 A 
ATOM     21  C   UNL A   1      32.758  19.319  26.045  1.00  0.00     0.034 A 
ATOM     22  C   UNL A   1      32.208  20.068  23.820  1.00  0.00     0.034 A 
ATOM     23  C   UNL A   1      33.258  18.122  25.520  1.00  0.00     0.088 A 
ATOM     24  C   UNL A   1      32.721  18.888  23.279  1.00  0.00     0.088 A 
ATOM     25  C   UNL A   1      33.231  17.910  24.136  1.00  0.00     0.269 A 
BRANCH  25  26
ATOM     26  N   UNL A   1      33.724  16.644  23.582  1.00  0.00     0.062 N 
ATOM     27  O   UNL A   1      34.091  16.638  22.398  1.00  0.00    -0.258 OA
ATOM     28  O   UNL A   1      33.756  15.657  24.331  1.00  0.00    -0.258 OA
ENDBRANCH  25  26
ENDBRANCH  18  20
ENDBRANCH  16  18
ENDBRANCH  13  14
ENDBRANCH   8  13
ENDBRANCH   7   8
ENDBRANCH   5   7
ENDBRANCH   4   5
ENDBRANCH   3   4
ENDBRANCH   2   3
ENDBRANCH   1   2
BRANCH   1  29
ATOM     29  C   UNL A   1      35.733  21.759  25.513  1.00  0.00     0.188 C 
BRANCH  29  30
ATOM     30  C   UNL A   1      37.133  22.366  25.598  1.00  0.00     0.188 C 
BRANCH  30  31
ATOM     31  O   UNL A   1      38.195  21.554  25.067  1.00  0.00    -0.376 OA
BRANCH  31  32
ATOM     32  C   UNL A   1      39.215  21.283  26.044  1.00  0.00     0.202 C 
BRANCH  32  33
ATOM     33  C   UNL A   1      39.788  19.860  25.998  1.00  0.00     0.261 C 
BRANCH  33  34
ATOM     34  O   UNL A   1      41.015  19.761  26.738  1.00  0.00    -0.460 OA
BRANCH  34  35
ATOM     35  C   UNL A   1      42.125  20.110  26.037  1.00  0.00     0.338 C 
ATOM     36  O   UNL A   1      42.643  19.467  25.138  1.00  0.00    -0.246 OA
BRANCH  35  37
ATOM     37  C   UNL A   1      42.499  21.510  26.349  1.00  0.00     0.060 A 
ATOM     38  C   UNL A   1      42.674  21.844  27.701  1.00  0.00     0.016 A 
ATOM     39  C   UNL A   1      42.744  22.462  25.356  1.00  0.00     0.016 A 
ATOM     40  C   UNL A   1      43.071  23.128  28.066  1.00  0.00     0.010 A 
ATOM     41  C   UNL A   1      43.125  23.758  25.724  1.00  0.00     0.010 A 
ATOM     42  C   UNL A   1      43.266  24.103  27.081  1.00  0.00    -0.014 A 
BRANCH  42  43
ATOM     43  C   UNL A   1      43.413  25.524  27.478  1.00  0.00     0.031 A 
ATOM     44  C   UNL A   1      44.780  26.144  27.385  1.00  0.00     0.074 A 
ATOM     45  C   UNL A   1      42.360  26.259  27.877  1.00  0.00     0.049 A 
ATOM     46  N   UNL A   1      45.185  27.332  27.753  1.00  0.00    -0.248 NA
ATOM     47  C   UNL A   1      45.834  25.300  26.800  1.00  0.00     0.031 C 
ATOM     48  C   UNL A   1      40.976  25.792  27.937  1.00  0.00     0.029 A 
ATOM     49  N   UNL A   1      42.295  27.559  28.315  1.00  0.00    -0.354 N 
ATOM     50  C   UNL A   1      46.543  27.375  27.454  1.00  0.00     0.074 A 
ATOM     51  C   UNL A   1      46.896  26.083  26.907  1.00  0.00     0.031 C 
ATOM     52  C   UNL A   1      40.200  26.789  28.398  1.00  0.00     0.029 A 
ATOM     53  C   UNL A   1      41.035  27.947  28.710  1.00  0.00     0.049 A 
ATOM     54  H   UNL A   1      43.076  28.157  28.343  1.00  0.00     0.167 HD
ATOM     55  C   UNL A   1      47.413  28.401  27.618  1.00  0.00     0.034 A 
ATOM     56  C   UNL A   1      40.617  29.092  29.288  1.00  0.00     0.034 A 
ATOM     57  C   UNL A   1      47.046  29.679  28.176  1.00  0.00     0.049 A 
ATOM     58  C   UNL A   1      41.625  30.187  29.560  1.00  0.00     0.074 A 
ATOM     59  C   UNL A   1      47.846  30.787  28.393  1.00  0.00     0.029 A 
ATOM     60  N   UNL A   1      45.771  30.018  28.616  1.00  0.00    -0.354 N 
ATOM     61  N   UNL A   1      42.911  30.212  29.293  1.00  0.00    -0.248 NA
ATOM     62  C   UNL A   1      41.124  31.406  30.206  1.00  0.00     0.031 C 
ATOM     63  C   UNL A   1      47.075  31.765  29.033  1.00  0.00     0.029 A 
ATOM     64  C   UNL A   1      45.772  31.303  29.135  1.00  0.00     0.049 A 
ATOM     65  H   UNL A   1      44.983  29.430  28.567  1.00  0.00     0.167 HD
ATOM     66  C   UNL A   1      43.363  31.463  29.709  1.00  0.00     0.074 A 
ATOM     67  C   UNL A   1      42.209  32.166  30.231  1.00  0.00     0.031 C 
ATOM     68  C   UNL A   1      44.615  31.988  29.660  1.00  0.00     0.034 A 
BRANCH  55  69
ATOM     69  C   UNL A   1      48.854  28.149  27.248  1.00  0.00     0.023 A 
ATOM     70  C   UNL A   1      49.321  28.294  25.930  1.00  0.00     0.031 A 
ATOM     71  C   UNL A   1      49.766  27.709  28.224  1.00  0.00     0.131 A 
ATOM     72  C   UNL A   1      50.639  27.932  25.610  1.00  0.00     0.055 A 
ATOM     73  C   UNL A   1      51.099  27.432  27.916  1.00  0.00     0.041 A 
ATOM     74  F   UNL A   1      49.372  27.523  29.493  1.00  0.00    -0.206 F 
ATOM     75  C   UNL A   1      51.538  27.527  26.599  1.00  0.00     0.022 A 
BRANCH  72  76
ATOM     76  S   UNL A   1      51.115  27.849  23.862  1.00  0.00     0.124 S 
ATOM     77  O   UNL A   1      49.936  27.225  23.266  1.00  0.00    -0.237 OA
ATOM     78  O   UNL A   1      51.334  29.251  23.528  1.00  0.00    -0.237 OA
ATOM     79  O   UNL A   1      52.313  27.014  23.873  1.00  0.00    -0.744 OA
ENDBRANCH  72  76
ENDBRANCH  55  69
BRANCH  56  80
ATOM     80  C   UNL A   1      39.193  29.256  29.710  1.00  0.00     0.023 A 
ATOM     81  C   UNL A   1      38.284  29.996  28.937  1.00  0.00     0.031 A 
ATOM     82  C   UNL A   1      38.739  28.732  30.934  1.00  0.00     0.131 A 
ATOM     83  C   UNL A   1      36.984  30.230  29.417  1.00  0.00     0.055 A 
ATOM     84  C   UNL A   1      37.430  28.919  31.380  1.00  0.00     0.041 A 
ATOM     85  F   UNL A   1      39.568  28.023  31.718  1.00  0.00    -0.206 F 
ATOM     86  C   UNL A   1      36.547  29.684  30.626  1.00  0.00     0.022 A 
BRANCH  83  87
ATOM     87  S   UNL A   1      35.898  31.344  28.481  1.00  0.00     0.124 S 
ATOM     88  O   UNL A   1      34.896  31.689  29.482  1.00  0.00    -0.237 OA
ATOM     89  O   UNL A   1      36.819  32.409  28.098  1.00  0.00    -0.237 OA
ATOM     90  O   UNL A   1      35.422  30.509  27.381  1.00  0.00    -0.744 OA
ENDBRANCH  83  87
ENDBRANCH  56  80
BRANCH  68  91
ATOM     91  C   UNL A   1      44.786  33.413  30.135  1.00  0.00     0.023 A 
ATOM     92  C   UNL A   1      44.554  34.513  29.291  1.00  0.00     0.031 A 
ATOM     93  C   UNL A   1      45.194  33.670  31.457  1.00  0.00     0.131 A 
ATOM     94  C   UNL A   1      44.790  35.815  29.760  1.00  0.00     0.055 A 
ATOM     95  C   UNL A   1      45.363  34.969  31.936  1.00  0.00     0.041 A 
ATOM     96  F   UNL A   1      45.432  32.659  32.309  1.00  0.00    -0.206 F 
ATOM     97  C   UNL A   1      45.174  36.051  31.082  1.00  0.00     0.022 A 
BRANCH  94  98
ATOM     98  S   UNL A   1      44.680  37.196  28.588  1.00  0.00     0.124 S 
ATOM     99  O   UNL A   1      46.083  37.555  28.410  1.00  0.00    -0.237 OA
ATOM    100  O   UNL A   1      44.029  36.578  27.437  1.00  0.00    -0.237 OA
ATOM    101  O   UNL A   1      43.872  38.185  29.298  1.00  0.00    -0.744 OA
ENDBRANCH  94  98
ENDBRANCH  68  91
ENDBRANCH  42  43
ENDBRANCH  35  37
ENDBRANCH  34  35
ENDBRANCH  33  34
ENDBRANCH  32  33
ENDBRANCH  31  32
ENDBRANCH  30  31
ENDBRANCH  29  30
ENDBRANCH   1  29
TORSDOF 26
ENDMDL
MODEL 3
REMARK VINA RESULT:      -9.6      6.559     11.766
REMARK SMILES O=C(CC1(CC(=O)OCCOCCOCCOC(=O)c2ccc(-c3c4nc(c(-c5cc(S(=O)(=O)[O-])ccc5F)c5ccc([nH]5)c(-c5cc(S(=O)(=O)[O-])ccc5F)c5nc(c(-c6cc(S(=O)(=O)[O-])ccc6F)c6ccc3[nH]6)C=C5)C=C4)cc2)CCCC1)NNc1ccc([N+](=O)[O-])cc1
REMARK SMILES IDX 11 1 10 2 9 3 8 4 6 5 7 6 5 7 4 8 83 9 86 10 84 11 85 12
REMARK SMILES IDX 3 13 2 14 1 15 87 16 88 18 89 20 90 21 97 22 91 23 96 24
REMARK SMILES IDX 92 25 93 26 94 27 95 28 12 29 13 30 14 31 15 32 16 33 17 34
REMARK SMILES IDX 18 35 19 36 20 37 21 38 82 39 22 40 81 41 23 42 24 43 25 44
REMARK SMILES IDX 75 45 26 46 80 47 74 48 76 49 27 50 79 51 73 52 72 53 28 55
REMARK SMILES IDX 60 56 40 57 59 58 41 59 44 60 58 61 77 62 42 63 43 64 57 66
REMARK SMILES IDX 78 67 45 68 29 69 30 70 38 71 31 72 37 73 39 74 36 75 32 76
REMARK SMILES IDX 33 77 34 78 35 79 61 80 62 81 70 82 63 83 69 84 71 85 68 86
REMARK SMILES IDX 64 87 65 88 66 89 67 90 46 91 47 92 55 93 48 94 54 95 56 96
REMARK SMILES IDX 53 97 49 98 50 99 51 100 52 101
REMARK H PARENT 87 17 88 19 76 54 44 65
REMARK Flexibility Score: inf
ROOT
ATOM      1  O   UNL A   1      35.238  30.717  27.627  1.00  0.00    -0.376 OA
ENDROOT
BRANCH   1   2
ATOM      2  C   UNL A   1      34.079  29.909  27.440  1.00  0.00     0.202 C 
BRANCH   2   3
ATOM      3  C   UNL A   1      34.033  29.080  26.150  1.00  0.00     0.261 C 
BRANCH   3   4
ATOM      4  O   UNL A   1      34.090  27.656  26.383  1.00  0.00    -0.463 OA
BRANCH   4   5
ATOM      5  C   UNL A   1      33.445  26.898  25.453  1.00  0.00     0.306 C 
ATOM      6  O   UNL A   1      33.186  27.270  24.313  1.00  0.00    -0.252 OA
BRANCH   5   7
ATOM      7  C   UNL A   1      33.164  25.483  25.924  1.00  0.00     0.130 C 
BRANCH   7   8
ATOM      8  C   UNL A   1      33.599  24.291  25.020  1.00  0.00    -0.010 C 
ATOM      9  C   UNL A   1      33.731  23.023  25.900  1.00  0.00     0.008 C 
ATOM     10  C   UNL A   1      35.050  24.403  24.508  1.00  0.00     0.008 C 
ATOM     11  C   UNL A   1      35.086  23.154  26.595  1.00  0.00     0.001 C 
ATOM     12  C   UNL A   1      35.931  24.059  25.704  1.00  0.00     0.001 C 
BRANCH   8  13
ATOM     13  C   UNL A   1      32.515  24.046  23.940  1.00  0.00     0.109 C 
BRANCH  13  14
ATOM     14  C   UNL A   1      31.092  24.329  24.382  1.00  0.00     0.238 C 
ATOM     15  O   UNL A   1      30.495  23.631  25.195  1.00  0.00    -0.273 OA
ATOM     16  N   UNL A   1      30.552  25.409  23.709  1.00  0.00    -0.270 N 
ATOM     17  H   UNL A   1      31.068  25.874  23.012  1.00  0.00     0.191 HD
BRANCH  16  18
ATOM     18  N   UNL A   1      29.271  25.825  24.032  1.00  0.00    -0.299 N 
ATOM     19  H   UNL A   1      28.639  25.238  24.506  1.00  0.00     0.188 HD
BRANCH  18  20
ATOM     20  C   UNL A   1      28.925  27.120  23.648  1.00  0.00     0.055 A 
ATOM     21  C   UNL A   1      29.918  28.002  23.205  1.00  0.00     0.034 A 
ATOM     22  C   UNL A   1      27.586  27.536  23.598  1.00  0.00     0.034 A 
ATOM     23  C   UNL A   1      29.582  29.262  22.695  1.00  0.00     0.088 A 
ATOM     24  C   UNL A   1      27.235  28.796  23.112  1.00  0.00     0.088 A 
ATOM     25  C   UNL A   1      28.237  29.650  22.645  1.00  0.00     0.269 A 
BRANCH  25  26
ATOM     26  N   UNL A   1      27.875  30.956  22.083  1.00  0.00     0.062 N 
ATOM     27  O   UNL A   1      27.569  31.860  22.874  1.00  0.00    -0.258 OA
ATOM     28  O   UNL A   1      27.907  31.084  20.851  1.00  0.00    -0.258 OA
ENDBRANCH  25  26
ENDBRANCH  18  20
ENDBRANCH  16  18
ENDBRANCH  13  14
ENDBRANCH   8  13
ENDBRANCH   7   8
ENDBRANCH   5   7
ENDBRANCH   4   5
ENDBRANCH   3   4
ENDBRANCH   2   3
ENDBRANCH   1   2
BRANCH   1  29
ATOM     29  C   UNL A   1      35.324  31.438  28.852  1.00  0.00     0.188 C 
BRANCH  29  30
ATOM     30  C   UNL A   1      34.507  32.728  28.920  1.00  0.00     0.188 C 
BRANCH  30  31
ATOM     31  O   UNL A   1      35.196  33.920  28.503  1.00  0.00    -0.376 OA
BRANCH  31  32
ATOM     32  C   UNL A   1      34.343  35.079  28.526  1.00  0.00     0.202 C 
BRANCH  32  33
ATOM     33  C   UNL A   1      33.233  35.039  29.585  1.00  0.00     0.261 C 
BRANCH  33  34
ATOM     34  O   UNL A   1      33.593  35.793  30.754  1.00  0.00    -0.460 OA
BRANCH  34  35
ATOM     35  C   UNL A   1      33.288  35.186  31.931  1.00  0.00     0.338 C 
ATOM     36  O   UNL A   1      32.166  34.959  32.356  1.00  0.00    -0.246 OA
BRANCH  35  37
ATOM     37  C   UNL A   1      34.513  34.612  32.536  1.00  0.00     0.060 A 
ATOM     38  C   UNL A   1      35.746  35.104  32.081  1.00  0.00     0.016 A 
ATOM     39  C   UNL A   1      34.473  33.670  33.568  1.00  0.00     0.016 A 
ATOM     40  C   UNL A   1      36.939  34.644  32.636  1.00  0.00     0.010 A 
ATOM     41  C   UNL A   1      35.672  33.195  34.112  1.00  0.00     0.010 A 
ATOM     42  C   UNL A   1      36.909  33.662  33.632  1.00  0.00    -0.014 A 
BRANCH  42  43
ATOM     43  C   UNL A   1      38.166  32.978  34.022  1.00  0.00     0.031 A 
ATOM     44  C   UNL A   1      38.644  31.837  33.167  1.00  0.00     0.074 A 
ATOM     45  C   UNL A   1      38.886  33.377  35.086  1.00  0.00     0.049 A 
ATOM     46  N   UNL A   1      39.655  31.028  33.343  1.00  0.00    -0.248 NA
ATOM     47  C   UNL A   1      37.864  31.574  31.947  1.00  0.00     0.031 C 
ATOM     48  C   UNL A   1      38.566  34.514  35.946  1.00  0.00     0.029 A 
ATOM     49  N   UNL A   1      40.038  32.861  35.627  1.00  0.00    -0.354 N 
ATOM     50  C   UNL A   1      39.629  30.152  32.263  1.00  0.00     0.074 A 
ATOM     51  C   UNL A   1      38.481  30.510  31.458  1.00  0.00     0.031 C 
ATOM     52  C   UNL A   1      39.494  34.603  36.915  1.00  0.00     0.029 A 
ATOM     53  C   UNL A   1      40.446  33.503  36.773  1.00  0.00     0.049 A 
ATOM     54  H   UNL A   1      40.526  32.104  35.231  1.00  0.00     0.167 HD
ATOM     55  C   UNL A   1      40.486  29.144  31.969  1.00  0.00     0.034 A 
ATOM     56  C   UNL A   1      41.452  33.211  37.625  1.00  0.00     0.034 A 
ATOM     57  C   UNL A   1      41.619  28.794  32.790  1.00  0.00     0.049 A 
ATOM     58  C   UNL A   1      42.334  32.017  37.335  1.00  0.00     0.074 A 
ATOM     59  C   UNL A   1      42.549  27.790  32.591  1.00  0.00     0.029 A 
ATOM     60  N   UNL A   1      41.971  29.432  33.974  1.00  0.00    -0.354 N 
ATOM     61  N   UNL A   1      42.290  31.182  36.321  1.00  0.00    -0.248 NA
ATOM     62  C   UNL A   1      43.403  31.731  38.300  1.00  0.00     0.031 C 
ATOM     63  C   UNL A   1      43.415  27.771  33.691  1.00  0.00     0.029 A 
ATOM     64  C   UNL A   1      43.082  28.820  34.533  1.00  0.00     0.049 A 
ATOM     65  H   UNL A   1      41.499  30.205  34.359  1.00  0.00     0.167 HD
ATOM     66  C   UNL A   1      43.346  30.292  36.514  1.00  0.00     0.074 A 
ATOM     67  C   UNL A   1      44.016  30.704  37.730  1.00  0.00     0.031 C 
ATOM     68  C   UNL A   1      43.734  29.236  35.752  1.00  0.00     0.034 A 
BRANCH  55  69
ATOM     69  C   UNL A   1      40.183  28.316  30.744  1.00  0.00     0.023 A 
ATOM     70  C   UNL A   1      40.819  28.549  29.512  1.00  0.00     0.031 A 
ATOM     71  C   UNL A   1      39.206  27.306  30.800  1.00  0.00     0.131 A 
ATOM     72  C   UNL A   1      40.418  27.836  28.372  1.00  0.00     0.055 A 
ATOM     73  C   UNL A   1      38.873  26.542  29.681  1.00  0.00     0.041 A 
ATOM     74  F   UNL A   1      38.545  27.057  31.941  1.00  0.00    -0.206 F 
ATOM     75  C   UNL A   1      39.468  26.815  28.454  1.00  0.00     0.022 A 
BRANCH  72  76
ATOM     76  S   UNL A   1      41.043  28.366  26.753  1.00  0.00     0.124 S 
ATOM     77  O   UNL A   1      41.142  27.091  26.045  1.00  0.00    -0.237 OA
ATOM     78  O   UNL A   1      39.997  29.272  26.294  1.00  0.00    -0.237 OA
ATOM     79  O   UNL A   1      42.322  28.995  27.070  1.00  0.00    -0.744 OA
ENDBRANCH  72  76
ENDBRANCH  55  69
BRANCH  56  80
ATOM     80  C   UNL A   1      41.655  34.015  38.867  1.00  0.00     0.023 A 
ATOM     81  C   UNL A   1      40.992  33.690  40.063  1.00  0.00     0.031 A 
ATOM     82  C   UNL A   1      42.461  35.168  38.856  1.00  0.00     0.131 A 
ATOM     83  C   UNL A   1      41.111  34.533  41.180  1.00  0.00     0.055 A 
ATOM     84  C   UNL A   1      42.621  35.970  39.987  1.00  0.00     0.041 A 
ATOM     85  F   UNL A   1      43.112  35.530  37.738  1.00  0.00    -0.206 F 
ATOM     86  C   UNL A   1      41.933  35.662  41.155  1.00  0.00     0.022 A 
BRANCH  83  87
ATOM     87  S   UNL A   1      40.097  34.184  42.645  1.00  0.00     0.124 S 
ATOM     88  O   UNL A   1      38.932  33.540  42.051  1.00  0.00    -0.237 OA
ATOM     89  O   UNL A   1      40.981  33.323  43.424  1.00  0.00    -0.237 OA
ATOM     90  O   UNL A   1      39.858  35.507  43.216  1.00  0.00    -0.744 OA
ENDBRANCH  83  87
ENDBRANCH  56  80
BRANCH  68  91
ATOM     91  C   UNL A   1      44.972  28.487  36.189  1.00  0.00     0.023 A 
ATOM     92  C   UNL A   1      44.903  27.344  37.004  1.00  0.00     0.031 A 
ATOM     93  C   UNL A   1      46.244  28.933  35.784  1.00  0.00     0.131 A 
ATOM     94  C   UNL A   1      46.084  26.722  37.436  1.00  0.00     0.055 A 
ATOM     95  C   UNL A   1      47.411  28.271  36.164  1.00  0.00     0.041 A 
ATOM     96  F   UNL A   1      46.372  30.021  35.007  1.00  0.00    -0.206 F 
ATOM     97  C   UNL A   1      47.337  27.166  37.006  1.00  0.00     0.022 A 
BRANCH  94  98
ATOM     98  S   UNL A   1      45.967  25.378  38.650  1.00  0.00     0.124 S 
ATOM     99  O   UNL A   1      46.919  24.407  38.120  1.00  0.00    -0.237 OA
ATOM    100  O   UNL A   1      46.358  26.042  39.890  1.00  0.00    -0.237 OA
ATOM    101  O   UNL A   1      44.565  24.973  38.581  1.00  0.00    -0.744 OA
ENDBRANCH  94  98
ENDBRANCH  68  91
ENDBRANCH  42  43
ENDBRANCH  35  37
ENDBRANCH  34  35
ENDBRANCH  33  34
ENDBRANCH  32  33
ENDBRANCH  31  32
ENDBRANCH  30  31
ENDBRANCH  29  30
ENDBRANCH   1  29
TORSDOF 26
ENDMDL
