MODEL 1
REMARK VINA RESULT:     -10.7      0.000      0.000
REMARK SMILES Cc1c(Cl)cc2c(c1C)O[C@H](C(F)(F)F)C(C(=O)OCCOCCOCCOC(=O)c1ccc(-c3c4nc(c(-c5cc(S(=O)(=O)[O-])ccc5F)c5ccc([nH]5)c(-c5cc(S(=O)(=O)[O-])ccc5F)c5nc(c(-c6cc(S(=O)(=O)[O-])ccc6F)c6ccc3[nH]6)C=C5)C=C4)cc1)=C2
REMARK SMILES IDX 24 1 23 2 22 3 21 4 20 5 19 6 17 7 18 8 16 9 1 10 2 11 3 12
REMARK SMILES IDX 8 13 4 14 5 15 7 16 9 17 6 18 10 19 94 20 11 21 12 22 13 23
REMARK SMILES IDX 14 24 15 25 25 26 26 27 27 28 28 29 29 30 30 31 31 32 32 33
REMARK SMILES IDX 93 34 33 35 92 36 34 37 35 38 36 39 86 40 37 41 91 42 85 43
REMARK SMILES IDX 87 44 38 45 90 46 84 47 83 48 39 50 71 51 51 52 70 53 52 54
REMARK SMILES IDX 55 55 69 56 88 57 53 58 54 59 68 61 89 62 56 63 40 64 41 65
REMARK SMILES IDX 49 66 42 67 48 68 50 69 47 70 43 71 44 72 45 73 46 74 72 75
REMARK SMILES IDX 73 76 81 77 74 78 80 79 82 80 79 81 75 82 76 83 77 84 78 85
REMARK SMILES IDX 57 86 58 87 66 88 59 89 65 90 67 91 64 92 60 93 61 94 62 95
REMARK SMILES IDX 63 96
REMARK H PARENT 87 49 55 60
REMARK Flexibility Score: inf
ROOT
ATOM      1  C   UNL A   1      32.361  29.761  25.440  1.00  0.00     0.188 C 
ENDROOT
BRANCH   1   2
ATOM      2  C   UNL A   1      31.034  29.700  24.654  1.00  0.00     0.188 C 
BRANCH   2   3
ATOM      3  O   UNL A   1      30.967  29.077  23.385  1.00  0.00    -0.376 OA
BRANCH   3   4
ATOM      4  C   UNL A   1      30.164  27.926  23.187  1.00  0.00     0.202 C 
BRANCH   4   5
ATOM      5  C   UNL A   1      30.802  26.588  22.815  1.00  0.00     0.261 C 
BRANCH   5   6
ATOM      6  O   UNL A   1      30.223  25.475  23.508  1.00  0.00    -0.460 OA
BRANCH   6   7
ATOM      7  C   UNL A   1      30.781  25.202  24.710  1.00  0.00     0.338 C 
ATOM      8  O   UNL A   1      30.436  25.645  25.795  1.00  0.00    -0.246 OA
BRANCH   7   9
ATOM      9  C   UNL A   1      31.836  24.188  24.549  1.00  0.00     0.087 C 
ATOM     10  C   UNL A   1      35.585  18.882  24.993  1.00  0.00     0.046 C 
ATOM     11  C   UNL A   1      34.509  19.923  24.807  1.00  0.00    -0.026 A 
ATOM     12  C   UNL A   1      33.147  19.579  24.913  1.00  0.00     0.045 A 
ATOM     13  C   UNL A   1      34.851  21.286  24.606  1.00  0.00    -0.004 A 
ATOM     14  Cl  UNL A   1      32.622  17.956  25.201  1.00  0.00    -0.084 Cl
ATOM     15  C   UNL A   1      32.149  20.553  24.826  1.00  0.00     0.032 A 
ATOM     16  C   UNL A   1      33.827  22.252  24.492  1.00  0.00     0.131 A 
ATOM     17  C   UNL A   1      36.286  21.748  24.504  1.00  0.00     0.049 C 
ATOM     18  C   UNL A   1      32.487  21.891  24.637  1.00  0.00     0.019 A 
ATOM     19  O   UNL A   1      34.223  23.542  24.247  1.00  0.00    -0.475 OA
ATOM     20  C   UNL A   1      31.456  22.912  24.679  1.00  0.00     0.027 C 
ATOM     21  C   UNL A   1      33.249  24.617  24.278  1.00  0.00     0.316 C 
BRANCH  21  22
ATOM     22  C   UNL A   1      33.748  25.679  25.269  1.00  0.00     0.430 C 
ATOM     23  F   UNL A   1      33.508  26.932  24.807  1.00  0.00    -0.167 F 
ATOM     24  F   UNL A   1      33.123  25.590  26.466  1.00  0.00    -0.167 F 
ATOM     25  F   UNL A   1      35.076  25.582  25.498  1.00  0.00    -0.167 F 
ENDBRANCH  21  22
ENDBRANCH   7   9
ENDBRANCH   6   7
ENDBRANCH   5   6
ENDBRANCH   4   5
ENDBRANCH   3   4
ENDBRANCH   2   3
ENDBRANCH   1   2
BRANCH   1  26
ATOM     26  O   UNL A   1      32.513  30.603  26.566  1.00  0.00    -0.376 OA
BRANCH  26  27
ATOM     27  C   UNL A   1      31.524  31.575  26.866  1.00  0.00     0.202 C 
BRANCH  27  28
ATOM     28  C   UNL A   1      31.775  33.076  26.687  1.00  0.00     0.261 C 
BRANCH  28  29
ATOM     29  O   UNL A   1      33.144  33.478  26.799  1.00  0.00    -0.460 OA
BRANCH  29  30
ATOM     30  C   UNL A   1      33.533  33.821  28.054  1.00  0.00     0.338 C 
ATOM     31  O   UNL A   1      32.941  34.543  28.837  1.00  0.00    -0.246 OA
BRANCH  30  32
ATOM     32  C   UNL A   1      34.718  33.029  28.423  1.00  0.00     0.060 A 
ATOM     33  C   UNL A   1      34.522  31.739  28.935  1.00  0.00     0.016 A 
ATOM     34  C   UNL A   1      36.002  33.564  28.311  1.00  0.00     0.016 A 
ATOM     35  C   UNL A   1      35.614  30.984  29.354  1.00  0.00     0.010 A 
ATOM     36  C   UNL A   1      37.094  32.817  28.759  1.00  0.00     0.010 A 
ATOM     37  C   UNL A   1      36.902  31.535  29.306  1.00  0.00    -0.014 A 
BRANCH  37  38
ATOM     38  C   UNL A   1      38.015  30.848  30.002  1.00  0.00     0.031 A 
ATOM     39  C   UNL A   1      38.311  31.234  31.425  1.00  0.00     0.074 A 
ATOM     40  C   UNL A   1      38.722  29.876  29.398  1.00  0.00     0.049 A 
ATOM     41  N   UNL A   1      39.258  30.809  32.218  1.00  0.00    -0.248 NA
ATOM     42  C   UNL A   1      37.416  32.232  32.035  1.00  0.00     0.031 C 
ATOM     43  C   UNL A   1      38.484  29.372  28.046  1.00  0.00     0.029 A 
ATOM     44  N   UNL A   1      39.786  29.137  29.850  1.00  0.00    -0.354 N 
ATOM     45  C   UNL A   1      39.069  31.475  33.422  1.00  0.00     0.074 A 
ATOM     46  C   UNL A   1      37.935  32.358  33.247  1.00  0.00     0.031 C 
ATOM     47  C   UNL A   1      39.382  28.406  27.778  1.00  0.00     0.029 A 
ATOM     48  C   UNL A   1      40.279  28.249  28.922  1.00  0.00     0.049 A 
ATOM     49  H   UNL A   1      40.163  29.234  30.755  1.00  0.00     0.167 HD
ATOM     50  C   UNL A   1      39.772  31.358  34.573  1.00  0.00     0.034 A 
ATOM     51  C   UNL A   1      41.346  27.425  28.984  1.00  0.00     0.034 A 
ATOM     52  C   UNL A   1      40.909  30.491  34.736  1.00  0.00     0.049 A 
ATOM     53  C   UNL A   1      42.185  27.399  30.241  1.00  0.00     0.074 A 
ATOM     54  C   UNL A   1      41.696  30.310  35.859  1.00  0.00     0.029 A 
ATOM     55  N   UNL A   1      41.426  29.667  33.748  1.00  0.00    -0.354 N 
ATOM     56  N   UNL A   1      42.015  28.062  31.360  1.00  0.00    -0.248 NA
ATOM     57  C   UNL A   1      43.363  26.519  30.238  1.00  0.00     0.031 C 
ATOM     58  C   UNL A   1      42.725  29.422  35.533  1.00  0.00     0.029 A 
ATOM     59  C   UNL A   1      42.539  28.998  34.226  1.00  0.00     0.049 A 
ATOM     60  H   UNL A   1      41.055  29.572  32.841  1.00  0.00     0.167 HD
ATOM     61  C   UNL A   1      43.050  27.660  32.201  1.00  0.00     0.074 A 
ATOM     62  C   UNL A   1      43.838  26.696  31.463  1.00  0.00     0.031 C 
ATOM     63  C   UNL A   1      43.321  28.049  33.472  1.00  0.00     0.034 A 
BRANCH  50  64
ATOM     64  C   UNL A   1      39.355  32.217  35.734  1.00  0.00     0.023 A 
ATOM     65  C   UNL A   1      39.840  33.527  35.886  1.00  0.00     0.031 A 
ATOM     66  C   UNL A   1      38.441  31.729  36.683  1.00  0.00     0.131 A 
ATOM     67  C   UNL A   1      39.429  34.296  36.985  1.00  0.00     0.055 A 
ATOM     68  C   UNL A   1      37.993  32.519  37.741  1.00  0.00     0.041 A 
ATOM     69  F   UNL A   1      37.967  30.477  36.591  1.00  0.00    -0.206 F 
ATOM     70  C   UNL A   1      38.490  33.810  37.899  1.00  0.00     0.022 A 
BRANCH  67  71
ATOM     71  S   UNL A   1      40.180  35.927  37.238  1.00  0.00     0.124 S 
ATOM     72  O   UNL A   1      41.603  35.603  37.200  1.00  0.00    -0.237 OA
ATOM     73  O   UNL A   1      39.670  36.692  36.106  1.00  0.00    -0.237 OA
ATOM     74  O   UNL A   1      39.673  36.337  38.545  1.00  0.00    -0.744 OA
ENDBRANCH  67  71
ENDBRANCH  50  64
BRANCH  51  75
ATOM     75  C   UNL A   1      41.722  26.589  27.810  1.00  0.00     0.023 A 
ATOM     76  C   UNL A   1      41.444  25.213  27.780  1.00  0.00     0.031 A 
ATOM     77  C   UNL A   1      42.410  27.149  26.719  1.00  0.00     0.131 A 
ATOM     78  C   UNL A   1      41.881  24.437  26.695  1.00  0.00     0.055 A 
ATOM     79  C   UNL A   1      42.805  26.380  25.623  1.00  0.00     0.041 A 
ATOM     80  F   UNL A   1      42.703  28.459  26.702  1.00  0.00    -0.206 F 
ATOM     81  C   UNL A   1      42.548  25.013  25.612  1.00  0.00     0.022 A 
BRANCH  78  82
ATOM     82  S   UNL A   1      41.611  22.643  26.741  1.00  0.00     0.124 S 
ATOM     83  O   UNL A   1      41.986  22.253  25.386  1.00  0.00    -0.237 OA
ATOM     84  O   UNL A   1      42.517  22.225  27.805  1.00  0.00    -0.237 OA
ATOM     85  O   UNL A   1      40.188  22.522  27.055  1.00  0.00    -0.744 OA
ENDBRANCH  78  82
ENDBRANCH  51  75
BRANCH  63  86
ATOM     86  C   UNL A   1      44.500  27.415  34.162  1.00  0.00     0.023 A 
ATOM     87  C   UNL A   1      44.371  26.221  34.889  1.00  0.00     0.031 A 
ATOM     88  C   UNL A   1      45.780  27.985  34.038  1.00  0.00     0.131 A 
ATOM     89  C   UNL A   1      45.502  25.644  35.487  1.00  0.00     0.055 A 
ATOM     90  C   UNL A   1      46.908  27.383  34.597  1.00  0.00     0.041 A 
ATOM     91  F   UNL A   1      45.956  29.123  33.347  1.00  0.00    -0.206 F 
ATOM     92  C   UNL A   1      46.771  26.209  35.331  1.00  0.00     0.022 A 
BRANCH  89  93
ATOM     93  S   UNL A   1      45.291  24.154  36.498  1.00  0.00     0.124 S 
ATOM     94  O   UNL A   1      46.666  23.691  36.647  1.00  0.00    -0.237 OA
ATOM     95  O   UNL A   1      44.661  24.678  37.706  1.00  0.00    -0.237 OA
ATOM     96  O   UNL A   1      44.434  23.300  35.677  1.00  0.00    -0.744 OA
ENDBRANCH  89  93
ENDBRANCH  63  86
ENDBRANCH  37  38
ENDBRANCH  30  32
ENDBRANCH  29  30
ENDBRANCH  28  29
ENDBRANCH  27  28
ENDBRANCH  26  27
ENDBRANCH   1  26
TORSDOF 21
ENDMDL
MODEL 2
REMARK VINA RESULT:     -10.5      2.171      2.663
REMARK SMILES Cc1c(Cl)cc2c(c1C)O[C@H](C(F)(F)F)C(C(=O)OCCOCCOCCOC(=O)c1ccc(-c3c4nc(c(-c5cc(S(=O)(=O)[O-])ccc5F)c5ccc([nH]5)c(-c5cc(S(=O)(=O)[O-])ccc5F)c5nc(c(-c6cc(S(=O)(=O)[O-])ccc6F)c6ccc3[nH]6)C=C5)C=C4)cc1)=C2
REMARK SMILES IDX 24 1 23 2 22 3 21 4 20 5 19 6 17 7 18 8 16 9 1 10 2 11 3 12
REMARK SMILES IDX 8 13 4 14 5 15 7 16 9 17 6 18 10 19 94 20 11 21 12 22 13 23
REMARK SMILES IDX 14 24 15 25 25 26 26 27 27 28 28 29 29 30 30 31 31 32 32 33
REMARK SMILES IDX 93 34 33 35 92 36 34 37 35 38 36 39 86 40 37 41 91 42 85 43
REMARK SMILES IDX 87 44 38 45 90 46 84 47 83 48 39 50 71 51 51 52 70 53 52 54
REMARK SMILES IDX 55 55 69 56 88 57 53 58 54 59 68 61 89 62 56 63 40 64 41 65
REMARK SMILES IDX 49 66 42 67 48 68 50 69 47 70 43 71 44 72 45 73 46 74 72 75
REMARK SMILES IDX 73 76 81 77 74 78 80 79 82 80 79 81 75 82 76 83 77 84 78 85
REMARK SMILES IDX 57 86 58 87 66 88 59 89 65 90 67 91 64 92 60 93 61 94 62 95
REMARK SMILES IDX 63 96
REMARK H PARENT 87 49 55 60
REMARK Flexibility Score: inf
ROOT
ATOM      1  C   UNL A   1      32.820  29.133  27.014  1.00  0.00     0.188 C 
ENDROOT
BRANCH   1   2
ATOM      2  C   UNL A   1      31.468  28.559  27.488  1.00  0.00     0.188 C 
BRANCH   2   3
ATOM      3  O   UNL A   1      31.050  27.263  27.099  1.00  0.00    -0.376 OA
BRANCH   3   4
ATOM      4  C   UNL A   1      31.849  26.478  26.230  1.00  0.00     0.202 C 
BRANCH   4   5
ATOM      5  C   UNL A   1      31.584  26.472  24.725  1.00  0.00     0.261 C 
BRANCH   5   6
ATOM      6  O   UNL A   1      32.093  25.304  24.067  1.00  0.00    -0.460 OA
BRANCH   6   7
ATOM      7  C   UNL A   1      31.773  24.133  24.663  1.00  0.00     0.338 C 
ATOM      8  O   UNL A   1      30.650  23.700  24.872  1.00  0.00    -0.246 OA
BRANCH   7   9
ATOM      9  C   UNL A   1      33.000  23.371  24.952  1.00  0.00     0.087 C 
ATOM     10  C   UNL A   1      39.172  21.422  25.676  1.00  0.00     0.046 C 
ATOM     11  C   UNL A   1      37.815  22.083  25.698  1.00  0.00    -0.026 A 
ATOM     12  C   UNL A   1      37.685  23.448  26.022  1.00  0.00     0.045 A 
ATOM     13  C   UNL A   1      36.655  21.364  25.307  1.00  0.00    -0.004 A 
ATOM     14  Cl  UNL A   1      39.038  24.427  26.470  1.00  0.00    -0.084 Cl
ATOM     15  C   UNL A   1      36.444  24.088  25.962  1.00  0.00     0.032 A 
ATOM     16  C   UNL A   1      35.405  22.020  25.279  1.00  0.00     0.131 A 
ATOM     17  C   UNL A   1      36.707  19.905  24.919  1.00  0.00     0.049 C 
ATOM     18  C   UNL A   1      35.307  23.382  25.571  1.00  0.00     0.019 A 
ATOM     19  O   UNL A   1      34.317  21.257  24.943  1.00  0.00    -0.475 OA
ATOM     20  C   UNL A   1      34.049  24.081  25.383  1.00  0.00     0.027 C 
ATOM     21  C   UNL A   1      33.027  21.887  24.733  1.00  0.00     0.316 C 
BRANCH  21  22
ATOM     22  C   UNL A   1      32.524  21.481  23.340  1.00  0.00     0.430 C 
ATOM     23  F   UNL A   1      31.200  21.744  23.201  1.00  0.00    -0.167 F 
ATOM     24  F   UNL A   1      33.152  22.164  22.355  1.00  0.00    -0.167 F 
ATOM     25  F   UNL A   1      32.701  20.164  23.095  1.00  0.00    -0.167 F 
ENDBRANCH  21  22
ENDBRANCH   7   9
ENDBRANCH   6   7
ENDBRANCH   5   6
ENDBRANCH   4   5
ENDBRANCH   3   4
ENDBRANCH   2   3
ENDBRANCH   1   2
BRANCH   1  26
ATOM     26  O   UNL A   1      32.946  30.481  26.606  1.00  0.00    -0.376 OA
BRANCH  26  27
ATOM     27  C   UNL A   1      31.791  31.295  26.472  1.00  0.00     0.202 C 
BRANCH  27  28
ATOM     28  C   UNL A   1      31.751  32.742  26.973  1.00  0.00     0.261 C 
BRANCH  28  29
ATOM     29  O   UNL A   1      33.002  33.435  26.923  1.00  0.00    -0.460 OA
BRANCH  29  30
ATOM     30  C   UNL A   1      33.469  33.851  28.127  1.00  0.00     0.338 C 
ATOM     31  O   UNL A   1      32.919  34.608  28.908  1.00  0.00    -0.246 OA
BRANCH  30  32
ATOM     32  C   UNL A   1      34.688  33.096  28.459  1.00  0.00     0.060 A 
ATOM     33  C   UNL A   1      34.547  31.818  29.016  1.00  0.00     0.016 A 
ATOM     34  C   UNL A   1      35.952  33.654  28.266  1.00  0.00     0.016 A 
ATOM     35  C   UNL A   1      35.675  31.098  29.401  1.00  0.00     0.010 A 
ATOM     36  C   UNL A   1      37.082  32.943  28.679  1.00  0.00     0.010 A 
ATOM     37  C   UNL A   1      36.946  31.675  29.272  1.00  0.00    -0.014 A 
BRANCH  37  38
ATOM     38  C   UNL A   1      38.108  31.032  29.930  1.00  0.00     0.031 A 
ATOM     39  C   UNL A   1      38.388  31.369  31.369  1.00  0.00     0.074 A 
ATOM     40  C   UNL A   1      38.874  30.139  29.278  1.00  0.00     0.049 A 
ATOM     41  N   UNL A   1      39.367  30.972  32.137  1.00  0.00    -0.248 NA
ATOM     42  C   UNL A   1      37.432  32.275  32.029  1.00  0.00     0.031 C 
ATOM     43  C   UNL A   1      38.661  29.685  27.904  1.00  0.00     0.029 A 
ATOM     44  N   UNL A   1      39.989  29.453  29.690  1.00  0.00    -0.354 N 
ATOM     45  C   UNL A   1      39.142  31.567  33.372  1.00  0.00     0.074 A 
ATOM     46  C   UNL A   1      37.950  32.378  33.243  1.00  0.00     0.031 C 
ATOM     47  C   UNL A   1      39.620  28.796  27.587  1.00  0.00     0.029 A 
ATOM     48  C   UNL A   1      40.534  28.646  28.718  1.00  0.00     0.049 A 
ATOM     49  H   UNL A   1      40.364  29.533  30.597  1.00  0.00     0.167 HD
ATOM     50  C   UNL A   1      39.860  31.442  34.513  1.00  0.00     0.034 A 
ATOM     51  C   UNL A   1      41.654  27.894  28.737  1.00  0.00     0.034 A 
ATOM     52  C   UNL A   1      41.054  30.648  34.630  1.00  0.00     0.049 A 
ATOM     53  C   UNL A   1      42.501  27.864  29.987  1.00  0.00     0.074 A 
ATOM     54  C   UNL A   1      41.858  30.467  35.740  1.00  0.00     0.029 A 
ATOM     55  N   UNL A   1      41.617  29.907  33.601  1.00  0.00    -0.354 N 
ATOM     56  N   UNL A   1      42.295  28.461  31.138  1.00  0.00    -0.248 NA
ATOM     57  C   UNL A   1      43.736  27.068  29.937  1.00  0.00     0.031 C 
ATOM     58  C   UNL A   1      42.942  29.667  35.368  1.00  0.00     0.029 A 
ATOM     59  C   UNL A   1      42.776  29.294  34.043  1.00  0.00     0.049 A 
ATOM     60  H   UNL A   1      41.247  29.831  32.692  1.00  0.00     0.167 HD
ATOM     61  C   UNL A   1      43.362  28.090  31.954  1.00  0.00     0.074 A 
ATOM     62  C   UNL A   1      44.207  27.217  31.167  1.00  0.00     0.031 C 
ATOM     63  C   UNL A   1      43.615  28.436  33.241  1.00  0.00     0.034 A 
BRANCH  50  64
ATOM     64  C   UNL A   1      39.395  32.216  35.715  1.00  0.00     0.023 A 
ATOM     65  C   UNL A   1      38.597  31.620  36.706  1.00  0.00     0.031 A 
ATOM     66  C   UNL A   1      39.777  33.557  35.884  1.00  0.00     0.131 A 
ATOM     67  C   UNL A   1      38.181  32.376  37.811  1.00  0.00     0.055 A 
ATOM     68  C   UNL A   1      39.407  34.288  37.013  1.00  0.00     0.041 A 
ATOM     69  F   UNL A   1      40.521  34.176  34.954  1.00  0.00    -0.206 F 
ATOM     70  C   UNL A   1      38.601  33.699  37.984  1.00  0.00     0.022 A 
BRANCH  67  71
ATOM     71  S   UNL A   1      37.034  31.628  38.999  1.00  0.00     0.124 S 
ATOM     72  O   UNL A   1      37.798  31.714  40.240  1.00  0.00    -0.237 OA
ATOM     73  O   UNL A   1      35.867  32.498  38.907  1.00  0.00    -0.237 OA
ATOM     74  O   UNL A   1      36.841  30.275  38.482  1.00  0.00    -0.744 OA
ENDBRANCH  67  71
ENDBRANCH  50  64
BRANCH  51  75
ATOM     75  C   UNL A   1      42.077  27.141  27.522  1.00  0.00     0.023 A 
ATOM     76  C   UNL A   1      42.140  25.739  27.523  1.00  0.00     0.031 A 
ATOM     77  C   UNL A   1      42.471  27.821  26.356  1.00  0.00     0.131 A 
ATOM     78  C   UNL A   1      42.618  25.061  26.390  1.00  0.00     0.055 A 
ATOM     79  C   UNL A   1      42.905  27.140  25.218  1.00  0.00     0.041 A 
ATOM     80  F   UNL A   1      42.433  29.162  26.306  1.00  0.00    -0.206 F 
ATOM     81  C   UNL A   1      42.988  25.752  25.234  1.00  0.00     0.022 A 
BRANCH  78  82
ATOM     82  S   UNL A   1      42.799  23.257  26.464  1.00  0.00     0.124 S 
ATOM     83  O   UNL A   1      44.211  23.116  26.803  1.00  0.00    -0.237 OA
ATOM     84  O   UNL A   1      41.848  22.898  27.510  1.00  0.00    -0.237 OA
ATOM     85  O   UNL A   1      42.432  22.823  25.118  1.00  0.00    -0.744 OA
ENDBRANCH  78  82
ENDBRANCH  51  75
BRANCH  63  86
ATOM     86  C   UNL A   1      44.839  27.851  33.895  1.00  0.00     0.023 A 
ATOM     87  C   UNL A   1      44.788  26.634  34.592  1.00  0.00     0.031 A 
ATOM     88  C   UNL A   1      46.083  28.495  33.767  1.00  0.00     0.131 A 
ATOM     89  C   UNL A   1      45.959  26.105  35.157  1.00  0.00     0.055 A 
ATOM     90  C   UNL A   1      47.252  27.942  34.291  1.00  0.00     0.041 A 
ATOM     91  F   UNL A   1      46.184  29.658  33.103  1.00  0.00    -0.206 F 
ATOM     92  C   UNL A   1      47.193  26.744  34.996  1.00  0.00     0.022 A 
BRANCH  89  93
ATOM     93  S   UNL A   1      45.848  24.580  36.131  1.00  0.00     0.124 S 
ATOM     94  O   UNL A   1      46.198  23.564  35.145  1.00  0.00    -0.237 OA
ATOM     95  O   UNL A   1      46.830  24.807  37.188  1.00  0.00    -0.237 OA
ATOM     96  O   UNL A   1      44.456  24.559  36.578  1.00  0.00    -0.744 OA
ENDBRANCH  89  93
ENDBRANCH  63  86
ENDBRANCH  37  38
ENDBRANCH  30  32
ENDBRANCH  29  30
ENDBRANCH  28  29
ENDBRANCH  27  28
ENDBRANCH  26  27
ENDBRANCH   1  26
TORSDOF 21
ENDMDL
MODEL 3
REMARK VINA RESULT:     -10.5      2.422      3.370
REMARK SMILES Cc1c(Cl)cc2c(c1C)O[C@H](C(F)(F)F)C(C(=O)OCCOCCOCCOC(=O)c1ccc(-c3c4nc(c(-c5cc(S(=O)(=O)[O-])ccc5F)c5ccc([nH]5)c(-c5cc(S(=O)(=O)[O-])ccc5F)c5nc(c(-c6cc(S(=O)(=O)[O-])ccc6F)c6ccc3[nH]6)C=C5)C=C4)cc1)=C2
REMARK SMILES IDX 24 1 23 2 22 3 21 4 20 5 19 6 17 7 18 8 16 9 1 10 2 11 3 12
REMARK SMILES IDX 8 13 4 14 5 15 7 16 9 17 6 18 10 19 94 20 11 21 12 22 13 23
REMARK SMILES IDX 14 24 15 25 25 26 26 27 27 28 28 29 29 30 30 31 31 32 32 33
REMARK SMILES IDX 93 34 33 35 92 36 34 37 35 38 36 39 86 40 37 41 91 42 85 43
REMARK SMILES IDX 87 44 38 45 90 46 84 47 83 48 39 50 71 51 51 52 70 53 52 54
REMARK SMILES IDX 55 55 69 56 88 57 53 58 54 59 68 61 89 62 56 63 40 64 41 65
REMARK SMILES IDX 49 66 42 67 48 68 50 69 47 70 43 71 44 72 45 73 46 74 72 75
REMARK SMILES IDX 73 76 81 77 74 78 80 79 82 80 79 81 75 82 76 83 77 84 78 85
REMARK SMILES IDX 57 86 58 87 66 88 59 89 65 90 67 91 64 92 60 93 61 94 62 95
REMARK SMILES IDX 63 96
REMARK H PARENT 87 49 55 60
REMARK Flexibility Score: inf
ROOT
ATOM      1  C   UNL A   1      35.255  32.907  27.926  1.00  0.00     0.188 C 
ENDROOT
BRANCH   1   2
ATOM      2  C   UNL A   1      34.610  31.561  28.319  1.00  0.00     0.188 C 
BRANCH   2   3
ATOM      3  O   UNL A   1      34.084  30.691  27.333  1.00  0.00    -0.376 OA
BRANCH   3   4
ATOM      4  C   UNL A   1      32.687  30.626  27.099  1.00  0.00     0.202 C 
BRANCH   4   5
ATOM      5  C   UNL A   1      32.145  30.032  25.800  1.00  0.00     0.261 C 
BRANCH   5   6
ATOM      6  O   UNL A   1      32.145  28.598  25.791  1.00  0.00    -0.460 OA
BRANCH   6   7
ATOM      7  C   UNL A   1      32.752  28.038  24.720  1.00  0.00     0.338 C 
ATOM      8  O   UNL A   1      33.210  28.621  23.750  1.00  0.00    -0.246 OA
BRANCH   7   9
ATOM      9  C   UNL A   1      32.880  26.585  24.926  1.00  0.00     0.087 C 
ATOM     10  C   UNL A   1      34.822  20.369  24.869  1.00  0.00     0.046 C 
ATOM     11  C   UNL A   1      34.632  21.860  25.005  1.00  0.00    -0.026 A 
ATOM     12  C   UNL A   1      35.742  22.726  25.050  1.00  0.00     0.045 A 
ATOM     13  C   UNL A   1      33.329  22.425  25.003  1.00  0.00    -0.004 A 
ATOM     14  Cl  UNL A   1      37.371  22.146  25.013  1.00  0.00    -0.084 Cl
ATOM     15  C   UNL A   1      35.573  24.112  25.090  1.00  0.00     0.032 A 
ATOM     16  C   UNL A   1      33.178  23.827  25.073  1.00  0.00     0.131 A 
ATOM     17  C   UNL A   1      32.084  21.573  24.932  1.00  0.00     0.049 C 
ATOM     18  C   UNL A   1      34.294  24.666  25.080  1.00  0.00     0.019 A 
ATOM     19  O   UNL A   1      31.894  24.306  25.120  1.00  0.00    -0.475 OA
ATOM     20  C   UNL A   1      34.128  26.105  24.989  1.00  0.00     0.027 C 
ATOM     21  C   UNL A   1      31.649  25.733  25.028  1.00  0.00     0.316 C 
BRANCH  21  22
ATOM     22  C   UNL A   1      30.664  25.971  23.874  1.00  0.00     0.430 C 
ATOM     23  F   UNL A   1      31.315  26.324  22.738  1.00  0.00    -0.167 F 
ATOM     24  F   UNL A   1      29.955  24.857  23.575  1.00  0.00    -0.167 F 
ATOM     25  F   UNL A   1      29.777  26.951  24.151  1.00  0.00    -0.167 F 
ENDBRANCH  21  22
ENDBRANCH   7   9
ENDBRANCH   6   7
ENDBRANCH   5   6
ENDBRANCH   4   5
ENDBRANCH   3   4
ENDBRANCH   2   3
ENDBRANCH   1   2
BRANCH   1  26
ATOM     26  O   UNL A   1      34.472  34.064  27.709  1.00  0.00    -0.376 OA
BRANCH  26  27
ATOM     27  C   UNL A   1      33.219  34.209  28.360  1.00  0.00     0.202 C 
BRANCH  27  28
ATOM     28  C   UNL A   1      32.743  35.552  28.922  1.00  0.00     0.261 C 
BRANCH  28  29
ATOM     29  O   UNL A   1      33.492  36.040  30.040  1.00  0.00    -0.460 OA
BRANCH  29  30
ATOM     30  C   UNL A   1      33.386  35.289  31.166  1.00  0.00     0.338 C 
ATOM     31  O   UNL A   1      32.427  35.217  31.914  1.00  0.00    -0.246 OA
BRANCH  30  32
ATOM     32  C   UNL A   1      34.556  34.402  31.265  1.00  0.00     0.060 A 
ATOM     33  C   UNL A   1      34.375  33.121  31.805  1.00  0.00     0.016 A 
ATOM     34  C   UNL A   1      35.823  34.839  30.874  1.00  0.00     0.016 A 
ATOM     35  C   UNL A   1      35.470  32.276  31.973  1.00  0.00     0.010 A 
ATOM     36  C   UNL A   1      36.924  34.001  31.070  1.00  0.00     0.010 A 
ATOM     37  C   UNL A   1      36.755  32.728  31.644  1.00  0.00    -0.014 A 
BRANCH  37  38
ATOM     38  C   UNL A   1      37.936  31.944  32.078  1.00  0.00     0.031 A 
ATOM     39  C   UNL A   1      38.557  32.271  33.408  1.00  0.00     0.074 A 
ATOM     40  C   UNL A   1      38.422  30.941  31.326  1.00  0.00     0.049 A 
ATOM     41  N   UNL A   1      39.616  31.758  33.975  1.00  0.00    -0.248 NA
ATOM     42  C   UNL A   1      37.891  33.314  34.206  1.00  0.00     0.031 C 
ATOM     43  C   UNL A   1      37.864  30.491  30.052  1.00  0.00     0.029 A 
ATOM     44  N   UNL A   1      39.499  30.116  31.532  1.00  0.00    -0.354 N 
ATOM     45  C   UNL A   1      39.739  32.404  35.199  1.00  0.00     0.074 A 
ATOM     46  C   UNL A   1      38.664  33.370  35.280  1.00  0.00     0.031 C 
ATOM     47  C   UNL A   1      38.608  29.471  29.587  1.00  0.00     0.029 A 
ATOM     48  C   UNL A   1      39.714  29.220  30.510  1.00  0.00     0.049 A 
ATOM     49  H   UNL A   1      40.066  30.162  32.336  1.00  0.00     0.167 HD
ATOM     50  C   UNL A   1      40.661  32.206  36.171  1.00  0.00     0.034 A 
ATOM     51  C   UNL A   1      40.704  28.320  30.333  1.00  0.00     0.034 A 
ATOM     52  C   UNL A   1      41.737  31.256  36.076  1.00  0.00     0.049 A 
ATOM     53  C   UNL A   1      41.787  28.200  31.380  1.00  0.00     0.074 A 
ATOM     54  C   UNL A   1      42.729  30.989  37.003  1.00  0.00     0.029 A 
ATOM     55  N   UNL A   1      41.967  30.423  34.992  1.00  0.00    -0.354 N 
ATOM     56  N   UNL A   1      41.910  28.844  32.517  1.00  0.00    -0.248 NA
ATOM     57  C   UNL A   1      42.867  27.239  31.115  1.00  0.00     0.031 C 
ATOM     58  C   UNL A   1      43.595  30.039  36.454  1.00  0.00     0.029 A 
ATOM     59  C   UNL A   1      43.103  29.664  35.214  1.00  0.00     0.049 A 
ATOM     60  H   UNL A   1      41.405  30.379  34.185  1.00  0.00     0.167 HD
ATOM     61  C   UNL A   1      43.068  28.347  33.111  1.00  0.00     0.074 A 
ATOM     62  C   UNL A   1      43.605  27.348  32.211  1.00  0.00     0.031 C 
ATOM     63  C   UNL A   1      43.632  28.682  34.299  1.00  0.00     0.034 A 
BRANCH  50  64
ATOM     64  C   UNL A   1      40.567  33.062  37.403  1.00  0.00     0.023 A 
ATOM     65  C   UNL A   1      39.841  32.646  38.531  1.00  0.00     0.031 A 
ATOM     66  C   UNL A   1      41.236  34.297  37.458  1.00  0.00     0.131 A 
ATOM     67  C   UNL A   1      39.776  33.475  39.660  1.00  0.00     0.055 A 
ATOM     68  C   UNL A   1      41.214  35.091  38.605  1.00  0.00     0.041 A 
ATOM     69  F   UNL A   1      41.925  34.747  36.398  1.00  0.00    -0.206 F 
ATOM     70  C   UNL A   1      40.477  34.683  39.714  1.00  0.00     0.022 A 
BRANCH  67  71
ATOM     71  S   UNL A   1      38.713  32.982  41.044  1.00  0.00     0.124 S 
ATOM     72  O   UNL A   1      38.904  31.534  41.059  1.00  0.00    -0.237 OA
ATOM     73  O   UNL A   1      39.291  33.712  42.166  1.00  0.00    -0.237 OA
ATOM     74  O   UNL A   1      37.385  33.427  40.631  1.00  0.00    -0.744 OA
ENDBRANCH  67  71
ENDBRANCH  50  64
BRANCH  51  75
ATOM     75  C   UNL A   1      40.757  27.490  29.097  1.00  0.00     0.023 A 
ATOM     76  C   UNL A   1      41.657  27.787  28.062  1.00  0.00     0.031 A 
ATOM     77  C   UNL A   1      39.871  26.413  28.916  1.00  0.00     0.131 A 
ATOM     78  C   UNL A   1      41.629  27.035  26.876  1.00  0.00     0.055 A 
ATOM     79  C   UNL A   1      39.876  25.642  27.753  1.00  0.00     0.041 A 
ATOM     80  F   UNL A   1      38.988  26.091  29.875  1.00  0.00    -0.206 F 
ATOM     81  C   UNL A   1      40.754  25.957  26.720  1.00  0.00     0.022 A 
BRANCH  78  82
ATOM     82  S   UNL A   1      42.723  27.518  25.511  1.00  0.00     0.124 S 
ATOM     83  O   UNL A   1      42.076  28.735  25.032  1.00  0.00    -0.237 OA
ATOM     84  O   UNL A   1      44.000  27.694  26.192  1.00  0.00    -0.237 OA
ATOM     85  O   UNL A   1      42.656  26.375  24.602  1.00  0.00    -0.744 OA
ENDBRANCH  78  82
ENDBRANCH  51  75
BRANCH  63  86
ATOM     86  C   UNL A   1      44.880  27.946  34.713  1.00  0.00     0.023 A 
ATOM     87  C   UNL A   1      44.818  26.729  35.409  1.00  0.00     0.031 A 
ATOM     88  C   UNL A   1      46.144  28.445  34.352  1.00  0.00     0.131 A 
ATOM     89  C   UNL A   1      46.004  26.058  35.745  1.00  0.00     0.055 A 
ATOM     90  C   UNL A   1      47.318  27.751  34.650  1.00  0.00     0.041 A 
ATOM     91  F   UNL A   1      46.255  29.602  33.680  1.00  0.00    -0.206 F 
ATOM     92  C   UNL A   1      47.252  26.554  35.355  1.00  0.00     0.022 A 
BRANCH  89  93
ATOM     93  S   UNL A   1      45.899  24.536  36.726  1.00  0.00     0.124 S 
ATOM     94  O   UNL A   1      47.232  24.462  37.314  1.00  0.00    -0.237 OA
ATOM     95  O   UNL A   1      44.809  24.831  37.652  1.00  0.00    -0.237 OA
ATOM     96  O   UNL A   1      45.601  23.507  35.731  1.00  0.00    -0.744 OA
ENDBRANCH  89  93
ENDBRANCH  63  86
ENDBRANCH  37  38
ENDBRANCH  30  32
ENDBRANCH  29  30
ENDBRANCH  28  29
ENDBRANCH  27  28
ENDBRANCH  26  27
ENDBRANCH   1  26
TORSDOF 21
ENDMDL
