MODEL 1
REMARK VINA RESULT:      -9.7      0.000      0.000
REMARK SMILES O=C(C[N@@H+](CC(F)(F)F)[C@H]1CCCC[C@H]1O)OCCOCCOCCOC(=O)c1ccc(-c2c3nc(c(-c4cc(S(=O)(=O)[O-])ccc4F)c4ccc([nH]4)c(-c4cc(S(=O)(=O)[O-])ccc4F)c4nc(c(-c5cc(S(=O)(=O)[O-])ccc5F)c5ccc2[nH]5)C=C4)C=C3)cc1
REMARK SMILES IDX 21 1 20 2 19 3 18 4 17 5 2 6 1 7 3 8 4 9 5 11 6 12 7 13 8 14
REMARK SMILES IDX 9 15 10 16 11 17 15 18 12 19 14 20 13 21 16 22 22 24 23 25
REMARK SMILES IDX 24 26 25 27 26 28 27 29 28 30 29 31 30 32 91 33 31 34 90 35
REMARK SMILES IDX 32 36 33 37 34 38 84 39 35 40 89 41 83 42 85 43 36 44 88 45
REMARK SMILES IDX 82 46 81 47 37 49 69 50 49 51 68 52 50 53 53 54 67 55 86 56
REMARK SMILES IDX 51 57 52 58 66 60 87 61 54 62 38 63 39 64 47 65 40 66 46 67
REMARK SMILES IDX 48 68 45 69 41 70 42 71 43 72 44 73 70 74 71 75 79 76 72 77
REMARK SMILES IDX 78 78 80 79 77 80 73 81 74 82 75 83 76 84 55 85 56 86 64 87
REMARK SMILES IDX 57 88 63 89 65 90 62 91 58 92 59 93 60 94 61 95
REMARK H PARENT 4 10 16 23 85 48 53 59
REMARK Flexibility Score: inf
ROOT
ATOM      1  C   UNL A   1      32.549  28.023  25.655  1.00  0.00     0.188 C 
ENDROOT
BRANCH   1   2
ATOM      2  O   UNL A   1      31.868  26.788  25.820  1.00  0.00    -0.376 OA
BRANCH   2   3
ATOM      3  C   UNL A   1      30.597  26.719  25.202  1.00  0.00     0.202 C 
BRANCH   3   4
ATOM      4  C   UNL A   1      29.835  25.550  25.806  1.00  0.00     0.261 C 
BRANCH   4   5
ATOM      5  O   UNL A   1      30.561  24.815  26.820  1.00  0.00    -0.459 OA
BRANCH   5   6
ATOM      6  C   UNL A   1      30.601  23.473  26.977  1.00  0.00     0.361 C 
ATOM      7  O   UNL A   1      29.641  22.892  27.484  1.00  0.00    -0.245 OA
BRANCH   6   8
ATOM      8  C   UNL A   1      31.860  22.707  26.605  1.00  0.00     0.387 C 
BRANCH   8   9
ATOM      9  N   UNL A   1      32.737  23.384  25.609  1.00  0.00    -0.314 N 
ATOM     10  H   UNL A   1      32.349  24.277  25.304  1.00  0.00     0.349 HD
BRANCH   9  11
ATOM     11  C   UNL A   1      34.049  23.702  26.258  1.00  0.00     0.380 C 
BRANCH  11  12
ATOM     12  C   UNL A   1      35.172  24.425  25.480  1.00  0.00     0.438 C 
ATOM     13  F   UNL A   1      34.951  25.754  25.407  1.00  0.00    -0.165 F 
ATOM     14  F   UNL A   1      36.364  24.231  26.084  1.00  0.00    -0.165 F 
ATOM     15  F   UNL A   1      35.269  23.946  24.219  1.00  0.00    -0.165 F 
ENDBRANCH  11  12
ENDBRANCH   9  11
BRANCH   9  16
ATOM     16  C   UNL A   1      32.826  22.556  24.365  1.00  0.00     0.213 C 
ATOM     17  C   UNL A   1      32.142  21.187  24.617  1.00  0.00     0.068 C 
ATOM     18  C   UNL A   1      32.223  23.142  23.049  1.00  0.00     0.172 C 
ATOM     19  C   UNL A   1      32.384  20.218  23.466  1.00  0.00     0.006 C 
ATOM     20  C   UNL A   1      32.470  22.181  21.880  1.00  0.00     0.038 C 
ATOM     21  C   UNL A   1      31.903  20.787  22.140  1.00  0.00     0.003 C 
BRANCH  18  22
ATOM     22  O   UNL A   1      30.818  23.371  23.189  1.00  0.00    -0.387 OA
ATOM     23  H   UNL A   1      30.538  23.126  24.086  1.00  0.00     0.211 HD
ENDBRANCH  18  22
ENDBRANCH   9  16
ENDBRANCH   8   9
ENDBRANCH   6   8
ENDBRANCH   5   6
ENDBRANCH   4   5
ENDBRANCH   3   4
ENDBRANCH   2   3
ENDBRANCH   1   2
BRANCH   1  24
ATOM     24  C   UNL A   1      31.597  29.115  25.165  1.00  0.00     0.188 C 
BRANCH  24  25
ATOM     25  O   UNL A   1      31.867  30.476  25.482  1.00  0.00    -0.376 OA
BRANCH  25  26
ATOM     26  C   UNL A   1      31.911  30.886  26.839  1.00  0.00     0.202 C 
BRANCH  26  27
ATOM     27  C   UNL A   1      33.281  31.271  27.405  1.00  0.00     0.261 C 
BRANCH  27  28
ATOM     28  O   UNL A   1      33.722  32.600  27.067  1.00  0.00    -0.460 OA
BRANCH  28  29
ATOM     29  C   UNL A   1      33.437  33.545  27.999  1.00  0.00     0.338 C 
ATOM     30  O   UNL A   1      32.449  34.259  28.027  1.00  0.00    -0.246 OA
BRANCH  29  31
ATOM     31  C   UNL A   1      34.430  33.545  29.099  1.00  0.00     0.060 A 
ATOM     32  C   UNL A   1      35.755  33.870  28.776  1.00  0.00     0.016 A 
ATOM     33  C   UNL A   1      34.119  33.074  30.377  1.00  0.00     0.016 A 
ATOM     34  C   UNL A   1      36.782  33.635  29.692  1.00  0.00     0.010 A 
ATOM     35  C   UNL A   1      35.154  32.828  31.293  1.00  0.00     0.010 A 
ATOM     36  C   UNL A   1      36.498  33.047  30.932  1.00  0.00    -0.014 A 
BRANCH  36  37
ATOM     37  C   UNL A   1      37.611  32.422  31.704  1.00  0.00     0.031 A 
ATOM     38  C   UNL A   1      38.373  31.286  31.061  1.00  0.00     0.074 A 
ATOM     39  C   UNL A   1      37.992  32.879  32.911  1.00  0.00     0.049 A 
ATOM     40  N   UNL A   1      39.390  30.598  31.516  1.00  0.00    -0.248 NA
ATOM     41  C   UNL A   1      37.918  30.871  29.725  1.00  0.00     0.031 C 
ATOM     42  C   UNL A   1      37.383  33.997  33.626  1.00  0.00     0.029 A 
ATOM     43  N   UNL A   1      38.999  32.453  33.746  1.00  0.00    -0.354 N 
ATOM     44  C   UNL A   1      39.695  29.670  30.523  1.00  0.00     0.074 A 
ATOM     45  C   UNL A   1      38.727  29.857  29.464  1.00  0.00     0.031 C 
ATOM     46  C   UNL A   1      38.026  34.167  34.796  1.00  0.00     0.029 A 
ATOM     47  C   UNL A   1      39.078  33.157  34.924  1.00  0.00     0.049 A 
ATOM     48  H   UNL A   1      39.606  31.711  33.521  1.00  0.00     0.167 HD
ATOM     49  C   UNL A   1      40.695  28.753  30.487  1.00  0.00     0.034 A 
ATOM     50  C   UNL A   1      39.895  32.999  35.987  1.00  0.00     0.034 A 
ATOM     51  C   UNL A   1      41.655  28.561  31.546  1.00  0.00     0.049 A 
ATOM     52  C   UNL A   1      40.952  31.916  35.960  1.00  0.00     0.074 A 
ATOM     53  C   UNL A   1      42.715  27.671  31.598  1.00  0.00     0.029 A 
ATOM     54  N   UNL A   1      41.669  29.261  32.745  1.00  0.00    -0.354 N 
ATOM     55  N   UNL A   1      41.239  31.058  35.009  1.00  0.00    -0.248 NA
ATOM     56  C   UNL A   1      41.804  31.794  37.153  1.00  0.00     0.031 C 
ATOM     57  C   UNL A   1      43.322  27.782  32.854  1.00  0.00     0.029 A 
ATOM     58  C   UNL A   1      42.695  28.798  33.556  1.00  0.00     0.049 A 
ATOM     59  H   UNL A   1      41.042  29.981  32.984  1.00  0.00     0.167 HD
ATOM     60  C   UNL A   1      42.331  30.325  35.474  1.00  0.00     0.074 A 
ATOM     61  C   UNL A   1      42.653  30.847  36.784  1.00  0.00     0.031 C 
ATOM     62  C   UNL A   1      43.011  29.319  34.866  1.00  0.00     0.034 A 
BRANCH  49  63
ATOM     63  C   UNL A   1      40.755  27.848  29.278  1.00  0.00     0.023 A 
ATOM     64  C   UNL A   1      41.663  28.071  28.228  1.00  0.00     0.031 A 
ATOM     65  C   UNL A   1      39.860  26.770  29.157  1.00  0.00     0.131 A 
ATOM     66  C   UNL A   1      41.602  27.278  27.072  1.00  0.00     0.055 A 
ATOM     67  C   UNL A   1      39.859  25.935  28.040  1.00  0.00     0.041 A 
ATOM     68  F   UNL A   1      38.955  26.522  30.118  1.00  0.00    -0.206 F 
ATOM     69  C   UNL A   1      40.722  26.197  26.980  1.00  0.00     0.022 A 
BRANCH  66  70
ATOM     70  S   UNL A   1      42.581  27.774  25.626  1.00  0.00     0.124 S 
ATOM     71  O   UNL A   1      42.382  26.636  24.733  1.00  0.00    -0.237 OA
ATOM     72  O   UNL A   1      41.942  29.022  25.227  1.00  0.00    -0.237 OA
ATOM     73  O   UNL A   1      43.935  27.908  26.160  1.00  0.00    -0.744 OA
ENDBRANCH  66  70
ENDBRANCH  49  63
BRANCH  50  74
ATOM     74  C   UNL A   1      39.744  33.860  37.197  1.00  0.00     0.023 A 
ATOM     75  C   UNL A   1      39.062  33.402  38.337  1.00  0.00     0.031 A 
ATOM     76  C   UNL A   1      40.210  35.187  37.197  1.00  0.00     0.131 A 
ATOM     77  C   UNL A   1      38.820  34.279  39.406  1.00  0.00     0.055 A 
ATOM     78  C   UNL A   1      40.010  36.039  38.284  1.00  0.00     0.041 A 
ATOM     79  F   UNL A   1      40.863  35.677  36.131  1.00  0.00    -0.206 F 
ATOM     80  C   UNL A   1      39.300  35.590  39.393  1.00  0.00     0.022 A 
BRANCH  77  81
ATOM     81  S   UNL A   1      37.788  33.707  40.786  1.00  0.00     0.124 S 
ATOM     82  O   UNL A   1      36.663  33.100  40.085  1.00  0.00    -0.237 OA
ATOM     83  O   UNL A   1      38.687  32.788  41.475  1.00  0.00    -0.237 OA
ATOM     84  O   UNL A   1      37.482  34.937  41.515  1.00  0.00    -0.744 OA
ENDBRANCH  77  81
ENDBRANCH  50  74
BRANCH  62  85
ATOM     85  C   UNL A   1      44.216  28.759  35.589  1.00  0.00     0.023 A 
ATOM     86  C   UNL A   1      44.112  27.690  36.497  1.00  0.00     0.031 A 
ATOM     87  C   UNL A   1      45.488  29.321  35.377  1.00  0.00     0.131 A 
ATOM     88  C   UNL A   1      45.246  27.257  37.204  1.00  0.00     0.055 A 
ATOM     89  C   UNL A   1      46.623  28.846  36.036  1.00  0.00     0.041 A 
ATOM     90  F   UNL A   1      45.650  30.343  34.523  1.00  0.00    -0.206 F 
ATOM     91  C   UNL A   1      46.504  27.818  36.967  1.00  0.00     0.022 A 
BRANCH  88  92
ATOM     92  S   UNL A   1      45.040  26.020  38.515  1.00  0.00     0.124 S 
ATOM     93  O   UNL A   1      44.379  26.792  39.563  1.00  0.00    -0.237 OA
ATOM     94  O   UNL A   1      44.221  25.005  37.860  1.00  0.00    -0.237 OA
ATOM     95  O   UNL A   1      46.410  25.610  38.818  1.00  0.00    -0.744 OA
ENDBRANCH  88  92
ENDBRANCH  62  85
ENDBRANCH  36  37
ENDBRANCH  29  31
ENDBRANCH  28  29
ENDBRANCH  27  28
ENDBRANCH  26  27
ENDBRANCH  25  26
ENDBRANCH  24  25
ENDBRANCH   1  24
TORSDOF 25
ENDMDL
MODEL 2
REMARK VINA RESULT:      -9.7      2.732      7.991
REMARK SMILES O=C(C[N@@H+](CC(F)(F)F)[C@H]1CCCC[C@H]1O)OCCOCCOCCOC(=O)c1ccc(-c2c3nc(c(-c4cc(S(=O)(=O)[O-])ccc4F)c4ccc([nH]4)c(-c4cc(S(=O)(=O)[O-])ccc4F)c4nc(c(-c5cc(S(=O)(=O)[O-])ccc5F)c5ccc2[nH]5)C=C4)C=C3)cc1
REMARK SMILES IDX 21 1 20 2 19 3 18 4 17 5 2 6 1 7 3 8 4 9 5 11 6 12 7 13 8 14
REMARK SMILES IDX 9 15 10 16 11 17 15 18 12 19 14 20 13 21 16 22 22 24 23 25
REMARK SMILES IDX 24 26 25 27 26 28 27 29 28 30 29 31 30 32 91 33 31 34 90 35
REMARK SMILES IDX 32 36 33 37 34 38 84 39 35 40 89 41 83 42 85 43 36 44 88 45
REMARK SMILES IDX 82 46 81 47 37 49 69 50 49 51 68 52 50 53 53 54 67 55 86 56
REMARK SMILES IDX 51 57 52 58 66 60 87 61 54 62 38 63 39 64 47 65 40 66 46 67
REMARK SMILES IDX 48 68 45 69 41 70 42 71 43 72 44 73 70 74 71 75 79 76 72 77
REMARK SMILES IDX 78 78 80 79 77 80 73 81 74 82 75 83 76 84 55 85 56 86 64 87
REMARK SMILES IDX 57 88 63 89 65 90 62 91 58 92 59 93 60 94 61 95
REMARK H PARENT 4 10 16 23 85 48 53 59
REMARK Flexibility Score: inf
ROOT
ATOM      1  C   UNL A   1      33.310  27.518  25.162  1.00  0.00     0.188 C 
ENDROOT
BRANCH   1   2
ATOM      2  O   UNL A   1      32.228  26.734  25.642  1.00  0.00    -0.376 OA
BRANCH   2   3
ATOM      3  C   UNL A   1      31.460  26.095  24.640  1.00  0.00     0.202 C 
BRANCH   3   4
ATOM      4  C   UNL A   1      32.392  25.235  23.801  1.00  0.00     0.261 C 
BRANCH   4   5
ATOM      5  O   UNL A   1      32.313  23.816  24.074  1.00  0.00    -0.459 OA
BRANCH   5   6
ATOM      6  C   UNL A   1      33.291  22.900  23.897  1.00  0.00     0.361 C 
ATOM      7  O   UNL A   1      34.061  23.010  22.943  1.00  0.00    -0.245 OA
BRANCH   6   8
ATOM      8  C   UNL A   1      33.379  21.701  24.827  1.00  0.00     0.387 C 
BRANCH   8   9
ATOM      9  N   UNL A   1      34.485  20.750  24.525  1.00  0.00    -0.314 N 
ATOM     10  H   UNL A   1      34.903  20.928  23.610  1.00  0.00     0.349 HD
BRANCH   9  11
ATOM     11  C   UNL A   1      35.581  20.949  25.526  1.00  0.00     0.380 C 
BRANCH  11  12
ATOM     12  C   UNL A   1      36.763  21.903  25.240  1.00  0.00     0.438 C 
ATOM     13  F   UNL A   1      37.759  21.743  26.135  1.00  0.00    -0.165 F 
ATOM     14  F   UNL A   1      37.266  21.675  24.008  1.00  0.00    -0.165 F 
ATOM     15  F   UNL A   1      36.362  23.194  25.286  1.00  0.00    -0.165 F 
ENDBRANCH  11  12
ENDBRANCH   9  11
BRANCH   9  16
ATOM     16  C   UNL A   1      33.947  19.355  24.437  1.00  0.00     0.213 C 
ATOM     17  C   UNL A   1      35.092  18.350  24.730  1.00  0.00     0.068 C 
ATOM     18  C   UNL A   1      32.745  18.973  25.358  1.00  0.00     0.172 C 
ATOM     19  C   UNL A   1      34.665  16.915  24.447  1.00  0.00     0.006 C 
ATOM     20  C   UNL A   1      32.298  17.534  25.075  1.00  0.00     0.038 C 
ATOM     21  C   UNL A   1      33.432  16.526  25.249  1.00  0.00     0.003 C 
BRANCH  18  22
ATOM     22  O   UNL A   1      33.100  19.100  26.738  1.00  0.00    -0.387 OA
ATOM     23  H   UNL A   1      32.344  18.848  27.292  1.00  0.00     0.211 HD
ENDBRANCH  18  22
ENDBRANCH   9  16
ENDBRANCH   8   9
ENDBRANCH   6   8
ENDBRANCH   5   6
ENDBRANCH   4   5
ENDBRANCH   3   4
ENDBRANCH   2   3
ENDBRANCH   1   2
BRANCH   1  24
ATOM     24  C   UNL A   1      32.947  29.004  25.144  1.00  0.00     0.188 C 
BRANCH  24  25
ATOM     25  O   UNL A   1      31.678  29.423  25.634  1.00  0.00    -0.376 OA
BRANCH  25  26
ATOM     26  C   UNL A   1      31.315  30.792  25.566  1.00  0.00     0.202 C 
BRANCH  26  27
ATOM     27  C   UNL A   1      31.685  31.669  26.766  1.00  0.00     0.261 C 
BRANCH  27  28
ATOM     28  O   UNL A   1      32.915  31.306  27.423  1.00  0.00    -0.460 OA
BRANCH  28  29
ATOM     29  C   UNL A   1      33.716  32.354  27.744  1.00  0.00     0.338 C 
ATOM     30  O   UNL A   1      33.352  33.489  28.003  1.00  0.00    -0.246 OA
BRANCH  29  31
ATOM     31  C   UNL A   1      35.133  31.941  27.873  1.00  0.00     0.060 A 
ATOM     32  C   UNL A   1      35.424  30.577  27.741  1.00  0.00     0.016 A 
ATOM     33  C   UNL A   1      36.129  32.831  28.283  1.00  0.00     0.016 A 
ATOM     34  C   UNL A   1      36.678  30.084  28.109  1.00  0.00     0.010 A 
ATOM     35  C   UNL A   1      37.386  32.333  28.664  1.00  0.00     0.010 A 
ATOM     36  C   UNL A   1      37.645  30.949  28.639  1.00  0.00    -0.014 A 
BRANCH  36  37
ATOM     37  C   UNL A   1      38.785  30.369  29.406  1.00  0.00     0.031 A 
ATOM     38  C   UNL A   1      38.957  30.785  30.850  1.00  0.00     0.074 A 
ATOM     39  C   UNL A   1      39.612  29.449  28.878  1.00  0.00     0.049 A 
ATOM     40  N   UNL A   1      39.850  30.406  31.728  1.00  0.00    -0.248 NA
ATOM     41  C   UNL A   1      37.989  31.766  31.363  1.00  0.00     0.031 C 
ATOM     42  C   UNL A   1      39.534  28.918  27.519  1.00  0.00     0.029 A 
ATOM     43  N   UNL A   1      40.685  28.792  29.434  1.00  0.00    -0.354 N 
ATOM     44  C   UNL A   1      39.552  31.102  32.897  1.00  0.00     0.074 A 
ATOM     45  C   UNL A   1      38.423  31.957  32.598  1.00  0.00     0.031 C 
ATOM     46  C   UNL A   1      40.519  28.018  27.346  1.00  0.00     0.029 A 
ATOM     47  C   UNL A   1      41.314  27.924  28.572  1.00  0.00     0.049 A 
ATOM     48  H   UNL A   1      40.976  28.931  30.364  1.00  0.00     0.167 HD
ATOM     49  C   UNL A   1      40.152  31.031  34.113  1.00  0.00     0.034 A 
ATOM     50  C   UNL A   1      42.408  27.154  28.747  1.00  0.00     0.034 A 
ATOM     51  C   UNL A   1      41.282  30.184  34.409  1.00  0.00     0.049 A 
ATOM     52  C   UNL A   1      43.111  27.150  30.087  1.00  0.00     0.074 A 
ATOM     53  C   UNL A   1      41.950  30.029  35.611  1.00  0.00     0.029 A 
ATOM     54  N   UNL A   1      41.920  29.360  33.493  1.00  0.00    -0.354 N 
ATOM     55  N   UNL A   1      42.808  27.800  31.186  1.00  0.00    -0.248 NA
ATOM     56  C   UNL A   1      44.300  26.294  30.207  1.00  0.00     0.031 C 
ATOM     57  C   UNL A   1      43.034  29.168  35.405  1.00  0.00     0.029 A 
ATOM     58  C   UNL A   1      42.995  28.721  34.094  1.00  0.00     0.049 A 
ATOM     59  H   UNL A   1      41.650  29.245  32.554  1.00  0.00     0.167 HD
ATOM     60  C   UNL A   1      43.745  27.397  32.138  1.00  0.00     0.074 A 
ATOM     61  C   UNL A   1      44.615  26.444  31.485  1.00  0.00     0.031 C 
ATOM     62  C   UNL A   1      43.865  27.773  33.437  1.00  0.00     0.034 A 
BRANCH  49  63
ATOM     63  C   UNL A   1      39.624  31.944  35.195  1.00  0.00     0.023 A 
ATOM     64  C   UNL A   1      40.175  33.216  35.427  1.00  0.00     0.031 A 
ATOM     65  C   UNL A   1      38.580  31.515  36.034  1.00  0.00     0.131 A 
ATOM     66  C   UNL A   1      39.732  33.980  36.519  1.00  0.00     0.055 A 
ATOM     67  C   UNL A   1      38.090  32.313  37.068  1.00  0.00     0.041 A 
ATOM     68  F   UNL A   1      38.030  30.300  35.875  1.00  0.00    -0.206 F 
ATOM     69  C   UNL A   1      38.678  33.548  37.326  1.00  0.00     0.022 A 
BRANCH  66  70
ATOM     70  S   UNL A   1      40.658  35.477  36.962  1.00  0.00     0.124 S 
ATOM     71  O   UNL A   1      41.389  35.031  38.145  1.00  0.00    -0.237 OA
ATOM     72  O   UNL A   1      41.458  35.717  35.768  1.00  0.00    -0.237 OA
ATOM     73  O   UNL A   1      39.611  36.463  37.221  1.00  0.00    -0.744 OA
ENDBRANCH  66  70
ENDBRANCH  49  63
BRANCH  50  74
ATOM     74  C   UNL A   1      42.946  26.332  27.623  1.00  0.00     0.023 A 
ATOM     75  C   UNL A   1      42.407  25.069  27.320  1.00  0.00     0.031 A 
ATOM     76  C   UNL A   1      44.064  26.765  26.888  1.00  0.00     0.131 A 
ATOM     77  C   UNL A   1      43.019  24.264  26.347  1.00  0.00     0.055 A 
ATOM     78  C   UNL A   1      44.637  25.980  25.885  1.00  0.00     0.041 A 
ATOM     79  F   UNL A   1      44.621  27.960  27.139  1.00  0.00    -0.206 F 
ATOM     80  C   UNL A   1      44.122  24.715  25.619  1.00  0.00     0.022 A 
BRANCH  77  81
ATOM     81  S   UNL A   1      42.405  22.573  26.103  1.00  0.00     0.124 S 
ATOM     82  O   UNL A   1      42.783  22.316  24.719  1.00  0.00    -0.237 OA
ATOM     83  O   UNL A   1      43.146  21.833  27.120  1.00  0.00    -0.237 OA
ATOM     84  O   UNL A   1      40.969  22.693  26.348  1.00  0.00    -0.744 OA
ENDBRANCH  77  81
ENDBRANCH  50  74
BRANCH  62  85
ATOM     85  C   UNL A   1      44.944  27.101  34.258  1.00  0.00     0.023 A 
ATOM     86  C   UNL A   1      44.766  25.827  34.825  1.00  0.00     0.031 A 
ATOM     87  C   UNL A   1      46.166  27.760  34.489  1.00  0.00     0.131 A 
ATOM     88  C   UNL A   1      45.766  25.278  35.644  1.00  0.00     0.055 A 
ATOM     89  C   UNL A   1      47.181  27.184  35.254  1.00  0.00     0.041 A 
ATOM     90  F   UNL A   1      46.393  28.978  33.974  1.00  0.00    -0.206 F 
ATOM     91  C   UNL A   1      46.979  25.942  35.850  1.00  0.00     0.022 A 
BRANCH  88  92
ATOM     92  S   UNL A   1      45.423  23.730  36.527  1.00  0.00     0.124 S 
ATOM     93  O   UNL A   1      45.198  24.199  37.891  1.00  0.00    -0.237 OA
ATOM     94  O   UNL A   1      44.247  23.227  35.825  1.00  0.00    -0.237 OA
ATOM     95  O   UNL A   1      46.642  22.947  36.334  1.00  0.00    -0.744 OA
ENDBRANCH  88  92
ENDBRANCH  62  85
ENDBRANCH  36  37
ENDBRANCH  29  31
ENDBRANCH  28  29
ENDBRANCH  27  28
ENDBRANCH  26  27
ENDBRANCH  25  26
ENDBRANCH  24  25
ENDBRANCH   1  24
TORSDOF 25
ENDMDL
MODEL 3
REMARK VINA RESULT:      -9.4      2.486      8.091
REMARK SMILES O=C(C[N@@H+](CC(F)(F)F)[C@H]1CCCC[C@H]1O)OCCOCCOCCOC(=O)c1ccc(-c2c3nc(c(-c4cc(S(=O)(=O)[O-])ccc4F)c4ccc([nH]4)c(-c4cc(S(=O)(=O)[O-])ccc4F)c4nc(c(-c5cc(S(=O)(=O)[O-])ccc5F)c5ccc2[nH]5)C=C4)C=C3)cc1
REMARK SMILES IDX 21 1 20 2 19 3 18 4 17 5 2 6 1 7 3 8 4 9 5 11 6 12 7 13 8 14
REMARK SMILES IDX 9 15 10 16 11 17 15 18 12 19 14 20 13 21 16 22 22 24 23 25
REMARK SMILES IDX 24 26 25 27 26 28 27 29 28 30 29 31 30 32 91 33 31 34 90 35
REMARK SMILES IDX 32 36 33 37 34 38 84 39 35 40 89 41 83 42 85 43 36 44 88 45
REMARK SMILES IDX 82 46 81 47 37 49 69 50 49 51 68 52 50 53 53 54 67 55 86 56
REMARK SMILES IDX 51 57 52 58 66 60 87 61 54 62 38 63 39 64 47 65 40 66 46 67
REMARK SMILES IDX 48 68 45 69 41 70 42 71 43 72 44 73 70 74 71 75 79 76 72 77
REMARK SMILES IDX 78 78 80 79 77 80 73 81 74 82 75 83 76 84 55 85 56 86 64 87
REMARK SMILES IDX 57 88 63 89 65 90 62 91 58 92 59 93 60 94 61 95
REMARK H PARENT 4 10 16 23 85 48 53 59
REMARK Flexibility Score: inf
ROOT
ATOM      1  C   UNL A   1      32.956  27.652  24.913  1.00  0.00     0.188 C 
ENDROOT
BRANCH   1   2
ATOM      2  O   UNL A   1      33.602  26.837  23.946  1.00  0.00    -0.376 OA
BRANCH   2   3
ATOM      3  C   UNL A   1      33.175  27.036  22.613  1.00  0.00     0.202 C 
BRANCH   3   4
ATOM      4  C   UNL A   1      32.257  25.886  22.228  1.00  0.00     0.261 C 
BRANCH   4   5
ATOM      5  O   UNL A   1      32.371  24.715  23.071  1.00  0.00    -0.459 OA
BRANCH   5   6
ATOM      6  C   UNL A   1      31.423  24.211  23.893  1.00  0.00     0.361 C 
ATOM      7  O   UNL A   1      30.709  24.978  24.539  1.00  0.00    -0.245 OA
BRANCH   6   8
ATOM      8  C   UNL A   1      31.304  22.706  24.074  1.00  0.00     0.387 C 
BRANCH   8   9
ATOM      9  N   UNL A   1      32.512  22.044  24.642  1.00  0.00    -0.314 N 
ATOM     10  H   UNL A   1      33.348  22.232  24.086  1.00  0.00     0.349 HD
BRANCH   9  11
ATOM     11  C   UNL A   1      32.782  22.615  26.000  1.00  0.00     0.380 C 
BRANCH  11  12
ATOM     12  C   UNL A   1      33.909  23.648  26.225  1.00  0.00     0.438 C 
ATOM     13  F   UNL A   1      34.713  23.294  27.248  1.00  0.00    -0.165 F 
ATOM     14  F   UNL A   1      34.670  23.764  25.116  1.00  0.00    -0.165 F 
ATOM     15  F   UNL A   1      33.396  24.869  26.499  1.00  0.00    -0.165 F 
ENDBRANCH  11  12
ENDBRANCH   9  11
BRANCH   9  16
ATOM     16  C   UNL A   1      32.345  20.557  24.596  1.00  0.00     0.213 C 
ATOM     17  C   UNL A   1      32.521  20.071  23.134  1.00  0.00     0.068 C 
ATOM     18  C   UNL A   1      33.280  19.685  25.493  1.00  0.00     0.172 C 
ATOM     19  C   UNL A   1      32.152  18.601  22.982  1.00  0.00     0.006 C 
ATOM     20  C   UNL A   1      32.911  18.203  25.358  1.00  0.00     0.038 C 
ATOM     21  C   UNL A   1      32.969  17.716  23.911  1.00  0.00     0.003 C 
BRANCH  18  22
ATOM     22  O   UNL A   1      34.651  19.870  25.129  1.00  0.00    -0.387 OA
ATOM     23  H   UNL A   1      34.827  19.419  24.288  1.00  0.00     0.211 HD
ENDBRANCH  18  22
ENDBRANCH   9  16
ENDBRANCH   8   9
ENDBRANCH   6   8
ENDBRANCH   5   6
ENDBRANCH   4   5
ENDBRANCH   3   4
ENDBRANCH   2   3
ENDBRANCH   1   2
BRANCH   1  24
ATOM     24  C   UNL A   1      32.367  28.908  24.267  1.00  0.00     0.188 C 
BRANCH  24  25
ATOM     25  O   UNL A   1      32.020  30.021  25.084  1.00  0.00    -0.376 OA
BRANCH  25  26
ATOM     26  C   UNL A   1      32.684  30.218  26.322  1.00  0.00     0.202 C 
BRANCH  26  27
ATOM     27  C   UNL A   1      32.330  31.485  27.105  1.00  0.00     0.261 C 
BRANCH  27  28
ATOM     28  O   UNL A   1      33.327  32.524  27.056  1.00  0.00    -0.460 OA
BRANCH  28  29
ATOM     29  C   UNL A   1      33.967  32.751  28.232  1.00  0.00     0.338 C 
ATOM     30  O   UNL A   1      33.488  33.267  29.228  1.00  0.00    -0.246 OA
BRANCH  29  31
ATOM     31  C   UNL A   1      35.332  32.176  28.232  1.00  0.00     0.060 A 
ATOM     32  C   UNL A   1      35.447  30.780  28.172  1.00  0.00     0.016 A 
ATOM     33  C   UNL A   1      36.466  32.960  28.459  1.00  0.00     0.016 A 
ATOM     34  C   UNL A   1      36.672  30.161  28.433  1.00  0.00     0.010 A 
ATOM     35  C   UNL A   1      37.694  32.336  28.733  1.00  0.00     0.010 A 
ATOM     36  C   UNL A   1      37.788  30.932  28.784  1.00  0.00    -0.014 A 
BRANCH  36  37
ATOM     37  C   UNL A   1      38.938  30.265  29.461  1.00  0.00     0.031 A 
ATOM     38  C   UNL A   1      39.276  30.686  30.873  1.00  0.00     0.074 A 
ATOM     39  C   UNL A   1      39.631  29.268  28.882  1.00  0.00     0.049 A 
ATOM     40  N   UNL A   1      40.208  30.244  31.677  1.00  0.00    -0.248 NA
ATOM     41  C   UNL A   1      38.446  31.757  31.448  1.00  0.00     0.031 C 
ATOM     42  C   UNL A   1      39.384  28.726  27.548  1.00  0.00     0.029 A 
ATOM     43  N   UNL A   1      40.689  28.527  29.356  1.00  0.00    -0.354 N 
ATOM     44  C   UNL A   1      40.079  30.981  32.852  1.00  0.00     0.074 A 
ATOM     45  C   UNL A   1      39.006  31.928  32.634  1.00  0.00     0.031 C 
ATOM     46  C   UNL A   1      40.268  27.739  27.310  1.00  0.00     0.029 A 
ATOM     47  C   UNL A   1      41.159  27.595  28.461  1.00  0.00     0.049 A 
ATOM     48  H   UNL A   1      41.074  28.654  30.253  1.00  0.00     0.167 HD
ATOM     49  C   UNL A   1      40.778  30.875  34.010  1.00  0.00     0.034 A 
ATOM     50  C   UNL A   1      42.194  26.733  28.556  1.00  0.00     0.034 A 
ATOM     51  C   UNL A   1      41.852  29.937  34.224  1.00  0.00     0.049 A 
ATOM     52  C   UNL A   1      43.013  26.688  29.828  1.00  0.00     0.074 A 
ATOM     53  C   UNL A   1      42.611  29.742  35.366  1.00  0.00     0.029 A 
ATOM     54  N   UNL A   1      42.331  29.046  33.275  1.00  0.00    -0.354 N 
ATOM     55  N   UNL A   1      42.868  27.379  30.934  1.00  0.00    -0.248 NA
ATOM     56  C   UNL A   1      44.129  25.731  29.862  1.00  0.00     0.031 C 
ATOM     57  C   UNL A   1      43.593  28.785  35.084  1.00  0.00     0.029 A 
ATOM     58  C   UNL A   1      43.396  28.324  33.793  1.00  0.00     0.049 A 
ATOM     59  H   UNL A   1      41.968  28.940  32.366  1.00  0.00     0.167 HD
ATOM     60  C   UNL A   1      43.848  26.909  31.809  1.00  0.00     0.074 A 
ATOM     61  C   UNL A   1      44.570  25.872  31.103  1.00  0.00     0.031 C 
ATOM     62  C   UNL A   1      44.118  27.292  33.083  1.00  0.00     0.034 A 
BRANCH  49  63
ATOM     63  C   UNL A   1      40.431  31.848  35.114  1.00  0.00     0.023 A 
ATOM     64  C   UNL A   1      39.452  31.557  36.080  1.00  0.00     0.031 A 
ATOM     65  C   UNL A   1      41.061  33.104  35.172  1.00  0.00     0.131 A 
ATOM     66  C   UNL A   1      39.079  32.537  37.013  1.00  0.00     0.055 A 
ATOM     67  C   UNL A   1      40.742  34.044  36.153  1.00  0.00     0.041 A 
ATOM     68  F   UNL A   1      41.987  33.447  34.262  1.00  0.00    -0.206 F 
ATOM     69  C   UNL A   1      39.733  33.769  37.071  1.00  0.00     0.022 A 
BRANCH  66  70
ATOM     70  S   UNL A   1      37.620  32.236  38.051  1.00  0.00     0.124 S 
ATOM     71  O   UNL A   1      37.407  30.805  37.850  1.00  0.00    -0.237 OA
ATOM     72  O   UNL A   1      38.087  32.635  39.373  1.00  0.00    -0.237 OA
ATOM     73  O   UNL A   1      36.598  33.099  37.463  1.00  0.00    -0.744 OA
ENDBRANCH  66  70
ENDBRANCH  49  63
BRANCH  50  74
ATOM     74  C   UNL A   1      42.555  25.849  27.408  1.00  0.00     0.023 A 
ATOM     75  C   UNL A   1      42.089  24.525  27.333  1.00  0.00     0.031 A 
ATOM     76  C   UNL A   1      43.441  26.294  26.411  1.00  0.00     0.131 A 
ATOM     77  C   UNL A   1      42.551  23.679  26.314  1.00  0.00     0.055 A 
ATOM     78  C   UNL A   1      43.858  25.462  25.371  1.00  0.00     0.041 A 
ATOM     79  F   UNL A   1      43.922  27.547  26.439  1.00  0.00    -0.206 F 
ATOM     80  C   UNL A   1      43.423  24.141  25.325  1.00  0.00     0.022 A 
BRANCH  77  81
ATOM     81  S   UNL A   1      42.066  21.930  26.345  1.00  0.00     0.124 S 
ATOM     82  O   UNL A   1      42.976  21.351  25.365  1.00  0.00    -0.237 OA
ATOM     83  O   UNL A   1      42.311  21.574  27.739  1.00  0.00    -0.237 OA
ATOM     84  O   UNL A   1      40.658  21.960  25.952  1.00  0.00    -0.744 OA
ENDBRANCH  77  81
ENDBRANCH  50  74
BRANCH  62  85
ATOM     85  C   UNL A   1      45.204  26.540  33.820  1.00  0.00     0.023 A 
ATOM     86  C   UNL A   1      44.919  25.451  34.662  1.00  0.00     0.031 A 
ATOM     87  C   UNL A   1      46.548  26.936  33.688  1.00  0.00     0.131 A 
ATOM     88  C   UNL A   1      45.953  24.835  35.386  1.00  0.00     0.055 A 
ATOM     89  C   UNL A   1      47.579  26.281  34.363  1.00  0.00     0.041 A 
ATOM     90  F   UNL A   1      46.882  27.969  32.899  1.00  0.00    -0.206 F 
ATOM     91  C   UNL A   1      47.284  25.233  35.230  1.00  0.00     0.022 A 
BRANCH  88  92
ATOM     92  S   UNL A   1      45.526  23.572  36.618  1.00  0.00     0.124 S 
ATOM     93  O   UNL A   1      44.273  24.086  37.160  1.00  0.00    -0.237 OA
ATOM     94  O   UNL A   1      45.421  22.366  35.803  1.00  0.00    -0.237 OA
ATOM     95  O   UNL A   1      46.659  23.598  37.542  1.00  0.00    -0.744 OA
ENDBRANCH  88  92
ENDBRANCH  62  85
ENDBRANCH  36  37
ENDBRANCH  29  31
ENDBRANCH  28  29
ENDBRANCH  27  28
ENDBRANCH  26  27
ENDBRANCH  25  26
ENDBRANCH  24  25
ENDBRANCH   1  24
TORSDOF 25
ENDMDL
