MODEL 1
REMARK VINA RESULT:     -10.0      0.000      0.000
REMARK SMILES Cc1ccc(C(=O)OCCOCCOCCOC(=O)c2ccc(-c3c4nc(c(-c5cc(S(=O)(=O)[O-])ccc5F)c5ccc([nH]5)c(-c5cc(S(=O)(=O)[O-])ccc5F)c5nc(c(-c6cc(S(=O)(=O)[O-])ccc6F)c6ccc3[nH]6)C=C5)C=C4)cc2)cc1N1C(=O)/C(=C\c2nc3ccccc3n2C)SC1=S
REMARK SMILES IDX 13 1 12 2 11 3 10 4 9 5 8 6 6 7 7 8 5 9 1 10 2 11 3 12 84 13
REMARK SMILES IDX 4 14 83 15 85 16 86 17 101 18 87 19 88 20 100 21 102 22
REMARK SMILES IDX 89 23 90 24 91 25 98 26 92 27 97 28 99 29 93 30 96 31 94 32
REMARK SMILES IDX 95 33 14 34 15 35 16 36 17 37 18 38 19 39 20 40 21 41 82 42
REMARK SMILES IDX 22 43 81 44 23 45 24 46 25 47 75 48 26 49 80 50 74 51 76 52
REMARK SMILES IDX 27 53 79 54 73 55 72 56 28 58 60 59 40 60 59 61 41 62 44 63
REMARK SMILES IDX 58 64 77 65 42 66 43 67 57 69 78 70 45 71 29 72 30 73 38 74
REMARK SMILES IDX 31 75 37 76 39 77 36 78 32 79 33 80 34 81 35 82 61 83 62 84
REMARK SMILES IDX 70 85 63 86 69 87 71 88 68 89 64 90 65 91 66 92 67 93 46 94
REMARK SMILES IDX 47 95 55 96 48 97 54 98 56 99 53 100 49 101 50 102 51 103
REMARK SMILES IDX 52 104
REMARK H PARENT 76 57 44 68
REMARK Flexibility Score: inf
ROOT
ATOM      1  C   UNL A   1      42.001  35.072  37.622  1.00  0.00     0.188 C 
ENDROOT
BRANCH   1   2
ATOM      2  C   UNL A   1      40.744  35.063  36.749  1.00  0.00     0.188 C 
BRANCH   2   3
ATOM      3  O   UNL A   1      39.478  34.944  37.402  1.00  0.00    -0.376 OA
BRANCH   3   4
ATOM      4  C   UNL A   1      38.840  33.655  37.449  1.00  0.00     0.202 C 
BRANCH   4   5
ATOM      5  C   UNL A   1      37.504  33.399  36.664  1.00  0.00     0.261 C 
BRANCH   5   6
ATOM      6  O   UNL A   1      37.298  32.112  35.947  1.00  0.00    -0.460 OA
BRANCH   6   7
ATOM      7  C   UNL A   1      38.168  31.070  35.750  1.00  0.00     0.338 C 
ATOM      8  O   UNL A   1      38.246  30.120  36.518  1.00  0.00    -0.246 OA
BRANCH   7   9
ATOM      9  C   UNL A   1      39.100  31.152  34.439  1.00  0.00     0.062 A 
ATOM     10  C   UNL A   1      40.871  31.960  30.463  1.00  0.00     0.046 C 
ATOM     11  C   UNL A   1      40.289  31.616  31.803  1.00  0.00    -0.027 A 
ATOM     12  C   UNL A   1      40.721  32.336  32.879  1.00  0.00     0.006 A 
ATOM     13  C   UNL A   1      39.248  30.694  32.044  1.00  0.00     0.054 A 
ATOM     14  C   UNL A   1      40.081  32.126  34.104  1.00  0.00     0.016 A 
ATOM     15  C   UNL A   1      38.751  30.376  33.355  1.00  0.00     0.042 A 
BRANCH  13  16
ATOM     16  N   UNL A   1      38.263  30.571  31.040  1.00  0.00    -0.261 N 
ATOM     17  C   UNL A   1      37.317  31.612  31.009  1.00  0.00     0.270 C 
ATOM     18  C   UNL A   1      37.981  29.404  30.385  1.00  0.00     0.152 C 
ATOM     19  O   UNL A   1      37.383  32.629  31.647  1.00  0.00    -0.268 OA
ATOM     20  C   UNL A   1      36.144  31.173  30.194  1.00  0.00     0.084 C 
ATOM     21  S   UNL A   1      36.444  29.585  29.548  1.00  0.00    -0.054 SA
ATOM     22  S   UNL A   1      38.895  28.005  30.333  1.00  0.00    -0.051 S 
ATOM     23  C   UNL A   1      34.965  31.794  30.043  1.00  0.00     0.068 C 
BRANCH  23  24
ATOM     24  C   UNL A   1      34.656  33.065  30.602  1.00  0.00     0.134 A 
ATOM     25  N   UNL A   1      34.536  33.417  31.866  1.00  0.00    -0.229 NA
ATOM     26  N   UNL A   1      34.436  34.164  29.790  1.00  0.00    -0.328 N 
ATOM     27  C   UNL A   1      34.002  34.683  31.864  1.00  0.00     0.089 A 
ATOM     28  C   UNL A   1      33.925  35.181  30.569  1.00  0.00     0.068 A 
ATOM     29  C   UNL A   1      34.652  34.243  28.366  1.00  0.00     0.152 C 
ATOM     30  C   UNL A   1      33.536  35.463  32.934  1.00  0.00     0.030 A 
ATOM     31  C   UNL A   1      33.403  36.449  30.279  1.00  0.00     0.028 A 
ATOM     32  C   UNL A   1      32.989  36.724  32.663  1.00  0.00     0.002 A 
ATOM     33  C   UNL A   1      32.929  37.207  31.356  1.00  0.00     0.002 A 
ENDBRANCH  23  24
ENDBRANCH  13  16
ENDBRANCH   7   9
ENDBRANCH   6   7
ENDBRANCH   5   6
ENDBRANCH   4   5
ENDBRANCH   3   4
ENDBRANCH   2   3
ENDBRANCH   1   2
BRANCH   1  34
ATOM     34  O   UNL A   1      43.146  34.843  36.798  1.00  0.00    -0.376 OA
BRANCH  34  35
ATOM     35  C   UNL A   1      43.022  33.766  35.882  1.00  0.00     0.202 C 
BRANCH  35  36
ATOM     36  C   UNL A   1      43.447  32.400  36.450  1.00  0.00     0.261 C 
BRANCH  36  37
ATOM     37  O   UNL A   1      43.299  31.365  35.457  1.00  0.00    -0.460 OA
BRANCH  37  38
ATOM     38  C   UNL A   1      42.513  30.295  35.807  1.00  0.00     0.338 C 
ATOM     39  O   UNL A   1      41.712  30.319  36.721  1.00  0.00    -0.246 OA
BRANCH  38  40
ATOM     40  C   UNL A   1      42.840  29.131  34.914  1.00  0.00     0.060 A 
ATOM     41  C   UNL A   1      44.120  28.736  34.512  1.00  0.00     0.016 A 
ATOM     42  C   UNL A   1      41.797  28.599  34.218  1.00  0.00     0.016 A 
ATOM     43  C   UNL A   1      44.318  27.929  33.328  1.00  0.00     0.010 A 
ATOM     44  C   UNL A   1      42.075  28.180  32.921  1.00  0.00     0.010 A 
ATOM     45  C   UNL A   1      43.294  27.716  32.391  1.00  0.00    -0.014 A 
BRANCH  45  46
ATOM     46  C   UNL A   1      43.474  27.266  30.852  1.00  0.00     0.031 A 
ATOM     47  C   UNL A   1      43.967  25.885  30.066  1.00  0.00     0.074 A 
ATOM     48  C   UNL A   1      43.016  28.199  29.980  1.00  0.00     0.049 A 
ATOM     49  N   UNL A   1      44.121  25.841  28.756  1.00  0.00    -0.248 NA
ATOM     50  C   UNL A   1      44.329  24.516  30.536  1.00  0.00     0.031 C 
ATOM     51  C   UNL A   1      42.666  28.048  28.571  1.00  0.00     0.029 A 
ATOM     52  N   UNL A   1      42.917  29.573  30.156  1.00  0.00    -0.354 N 
ATOM     53  C   UNL A   1      44.159  24.518  28.325  1.00  0.00     0.074 A 
ATOM     54  C   UNL A   1      44.450  23.748  29.461  1.00  0.00     0.031 C 
ATOM     55  C   UNL A   1      42.796  29.238  27.970  1.00  0.00     0.029 A 
ATOM     56  C   UNL A   1      43.327  30.151  28.958  1.00  0.00     0.049 A 
ATOM     57  H   UNL A   1      42.617  30.045  30.967  1.00  0.00     0.167 HD
ATOM     58  C   UNL A   1      43.825  24.123  27.069  1.00  0.00     0.034 A 
ATOM     59  C   UNL A   1      44.439  30.933  28.855  1.00  0.00     0.034 A 
ATOM     60  C   UNL A   1      44.015  25.218  26.153  1.00  0.00     0.049 A 
ATOM     61  C   UNL A   1      45.404  30.425  27.797  1.00  0.00     0.074 A 
ATOM     62  C   UNL A   1      43.194  26.027  25.398  1.00  0.00     0.029 A 
ATOM     63  N   UNL A   1      45.272  25.805  26.146  1.00  0.00    -0.354 N 
ATOM     64  N   UNL A   1      45.220  29.331  27.108  1.00  0.00    -0.248 NA
ATOM     65  C   UNL A   1      46.660  31.078  27.442  1.00  0.00     0.031 C 
ATOM     66  C   UNL A   1      43.942  27.205  25.091  1.00  0.00     0.029 A 
ATOM     67  C   UNL A   1      45.228  27.062  25.590  1.00  0.00     0.049 A 
ATOM     68  H   UNL A   1      46.088  25.377  26.493  1.00  0.00     0.167 HD
ATOM     69  C   UNL A   1      46.312  29.065  26.328  1.00  0.00     0.074 A 
ATOM     70  C   UNL A   1      47.162  30.225  26.529  1.00  0.00     0.031 C 
ATOM     71  C   UNL A   1      46.433  27.886  25.639  1.00  0.00     0.034 A 
BRANCH  58  72
ATOM     72  C   UNL A   1      43.257  22.749  26.720  1.00  0.00     0.023 A 
ATOM     73  C   UNL A   1      44.087  21.763  26.146  1.00  0.00     0.031 A 
ATOM     74  C   UNL A   1      41.878  22.404  26.778  1.00  0.00     0.131 A 
ATOM     75  C   UNL A   1      43.556  20.529  25.693  1.00  0.00     0.055 A 
ATOM     76  C   UNL A   1      41.372  21.151  26.404  1.00  0.00     0.041 A 
ATOM     77  F   UNL A   1      40.928  23.287  27.115  1.00  0.00    -0.206 F 
ATOM     78  C   UNL A   1      42.210  20.205  25.853  1.00  0.00     0.022 A 
BRANCH  75  79
ATOM     79  S   UNL A   1      44.622  19.363  24.796  1.00  0.00     0.124 S 
ATOM     80  O   UNL A   1      45.929  19.626  25.388  1.00  0.00    -0.237 OA
ATOM     81  O   UNL A   1      44.010  18.076  25.110  1.00  0.00    -0.237 OA
ATOM     82  O   UNL A   1      44.486  19.780  23.400  1.00  0.00    -0.744 OA
ENDBRANCH  75  79
ENDBRANCH  58  72
BRANCH  59  83
ATOM     83  C   UNL A   1      44.750  31.710  30.098  1.00  0.00     0.023 A 
ATOM     84  C   UNL A   1      44.284  33.048  30.121  1.00  0.00     0.031 A 
ATOM     85  C   UNL A   1      45.104  31.134  31.328  1.00  0.00     0.131 A 
ATOM     86  C   UNL A   1      44.024  33.702  31.333  1.00  0.00     0.055 A 
ATOM     87  C   UNL A   1      44.933  31.831  32.540  1.00  0.00     0.041 A 
ATOM     88  F   UNL A   1      45.477  29.849  31.401  1.00  0.00    -0.206 F 
ATOM     89  C   UNL A   1      44.354  33.103  32.548  1.00  0.00     0.022 A 
BRANCH  86  90
ATOM     90  S   UNL A   1      42.947  35.175  31.323  1.00  0.00     0.124 S 
ATOM     91  O   UNL A   1      42.239  35.040  32.590  1.00  0.00    -0.237 OA
ATOM     92  O   UNL A   1      43.897  36.280  31.232  1.00  0.00    -0.237 OA
ATOM     93  O   UNL A   1      42.147  34.968  30.120  1.00  0.00    -0.744 OA
ENDBRANCH  86  90
ENDBRANCH  59  83
BRANCH  71  94
ATOM     94  C   UNL A   1      47.707  27.361  24.993  1.00  0.00     0.023 A 
ATOM     95  C   UNL A   1      48.083  27.657  23.675  1.00  0.00     0.031 A 
ATOM     96  C   UNL A   1      48.654  26.610  25.737  1.00  0.00     0.131 A 
ATOM     97  C   UNL A   1      49.281  27.162  23.127  1.00  0.00     0.055 A 
ATOM     98  C   UNL A   1      49.893  26.211  25.222  1.00  0.00     0.041 A 
ATOM     99  F   UNL A   1      48.424  26.238  27.004  1.00  0.00    -0.206 F 
ATOM    100  C   UNL A   1      50.206  26.468  23.900  1.00  0.00     0.022 A 
BRANCH  97 101
ATOM    101  S   UNL A   1      49.537  27.348  21.343  1.00  0.00     0.124 S 
ATOM    102  O   UNL A   1      50.845  26.724  21.160  1.00  0.00    -0.237 OA
ATOM    103  O   UNL A   1      48.404  26.616  20.787  1.00  0.00    -0.237 OA
ATOM    104  O   UNL A   1      49.509  28.794  21.139  1.00  0.00    -0.744 OA
ENDBRANCH  97 101
ENDBRANCH  71  94
ENDBRANCH  45  46
ENDBRANCH  38  40
ENDBRANCH  37  38
ENDBRANCH  36  37
ENDBRANCH  35  36
ENDBRANCH  34  35
ENDBRANCH   1  34
TORSDOF 22
ENDMDL
MODEL 2
REMARK VINA RESULT:      -9.7      1.728      2.135
REMARK SMILES Cc1ccc(C(=O)OCCOCCOCCOC(=O)c2ccc(-c3c4nc(c(-c5cc(S(=O)(=O)[O-])ccc5F)c5ccc([nH]5)c(-c5cc(S(=O)(=O)[O-])ccc5F)c5nc(c(-c6cc(S(=O)(=O)[O-])ccc6F)c6ccc3[nH]6)C=C5)C=C4)cc2)cc1N1C(=O)/C(=C\c2nc3ccccc3n2C)SC1=S
REMARK SMILES IDX 13 1 12 2 11 3 10 4 9 5 8 6 6 7 7 8 5 9 1 10 2 11 3 12 84 13
REMARK SMILES IDX 4 14 83 15 85 16 86 17 101 18 87 19 88 20 100 21 102 22
REMARK SMILES IDX 89 23 90 24 91 25 98 26 92 27 97 28 99 29 93 30 96 31 94 32
REMARK SMILES IDX 95 33 14 34 15 35 16 36 17 37 18 38 19 39 20 40 21 41 82 42
REMARK SMILES IDX 22 43 81 44 23 45 24 46 25 47 75 48 26 49 80 50 74 51 76 52
REMARK SMILES IDX 27 53 79 54 73 55 72 56 28 58 60 59 40 60 59 61 41 62 44 63
REMARK SMILES IDX 58 64 77 65 42 66 43 67 57 69 78 70 45 71 29 72 30 73 38 74
REMARK SMILES IDX 31 75 37 76 39 77 36 78 32 79 33 80 34 81 35 82 61 83 62 84
REMARK SMILES IDX 70 85 63 86 69 87 71 88 68 89 64 90 65 91 66 92 67 93 46 94
REMARK SMILES IDX 47 95 55 96 48 97 54 98 56 99 53 100 49 101 50 102 51 103
REMARK SMILES IDX 52 104
REMARK H PARENT 76 57 44 68
REMARK Flexibility Score: inf
ROOT
ATOM      1  C   UNL A   1      41.859  34.830  37.972  1.00  0.00     0.188 C 
ENDROOT
BRANCH   1   2
ATOM      2  C   UNL A   1      40.461  35.197  37.472  1.00  0.00     0.188 C 
BRANCH   2   3
ATOM      3  O   UNL A   1      39.339  34.614  38.137  1.00  0.00    -0.376 OA
BRANCH   3   4
ATOM      4  C   UNL A   1      38.830  33.353  37.665  1.00  0.00     0.202 C 
BRANCH   4   5
ATOM      5  C   UNL A   1      37.739  33.308  36.537  1.00  0.00     0.261 C 
BRANCH   5   6
ATOM      6  O   UNL A   1      37.513  32.053  35.770  1.00  0.00    -0.460 OA
BRANCH   6   7
ATOM      7  C   UNL A   1      38.395  31.049  35.455  1.00  0.00     0.338 C 
ATOM      8  O   UNL A   1      38.531  30.049  36.147  1.00  0.00    -0.246 OA
BRANCH   7   9
ATOM      9  C   UNL A   1      39.257  31.248  34.110  1.00  0.00     0.062 A 
ATOM     10  C   UNL A   1      40.781  32.332  30.097  1.00  0.00     0.046 C 
ATOM     11  C   UNL A   1      40.288  31.896  31.446  1.00  0.00    -0.027 A 
ATOM     12  C   UNL A   1      40.715  32.605  32.531  1.00  0.00     0.006 A 
ATOM     13  C   UNL A   1      39.327  30.892  31.694  1.00  0.00     0.054 A 
ATOM     14  C   UNL A   1      40.150  32.303  33.772  1.00  0.00     0.016 A 
ATOM     15  C   UNL A   1      38.916  30.490  33.011  1.00  0.00     0.042 A 
BRANCH  13  16
ATOM     16  N   UNL A   1      38.309  30.734  30.729  1.00  0.00    -0.261 N 
ATOM     17  C   UNL A   1      37.320  31.735  30.744  1.00  0.00     0.270 C 
ATOM     18  C   UNL A   1      38.049  29.560  30.077  1.00  0.00     0.152 C 
ATOM     19  O   UNL A   1      37.370  32.750  31.387  1.00  0.00    -0.268 OA
ATOM     20  C   UNL A   1      36.134  31.253  29.973  1.00  0.00     0.084 C 
ATOM     21  S   UNL A   1      36.474  29.683  29.303  1.00  0.00    -0.054 SA
ATOM     22  S   UNL A   1      39.017  28.201  29.977  1.00  0.00    -0.051 S 
ATOM     23  C   UNL A   1      34.926  31.826  29.874  1.00  0.00     0.068 C 
BRANCH  23  24
ATOM     24  C   UNL A   1      34.587  33.079  30.456  1.00  0.00     0.134 A 
ATOM     25  N   UNL A   1      34.377  33.386  31.719  1.00  0.00    -0.229 NA
ATOM     26  N   UNL A   1      34.438  34.209  29.671  1.00  0.00    -0.328 N 
ATOM     27  C   UNL A   1      33.855  34.658  31.724  1.00  0.00     0.089 A 
ATOM     28  C   UNL A   1      33.879  35.203  30.446  1.00  0.00     0.068 A 
ATOM     29  C   UNL A   1      34.760  34.336  28.270  1.00  0.00     0.152 C 
ATOM     30  C   UNL A   1      33.318  35.404  32.784  1.00  0.00     0.030 A 
ATOM     31  C   UNL A   1      33.392  36.487  30.165  1.00  0.00     0.028 A 
ATOM     32  C   UNL A   1      32.804  36.680  32.521  1.00  0.00     0.002 A 
ATOM     33  C   UNL A   1      32.846  37.211  31.231  1.00  0.00     0.002 A 
ENDBRANCH  23  24
ENDBRANCH  13  16
ENDBRANCH   7   9
ENDBRANCH   6   7
ENDBRANCH   5   6
ENDBRANCH   4   5
ENDBRANCH   3   4
ENDBRANCH   2   3
ENDBRANCH   1   2
BRANCH   1  34
ATOM     34  O   UNL A   1      42.769  34.837  36.870  1.00  0.00    -0.376 OA
BRANCH  34  35
ATOM     35  C   UNL A   1      42.585  33.787  35.932  1.00  0.00     0.202 C 
BRANCH  35  36
ATOM     36  C   UNL A   1      43.281  32.469  36.312  1.00  0.00     0.261 C 
BRANCH  36  37
ATOM     37  O   UNL A   1      42.955  31.428  35.369  1.00  0.00    -0.460 OA
BRANCH  37  38
ATOM     38  C   UNL A   1      42.404  30.284  35.893  1.00  0.00     0.338 C 
ATOM     39  O   UNL A   1      41.774  30.256  36.932  1.00  0.00    -0.246 OA
BRANCH  38  40
ATOM     40  C   UNL A   1      42.742  29.122  35.001  1.00  0.00     0.060 A 
ATOM     41  C   UNL A   1      44.026  28.731  34.609  1.00  0.00     0.016 A 
ATOM     42  C   UNL A   1      41.706  28.588  34.296  1.00  0.00     0.016 A 
ATOM     43  C   UNL A   1      44.236  27.926  33.426  1.00  0.00     0.010 A 
ATOM     44  C   UNL A   1      41.996  28.172  33.001  1.00  0.00     0.010 A 
ATOM     45  C   UNL A   1      43.221  27.712  32.480  1.00  0.00    -0.014 A 
BRANCH  45  46
ATOM     46  C   UNL A   1      43.415  27.264  30.942  1.00  0.00     0.031 A 
ATOM     47  C   UNL A   1      43.962  25.901  30.160  1.00  0.00     0.074 A 
ATOM     48  C   UNL A   1      42.917  28.174  30.068  1.00  0.00     0.049 A 
ATOM     49  N   UNL A   1      44.114  25.860  28.849  1.00  0.00    -0.248 NA
ATOM     50  C   UNL A   1      44.381  24.550  30.633  1.00  0.00     0.031 C 
ATOM     51  C   UNL A   1      42.569  28.004  28.660  1.00  0.00     0.029 A 
ATOM     52  N   UNL A   1      42.761  29.544  30.240  1.00  0.00    -0.354 N 
ATOM     53  C   UNL A   1      44.205  24.537  28.423  1.00  0.00     0.074 A 
ATOM     54  C   UNL A   1      44.531  23.784  29.560  1.00  0.00     0.031 C 
ATOM     55  C   UNL A   1      42.649  29.196  28.055  1.00  0.00     0.029 A 
ATOM     56  C   UNL A   1      43.144  30.134  29.039  1.00  0.00     0.049 A 
ATOM     57  H   UNL A   1      42.445  30.005  31.050  1.00  0.00     0.167 HD
ATOM     58  C   UNL A   1      43.885  24.125  27.168  1.00  0.00     0.034 A 
ATOM     59  C   UNL A   1      44.222  30.961  28.929  1.00  0.00     0.034 A 
ATOM     60  C   UNL A   1      44.026  25.224  26.248  1.00  0.00     0.049 A 
ATOM     61  C   UNL A   1      45.205  30.489  27.871  1.00  0.00     0.074 A 
ATOM     62  C   UNL A   1      43.171  25.995  25.493  1.00  0.00     0.029 A 
ATOM     63  N   UNL A   1      45.259  25.862  26.236  1.00  0.00    -0.354 N 
ATOM     64  N   UNL A   1      45.064  29.386  27.186  1.00  0.00    -0.248 NA
ATOM     65  C   UNL A   1      46.432  31.192  27.510  1.00  0.00     0.031 C 
ATOM     66  C   UNL A   1      43.870  27.202  25.179  1.00  0.00     0.029 A 
ATOM     67  C   UNL A   1      45.161  27.114  25.676  1.00  0.00     0.049 A 
ATOM     68  H   UNL A   1      46.092  25.469  26.582  1.00  0.00     0.167 HD
ATOM     69  C   UNL A   1      46.165  29.163  26.404  1.00  0.00     0.074 A 
ATOM     70  C   UNL A   1      46.966  30.357  26.598  1.00  0.00     0.031 C 
ATOM     71  C   UNL A   1      46.332  27.987  25.718  1.00  0.00     0.034 A 
BRANCH  58  72
ATOM     72  C   UNL A   1      43.372  22.728  26.825  1.00  0.00     0.023 A 
ATOM     73  C   UNL A   1      44.195  21.823  26.122  1.00  0.00     0.031 A 
ATOM     74  C   UNL A   1      42.035  22.285  27.019  1.00  0.00     0.131 A 
ATOM     75  C   UNL A   1      43.700  20.571  25.679  1.00  0.00     0.055 A 
ATOM     76  C   UNL A   1      41.573  21.014  26.651  1.00  0.00     0.041 A 
ATOM     77  F   UNL A   1      41.073  23.087  27.496  1.00  0.00    -0.206 F 
ATOM     78  C   UNL A   1      42.405  20.148  25.971  1.00  0.00     0.022 A 
BRANCH  75  79
ATOM     79  S   UNL A   1      44.732  19.515  24.622  1.00  0.00     0.124 S 
ATOM     80  O   UNL A   1      44.494  20.080  23.298  1.00  0.00    -0.237 OA
ATOM     81  O   UNL A   1      46.063  19.713  25.186  1.00  0.00    -0.237 OA
ATOM     82  O   UNL A   1      44.174  18.177  24.826  1.00  0.00    -0.744 OA
ENDBRANCH  75  79
ENDBRANCH  58  72
BRANCH  59  83
ATOM     83  C   UNL A   1      44.505  31.754  30.170  1.00  0.00     0.023 A 
ATOM     84  C   UNL A   1      45.369  31.139  31.110  1.00  0.00     0.031 A 
ATOM     85  C   UNL A   1      44.308  33.138  30.290  1.00  0.00     0.131 A 
ATOM     86  C   UNL A   1      46.125  31.907  32.007  1.00  0.00     0.055 A 
ATOM     87  C   UNL A   1      44.998  33.895  31.258  1.00  0.00     0.041 A 
ATOM     88  F   UNL A   1      43.572  33.807  29.393  1.00  0.00    -0.206 F 
ATOM     89  C   UNL A   1      45.939  33.286  32.093  1.00  0.00     0.022 A 
BRANCH  86  90
ATOM     90  S   UNL A   1      47.580  31.147  32.803  1.00  0.00     0.124 S 
ATOM     91  O   UNL A   1      48.629  31.404  31.824  1.00  0.00    -0.237 OA
ATOM     92  O   UNL A   1      47.686  31.874  34.064  1.00  0.00    -0.237 OA
ATOM     93  O   UNL A   1      47.167  29.754  32.944  1.00  0.00    -0.744 OA
ENDBRANCH  86  90
ENDBRANCH  59  83
BRANCH  71  94
ATOM     94  C   UNL A   1      47.625  27.513  25.070  1.00  0.00     0.023 A 
ATOM     95  C   UNL A   1      48.657  26.882  25.779  1.00  0.00     0.031 A 
ATOM     96  C   UNL A   1      47.818  27.593  23.666  1.00  0.00     0.131 A 
ATOM     97  C   UNL A   1      49.828  26.445  25.133  1.00  0.00     0.055 A 
ATOM     98  C   UNL A   1      48.934  27.061  23.013  1.00  0.00     0.041 A 
ATOM     99  F   UNL A   1      46.922  28.185  22.862  1.00  0.00    -0.206 F 
ATOM    100  C   UNL A   1      49.962  26.498  23.749  1.00  0.00     0.022 A 
BRANCH  97 101
ATOM    101  S   UNL A   1      51.219  25.915  26.165  1.00  0.00     0.124 S 
ATOM    102  O   UNL A   1      52.248  25.639  25.166  1.00  0.00    -0.237 OA
ATOM    103  O   UNL A   1      51.450  27.086  27.003  1.00  0.00    -0.237 OA
ATOM    104  O   UNL A   1      50.704  24.739  26.862  1.00  0.00    -0.744 OA
ENDBRANCH  97 101
ENDBRANCH  71  94
ENDBRANCH  45  46
ENDBRANCH  38  40
ENDBRANCH  37  38
ENDBRANCH  36  37
ENDBRANCH  35  36
ENDBRANCH  34  35
ENDBRANCH   1  34
TORSDOF 22
ENDMDL
MODEL 3
REMARK VINA RESULT:      -9.7      6.256      9.615
REMARK SMILES Cc1ccc(C(=O)OCCOCCOCCOC(=O)c2ccc(-c3c4nc(c(-c5cc(S(=O)(=O)[O-])ccc5F)c5ccc([nH]5)c(-c5cc(S(=O)(=O)[O-])ccc5F)c5nc(c(-c6cc(S(=O)(=O)[O-])ccc6F)c6ccc3[nH]6)C=C5)C=C4)cc2)cc1N1C(=O)/C(=C\c2nc3ccccc3n2C)SC1=S
REMARK SMILES IDX 13 1 12 2 11 3 10 4 9 5 8 6 6 7 7 8 5 9 1 10 2 11 3 12 84 13
REMARK SMILES IDX 4 14 83 15 85 16 86 17 101 18 87 19 88 20 100 21 102 22
REMARK SMILES IDX 89 23 90 24 91 25 98 26 92 27 97 28 99 29 93 30 96 31 94 32
REMARK SMILES IDX 95 33 14 34 15 35 16 36 17 37 18 38 19 39 20 40 21 41 82 42
REMARK SMILES IDX 22 43 81 44 23 45 24 46 25 47 75 48 26 49 80 50 74 51 76 52
REMARK SMILES IDX 27 53 79 54 73 55 72 56 28 58 60 59 40 60 59 61 41 62 44 63
REMARK SMILES IDX 58 64 77 65 42 66 43 67 57 69 78 70 45 71 29 72 30 73 38 74
REMARK SMILES IDX 31 75 37 76 39 77 36 78 32 79 33 80 34 81 35 82 61 83 62 84
REMARK SMILES IDX 70 85 63 86 69 87 71 88 68 89 64 90 65 91 66 92 67 93 46 94
REMARK SMILES IDX 47 95 55 96 48 97 54 98 56 99 53 100 49 101 50 102 51 103
REMARK SMILES IDX 52 104
REMARK H PARENT 76 57 44 68
REMARK Flexibility Score: inf
ROOT
ATOM      1  C   UNL A   1      32.132  29.913  27.050  1.00  0.00     0.188 C 
ENDROOT
BRANCH   1   2
ATOM      2  C   UNL A   1      32.620  28.464  27.004  1.00  0.00     0.188 C 
BRANCH   2   3
ATOM      3  O   UNL A   1      31.657  27.428  27.209  1.00  0.00    -0.376 OA
BRANCH   3   4
ATOM      4  C   UNL A   1      31.891  26.135  26.620  1.00  0.00     0.202 C 
BRANCH   4   5
ATOM      5  C   UNL A   1      30.697  25.296  26.043  1.00  0.00     0.261 C 
BRANCH   5   6
ATOM      6  O   UNL A   1      29.851  24.481  26.956  1.00  0.00    -0.460 OA
BRANCH   6   7
ATOM      7  C   UNL A   1      29.967  23.160  27.311  1.00  0.00     0.338 C 
ATOM      8  O   UNL A   1      29.038  22.519  27.782  1.00  0.00    -0.246 OA
BRANCH   7   9
ATOM      9  C   UNL A   1      31.408  22.479  27.076  1.00  0.00     0.062 A 
ATOM     10  C   UNL A   1      35.460  21.352  25.694  1.00  0.00     0.046 C 
ATOM     11  C   UNL A   1      34.067  21.664  26.160  1.00  0.00    -0.027 A 
ATOM     12  C   UNL A   1      33.937  22.383  27.313  1.00  0.00     0.006 A 
ATOM     13  C   UNL A   1      32.875  21.384  25.459  1.00  0.00     0.054 A 
ATOM     14  C   UNL A   1      32.655  22.804  27.677  1.00  0.00     0.016 A 
ATOM     15  C   UNL A   1      31.563  21.674  25.969  1.00  0.00     0.042 A 
BRANCH  13  16
ATOM     16  N   UNL A   1      32.940  21.437  24.049  1.00  0.00    -0.261 N 
ATOM     17  C   UNL A   1      33.022  22.734  23.510  1.00  0.00     0.270 C 
ATOM     18  C   UNL A   1      32.583  20.403  23.228  1.00  0.00     0.152 C 
ATOM     19  O   UNL A   1      33.193  23.741  24.145  1.00  0.00    -0.268 OA
ATOM     20  C   UNL A   1      32.693  22.672  22.053  1.00  0.00     0.084 C 
ATOM     21  S   UNL A   1      32.411  21.019  21.589  1.00  0.00    -0.054 SA
ATOM     22  S   UNL A   1      32.344  18.800  23.636  1.00  0.00    -0.051 S 
ATOM     23  C   UNL A   1      32.502  23.694  21.207  1.00  0.00     0.068 C 
BRANCH  23  24
ATOM     24  C   UNL A   1      32.663  25.063  21.559  1.00  0.00     0.134 A 
ATOM     25  N   UNL A   1      33.671  25.876  21.320  1.00  0.00    -0.229 NA
ATOM     26  N   UNL A   1      31.673  25.739  22.252  1.00  0.00    -0.328 N 
ATOM     27  C   UNL A   1      33.438  27.007  22.066  1.00  0.00     0.089 A 
ATOM     28  C   UNL A   1      32.187  26.949  22.667  1.00  0.00     0.068 A 
ATOM     29  C   UNL A   1      30.343  25.262  22.542  1.00  0.00     0.152 C 
ATOM     30  C   UNL A   1      34.266  28.117  22.295  1.00  0.00     0.030 A 
ATOM     31  C   UNL A   1      31.702  27.969  23.497  1.00  0.00     0.028 A 
ATOM     32  C   UNL A   1      33.810  29.136  23.141  1.00  0.00     0.002 A 
ATOM     33  C   UNL A   1      32.546  29.062  23.728  1.00  0.00     0.002 A 
ENDBRANCH  23  24
ENDBRANCH  13  16
ENDBRANCH   7   9
ENDBRANCH   6   7
ENDBRANCH   5   6
ENDBRANCH   4   5
ENDBRANCH   3   4
ENDBRANCH   2   3
ENDBRANCH   1   2
BRANCH   1  34
ATOM     34  O   UNL A   1      32.996  30.672  27.899  1.00  0.00    -0.376 OA
BRANCH  34  35
ATOM     35  C   UNL A   1      33.305  31.976  27.432  1.00  0.00     0.202 C 
BRANCH  35  36
ATOM     36  C   UNL A   1      34.652  32.526  27.933  1.00  0.00     0.261 C 
BRANCH  36  37
ATOM     37  O   UNL A   1      35.364  31.523  28.688  1.00  0.00    -0.460 OA
BRANCH  37  38
ATOM     38  C   UNL A   1      36.733  31.629  28.699  1.00  0.00     0.338 C 
ATOM     39  O   UNL A   1      37.326  32.690  28.682  1.00  0.00    -0.246 OA
BRANCH  38  40
ATOM     40  C   UNL A   1      37.333  30.251  28.697  1.00  0.00     0.060 A 
ATOM     41  C   UNL A   1      37.467  29.410  29.805  1.00  0.00     0.016 A 
ATOM     42  C   UNL A   1      38.055  29.915  27.592  1.00  0.00     0.016 A 
ATOM     43  C   UNL A   1      38.435  28.335  29.819  1.00  0.00     0.010 A 
ATOM     44  C   UNL A   1      39.196  29.150  27.815  1.00  0.00     0.010 A 
ATOM     45  C   UNL A   1      39.450  28.234  28.853  1.00  0.00    -0.014 A 
BRANCH  45  46
ATOM     46  C   UNL A   1      40.833  27.415  28.991  1.00  0.00     0.031 A 
ATOM     47  C   UNL A   1      41.320  25.847  28.723  1.00  0.00     0.074 A 
ATOM     48  C   UNL A   1      41.884  28.217  29.301  1.00  0.00     0.049 A 
ATOM     49  N   UNL A   1      42.531  25.426  29.036  1.00  0.00    -0.248 NA
ATOM     50  C   UNL A   1      40.638  24.649  28.152  1.00  0.00     0.031 C 
ATOM     51  C   UNL A   1      43.313  27.954  29.164  1.00  0.00     0.029 A 
ATOM     52  N   UNL A   1      41.876  29.428  29.981  1.00  0.00    -0.354 N 
ATOM     53  C   UNL A   1      42.803  24.230  28.378  1.00  0.00     0.074 A 
ATOM     54  C   UNL A   1      41.561  23.711  27.984  1.00  0.00     0.031 C 
ATOM     55  C   UNL A   1      43.972  28.714  30.049  1.00  0.00     0.029 A 
ATOM     56  C   UNL A   1      42.973  29.402  30.837  1.00  0.00     0.049 A 
ATOM     57  H   UNL A   1      41.225  30.159  29.878  1.00  0.00     0.167 HD
ATOM     58  C   UNL A   1      44.058  23.796  28.089  1.00  0.00     0.034 A 
ATOM     59  C   UNL A   1      42.854  29.420  32.195  1.00  0.00     0.034 A 
ATOM     60  C   UNL A   1      44.994  24.373  29.019  1.00  0.00     0.049 A 
ATOM     61  C   UNL A   1      43.561  28.247  32.852  1.00  0.00     0.074 A 
ATOM     62  C   UNL A   1      46.016  25.295  28.947  1.00  0.00     0.029 A 
ATOM     63  N   UNL A   1      44.724  24.178  30.366  1.00  0.00    -0.354 N 
ATOM     64  N   UNL A   1      44.163  27.296  32.189  1.00  0.00    -0.248 NA
ATOM     65  C   UNL A   1      43.633  28.025  34.292  1.00  0.00     0.031 C 
ATOM     66  C   UNL A   1      46.228  25.782  30.274  1.00  0.00     0.029 A 
ATOM     67  C   UNL A   1      45.393  25.095  31.142  1.00  0.00     0.049 A 
ATOM     68  H   UNL A   1      44.132  23.475  30.719  1.00  0.00     0.167 HD
ATOM     69  C   UNL A   1      44.595  26.316  33.041  1.00  0.00     0.074 A 
ATOM     70  C   UNL A   1      44.291  26.852  34.356  1.00  0.00     0.031 C 
ATOM     71  C   UNL A   1      45.107  25.133  32.575  1.00  0.00     0.034 A 
BRANCH  58  72
ATOM     72  C   UNL A   1      44.409  22.902  26.902  1.00  0.00     0.023 A 
ATOM     73  C   UNL A   1      43.657  21.735  26.646  1.00  0.00     0.031 A 
ATOM     74  C   UNL A   1      45.563  23.054  26.085  1.00  0.00     0.131 A 
ATOM     75  C   UNL A   1      44.040  20.822  25.633  1.00  0.00     0.055 A 
ATOM     76  C   UNL A   1      45.892  22.190  25.031  1.00  0.00     0.041 A 
ATOM     77  F   UNL A   1      46.488  23.996  26.315  1.00  0.00    -0.206 F 
ATOM     78  C   UNL A   1      45.132  21.063  24.801  1.00  0.00     0.022 A 
BRANCH  75  79
ATOM     79  S   UNL A   1      43.154  19.246  25.456  1.00  0.00     0.124 S 
ATOM     80  O   UNL A   1      41.761  19.678  25.443  1.00  0.00    -0.237 OA
ATOM     81  O   UNL A   1      43.688  18.727  24.201  1.00  0.00    -0.237 OA
ATOM     82  O   UNL A   1      43.553  18.494  26.647  1.00  0.00    -0.744 OA
ENDBRANCH  75  79
ENDBRANCH  58  72
BRANCH  59  83
ATOM     83  C   UNL A   1      41.655  30.174  32.687  1.00  0.00     0.023 A 
ATOM     84  C   UNL A   1      41.690  31.578  32.499  1.00  0.00     0.031 A 
ATOM     85  C   UNL A   1      40.405  29.594  32.950  1.00  0.00     0.131 A 
ATOM     86  C   UNL A   1      40.508  32.324  32.406  1.00  0.00     0.055 A 
ATOM     87  C   UNL A   1      39.225  30.365  32.953  1.00  0.00     0.041 A 
ATOM     88  F   UNL A   1      40.274  28.266  33.060  1.00  0.00    -0.206 F 
ATOM     89  C   UNL A   1      39.270  31.727  32.640  1.00  0.00     0.022 A 
BRANCH  86  90
ATOM     90  S   UNL A   1      40.573  33.982  31.646  1.00  0.00     0.124 S 
ATOM     91  O   UNL A   1      41.166  33.695  30.346  1.00  0.00    -0.237 OA
ATOM     92  O   UNL A   1      39.174  34.398  31.636  1.00  0.00    -0.237 OA
ATOM     93  O   UNL A   1      41.415  34.722  32.581  1.00  0.00    -0.744 OA
ENDBRANCH  86  90
ENDBRANCH  59  83
BRANCH  71  94
ATOM     94  C   UNL A   1      45.336  23.876  33.402  1.00  0.00     0.023 A 
ATOM     95  C   UNL A   1      46.565  23.557  33.997  1.00  0.00     0.031 A 
ATOM     96  C   UNL A   1      44.269  22.991  33.706  1.00  0.00     0.131 A 
ATOM     97  C   UNL A   1      46.724  22.391  34.768  1.00  0.00     0.055 A 
ATOM     98  C   UNL A   1      44.404  21.891  34.562  1.00  0.00     0.041 A 
ATOM     99  F   UNL A   1      43.042  23.160  33.195  1.00  0.00    -0.206 F 
ATOM    100  C   UNL A   1      45.645  21.571  35.084  1.00  0.00     0.022 A 
BRANCH  97 101
ATOM    101  S   UNL A   1      48.405  21.912  35.246  1.00  0.00     0.124 S 
ATOM    102  O   UNL A   1      49.217  22.795  34.413  1.00  0.00    -0.237 OA
ATOM    103  O   UNL A   1      48.418  22.202  36.675  1.00  0.00    -0.237 OA
ATOM    104  O   UNL A   1      48.473  20.497  34.894  1.00  0.00    -0.744 OA
ENDBRANCH  97 101
ENDBRANCH  71  94
ENDBRANCH  45  46
ENDBRANCH  38  40
ENDBRANCH  37  38
ENDBRANCH  36  37
ENDBRANCH  35  36
ENDBRANCH  34  35
ENDBRANCH   1  34
TORSDOF 22
ENDMDL
