MODEL 1
REMARK VINA RESULT:     -10.3      0.000      0.000
REMARK SMILES C[C@@H](C(=O)OCCOCCOCCOC(=O)c1ccc(-c2c3nc(c(-c4cc(S(=O)(=O)[O-])ccc4F)c4ccc([nH]4)c(-c4cc(S(=O)(=O)[O-])ccc4F)c4nc(c(-c5cc(S(=O)(=O)[O-])ccc5F)c5ccc2[nH]5)C=C4)C=C3)cc1)c1ccc(C[C@H]2CCC[C@H]2O)cc1
REMARK SMILES IDX 9 1 8 2 7 3 6 4 5 5 3 6 4 7 2 8 1 9 80 10 81 11 92 12 82 13
REMARK SMILES IDX 91 14 83 15 84 16 85 17 86 18 89 19 87 20 88 21 90 22 10 24
REMARK SMILES IDX 11 25 12 26 13 27 14 28 15 29 16 30 17 31 18 32 79 33 19 34
REMARK SMILES IDX 78 35 20 36 21 37 22 38 72 39 23 40 77 41 71 42 73 43 24 44
REMARK SMILES IDX 76 45 70 46 69 47 25 49 57 50 37 51 56 52 38 53 41 54 55 55
REMARK SMILES IDX 74 56 39 57 40 58 54 60 75 61 42 62 26 63 27 64 35 65 28 66
REMARK SMILES IDX 34 67 36 68 33 69 29 70 30 71 31 72 32 73 58 74 59 75 67 76
REMARK SMILES IDX 60 77 66 78 68 79 65 80 61 81 62 82 63 83 64 84 43 85 44 86
REMARK SMILES IDX 52 87 45 88 51 89 53 90 50 91 46 92 47 93 48 94 49 95
REMARK H PARENT 90 23 73 48 41 59
REMARK Flexibility Score: inf
ROOT
ATOM      1  C   UNL A   1      32.454  26.129  26.411  1.00  0.00     0.188 C 
ENDROOT
BRANCH   1   2
ATOM      2  O   UNL A   1      31.837  25.106  25.636  1.00  0.00    -0.376 OA
BRANCH   2   3
ATOM      3  C   UNL A   1      31.584  23.842  26.238  1.00  0.00     0.202 C 
BRANCH   3   4
ATOM      4  C   UNL A   1      32.565  23.313  27.296  1.00  0.00     0.261 C 
BRANCH   4   5
ATOM      5  O   UNL A   1      33.853  22.879  26.800  1.00  0.00    -0.463 OA
BRANCH   5   6
ATOM      6  C   UNL A   1      33.993  21.543  26.567  1.00  0.00     0.313 C 
ATOM      7  O   UNL A   1      33.605  20.679  27.349  1.00  0.00    -0.252 OA
BRANCH   6   8
ATOM      8  C   UNL A   1      34.736  21.191  25.258  1.00  0.00     0.126 C 
ATOM      9  C   UNL A   1      36.251  20.983  25.299  1.00  0.00     0.025 C 
BRANCH   8  10
ATOM     10  C   UNL A   1      34.322  22.142  24.140  1.00  0.00    -0.034 A 
ATOM     11  C   UNL A   1      35.023  23.329  23.885  1.00  0.00     0.005 A 
ATOM     12  C   UNL A   1      33.136  21.903  23.431  1.00  0.00     0.005 A 
ATOM     13  C   UNL A   1      34.489  24.298  23.037  1.00  0.00     0.004 A 
ATOM     14  C   UNL A   1      32.593  22.884  22.601  1.00  0.00     0.004 A 
ATOM     15  C   UNL A   1      33.227  24.119  22.469  1.00  0.00    -0.048 A 
BRANCH  15  16
ATOM     16  C   UNL A   1      32.501  25.295  21.872  1.00  0.00     0.041 C 
BRANCH  16  17
ATOM     17  C   UNL A   1      32.619  26.607  22.668  1.00  0.00     0.022 C 
ATOM     18  C   UNL A   1      33.656  27.638  22.198  1.00  0.00     0.007 C 
ATOM     19  C   UNL A   1      31.355  27.452  22.861  1.00  0.00     0.117 C 
ATOM     20  C   UNL A   1      33.172  28.990  22.750  1.00  0.00     0.003 C 
ATOM     21  C   UNL A   1      31.915  28.683  23.558  1.00  0.00     0.032 C 
BRANCH  19  22
ATOM     22  O   UNL A   1      30.681  27.906  21.695  1.00  0.00    -0.393 OA
ATOM     23  H   UNL A   1      30.251  27.154  21.257  1.00  0.00     0.210 HD
ENDBRANCH  19  22
ENDBRANCH  16  17
ENDBRANCH  15  16
ENDBRANCH   8  10
ENDBRANCH   6   8
ENDBRANCH   5   6
ENDBRANCH   4   5
ENDBRANCH   3   4
ENDBRANCH   2   3
ENDBRANCH   1   2
BRANCH   1  24
ATOM     24  C   UNL A   1      31.553  27.216  27.023  1.00  0.00     0.188 C 
BRANCH  24  25
ATOM     25  O   UNL A   1      32.180  28.474  27.154  1.00  0.00    -0.376 OA
BRANCH  25  26
ATOM     26  C   UNL A   1      31.392  29.630  26.969  1.00  0.00     0.202 C 
BRANCH  26  27
ATOM     27  C   UNL A   1      32.104  30.979  26.789  1.00  0.00     0.261 C 
BRANCH  27  28
ATOM     28  O   UNL A   1      33.542  30.971  26.796  1.00  0.00    -0.460 OA
BRANCH  28  29
ATOM     29  C   UNL A   1      34.170  31.865  27.595  1.00  0.00     0.338 C 
ATOM     30  O   UNL A   1      33.688  32.893  28.043  1.00  0.00    -0.246 OA
BRANCH  29  31
ATOM     31  C   UNL A   1      35.478  31.288  27.995  1.00  0.00     0.060 A 
ATOM     32  C   UNL A   1      35.616  29.898  28.093  1.00  0.00     0.016 A 
ATOM     33  C   UNL A   1      36.570  32.114  28.280  1.00  0.00     0.016 A 
ATOM     34  C   UNL A   1      36.842  29.342  28.488  1.00  0.00     0.010 A 
ATOM     35  C   UNL A   1      37.786  31.556  28.700  1.00  0.00     0.010 A 
ATOM     36  C   UNL A   1      37.932  30.166  28.821  1.00  0.00    -0.014 A 
BRANCH  36  37
ATOM     37  C   UNL A   1      39.147  29.566  29.449  1.00  0.00     0.031 A 
ATOM     38  C   UNL A   1      39.444  29.878  30.884  1.00  0.00     0.074 A 
ATOM     39  C   UNL A   1      40.028  28.812  28.763  1.00  0.00     0.049 A 
ATOM     40  N   UNL A   1      40.434  29.464  31.629  1.00  0.00    -0.248 NA
ATOM     41  C   UNL A   1      38.559  30.855  31.530  1.00  0.00     0.031 C 
ATOM     42  C   UNL A   1      39.995  28.617  27.325  1.00  0.00     0.029 A 
ATOM     43  N   UNL A   1      41.104  28.053  29.177  1.00  0.00    -0.354 N 
ATOM     44  C   UNL A   1      40.350  30.197  32.804  1.00  0.00     0.074 A 
ATOM     45  C   UNL A   1      39.183  31.048  32.682  1.00  0.00     0.031 C 
ATOM     46  C   UNL A   1      40.921  27.699  26.994  1.00  0.00     0.029 A 
ATOM     47  C   UNL A   1      41.611  27.230  28.187  1.00  0.00     0.049 A 
ATOM     48  H   UNL A   1      41.474  28.092  30.088  1.00  0.00     0.167 HD
ATOM     49  C   UNL A   1      41.207  30.203  33.855  1.00  0.00     0.034 A 
ATOM     50  C   UNL A   1      42.490  26.201  28.255  1.00  0.00     0.034 A 
ATOM     51  C   UNL A   1      42.391  29.382  33.939  1.00  0.00     0.049 A 
ATOM     52  C   UNL A   1      43.292  26.058  29.530  1.00  0.00     0.074 A 
ATOM     53  C   UNL A   1      43.333  29.331  34.954  1.00  0.00     0.029 A 
ATOM     54  N   UNL A   1      42.807  28.476  32.971  1.00  0.00    -0.354 N 
ATOM     55  N   UNL A   1      43.192  26.744  30.644  1.00  0.00    -0.248 NA
ATOM     56  C   UNL A   1      44.384  25.072  29.529  1.00  0.00     0.031 C 
ATOM     57  C   UNL A   1      44.345  28.443  34.573  1.00  0.00     0.029 A 
ATOM     58  C   UNL A   1      43.993  27.869  33.363  1.00  0.00     0.049 A 
ATOM     59  H   UNL A   1      42.330  28.290  32.131  1.00  0.00     0.167 HD
ATOM     60  C   UNL A   1      44.249  26.325  31.443  1.00  0.00     0.074 A 
ATOM     61  C   UNL A   1      44.910  25.251  30.732  1.00  0.00     0.031 C 
ATOM     62  C   UNL A   1      44.672  26.826  32.631  1.00  0.00     0.034 A 
BRANCH  49  63
ATOM     63  C   UNL A   1      40.934  31.212  34.942  1.00  0.00     0.023 A 
ATOM     64  C   UNL A   1      39.872  31.050  35.847  1.00  0.00     0.031 A 
ATOM     65  C   UNL A   1      41.699  32.388  35.023  1.00  0.00     0.131 A 
ATOM     66  C   UNL A   1      39.547  32.089  36.731  1.00  0.00     0.055 A 
ATOM     67  C   UNL A   1      41.431  33.376  35.973  1.00  0.00     0.041 A 
ATOM     68  F   UNL A   1      42.705  32.613  34.163  1.00  0.00    -0.206 F 
ATOM     69  C   UNL A   1      40.338  33.237  36.822  1.00  0.00     0.022 A 
BRANCH  66  70
ATOM     70  S   UNL A   1      37.978  31.990  37.632  1.00  0.00     0.124 S 
ATOM     71  O   UNL A   1      37.587  30.603  37.386  1.00  0.00    -0.237 OA
ATOM     72  O   UNL A   1      38.376  32.306  38.999  1.00  0.00    -0.237 OA
ATOM     73  O   UNL A   1      37.142  32.993  36.976  1.00  0.00    -0.744 OA
ENDBRANCH  66  70
ENDBRANCH  49  63
BRANCH  50  74
ATOM     74  C   UNL A   1      42.712  25.231  27.123  1.00  0.00     0.023 A 
ATOM     75  C   UNL A   1      42.123  23.947  27.151  1.00  0.00     0.031 A 
ATOM     76  C   UNL A   1      43.553  25.517  26.036  1.00  0.00     0.131 A 
ATOM     77  C   UNL A   1      42.413  23.003  26.146  1.00  0.00     0.055 A 
ATOM     78  C   UNL A   1      43.753  24.614  24.987  1.00  0.00     0.041 A 
ATOM     79  F   UNL A   1      44.212  26.685  25.971  1.00  0.00    -0.206 F 
ATOM     80  C   UNL A   1      43.192  23.345  25.043  1.00  0.00     0.022 A 
BRANCH  77  81
ATOM     81  S   UNL A   1      41.892  21.274  26.375  1.00  0.00     0.124 S 
ATOM     82  O   UNL A   1      40.466  21.354  26.078  1.00  0.00    -0.237 OA
ATOM     83  O   UNL A   1      42.716  20.576  25.394  1.00  0.00    -0.237 OA
ATOM     84  O   UNL A   1      42.223  21.001  27.773  1.00  0.00    -0.744 OA
ENDBRANCH  77  81
ENDBRANCH  50  74
BRANCH  62  85
ATOM     85  C   UNL A   1      45.926  26.225  33.220  1.00  0.00     0.023 A 
ATOM     86  C   UNL A   1      47.204  26.721  32.897  1.00  0.00     0.031 A 
ATOM     87  C   UNL A   1      45.846  25.133  34.101  1.00  0.00     0.131 A 
ATOM     88  C   UNL A   1      48.350  26.091  33.405  1.00  0.00     0.055 A 
ATOM     89  C   UNL A   1      46.988  24.550  34.653  1.00  0.00     0.041 A 
ATOM     90  F   UNL A   1      44.656  24.615  34.440  1.00  0.00    -0.206 F 
ATOM     91  C   UNL A   1      48.249  25.020  34.295  1.00  0.00     0.022 A 
BRANCH  88  92
ATOM     92  S   UNL A   1      49.980  26.623  32.809  1.00  0.00     0.124 S 
ATOM     93  O   UNL A   1      50.502  25.395  32.216  1.00  0.00    -0.237 OA
ATOM     94  O   UNL A   1      49.639  27.689  31.873  1.00  0.00    -0.237 OA
ATOM     95  O   UNL A   1      50.663  27.063  34.024  1.00  0.00    -0.744 OA
ENDBRANCH  88  92
ENDBRANCH  62  85
ENDBRANCH  36  37
ENDBRANCH  29  31
ENDBRANCH  28  29
ENDBRANCH  27  28
ENDBRANCH  26  27
ENDBRANCH  25  26
ENDBRANCH  24  25
ENDBRANCH   1  24
TORSDOF 24
ENDMDL
MODEL 2
REMARK VINA RESULT:      -9.8      2.475      3.231
REMARK SMILES C[C@@H](C(=O)OCCOCCOCCOC(=O)c1ccc(-c2c3nc(c(-c4cc(S(=O)(=O)[O-])ccc4F)c4ccc([nH]4)c(-c4cc(S(=O)(=O)[O-])ccc4F)c4nc(c(-c5cc(S(=O)(=O)[O-])ccc5F)c5ccc2[nH]5)C=C4)C=C3)cc1)c1ccc(C[C@H]2CCC[C@H]2O)cc1
REMARK SMILES IDX 9 1 8 2 7 3 6 4 5 5 3 6 4 7 2 8 1 9 80 10 81 11 92 12 82 13
REMARK SMILES IDX 91 14 83 15 84 16 85 17 86 18 89 19 87 20 88 21 90 22 10 24
REMARK SMILES IDX 11 25 12 26 13 27 14 28 15 29 16 30 17 31 18 32 79 33 19 34
REMARK SMILES IDX 78 35 20 36 21 37 22 38 72 39 23 40 77 41 71 42 73 43 24 44
REMARK SMILES IDX 76 45 70 46 69 47 25 49 57 50 37 51 56 52 38 53 41 54 55 55
REMARK SMILES IDX 74 56 39 57 40 58 54 60 75 61 42 62 26 63 27 64 35 65 28 66
REMARK SMILES IDX 34 67 36 68 33 69 29 70 30 71 31 72 32 73 58 74 59 75 67 76
REMARK SMILES IDX 60 77 66 78 68 79 65 80 61 81 62 82 63 83 64 84 43 85 44 86
REMARK SMILES IDX 52 87 45 88 51 89 53 90 50 91 46 92 47 93 48 94 49 95
REMARK H PARENT 90 23 73 48 41 59
REMARK Flexibility Score: inf
ROOT
ATOM      1  C   UNL A   1      33.027  27.083  26.495  1.00  0.00     0.188 C 
ENDROOT
BRANCH   1   2
ATOM      2  O   UNL A   1      32.950  25.826  25.829  1.00  0.00    -0.376 OA
BRANCH   2   3
ATOM      3  C   UNL A   1      34.016  24.897  25.983  1.00  0.00     0.202 C 
BRANCH   3   4
ATOM      4  C   UNL A   1      34.429  24.032  24.781  1.00  0.00     0.261 C 
BRANCH   4   5
ATOM      5  O   UNL A   1      33.744  22.764  24.653  1.00  0.00    -0.463 OA
BRANCH   5   6
ATOM      6  C   UNL A   1      32.389  22.820  24.508  1.00  0.00     0.313 C 
ATOM      7  O   UNL A   1      31.604  22.581  25.422  1.00  0.00    -0.252 OA
BRANCH   6   8
ATOM      8  C   UNL A   1      31.907  23.156  23.078  1.00  0.00     0.126 C 
ATOM      9  C   UNL A   1      32.837  22.872  21.897  1.00  0.00     0.025 C 
BRANCH   8  10
ATOM     10  C   UNL A   1      31.340  24.572  23.027  1.00  0.00    -0.034 A 
ATOM     11  C   UNL A   1      31.966  25.591  22.296  1.00  0.00     0.005 A 
ATOM     12  C   UNL A   1      30.244  24.907  23.835  1.00  0.00     0.005 A 
ATOM     13  C   UNL A   1      31.581  26.920  22.462  1.00  0.00     0.004 A 
ATOM     14  C   UNL A   1      29.875  26.240  24.017  1.00  0.00     0.004 A 
ATOM     15  C   UNL A   1      30.599  27.257  23.395  1.00  0.00    -0.048 A 
BRANCH  15  16
ATOM     16  C   UNL A   1      30.450  28.688  23.841  1.00  0.00     0.041 C 
BRANCH  16  17
ATOM     17  C   UNL A   1      29.265  29.445  23.215  1.00  0.00     0.022 C 
ATOM     18  C   UNL A   1      28.964  30.858  23.735  1.00  0.00     0.007 C 
ATOM     19  C   UNL A   1      29.246  29.627  21.693  1.00  0.00     0.117 C 
ATOM     20  C   UNL A   1      28.189  31.557  22.605  1.00  0.00     0.003 C 
ATOM     21  C   UNL A   1      28.023  30.512  21.507  1.00  0.00     0.032 C 
BRANCH  19  22
ATOM     22  O   UNL A   1      30.343  30.304  21.096  1.00  0.00    -0.393 OA
ATOM     23  H   UNL A   1      30.918  29.661  20.651  1.00  0.00     0.210 HD
ENDBRANCH  19  22
ENDBRANCH  16  17
ENDBRANCH  15  16
ENDBRANCH   8  10
ENDBRANCH   6   8
ENDBRANCH   5   6
ENDBRANCH   4   5
ENDBRANCH   3   4
ENDBRANCH   2   3
ENDBRANCH   1   2
BRANCH   1  24
ATOM     24  C   UNL A   1      31.776  27.586  27.237  1.00  0.00     0.188 C 
BRANCH  24  25
ATOM     25  O   UNL A   1      31.574  28.979  27.140  1.00  0.00    -0.376 OA
BRANCH  25  26
ATOM     26  C   UNL A   1      32.548  29.745  26.463  1.00  0.00     0.202 C 
BRANCH  26  27
ATOM     27  C   UNL A   1      32.393  31.272  26.440  1.00  0.00     0.261 C 
BRANCH  27  28
ATOM     28  O   UNL A   1      32.625  31.976  27.673  1.00  0.00    -0.460 OA
BRANCH  28  29
ATOM     29  C   UNL A   1      33.592  32.923  27.680  1.00  0.00     0.338 C 
ATOM     30  O   UNL A   1      33.437  34.113  27.451  1.00  0.00    -0.246 OA
BRANCH  29  31
ATOM     31  C   UNL A   1      34.837  32.309  28.207  1.00  0.00     0.060 A 
ATOM     32  C   UNL A   1      34.801  31.001  28.705  1.00  0.00     0.016 A 
ATOM     33  C   UNL A   1      36.040  33.021  28.215  1.00  0.00     0.016 A 
ATOM     34  C   UNL A   1      35.967  30.416  29.222  1.00  0.00     0.010 A 
ATOM     35  C   UNL A   1      37.198  32.442  28.756  1.00  0.00     0.010 A 
ATOM     36  C   UNL A   1      37.172  31.140  29.277  1.00  0.00    -0.014 A 
BRANCH  36  37
ATOM     37  C   UNL A   1      38.335  30.582  30.029  1.00  0.00     0.031 A 
ATOM     38  C   UNL A   1      38.447  30.867  31.496  1.00  0.00     0.074 A 
ATOM     39  C   UNL A   1      39.328  29.893  29.434  1.00  0.00     0.049 A 
ATOM     40  N   UNL A   1      39.364  30.480  32.343  1.00  0.00    -0.248 NA
ATOM     41  C   UNL A   1      37.443  31.781  32.056  1.00  0.00     0.031 C 
ATOM     42  C   UNL A   1      39.473  29.738  27.998  1.00  0.00     0.029 A 
ATOM     43  N   UNL A   1      40.387  29.176  29.954  1.00  0.00    -0.354 N 
ATOM     44  C   UNL A   1      39.106  31.175  33.516  1.00  0.00     0.074 A 
ATOM     45  C   UNL A   1      37.918  31.970  33.278  1.00  0.00     0.031 C 
ATOM     46  C   UNL A   1      40.477  28.877  27.757  1.00  0.00     0.029 A 
ATOM     47  C   UNL A   1      41.047  28.407  29.012  1.00  0.00     0.049 A 
ATOM     48  H   UNL A   1      40.646  29.207  30.904  1.00  0.00     0.167 HD
ATOM     49  C   UNL A   1      39.833  31.192  34.660  1.00  0.00     0.034 A 
ATOM     50  C   UNL A   1      41.964  27.421  29.159  1.00  0.00     0.034 A 
ATOM     51  C   UNL A   1      41.040  30.428  34.864  1.00  0.00     0.049 A 
ATOM     52  C   UNL A   1      42.619  27.281  30.516  1.00  0.00     0.074 A 
ATOM     53  C   UNL A   1      41.859  30.394  35.981  1.00  0.00     0.029 A 
ATOM     54  N   UNL A   1      41.612  29.572  33.931  1.00  0.00    -0.354 N 
ATOM     55  N   UNL A   1      42.355  27.929  31.626  1.00  0.00    -0.248 NA
ATOM     56  C   UNL A   1      43.754  26.351  30.621  1.00  0.00     0.031 C 
ATOM     57  C   UNL A   1      42.954  29.568  35.701  1.00  0.00     0.029 A 
ATOM     58  C   UNL A   1      42.775  29.013  34.445  1.00  0.00     0.049 A 
ATOM     59  H   UNL A   1      41.247  29.387  33.036  1.00  0.00     0.167 HD
ATOM     60  C   UNL A   1      43.333  27.539  32.534  1.00  0.00     0.074 A 
ATOM     61  C   UNL A   1      44.127  26.520  31.881  1.00  0.00     0.031 C 
ATOM     62  C   UNL A   1      43.588  28.026  33.774  1.00  0.00     0.034 A 
BRANCH  49  63
ATOM     63  C   UNL A   1      39.383  32.154  35.730  1.00  0.00     0.023 A 
ATOM     64  C   UNL A   1      39.892  33.461  35.808  1.00  0.00     0.031 A 
ATOM     65  C   UNL A   1      38.491  31.731  36.731  1.00  0.00     0.131 A 
ATOM     66  C   UNL A   1      39.578  34.265  36.913  1.00  0.00     0.055 A 
ATOM     67  C   UNL A   1      38.105  32.573  37.776  1.00  0.00     0.041 A 
ATOM     68  F   UNL A   1      37.997  30.483  36.728  1.00  0.00    -0.206 F 
ATOM     69  C   UNL A   1      38.665  33.843  37.881  1.00  0.00     0.022 A 
BRANCH  66  70
ATOM     70  S   UNL A   1      40.517  35.796  37.154  1.00  0.00     0.124 S 
ATOM     71  O   UNL A   1      39.815  36.714  36.258  1.00  0.00    -0.237 OA
ATOM     72  O   UNL A   1      40.353  36.049  38.580  1.00  0.00    -0.237 OA
ATOM     73  O   UNL A   1      41.870  35.439  36.733  1.00  0.00    -0.744 OA
ENDBRANCH  66  70
ENDBRANCH  49  63
BRANCH  50  74
ATOM     74  C   UNL A   1      42.366  26.497  28.039  1.00  0.00     0.023 A 
ATOM     75  C   UNL A   1      41.783  25.215  27.921  1.00  0.00     0.031 A 
ATOM     76  C   UNL A   1      43.371  26.822  27.113  1.00  0.00     0.131 A 
ATOM     77  C   UNL A   1      42.232  24.311  26.938  1.00  0.00     0.055 A 
ATOM     78  C   UNL A   1      43.738  25.961  26.074  1.00  0.00     0.041 A 
ATOM     79  F   UNL A   1      44.030  27.988  27.203  1.00  0.00    -0.206 F 
ATOM     80  C   UNL A   1      43.177  24.693  25.988  1.00  0.00     0.022 A 
BRANCH  77  81
ATOM     81  S   UNL A   1      41.684  22.578  27.009  1.00  0.00     0.124 S 
ATOM     82  O   UNL A   1      42.821  21.935  27.658  1.00  0.00    -0.237 OA
ATOM     83  O   UNL A   1      40.462  22.676  27.800  1.00  0.00    -0.237 OA
ATOM     84  O   UNL A   1      41.488  22.224  25.604  1.00  0.00    -0.744 OA
ENDBRANCH  77  81
ENDBRANCH  50  74
BRANCH  62  85
ATOM     85  C   UNL A   1      44.795  27.470  34.493  1.00  0.00     0.023 A 
ATOM     86  C   UNL A   1      44.690  26.376  35.373  1.00  0.00     0.031 A 
ATOM     87  C   UNL A   1      46.062  28.049  34.308  1.00  0.00     0.131 A 
ATOM     88  C   UNL A   1      45.819  25.934  36.080  1.00  0.00     0.055 A 
ATOM     89  C   UNL A   1      47.194  27.564  34.966  1.00  0.00     0.041 A 
ATOM     90  F   UNL A   1      46.221  29.097  33.485  1.00  0.00    -0.206 F 
ATOM     91  C   UNL A   1      47.074  26.510  35.868  1.00  0.00     0.022 A 
BRANCH  88  92
ATOM     92  S   UNL A   1      45.611  24.662  37.357  1.00  0.00     0.124 S 
ATOM     93  O   UNL A   1      44.603  25.264  38.225  1.00  0.00    -0.237 OA
ATOM     94  O   UNL A   1      45.176  23.506  36.580  1.00  0.00    -0.237 OA
ATOM     95  O   UNL A   1      46.944  24.545  37.945  1.00  0.00    -0.744 OA
ENDBRANCH  88  92
ENDBRANCH  62  85
ENDBRANCH  36  37
ENDBRANCH  29  31
ENDBRANCH  28  29
ENDBRANCH  27  28
ENDBRANCH  26  27
ENDBRANCH  25  26
ENDBRANCH  24  25
ENDBRANCH   1  24
TORSDOF 24
ENDMDL
MODEL 3
REMARK VINA RESULT:      -9.7      5.514     10.950
REMARK SMILES C[C@@H](C(=O)OCCOCCOCCOC(=O)c1ccc(-c2c3nc(c(-c4cc(S(=O)(=O)[O-])ccc4F)c4ccc([nH]4)c(-c4cc(S(=O)(=O)[O-])ccc4F)c4nc(c(-c5cc(S(=O)(=O)[O-])ccc5F)c5ccc2[nH]5)C=C4)C=C3)cc1)c1ccc(C[C@H]2CCC[C@H]2O)cc1
REMARK SMILES IDX 9 1 8 2 7 3 6 4 5 5 3 6 4 7 2 8 1 9 80 10 81 11 92 12 82 13
REMARK SMILES IDX 91 14 83 15 84 16 85 17 86 18 89 19 87 20 88 21 90 22 10 24
REMARK SMILES IDX 11 25 12 26 13 27 14 28 15 29 16 30 17 31 18 32 79 33 19 34
REMARK SMILES IDX 78 35 20 36 21 37 22 38 72 39 23 40 77 41 71 42 73 43 24 44
REMARK SMILES IDX 76 45 70 46 69 47 25 49 57 50 37 51 56 52 38 53 41 54 55 55
REMARK SMILES IDX 74 56 39 57 40 58 54 60 75 61 42 62 26 63 27 64 35 65 28 66
REMARK SMILES IDX 34 67 36 68 33 69 29 70 30 71 31 72 32 73 58 74 59 75 67 76
REMARK SMILES IDX 60 77 66 78 68 79 65 80 61 81 62 82 63 83 64 84 43 85 44 86
REMARK SMILES IDX 52 87 45 88 51 89 53 90 50 91 46 92 47 93 48 94 49 95
REMARK H PARENT 90 23 73 48 41 59
REMARK Flexibility Score: inf
ROOT
ATOM      1  C   UNL A   1      40.662  19.917  26.726  1.00  0.00     0.188 C 
ENDROOT
BRANCH   1   2
ATOM      2  O   UNL A   1      40.710  20.898  27.758  1.00  0.00    -0.376 OA
BRANCH   2   3
ATOM      3  C   UNL A   1      40.843  22.269  27.401  1.00  0.00     0.202 C 
BRANCH   3   4
ATOM      4  C   UNL A   1      39.854  22.874  26.391  1.00  0.00     0.261 C 
BRANCH   4   5
ATOM      5  O   UNL A   1      38.464  22.522  26.582  1.00  0.00    -0.463 OA
BRANCH   5   6
ATOM      6  C   UNL A   1      37.783  22.122  25.471  1.00  0.00     0.313 C 
ATOM      7  O   UNL A   1      38.074  21.116  24.829  1.00  0.00    -0.252 OA
BRANCH   6   8
ATOM      8  C   UNL A   1      36.639  23.068  25.040  1.00  0.00     0.126 C 
ATOM      9  C   UNL A   1      36.459  24.397  25.778  1.00  0.00     0.025 C 
BRANCH   8  10
ATOM     10  C   UNL A   1      35.327  22.299  24.928  1.00  0.00    -0.034 A 
ATOM     11  C   UNL A   1      34.999  21.266  25.818  1.00  0.00     0.005 A 
ATOM     12  C   UNL A   1      34.481  22.529  23.834  1.00  0.00     0.005 A 
ATOM     13  C   UNL A   1      33.927  20.417  25.552  1.00  0.00     0.004 A 
ATOM     14  C   UNL A   1      33.423  21.664  23.558  1.00  0.00     0.004 A 
ATOM     15  C   UNL A   1      33.195  20.554  24.372  1.00  0.00    -0.048 A 
BRANCH  15  16
ATOM     16  C   UNL A   1      32.301  19.433  23.910  1.00  0.00     0.041 C 
BRANCH  16  17
ATOM     17  C   UNL A   1      32.898  18.022  24.053  1.00  0.00     0.022 C 
ATOM     18  C   UNL A   1      34.427  17.893  24.101  1.00  0.00     0.007 C 
ATOM     19  C   UNL A   1      32.442  17.161  25.237  1.00  0.00     0.117 C 
ATOM     20  C   UNL A   1      34.707  16.556  24.808  1.00  0.00     0.003 C 
ATOM     21  C   UNL A   1      33.339  15.942  25.090  1.00  0.00     0.032 C 
BRANCH  19  22
ATOM     22  O   UNL A   1      32.652  17.676  26.545  1.00  0.00    -0.393 OA
ATOM     23  H   UNL A   1      31.900  17.440  27.111  1.00  0.00     0.210 HD
ENDBRANCH  19  22
ENDBRANCH  16  17
ENDBRANCH  15  16
ENDBRANCH   8  10
ENDBRANCH   6   8
ENDBRANCH   5   6
ENDBRANCH   4   5
ENDBRANCH   3   4
ENDBRANCH   2   3
ENDBRANCH   1   2
BRANCH   1  24
ATOM     24  C   UNL A   1      41.868  19.809  25.776  1.00  0.00     0.188 C 
BRANCH  24  25
ATOM     25  O   UNL A   1      43.007  19.215  26.360  1.00  0.00    -0.376 OA
BRANCH  25  26
ATOM     26  C   UNL A   1      43.815  18.390  25.548  1.00  0.00     0.202 C 
BRANCH  26  27
ATOM     27  C   UNL A   1      45.339  18.574  25.606  1.00  0.00     0.261 C 
BRANCH  27  28
ATOM     28  O   UNL A   1      45.957  19.286  24.520  1.00  0.00    -0.460 OA
BRANCH  28  29
ATOM     29  C   UNL A   1      45.175  20.113  23.788  1.00  0.00     0.338 C 
ATOM     30  O   UNL A   1      44.488  19.794  22.830  1.00  0.00    -0.246 OA
BRANCH  29  31
ATOM     31  C   UNL A   1      45.139  21.435  24.464  1.00  0.00     0.060 A 
ATOM     32  C   UNL A   1      44.555  22.526  23.811  1.00  0.00     0.016 A 
ATOM     33  C   UNL A   1      45.684  21.602  25.741  1.00  0.00     0.016 A 
ATOM     34  C   UNL A   1      44.531  23.784  24.432  1.00  0.00     0.010 A 
ATOM     35  C   UNL A   1      45.682  22.867  26.349  1.00  0.00     0.010 A 
ATOM     36  C   UNL A   1      45.117  23.973  25.697  1.00  0.00    -0.014 A 
BRANCH  36  37
ATOM     37  C   UNL A   1      45.277  25.356  26.237  1.00  0.00     0.031 A 
ATOM     38  C   UNL A   1      46.578  26.068  26.018  1.00  0.00     0.074 A 
ATOM     39  C   UNL A   1      44.331  25.967  26.975  1.00  0.00     0.049 A 
ATOM     40  N   UNL A   1      46.932  27.269  26.392  1.00  0.00    -0.248 NA
ATOM     41  C   UNL A   1      47.642  25.288  25.376  1.00  0.00     0.031 C 
ATOM     42  C   UNL A   1      43.124  25.320  27.460  1.00  0.00     0.029 A 
ATOM     43  N   UNL A   1      44.215  27.266  27.428  1.00  0.00    -0.354 N 
ATOM     44  C   UNL A   1      48.289  27.362  26.115  1.00  0.00     0.074 A 
ATOM     45  C   UNL A   1      48.675  26.107  25.500  1.00  0.00     0.031 C 
ATOM     46  C   UNL A   1      42.338  26.249  28.031  1.00  0.00     0.029 A 
ATOM     47  C   UNL A   1      42.969  27.559  27.950  1.00  0.00     0.049 A 
ATOM     48  H   UNL A   1      44.949  27.921  27.382  1.00  0.00     0.167 HD
ATOM     49  C   UNL A   1      49.140  28.376  26.407  1.00  0.00     0.034 A 
ATOM     50  C   UNL A   1      42.403  28.745  28.280  1.00  0.00     0.034 A 
ATOM     51  C   UNL A   1      48.745  29.601  27.061  1.00  0.00     0.049 A 
ATOM     52  C   UNL A   1      43.319  29.945  28.380  1.00  0.00     0.074 A 
ATOM     53  C   UNL A   1      49.537  30.679  27.418  1.00  0.00     0.029 A 
ATOM     54  N   UNL A   1      47.453  29.910  27.468  1.00  0.00    -0.354 N 
ATOM     55  N   UNL A   1      44.598  30.028  28.097  1.00  0.00    -0.248 NA
ATOM     56  C   UNL A   1      42.746  31.183  28.932  1.00  0.00     0.031 C 
ATOM     57  C   UNL A   1      48.739  31.610  28.093  1.00  0.00     0.029 A 
ATOM     58  C   UNL A   1      47.430  31.157  28.078  1.00  0.00     0.049 A 
ATOM     59  H   UNL A   1      46.668  29.330  27.342  1.00  0.00     0.167 HD
ATOM     60  C   UNL A   1      44.994  31.297  28.503  1.00  0.00     0.074 A 
ATOM     61  C   UNL A   1      43.801  31.985  28.949  1.00  0.00     0.031 C 
ATOM     62  C   UNL A   1      46.243  31.824  28.559  1.00  0.00     0.034 A 
BRANCH  49  63
ATOM     63  C   UNL A   1      50.598  28.140  26.108  1.00  0.00     0.023 A 
ATOM     64  C   UNL A   1      51.157  28.460  24.860  1.00  0.00     0.031 A 
ATOM     65  C   UNL A   1      51.422  27.514  27.060  1.00  0.00     0.131 A 
ATOM     66  C   UNL A   1      52.471  28.069  24.565  1.00  0.00     0.055 A 
ATOM     67  C   UNL A   1      52.760  27.217  26.794  1.00  0.00     0.041 A 
ATOM     68  F   UNL A   1      50.935  27.155  28.259  1.00  0.00    -0.206 F 
ATOM     69  C   UNL A   1      53.286  27.478  25.532  1.00  0.00     0.022 A 
BRANCH  66  70
ATOM     70  S   UNL A   1      53.035  28.187  22.847  1.00  0.00     0.124 S 
ATOM     71  O   UNL A   1      52.737  29.584  22.536  1.00  0.00    -0.237 OA
ATOM     72  O   UNL A   1      54.448  27.845  22.953  1.00  0.00    -0.237 OA
ATOM     73  O   UNL A   1      52.206  27.209  22.146  1.00  0.00    -0.744 OA
ENDBRANCH  66  70
ENDBRANCH  49  63
BRANCH  50  74
ATOM     74  C   UNL A   1      40.933  28.905  28.568  1.00  0.00     0.023 A 
ATOM     75  C   UNL A   1      40.453  28.870  29.896  1.00  0.00     0.031 A 
ATOM     76  C   UNL A   1      39.971  29.023  27.551  1.00  0.00     0.131 A 
ATOM     77  C   UNL A   1      39.070  28.915  30.161  1.00  0.00     0.055 A 
ATOM     78  C   UNL A   1      38.608  29.173  27.825  1.00  0.00     0.041 A 
ATOM     79  F   UNL A   1      40.334  28.986  26.260  1.00  0.00    -0.206 F 
ATOM     80  C   UNL A   1      38.148  29.107  29.134  1.00  0.00     0.022 A 
BRANCH  77  81
ATOM     81  S   UNL A   1      38.476  28.559  31.844  1.00  0.00     0.124 S 
ATOM     82  O   UNL A   1      37.098  29.034  31.777  1.00  0.00    -0.237 OA
ATOM     83  O   UNL A   1      38.656  27.114  31.932  1.00  0.00    -0.237 OA
ATOM     84  O   UNL A   1      39.365  29.350  32.693  1.00  0.00    -0.744 OA
ENDBRANCH  77  81
ENDBRANCH  50  74
BRANCH  62  85
ATOM     85  C   UNL A   1      46.376  33.208  29.148  1.00  0.00     0.023 A 
ATOM     86  C   UNL A   1      46.189  34.364  28.365  1.00  0.00     0.031 A 
ATOM     87  C   UNL A   1      46.709  33.376  30.503  1.00  0.00     0.131 A 
ATOM     88  C   UNL A   1      46.393  35.633  28.928  1.00  0.00     0.055 A 
ATOM     89  C   UNL A   1      46.850  34.643  31.073  1.00  0.00     0.041 A 
ATOM     90  F   UNL A   1      46.905  32.311  31.295  1.00  0.00    -0.206 F 
ATOM     91  C   UNL A   1      46.705  35.780  30.282  1.00  0.00     0.022 A 
BRANCH  88  92
ATOM     92  S   UNL A   1      46.347  37.089  27.847  1.00  0.00     0.124 S 
ATOM     93  O   UNL A   1      46.092  36.490  26.540  1.00  0.00    -0.237 OA
ATOM     94  O   UNL A   1      45.253  37.868  28.416  1.00  0.00    -0.237 OA
ATOM     95  O   UNL A   1      47.675  37.679  28.009  1.00  0.00    -0.744 OA
ENDBRANCH  88  92
ENDBRANCH  62  85
ENDBRANCH  36  37
ENDBRANCH  29  31
ENDBRANCH  28  29
ENDBRANCH  27  28
ENDBRANCH  26  27
ENDBRANCH  25  26
ENDBRANCH  24  25
ENDBRANCH   1  24
TORSDOF 24
ENDMDL
