MODEL 1
REMARK VINA RESULT:      -9.3      0.000      0.000
REMARK SMILES NC(=O)[C@@H]1CCC[N@@H+]1[C@@H](C(=O)OCCOCCOCCOC(=O)c1ccc(-c2c3nc(c(-c4cc(S(=O)(=O)[O-])ccc4F)c4ccc([nH]4)c(-c4cc(S(=O)(=O)[O-])ccc4F)c4nc(c(-c5cc(S(=O)(=O)[O-])ccc5F)c5ccc2[nH]5)C=C4)C=C3)cc1)c1c[nH]c2cc(OCc3ccccc3)ccc12
REMARK SMILES IDX 16 1 15 2 14 3 13 4 12 5 10 6 11 7 9 8 8 9 4 10 5 11 6 12
REMARK SMILES IDX 7 13 2 15 1 16 3 19 87 20 88 21 103 22 89 23 90 24 102 25
REMARK SMILES IDX 91 27 101 28 92 29 93 30 94 31 95 32 96 33 100 34 97 35
REMARK SMILES IDX 99 36 98 37 17 38 18 39 19 40 20 41 21 42 22 43 23 44 24 45
REMARK SMILES IDX 25 46 86 47 26 48 85 49 27 50 28 51 29 52 79 53 30 54 84 55
REMARK SMILES IDX 78 56 80 57 31 58 83 59 77 60 76 61 32 63 64 64 44 65 63 66
REMARK SMILES IDX 45 67 48 68 62 69 81 70 46 71 47 72 61 74 82 75 49 76 33 77
REMARK SMILES IDX 34 78 42 79 35 80 41 81 43 82 40 83 36 84 37 85 38 86 39 87
REMARK SMILES IDX 65 88 66 89 74 90 67 91 73 92 75 93 72 94 68 95 69 96 70 97
REMARK SMILES IDX 71 98 50 99 51 100 59 101 52 102 58 103 60 104 57 105 53 106
REMARK SMILES IDX 54 107 55 108 56 109
REMARK H PARENT 8 14 1 17 1 18 89 26 80 62 48 73
REMARK Flexibility Score: inf
ROOT
ATOM      1  C   UNL A   1      40.192  20.282  26.250  1.00  0.00     0.188 C 
ENDROOT
BRANCH   1   2
ATOM      2  O   UNL A   1      39.353  19.498  25.415  1.00  0.00    -0.376 OA
BRANCH   2   3
ATOM      3  C   UNL A   1      38.267  20.178  24.810  1.00  0.00     0.202 C 
BRANCH   3   4
ATOM      4  C   UNL A   1      36.890  19.497  24.942  1.00  0.00     0.261 C 
BRANCH   4   5
ATOM      5  O   UNL A   1      35.764  20.294  24.479  1.00  0.00    -0.459 OA
BRANCH   5   6
ATOM      6  C   UNL A   1      35.199  21.165  25.363  1.00  0.00     0.370 C 
ATOM      7  O   UNL A   1      35.681  21.363  26.479  1.00  0.00    -0.245 OA
BRANCH   6   8
ATOM      8  C   UNL A   1      33.969  21.967  24.839  1.00  0.00     0.329 C 
BRANCH   8   9
ATOM      9  N   UNL A   1      32.583  21.365  24.606  1.00  0.00    -0.309 N 
ATOM     10  C   UNL A   1      32.347  19.924  24.412  1.00  0.00     0.275 C 
ATOM     11  C   UNL A   1      32.405  19.695  22.906  1.00  0.00     0.081 C 
ATOM     12  C   UNL A   1      31.896  21.006  22.346  1.00  0.00     0.068 C 
ATOM     13  C   UNL A   1      31.659  21.847  23.575  1.00  0.00     0.264 C 
ATOM     14  H   UNL A   1      32.422  21.719  25.549  1.00  0.00     0.349 HD
BRANCH  10  15
ATOM     15  C   UNL A   1      32.931  18.861  25.306  1.00  0.00     0.275 C 
ATOM     16  N   UNL A   1      32.955  19.264  26.626  1.00  0.00    -0.365 N 
ATOM     17  H   UNL A   1      33.313  18.664  27.318  1.00  0.00     0.159 HD
ATOM     18  H   UNL A   1      32.613  20.153  26.874  1.00  0.00     0.159 HD
ATOM     19  O   UNL A   1      33.411  17.790  24.970  1.00  0.00    -0.268 OA
ENDBRANCH  10  15
ENDBRANCH   8   9
BRANCH   8  20
ATOM     20  C   UNL A   1      34.330  23.356  24.097  1.00  0.00     0.046 A 
ATOM     21  C   UNL A   1      35.307  24.156  24.690  1.00  0.00     0.094 A 
ATOM     22  C   UNL A   1      33.544  24.452  23.543  1.00  0.00     0.009 A 
ATOM     23  N   UNL A   1      34.663  24.996  25.592  1.00  0.00    -0.361 N 
ATOM     24  C   UNL A   1      33.470  25.464  24.965  1.00  0.00     0.050 A 
ATOM     25  C   UNL A   1      32.820  25.085  21.997  1.00  0.00     0.015 A 
ATOM     26  H   UNL A   1      34.974  25.227  26.497  1.00  0.00     0.166 HD
ATOM     27  C   UNL A   1      32.542  27.053  24.988  1.00  0.00     0.073 A 
ATOM     28  C   UNL A   1      31.949  26.743  21.947  1.00  0.00     0.047 A 
ATOM     29  C   UNL A   1      31.823  27.692  23.461  1.00  0.00     0.121 A 
BRANCH  29  30
ATOM     30  O   UNL A   1      31.214  28.899  23.595  1.00  0.00    -0.489 OA
BRANCH  30  31
ATOM     31  C   UNL A   1      29.794  28.898  23.515  1.00  0.00     0.265 C 
BRANCH  31  32
ATOM     32  C   UNL A   1      29.276  30.173  22.897  1.00  0.00    -0.011 A 
ATOM     33  C   UNL A   1      29.098  31.324  23.681  1.00  0.00     0.007 A 
ATOM     34  C   UNL A   1      28.896  30.208  21.547  1.00  0.00     0.007 A 
ATOM     35  C   UNL A   1      28.537  32.476  23.133  1.00  0.00     0.000 A 
ATOM     36  C   UNL A   1      28.333  31.364  21.001  1.00  0.00     0.000 A 
ATOM     37  C   UNL A   1      28.139  32.489  21.798  1.00  0.00     0.000 A 
ENDBRANCH  31  32
ENDBRANCH  30  31
ENDBRANCH  29  30
ENDBRANCH   8  20
ENDBRANCH   6   8
ENDBRANCH   5   6
ENDBRANCH   4   5
ENDBRANCH   3   4
ENDBRANCH   2   3
ENDBRANCH   1   2
BRANCH   1  38
ATOM     38  C   UNL A   1      39.801  21.743  26.480  1.00  0.00     0.188 C 
BRANCH  38  39
ATOM     39  O   UNL A   1      40.902  22.627  26.329  1.00  0.00    -0.376 OA
BRANCH  39  40
ATOM     40  C   UNL A   1      41.073  23.413  27.508  1.00  0.00     0.202 C 
BRANCH  40  41
ATOM     41  C   UNL A   1      42.451  23.178  28.106  1.00  0.00     0.261 C 
BRANCH  41  42
ATOM     42  O   UNL A   1      43.274  22.231  27.390  1.00  0.00    -0.460 OA
BRANCH  42  43
ATOM     43  C   UNL A   1      44.291  22.529  26.276  1.00  0.00     0.338 C 
ATOM     44  O   UNL A   1      44.140  21.487  25.572  1.00  0.00    -0.246 OA
BRANCH  43  45
ATOM     45  C   UNL A   1      45.543  24.271  26.203  1.00  0.00     0.060 A 
ATOM     46  C   UNL A   1      46.012  25.108  25.001  1.00  0.00     0.016 A 
ATOM     47  C   UNL A   1      46.240  25.029  27.336  1.00  0.00     0.016 A 
ATOM     48  C   UNL A   1      46.478  26.408  24.957  1.00  0.00     0.010 A 
ATOM     49  C   UNL A   1      46.916  26.223  27.305  1.00  0.00     0.010 A 
ATOM     50  C   UNL A   1      46.924  26.926  26.129  1.00  0.00    -0.014 A 
BRANCH  50  51
ATOM     51  C   UNL A   1      47.683  28.137  26.134  1.00  0.00     0.031 A 
ATOM     52  C   UNL A   1      49.138  27.945  25.960  1.00  0.00     0.074 A 
ATOM     53  C   UNL A   1      46.988  29.203  26.538  1.00  0.00     0.049 A 
ATOM     54  N   UNL A   1      50.078  28.831  26.009  1.00  0.00    -0.248 NA
ATOM     55  C   UNL A   1      49.609  26.566  25.702  1.00  0.00     0.031 C 
ATOM     56  C   UNL A   1      45.531  29.236  26.773  1.00  0.00     0.029 A 
ATOM     57  N   UNL A   1      47.420  30.417  26.929  1.00  0.00    -0.354 N 
ATOM     58  C   UNL A   1      51.245  28.125  25.770  1.00  0.00     0.074 A 
ATOM     59  C   UNL A   1      50.907  26.746  25.565  1.00  0.00     0.031 C 
ATOM     60  C   UNL A   1      45.209  30.410  27.333  1.00  0.00     0.029 A 
ATOM     61  C   UNL A   1      46.424  31.196  27.455  1.00  0.00     0.049 A 
ATOM     62  H   UNL A   1      48.355  30.714  26.844  1.00  0.00     0.167 HD
ATOM     63  C   UNL A   1      52.492  28.633  25.768  1.00  0.00     0.034 A 
ATOM     64  C   UNL A   1      46.547  32.429  27.959  1.00  0.00     0.034 A 
ATOM     65  C   UNL A   1      52.693  30.010  26.125  1.00  0.00     0.049 A 
ATOM     66  C   UNL A   1      47.934  33.002  27.864  1.00  0.00     0.074 A 
ATOM     67  C   UNL A   1      53.852  30.749  26.157  1.00  0.00     0.029 A 
ATOM     68  N   UNL A   1      51.658  30.852  26.552  1.00  0.00    -0.354 N 
ATOM     69  N   UNL A   1      49.053  32.388  27.521  1.00  0.00    -0.248 NA
ATOM     70  C   UNL A   1      48.079  34.422  28.153  1.00  0.00     0.031 C 
ATOM     71  C   UNL A   1      53.524  32.018  26.652  1.00  0.00     0.029 A 
ATOM     72  C   UNL A   1      52.149  32.101  26.855  1.00  0.00     0.049 A 
ATOM     73  H   UNL A   1      50.712  30.587  26.625  1.00  0.00     0.167 HD
ATOM     74  C   UNL A   1      50.040  33.358  27.516  1.00  0.00     0.074 A 
ATOM     75  C   UNL A   1      49.364  34.600  27.875  1.00  0.00     0.031 C 
ATOM     76  C   UNL A   1      51.371  33.259  27.252  1.00  0.00     0.034 A 
BRANCH  63  77
ATOM     77  C   UNL A   1      53.621  27.678  25.474  1.00  0.00     0.023 A 
ATOM     78  C   UNL A   1      54.143  26.828  26.471  1.00  0.00     0.031 A 
ATOM     79  C   UNL A   1      54.269  27.695  24.229  1.00  0.00     0.131 A 
ATOM     80  C   UNL A   1      55.320  26.100  26.235  1.00  0.00     0.055 A 
ATOM     81  C   UNL A   1      55.384  26.894  23.969  1.00  0.00     0.041 A 
ATOM     82  F   UNL A   1      53.864  28.528  23.258  1.00  0.00    -0.206 F 
ATOM     83  C   UNL A   1      55.924  26.100  24.978  1.00  0.00     0.022 A 
BRANCH  80  84
ATOM     84  S   UNL A   1      56.139  25.286  27.636  1.00  0.00     0.124 S 
ATOM     85  O   UNL A   1      55.862  23.877  27.363  1.00  0.00    -0.237 OA
ATOM     86  O   UNL A   1      57.527  25.705  27.482  1.00  0.00    -0.237 OA
ATOM     87  O   UNL A   1      55.448  25.832  28.802  1.00  0.00    -0.744 OA
ENDBRANCH  80  84
ENDBRANCH  63  77
BRANCH  64  88
ATOM     88  C   UNL A   1      45.347  33.171  28.407  1.00  0.00     0.023 A 
ATOM     89  C   UNL A   1      44.608  33.932  27.492  1.00  0.00     0.031 A 
ATOM     90  C   UNL A   1      44.867  33.076  29.726  1.00  0.00     0.131 A 
ATOM     91  C   UNL A   1      43.464  34.622  27.916  1.00  0.00     0.055 A 
ATOM     92  C   UNL A   1      43.698  33.724  30.133  1.00  0.00     0.041 A 
ATOM     93  F   UNL A   1      45.511  32.321  30.631  1.00  0.00    -0.206 F 
ATOM     94  C   UNL A   1      42.998  34.516  29.228  1.00  0.00     0.022 A 
BRANCH  91  95
ATOM     95  S   UNL A   1      42.652  35.735  26.739  1.00  0.00     0.124 S 
ATOM     96  O   UNL A   1      42.745  34.975  25.497  1.00  0.00    -0.237 OA
ATOM     97  O   UNL A   1      41.317  35.862  27.314  1.00  0.00    -0.237 OA
ATOM     98  O   UNL A   1      43.473  36.943  26.794  1.00  0.00    -0.744 OA
ENDBRANCH  91  95
ENDBRANCH  64  88
BRANCH  76  99
ATOM     99  C   UNL A   1      52.134  34.540  27.374  1.00  0.00     0.023 A 
ATOM    100  C   UNL A   1      52.689  34.921  28.603  1.00  0.00     0.031 A 
ATOM    101  C   UNL A   1      52.310  35.372  26.258  1.00  0.00     0.131 A 
ATOM    102  C   UNL A   1      53.331  36.154  28.708  1.00  0.00     0.055 A 
ATOM    103  C   UNL A   1      53.033  36.556  26.349  1.00  0.00     0.041 A 
ATOM    104  F   UNL A   1      51.794  35.036  25.064  1.00  0.00    -0.206 F 
ATOM    105  C   UNL A   1      53.531  36.962  27.585  1.00  0.00     0.022 A 
BRANCH 102 106
ATOM    106  S   UNL A   1      53.777  36.735  30.361  1.00  0.00     0.124 S 
ATOM    107  O   UNL A   1      52.467  36.909  30.981  1.00  0.00    -0.237 OA
ATOM    108  O   UNL A   1      54.583  35.632  30.874  1.00  0.00    -0.237 OA
ATOM    109  O   UNL A   1      54.510  37.972  30.098  1.00  0.00    -0.744 OA
ENDBRANCH 102 106
ENDBRANCH  76  99
ENDBRANCH  50  51
ENDBRANCH  43  45
ENDBRANCH  42  43
ENDBRANCH  41  42
ENDBRANCH  40  41
ENDBRANCH  39  40
ENDBRANCH  38  39
ENDBRANCH   1  38
TORSDOF 26
ENDMDL
MODEL 2
REMARK VINA RESULT:      -9.2      7.138     11.607
REMARK SMILES NC(=O)[C@@H]1CCC[N@@H+]1[C@@H](C(=O)OCCOCCOCCOC(=O)c1ccc(-c2c3nc(c(-c4cc(S(=O)(=O)[O-])ccc4F)c4ccc([nH]4)c(-c4cc(S(=O)(=O)[O-])ccc4F)c4nc(c(-c5cc(S(=O)(=O)[O-])ccc5F)c5ccc2[nH]5)C=C4)C=C3)cc1)c1c[nH]c2cc(OCc3ccccc3)ccc12
REMARK SMILES IDX 16 1 15 2 14 3 13 4 12 5 10 6 11 7 9 8 8 9 4 10 5 11 6 12
REMARK SMILES IDX 7 13 2 15 1 16 3 19 87 20 88 21 103 22 89 23 90 24 102 25
REMARK SMILES IDX 91 27 101 28 92 29 93 30 94 31 95 32 96 33 100 34 97 35
REMARK SMILES IDX 99 36 98 37 17 38 18 39 19 40 20 41 21 42 22 43 23 44 24 45
REMARK SMILES IDX 25 46 86 47 26 48 85 49 27 50 28 51 29 52 79 53 30 54 84 55
REMARK SMILES IDX 78 56 80 57 31 58 83 59 77 60 76 61 32 63 64 64 44 65 63 66
REMARK SMILES IDX 45 67 48 68 62 69 81 70 46 71 47 72 61 74 82 75 49 76 33 77
REMARK SMILES IDX 34 78 42 79 35 80 41 81 43 82 40 83 36 84 37 85 38 86 39 87
REMARK SMILES IDX 65 88 66 89 74 90 67 91 73 92 75 93 72 94 68 95 69 96 70 97
REMARK SMILES IDX 71 98 50 99 51 100 59 101 52 102 58 103 60 104 57 105 53 106
REMARK SMILES IDX 54 107 55 108 56 109
REMARK H PARENT 8 14 1 17 1 18 89 26 80 62 48 73
REMARK Flexibility Score: inf
ROOT
ATOM      1  C   UNL A   1      41.063  20.827  26.613  1.00  0.00     0.188 C 
ENDROOT
BRANCH   1   2
ATOM      2  O   UNL A   1      39.759  20.520  26.145  1.00  0.00    -0.376 OA
BRANCH   2   3
ATOM      3  C   UNL A   1      38.957  21.624  25.765  1.00  0.00     0.202 C 
BRANCH   3   4
ATOM      4  C   UNL A   1      37.453  21.335  25.590  1.00  0.00     0.261 C 
BRANCH   4   5
ATOM      5  O   UNL A   1      36.965  21.430  24.222  1.00  0.00    -0.459 OA
BRANCH   5   6
ATOM      6  C   UNL A   1      36.164  22.489  23.909  1.00  0.00     0.370 C 
ATOM      7  O   UNL A   1      36.483  23.315  23.054  1.00  0.00    -0.245 OA
BRANCH   6   8
ATOM      8  C   UNL A   1      34.779  22.530  24.623  1.00  0.00     0.329 C 
BRANCH   8   9
ATOM      9  N   UNL A   1      34.442  21.755  25.896  1.00  0.00    -0.309 N 
ATOM     10  C   UNL A   1      33.401  20.714  25.961  1.00  0.00     0.275 C 
ATOM     11  C   UNL A   1      32.124  21.433  26.383  1.00  0.00     0.081 C 
ATOM     12  C   UNL A   1      32.643  22.563  27.245  1.00  0.00     0.068 C 
ATOM     13  C   UNL A   1      34.141  22.402  27.177  1.00  0.00     0.264 C 
ATOM     14  H   UNL A   1      35.399  21.421  25.781  1.00  0.00     0.349 HD
BRANCH  10  15
ATOM     15  C   UNL A   1      33.280  19.600  24.954  1.00  0.00     0.275 C 
ATOM     16  N   UNL A   1      32.458  19.953  23.903  1.00  0.00    -0.365 N 
ATOM     17  H   UNL A   1      32.291  19.316  23.172  1.00  0.00     0.159 HD
ATOM     18  H   UNL A   1      32.039  20.844  23.885  1.00  0.00     0.159 HD
ATOM     19  O   UNL A   1      33.755  18.478  25.028  1.00  0.00    -0.268 OA
ENDBRANCH  10  15
ENDBRANCH   8   9
BRANCH   8  20
ATOM     20  C   UNL A   1      33.557  23.052  23.704  1.00  0.00     0.046 A 
ATOM     21  C   UNL A   1      33.826  23.265  22.351  1.00  0.00     0.094 A 
ATOM     22  C   UNL A   1      32.561  24.110  23.834  1.00  0.00     0.009 A 
ATOM     23  N   UNL A   1      34.269  24.576  22.219  1.00  0.00    -0.361 N 
ATOM     24  C   UNL A   1      33.441  25.395  23.042  1.00  0.00     0.050 A 
ATOM     25  C   UNL A   1      30.853  24.440  24.372  1.00  0.00     0.015 A 
ATOM     26  H   UNL A   1      35.018  24.883  21.658  1.00  0.00     0.166 HD
ATOM     27  C   UNL A   1      32.762  27.099  22.895  1.00  0.00     0.073 A 
ATOM     28  C   UNL A   1      30.083  26.134  24.155  1.00  0.00     0.047 A 
ATOM     29  C   UNL A   1      31.069  27.437  23.421  1.00  0.00     0.121 A 
BRANCH  29  30
ATOM     30  O   UNL A   1      30.665  28.717  23.208  1.00  0.00    -0.489 OA
BRANCH  30  31
ATOM     31  C   UNL A   1      30.608  29.555  24.356  1.00  0.00     0.265 C 
BRANCH  31  32
ATOM     32  C   UNL A   1      31.681  29.195  25.355  1.00  0.00    -0.011 A 
ATOM     33  C   UNL A   1      31.371  28.431  26.490  1.00  0.00     0.007 A 
ATOM     34  C   UNL A   1      32.989  29.680  25.201  1.00  0.00     0.007 A 
ATOM     35  C   UNL A   1      32.339  28.172  27.458  1.00  0.00     0.000 A 
ATOM     36  C   UNL A   1      33.957  29.420  26.173  1.00  0.00     0.000 A 
ATOM     37  C   UNL A   1      33.627  28.682  27.307  1.00  0.00     0.000 A 
ENDBRANCH  31  32
ENDBRANCH  30  31
ENDBRANCH  29  30
ENDBRANCH   8  20
ENDBRANCH   6   8
ENDBRANCH   5   6
ENDBRANCH   4   5
ENDBRANCH   3   4
ENDBRANCH   2   3
ENDBRANCH   1   2
BRANCH   1  38
ATOM     38  C   UNL A   1      41.718  22.111  26.101  1.00  0.00     0.188 C 
BRANCH  38  39
ATOM     39  O   UNL A   1      42.631  21.866  25.042  1.00  0.00    -0.376 OA
BRANCH  39  40
ATOM     40  C   UNL A   1      43.533  22.964  24.900  1.00  0.00     0.202 C 
BRANCH  40  41
ATOM     41  C   UNL A   1      44.292  23.196  26.196  1.00  0.00     0.261 C 
BRANCH  41  42
ATOM     42  O   UNL A   1      45.191  24.327  26.184  1.00  0.00    -0.460 OA
BRANCH  42  43
ATOM     43  C   UNL A   1      44.829  25.811  26.352  1.00  0.00     0.338 C 
ATOM     44  O   UNL A   1      44.985  26.200  25.157  1.00  0.00    -0.246 OA
BRANCH  43  45
ATOM     45  C   UNL A   1      44.304  26.734  28.218  1.00  0.00     0.060 A 
ATOM     46  C   UNL A   1      44.952  27.915  28.960  1.00  0.00     0.016 A 
ATOM     47  C   UNL A   1      43.181  26.394  29.201  1.00  0.00     0.016 A 
ATOM     48  C   UNL A   1      44.425  28.748  29.927  1.00  0.00     0.010 A 
ATOM     49  C   UNL A   1      42.756  27.075  30.315  1.00  0.00     0.010 A 
ATOM     50  C   UNL A   1      43.330  28.289  30.584  1.00  0.00    -0.014 A 
BRANCH  50  51
ATOM     51  C   UNL A   1      42.889  28.934  31.780  1.00  0.00     0.031 A 
ATOM     52  C   UNL A   1      41.834  29.947  31.573  1.00  0.00     0.074 A 
ATOM     53  C   UNL A   1      43.670  28.693  32.837  1.00  0.00     0.049 A 
ATOM     54  N   UNL A   1      41.305  30.747  32.440  1.00  0.00    -0.248 NA
ATOM     55  C   UNL A   1      41.300  30.093  30.201  1.00  0.00     0.031 C 
ATOM     56  C   UNL A   1      44.769  27.710  32.882  1.00  0.00     0.029 A 
ATOM     57  N   UNL A   1      43.734  29.326  34.024  1.00  0.00    -0.354 N 
ATOM     58  C   UNL A   1      40.366  31.474  31.728  1.00  0.00     0.074 A 
ATOM     59  C   UNL A   1      40.383  31.024  30.366  1.00  0.00     0.031 C 
ATOM     60  C   UNL A   1      45.438  27.861  34.034  1.00  0.00     0.029 A 
ATOM     61  C   UNL A   1      44.790  28.915  34.793  1.00  0.00     0.049 A 
ATOM     62  H   UNL A   1      43.088  30.012  34.309  1.00  0.00     0.167 HD
ATOM     63  C   UNL A   1      39.594  32.463  32.215  1.00  0.00     0.034 A 
ATOM     64  C   UNL A   1      45.137  29.380  35.999  1.00  0.00     0.034 A 
ATOM     65  C   UNL A   1      39.782  32.903  33.570  1.00  0.00     0.049 A 
ATOM     66  C   UNL A   1      44.207  30.423  36.553  1.00  0.00     0.074 A 
ATOM     67  C   UNL A   1      39.098  33.855  34.287  1.00  0.00     0.029 A 
ATOM     68  N   UNL A   1      40.787  32.402  34.407  1.00  0.00    -0.354 N 
ATOM     69  N   UNL A   1      43.220  31.051  35.938  1.00  0.00    -0.248 NA
ATOM     70  C   UNL A   1      44.378  30.777  37.955  1.00  0.00     0.031 C 
ATOM     71  C   UNL A   1      39.723  33.965  35.536  1.00  0.00     0.029 A 
ATOM     72  C   UNL A   1      40.748  33.027  35.633  1.00  0.00     0.049 A 
ATOM     73  H   UNL A   1      41.431  31.701  34.155  1.00  0.00     0.167 HD
ATOM     74  C   UNL A   1      42.621  31.856  36.890  1.00  0.00     0.074 A 
ATOM     75  C   UNL A   1      43.359  31.609  38.125  1.00  0.00     0.031 C 
ATOM     76  C   UNL A   1      41.576  32.721  36.783  1.00  0.00     0.034 A 
BRANCH  63  77
ATOM     77  C   UNL A   1      38.630  33.116  31.257  1.00  0.00     0.023 A 
ATOM     78  C   UNL A   1      37.249  32.833  31.297  1.00  0.00     0.031 A 
ATOM     79  C   UNL A   1      39.096  33.932  30.215  1.00  0.00     0.131 A 
ATOM     80  C   UNL A   1      36.403  33.289  30.275  1.00  0.00     0.055 A 
ATOM     81  C   UNL A   1      38.232  34.463  29.253  1.00  0.00     0.041 A 
ATOM     82  F   UNL A   1      40.406  34.187  30.080  1.00  0.00    -0.206 F 
ATOM     83  C   UNL A   1      36.880  34.132  29.271  1.00  0.00     0.022 A 
BRANCH  80  84
ATOM     84  S   UNL A   1      34.712  32.632  30.182  1.00  0.00     0.124 S 
ATOM     85  O   UNL A   1      34.504  32.158  31.549  1.00  0.00    -0.237 OA
ATOM     86  O   UNL A   1      33.936  33.801  29.787  1.00  0.00    -0.237 OA
ATOM     87  O   UNL A   1      34.809  31.577  29.175  1.00  0.00    -0.744 OA
ENDBRANCH  80  84
ENDBRANCH  63  77
BRANCH  64  88
ATOM     88  C   UNL A   1      46.261  28.760  36.737  1.00  0.00     0.023 A 
ATOM     89  C   UNL A   1      46.027  27.672  37.589  1.00  0.00     0.031 A 
ATOM     90  C   UNL A   1      47.590  29.181  36.554  1.00  0.00     0.131 A 
ATOM     91  C   UNL A   1      47.094  27.078  38.276  1.00  0.00     0.055 A 
ATOM     92  C   UNL A   1      48.657  28.553  37.202  1.00  0.00     0.041 A 
ATOM     93  F   UNL A   1      47.874  30.188  35.713  1.00  0.00    -0.206 F 
ATOM     94  C   UNL A   1      48.409  27.504  38.082  1.00  0.00     0.022 A 
BRANCH  91  95
ATOM     95  S   UNL A   1      46.715  25.797  39.500  1.00  0.00     0.124 S 
ATOM     96  O   UNL A   1      45.822  24.921  38.748  1.00  0.00    -0.237 OA
ATOM     97  O   UNL A   1      48.038  25.259  39.797  1.00  0.00    -0.237 OA
ATOM     98  O   UNL A   1      46.086  26.543  40.588  1.00  0.00    -0.744 OA
ENDBRANCH  91  95
ENDBRANCH  64  88
BRANCH  76  99
ATOM     99  C   UNL A   1      41.226  33.445  38.044  1.00  0.00     0.023 A 
ATOM    100  C   UNL A   1      40.340  32.876  38.968  1.00  0.00     0.031 A 
ATOM    101  C   UNL A   1      41.787  34.701  38.322  1.00  0.00     0.131 A 
ATOM    102  C   UNL A   1      39.973  33.603  40.099  1.00  0.00     0.055 A 
ATOM    103  C   UNL A   1      41.489  35.379  39.498  1.00  0.00     0.041 A 
ATOM    104  F   UNL A   1      42.643  35.275  37.460  1.00  0.00    -0.206 F 
ATOM    105  C   UNL A   1      40.561  34.838  40.385  1.00  0.00     0.022 A 
BRANCH 102 106
ATOM    106  S   UNL A   1      38.619  32.963  41.112  1.00  0.00     0.124 S 
ATOM    107  O   UNL A   1      38.734  33.780  42.316  1.00  0.00    -0.237 OA
ATOM    108  O   UNL A   1      37.452  33.223  40.275  1.00  0.00    -0.237 OA
ATOM    109  O   UNL A   1      38.962  31.553  41.281  1.00  0.00    -0.744 OA
ENDBRANCH 102 106
ENDBRANCH  76  99
ENDBRANCH  50  51
ENDBRANCH  43  45
ENDBRANCH  42  43
ENDBRANCH  41  42
ENDBRANCH  40  41
ENDBRANCH  39  40
ENDBRANCH  38  39
ENDBRANCH   1  38
TORSDOF 26
ENDMDL
MODEL 3
REMARK VINA RESULT:      -9.0      1.936      2.512
REMARK SMILES NC(=O)[C@@H]1CCC[N@@H+]1[C@@H](C(=O)OCCOCCOCCOC(=O)c1ccc(-c2c3nc(c(-c4cc(S(=O)(=O)[O-])ccc4F)c4ccc([nH]4)c(-c4cc(S(=O)(=O)[O-])ccc4F)c4nc(c(-c5cc(S(=O)(=O)[O-])ccc5F)c5ccc2[nH]5)C=C4)C=C3)cc1)c1c[nH]c2cc(OCc3ccccc3)ccc12
REMARK SMILES IDX 16 1 15 2 14 3 13 4 12 5 10 6 11 7 9 8 8 9 4 10 5 11 6 12
REMARK SMILES IDX 7 13 2 15 1 16 3 19 87 20 88 21 103 22 89 23 90 24 102 25
REMARK SMILES IDX 91 27 101 28 92 29 93 30 94 31 95 32 96 33 100 34 97 35
REMARK SMILES IDX 99 36 98 37 17 38 18 39 19 40 20 41 21 42 22 43 23 44 24 45
REMARK SMILES IDX 25 46 86 47 26 48 85 49 27 50 28 51 29 52 79 53 30 54 84 55
REMARK SMILES IDX 78 56 80 57 31 58 83 59 77 60 76 61 32 63 64 64 44 65 63 66
REMARK SMILES IDX 45 67 48 68 62 69 81 70 46 71 47 72 61 74 82 75 49 76 33 77
REMARK SMILES IDX 34 78 42 79 35 80 41 81 43 82 40 83 36 84 37 85 38 86 39 87
REMARK SMILES IDX 65 88 66 89 74 90 67 91 73 92 75 93 72 94 68 95 69 96 70 97
REMARK SMILES IDX 71 98 50 99 51 100 59 101 52 102 58 103 60 104 57 105 53 106
REMARK SMILES IDX 54 107 55 108 56 109
REMARK H PARENT 8 14 1 17 1 18 89 26 80 62 48 73
REMARK Flexibility Score: inf
ROOT
ATOM      1  C   UNL A   1      39.086  20.700  25.473  1.00  0.00     0.188 C 
ENDROOT
BRANCH   1   2
ATOM      2  O   UNL A   1      37.993  20.560  24.579  1.00  0.00    -0.376 OA
BRANCH   2   3
ATOM      3  C   UNL A   1      36.966  21.528  24.694  1.00  0.00     0.202 C 
BRANCH   3   4
ATOM      4  C   UNL A   1      35.911  21.262  25.787  1.00  0.00     0.261 C 
BRANCH   4   5
ATOM      5  O   UNL A   1      35.581  22.413  26.613  1.00  0.00    -0.459 OA
BRANCH   5   6
ATOM      6  C   UNL A   1      35.295  23.587  25.979  1.00  0.00     0.370 C 
ATOM      7  O   UNL A   1      36.157  24.440  25.770  1.00  0.00    -0.245 OA
BRANCH   6   8
ATOM      8  C   UNL A   1      33.838  23.736  25.446  1.00  0.00     0.329 C 
BRANCH   8   9
ATOM      9  N   UNL A   1      33.092  22.656  24.661  1.00  0.00    -0.309 N 
ATOM     10  C   UNL A   1      32.606  22.845  23.283  1.00  0.00     0.275 C 
ATOM     11  C   UNL A   1      31.176  23.356  23.416  1.00  0.00     0.081 C 
ATOM     12  C   UNL A   1      30.704  22.707  24.699  1.00  0.00     0.068 C 
ATOM     13  C   UNL A   1      31.916  21.951  25.181  1.00  0.00     0.264 C 
ATOM     14  H   UNL A   1      33.982  22.167  24.756  1.00  0.00     0.349 HD
BRANCH  10  15
ATOM     15  C   UNL A   1      33.455  23.413  22.176  1.00  0.00     0.275 C 
ATOM     16  N   UNL A   1      32.688  24.071  21.236  1.00  0.00    -0.365 N 
ATOM     17  H   UNL A   1      33.118  24.490  20.456  1.00  0.00     0.159 HD
ATOM     18  H   UNL A   1      31.711  24.120  21.345  1.00  0.00     0.159 HD
ATOM     19  O   UNL A   1      34.659  23.284  22.024  1.00  0.00    -0.268 OA
ENDBRANCH  10  15
ENDBRANCH   8   9
BRANCH   8  20
ATOM     20  C   UNL A   1      33.306  25.258  25.340  1.00  0.00     0.046 A 
ATOM     21  C   UNL A   1      32.872  25.862  26.520  1.00  0.00     0.094 A 
ATOM     22  C   UNL A   1      32.380  25.957  24.456  1.00  0.00     0.009 A 
ATOM     23  N   UNL A   1      31.519  25.574  26.660  1.00  0.00    -0.361 N 
ATOM     24  C   UNL A   1      30.914  25.722  25.376  1.00  0.00     0.050 A 
ATOM     25  C   UNL A   1      32.299  26.983  22.954  1.00  0.00     0.015 A 
ATOM     26  H   UNL A   1      31.063  25.315  27.492  1.00  0.00     0.166 HD
ATOM     27  C   UNL A   1      29.280  26.328  24.786  1.00  0.00     0.073 A 
ATOM     28  C   UNL A   1      30.674  27.706  22.365  1.00  0.00     0.047 A 
ATOM     29  C   UNL A   1      29.188  27.350  23.301  1.00  0.00     0.121 A 
BRANCH  29  30
ATOM     30  O   UNL A   1      27.936  27.784  23.001  1.00  0.00    -0.489 OA
BRANCH  30  31
ATOM     31  C   UNL A   1      27.478  28.923  23.719  1.00  0.00     0.265 C 
BRANCH  31  32
ATOM     32  C   UNL A   1      27.730  30.197  22.949  1.00  0.00    -0.011 A 
ATOM     33  C   UNL A   1      27.922  30.163  21.559  1.00  0.00     0.007 A 
ATOM     34  C   UNL A   1      27.848  31.423  23.619  1.00  0.00     0.007 A 
ATOM     35  C   UNL A   1      28.242  31.324  20.858  1.00  0.00     0.000 A 
ATOM     36  C   UNL A   1      28.171  32.586  22.915  1.00  0.00     0.000 A 
ATOM     37  C   UNL A   1      28.384  32.531  21.540  1.00  0.00     0.000 A 
ENDBRANCH  31  32
ENDBRANCH  30  31
ENDBRANCH  29  30
ENDBRANCH   8  20
ENDBRANCH   6   8
ENDBRANCH   5   6
ENDBRANCH   4   5
ENDBRANCH   3   4
ENDBRANCH   2   3
ENDBRANCH   1   2
BRANCH   1  38
ATOM     38  C   UNL A   1      39.022  21.829  26.503  1.00  0.00     0.188 C 
BRANCH  38  39
ATOM     39  O   UNL A   1      40.026  22.811  26.294  1.00  0.00    -0.376 OA
BRANCH  39  40
ATOM     40  C   UNL A   1      39.555  24.097  26.697  1.00  0.00     0.202 C 
BRANCH  40  41
ATOM     41  C   UNL A   1      40.345  24.597  27.896  1.00  0.00     0.261 C 
BRANCH  41  42
ATOM     42  O   UNL A   1      41.264  23.639  28.465  1.00  0.00    -0.460 OA
BRANCH  42  43
ATOM     43  C   UNL A   1      42.699  23.333  28.006  1.00  0.00     0.338 C 
ATOM     44  O   UNL A   1      42.675  22.069  28.072  1.00  0.00    -0.246 OA
BRANCH  43  45
ATOM     45  C   UNL A   1      44.164  24.823  27.514  1.00  0.00     0.060 A 
ATOM     46  C   UNL A   1      45.034  24.984  26.255  1.00  0.00     0.016 A 
ATOM     47  C   UNL A   1      44.655  26.025  28.325  1.00  0.00     0.016 A 
ATOM     48  C   UNL A   1      45.676  26.103  25.762  1.00  0.00     0.010 A 
ATOM     49  C   UNL A   1      45.480  27.057  27.950  1.00  0.00     0.010 A 
ATOM     50  C   UNL A   1      45.883  27.115  26.642  1.00  0.00    -0.014 A 
BRANCH  50  51
ATOM     51  C   UNL A   1      46.780  28.177  26.314  1.00  0.00     0.031 A 
ATOM     52  C   UNL A   1      48.206  27.790  26.304  1.00  0.00     0.074 A 
ATOM     53  C   UNL A   1      46.206  29.383  26.316  1.00  0.00     0.049 A 
ATOM     54  N   UNL A   1      49.243  28.542  26.132  1.00  0.00    -0.248 NA
ATOM     55  C   UNL A   1      48.516  26.360  26.525  1.00  0.00     0.031 C 
ATOM     56  C   UNL A   1      44.757  29.641  26.434  1.00  0.00     0.029 A 
ATOM     57  N   UNL A   1      46.768  30.606  26.331  1.00  0.00    -0.354 N 
ATOM     58  C   UNL A   1      50.324  27.679  26.204  1.00  0.00     0.074 A 
ATOM     59  C   UNL A   1      49.830  26.351  26.423  1.00  0.00     0.031 C 
ATOM     60  C   UNL A   1      44.562  30.959  26.573  1.00  0.00     0.029 A 
ATOM     61  C   UNL A   1      45.858  31.612  26.519  1.00  0.00     0.049 A 
ATOM     62  H   UNL A   1      47.734  30.762  26.218  1.00  0.00     0.167 HD
ATOM     63  C   UNL A   1      51.622  28.027  26.123  1.00  0.00     0.034 A 
ATOM     64  C   UNL A   1      46.113  32.922  26.616  1.00  0.00     0.034 A 
ATOM     65  C   UNL A   1      51.976  29.417  26.040  1.00  0.00     0.049 A 
ATOM     66  C   UNL A   1      47.560  33.287  26.436  1.00  0.00     0.074 A 
ATOM     67  C   UNL A   1      53.213  30.002  25.912  1.00  0.00     0.029 A 
ATOM     68  N   UNL A   1      51.037  30.455  26.112  1.00  0.00    -0.354 N 
ATOM     69  N   UNL A   1      48.607  32.482  26.377  1.00  0.00    -0.248 NA
ATOM     70  C   UNL A   1      47.866  34.701  26.270  1.00  0.00     0.031 C 
ATOM     71  C   UNL A   1      53.024  31.390  25.960  1.00  0.00     0.029 A 
ATOM     72  C   UNL A   1      51.664  31.677  26.037  1.00  0.00     0.049 A 
ATOM     73  H   UNL A   1      50.064  30.327  26.203  1.00  0.00     0.167 HD
ATOM     74  C   UNL A   1      49.702  33.291  26.130  1.00  0.00     0.074 A 
ATOM     75  C   UNL A   1      49.169  34.646  26.035  1.00  0.00     0.031 C 
ATOM     76  C   UNL A   1      51.019  32.975  25.997  1.00  0.00     0.034 A 
BRANCH  63  77
ATOM     77  C   UNL A   1      52.637  26.917  26.218  1.00  0.00     0.023 A 
ATOM     78  C   UNL A   1      53.411  26.726  27.382  1.00  0.00     0.031 A 
ATOM     79  C   UNL A   1      52.929  26.114  25.105  1.00  0.00     0.131 A 
ATOM     80  C   UNL A   1      54.486  25.824  27.377  1.00  0.00     0.055 A 
ATOM     81  C   UNL A   1      53.938  25.148  25.138  1.00  0.00     0.041 A 
ATOM     82  F   UNL A   1      52.275  26.287  23.946  1.00  0.00    -0.206 F 
ATOM     83  C   UNL A   1      54.733  25.008  26.274  1.00  0.00     0.022 A 
BRANCH  80  84
ATOM     84  S   UNL A   1      55.655  25.850  28.767  1.00  0.00     0.124 S 
ATOM     85  O   UNL A   1      56.533  24.730  28.435  1.00  0.00    -0.237 OA
ATOM     86  O   UNL A   1      56.247  27.178  28.661  1.00  0.00    -0.237 OA
ATOM     87  O   UNL A   1      54.803  25.637  29.935  1.00  0.00    -0.744 OA
ENDBRANCH  80  84
ENDBRANCH  63  77
BRANCH  64  88
ATOM     88  C   UNL A   1      44.997  33.889  26.729  1.00  0.00     0.023 A 
ATOM     89  C   UNL A   1      44.835  34.641  27.900  1.00  0.00     0.031 A 
ATOM     90  C   UNL A   1      44.122  34.139  25.657  1.00  0.00     0.131 A 
ATOM     91  C   UNL A   1      43.787  35.565  28.000  1.00  0.00     0.055 A 
ATOM     92  C   UNL A   1      43.109  35.098  25.742  1.00  0.00     0.041 A 
ATOM     93  F   UNL A   1      44.263  33.480  24.496  1.00  0.00    -0.206 F 
ATOM     94  C   UNL A   1      42.928  35.806  26.926  1.00  0.00     0.022 A 
BRANCH  91  95
ATOM     95  S   UNL A   1      43.512  36.378  29.596  1.00  0.00     0.124 S 
ATOM     96  O   UNL A   1      42.716  37.537  29.207  1.00  0.00    -0.237 OA
ATOM     97  O   UNL A   1      42.811  35.342  30.347  1.00  0.00    -0.237 OA
ATOM     98  O   UNL A   1      44.864  36.678  30.060  1.00  0.00    -0.744 OA
ENDBRANCH  91  95
ENDBRANCH  64  88
BRANCH  76  99
ATOM     99  C   UNL A   1      51.926  34.141  25.759  1.00  0.00     0.023 A 
ATOM    100  C   UNL A   1      52.346  34.944  26.828  1.00  0.00     0.031 A 
ATOM    101  C   UNL A   1      52.373  34.441  24.463  1.00  0.00     0.131 A 
ATOM    102  C   UNL A   1      53.130  36.068  26.570  1.00  0.00     0.055 A 
ATOM    103  C   UNL A   1      53.231  35.508  24.226  1.00  0.00     0.041 A 
ATOM    104  F   UNL A   1      51.992  33.691  23.415  1.00  0.00    -0.206 F 
ATOM    105  C   UNL A   1      53.598  36.340  25.282  1.00  0.00     0.022 A 
BRANCH 102 106
ATOM    106  S   UNL A   1      53.410  37.230  27.925  1.00  0.00     0.124 S 
ATOM    107  O   UNL A   1      52.079  37.326  28.517  1.00  0.00    -0.237 OA
ATOM    108  O   UNL A   1      54.415  36.540  28.727  1.00  0.00    -0.237 OA
ATOM    109  O   UNL A   1      53.877  38.436  27.245  1.00  0.00    -0.744 OA
ENDBRANCH 102 106
ENDBRANCH  76  99
ENDBRANCH  50  51
ENDBRANCH  43  45
ENDBRANCH  42  43
ENDBRANCH  41  42
ENDBRANCH  40  41
ENDBRANCH  39  40
ENDBRANCH  38  39
ENDBRANCH   1  38
TORSDOF 26
ENDMDL
