MODEL 1
REMARK VINA RESULT:     -11.5      0.000      0.000
REMARK SMILES C[NH+]1CCC(C(=O)N2C[C@@H](C(=O)OCCOCCOCCOC(=O)c3ccc(-c4c5nc(c(-c6cc(S(=O)(=O)[O-])ccc6F)c6ccc([nH]6)c(-c6cc(S(=O)(=O)[O-])ccc6F)c6nc(c(-c7cc(S(=O)(=O)[O-])ccc7F)c7ccc4[nH]7)C=C6)C=C5)cc3)[C@H](c3ccc4c(c3)OCO4)C2)CC1
REMARK SMILES IDX 18 1 17 2 16 3 15 4 14 5 13 6 11 7 12 8 10 9 8 10 9 11 98 12
REMARK SMILES IDX 88 13 6 14 7 15 5 16 1 17 2 18 3 19 100 20 4 22 99 23 89 24
REMARK SMILES IDX 90 25 94 26 91 27 93 28 92 29 95 30 97 31 96 32 19 33 20 34
REMARK SMILES IDX 21 35 22 36 23 37 24 38 25 39 26 40 87 41 27 42 86 43 28 44
REMARK SMILES IDX 29 45 30 46 80 47 31 48 85 49 79 50 81 51 32 52 84 53 78 54
REMARK SMILES IDX 77 55 33 57 65 58 45 59 64 60 46 61 49 62 63 63 82 64 47 65
REMARK SMILES IDX 48 66 62 68 83 69 50 70 34 71 35 72 43 73 36 74 42 75 44 76
REMARK SMILES IDX 41 77 37 78 38 79 39 80 40 81 66 82 67 83 75 84 68 85 74 86
REMARK SMILES IDX 76 87 73 88 69 89 70 90 71 91 72 92 51 93 52 94 60 95 53 96
REMARK SMILES IDX 59 97 61 98 58 99 54 100 55 101 56 102 57 103
REMARK H PARENT 2 21 81 56 49 67
REMARK Flexibility Score: inf
ROOT
ATOM      1  C   UNL A   1      32.165  25.593  26.265  1.00  0.00     0.188 C 
ENDROOT
BRANCH   1   2
ATOM      2  C   UNL A   1      31.467  24.230  26.485  1.00  0.00     0.188 C 
BRANCH   2   3
ATOM      3  O   UNL A   1      31.743  23.465  27.651  1.00  0.00    -0.376 OA
BRANCH   3   4
ATOM      4  C   UNL A   1      32.540  22.294  27.566  1.00  0.00     0.202 C 
BRANCH   4   5
ATOM      5  C   UNL A   1      34.070  22.398  27.598  1.00  0.00     0.261 C 
BRANCH   5   6
ATOM      6  O   UNL A   1      34.676  22.689  26.334  1.00  0.00    -0.463 OA
BRANCH   6   7
ATOM      7  C   UNL A   1      34.929  21.636  25.506  1.00  0.00     0.311 C 
ATOM      8  O   UNL A   1      35.634  20.676  25.778  1.00  0.00    -0.252 OA
BRANCH   7   9
ATOM      9  C   UNL A   1      34.231  21.840  24.186  1.00  0.00     0.128 C 
ATOM     10  N   UNL A   1      33.196  23.380  22.800  1.00  0.00    -0.341 N 
ATOM     11  C   UNL A   1      34.321  23.272  23.703  1.00  0.00     0.135 C 
ATOM     12  C   UNL A   1      32.099  22.559  23.300  1.00  0.00     0.128 C 
ATOM     13  C   UNL A   1      32.716  21.539  24.285  1.00  0.00     0.055 C 
BRANCH  10  14
ATOM     14  C   UNL A   1      32.931  24.419  21.931  1.00  0.00     0.226 C 
ATOM     15  O   UNL A   1      33.286  24.341  20.750  1.00  0.00    -0.275 OA
BRANCH  14  16
ATOM     16  C   UNL A   1      32.499  25.784  22.485  1.00  0.00     0.090 C 
ATOM     17  C   UNL A   1      30.586  29.628  22.795  1.00  0.00     0.332 C 
ATOM     18  N   UNL A   1      31.164  28.370  22.315  1.00  0.00    -0.337 N 
ATOM     19  C   UNL A   1      30.456  27.226  22.902  1.00  0.00     0.262 C 
ATOM     20  C   UNL A   1      32.595  28.301  22.648  1.00  0.00     0.262 C 
ATOM     21  H   UNL A   1      31.060  28.336  21.301  1.00  0.00     0.347 HD
ATOM     22  C   UNL A   1      30.981  25.923  22.305  1.00  0.00     0.075 C 
ATOM     23  C   UNL A   1      33.216  27.044  22.017  1.00  0.00     0.075 C 
ENDBRANCH  14  16
ENDBRANCH  10  14
BRANCH  13  24
ATOM     24  C   UNL A   1      32.536  20.038  24.061  1.00  0.00    -0.038 A 
ATOM     25  C   UNL A   1      32.524  19.432  22.786  1.00  0.00     0.008 A 
ATOM     26  C   UNL A   1      32.597  19.206  25.201  1.00  0.00     0.054 A 
ATOM     27  C   UNL A   1      32.699  18.048  22.641  1.00  0.00     0.051 A 
ATOM     28  C   UNL A   1      32.869  17.871  25.026  1.00  0.00     0.166 A 
ATOM     29  C   UNL A   1      32.933  17.307  23.777  1.00  0.00     0.165 A 
ATOM     30  O   UNL A   1      33.205  16.993  26.011  1.00  0.00    -0.454 OA
ATOM     31  O   UNL A   1      33.313  16.001  23.827  1.00  0.00    -0.454 OA
ATOM     32  C   UNL A   1      33.730  15.918  25.207  1.00  0.00     0.468 C 
ENDBRANCH  13  24
ENDBRANCH   7   9
ENDBRANCH   6   7
ENDBRANCH   5   6
ENDBRANCH   4   5
ENDBRANCH   3   4
ENDBRANCH   2   3
ENDBRANCH   1   2
BRANCH   1  33
ATOM     33  O   UNL A   1      31.394  26.701  26.663  1.00  0.00    -0.376 OA
BRANCH  33  34
ATOM     34  C   UNL A   1      32.023  27.965  26.784  1.00  0.00     0.202 C 
BRANCH  34  35
ATOM     35  C   UNL A   1      33.547  28.180  26.920  1.00  0.00     0.261 C 
BRANCH  35  36
ATOM     36  O   UNL A   1      34.106  29.435  26.514  1.00  0.00    -0.460 OA
BRANCH  36  37
ATOM     37  C   UNL A   1      34.351  30.341  27.490  1.00  0.00     0.338 C 
ATOM     38  O   UNL A   1      33.566  31.175  27.925  1.00  0.00    -0.246 OA
BRANCH  37  39
ATOM     39  C   UNL A   1      35.667  30.050  28.093  1.00  0.00     0.060 A 
ATOM     40  C   UNL A   1      36.809  30.157  27.292  1.00  0.00     0.016 A 
ATOM     41  C   UNL A   1      35.785  29.658  29.428  1.00  0.00     0.016 A 
ATOM     42  C   UNL A   1      38.069  29.859  27.818  1.00  0.00     0.010 A 
ATOM     43  C   UNL A   1      37.048  29.331  29.944  1.00  0.00     0.010 A 
ATOM     44  C   UNL A   1      38.196  29.404  29.134  1.00  0.00    -0.014 A 
BRANCH  44  45
ATOM     45  C   UNL A   1      39.488  28.814  29.580  1.00  0.00     0.031 A 
ATOM     46  C   UNL A   1      40.222  29.485  30.713  1.00  0.00     0.074 A 
ATOM     47  C   UNL A   1      39.981  27.683  29.039  1.00  0.00     0.049 A 
ATOM     48  N   UNL A   1      41.399  29.222  31.215  1.00  0.00    -0.248 NA
ATOM     49  C   UNL A   1      39.525  30.605  31.368  1.00  0.00     0.031 C 
ATOM     50  C   UNL A   1      39.323  26.880  28.009  1.00  0.00     0.029 A 
ATOM     51  N   UNL A   1      41.158  27.015  29.280  1.00  0.00    -0.354 N 
ATOM     52  C   UNL A   1      41.602  30.162  32.221  1.00  0.00     0.074 A 
ATOM     53  C   UNL A   1      40.426  31.004  32.253  1.00  0.00     0.031 C 
ATOM     54  C   UNL A   1      40.113  25.836  27.698  1.00  0.00     0.029 A 
ATOM     55  C   UNL A   1      41.358  25.926  28.459  1.00  0.00     0.049 A 
ATOM     56  H   UNL A   1      41.800  27.289  29.974  1.00  0.00     0.167 HD
ATOM     57  C   UNL A   1      42.673  30.311  33.036  1.00  0.00     0.034 A 
ATOM     58  C   UNL A   1      42.436  25.124  28.313  1.00  0.00     0.034 A 
ATOM     59  C   UNL A   1      43.834  29.457  33.002  1.00  0.00     0.049 A 
ATOM     60  C   UNL A   1      43.663  25.381  29.166  1.00  0.00     0.074 A 
ATOM     61  C   UNL A   1      44.964  29.513  33.801  1.00  0.00     0.029 A 
ATOM     62  N   UNL A   1      44.025  28.405  32.118  1.00  0.00    -0.354 N 
ATOM     63  N   UNL A   1      43.846  26.281  30.107  1.00  0.00    -0.248 NA
ATOM     64  C   UNL A   1      44.827  24.513  28.939  1.00  0.00     0.031 C 
ATOM     65  C   UNL A   1      45.872  28.555  33.342  1.00  0.00     0.029 A 
ATOM     66  C   UNL A   1      45.271  27.832  32.324  1.00  0.00     0.049 A 
ATOM     67  H   UNL A   1      43.372  28.108  31.444  1.00  0.00     0.167 HD
ATOM     68  C   UNL A   1      45.125  26.047  30.612  1.00  0.00     0.074 A 
ATOM     69  C   UNL A   1      45.662  24.920  29.882  1.00  0.00     0.031 C 
ATOM     70  C   UNL A   1      45.793  26.699  31.598  1.00  0.00     0.034 A 
BRANCH  57  71
ATOM     71  C   UNL A   1      42.680  31.487  33.981  1.00  0.00     0.023 A 
ATOM     72  C   UNL A   1      42.121  31.422  35.268  1.00  0.00     0.031 A 
ATOM     73  C   UNL A   1      43.273  32.698  33.580  1.00  0.00     0.131 A 
ATOM     74  C   UNL A   1      42.127  32.560  36.090  1.00  0.00     0.055 A 
ATOM     75  C   UNL A   1      43.343  33.803  34.428  1.00  0.00     0.041 A 
ATOM     76  F   UNL A   1      43.797  32.826  32.350  1.00  0.00    -0.206 F 
ATOM     77  C   UNL A   1      42.760  33.741  35.690  1.00  0.00     0.022 A 
BRANCH  74  78
ATOM     78  S   UNL A   1      41.197  32.517  37.647  1.00  0.00     0.124 S 
ATOM     79  O   UNL A   1      39.926  31.942  37.215  1.00  0.00    -0.237 OA
ATOM     80  O   UNL A   1      42.029  31.665  38.489  1.00  0.00    -0.237 OA
ATOM     81  O   UNL A   1      41.134  33.921  38.047  1.00  0.00    -0.744 OA
ENDBRANCH  74  78
ENDBRANCH  57  71
BRANCH  58  82
ATOM     82  C   UNL A   1      42.462  24.041  27.281  1.00  0.00     0.023 A 
ATOM     83  C   UNL A   1      41.822  22.809  27.503  1.00  0.00     0.031 A 
ATOM     84  C   UNL A   1      43.233  24.173  26.111  1.00  0.00     0.131 A 
ATOM     85  C   UNL A   1      42.029  21.740  26.615  1.00  0.00     0.055 A 
ATOM     86  C   UNL A   1      43.371  23.132  25.191  1.00  0.00     0.041 A 
ATOM     87  F   UNL A   1      43.882  25.319  25.850  1.00  0.00    -0.206 F 
ATOM     88  C   UNL A   1      42.784  21.898  25.452  1.00  0.00     0.022 A 
BRANCH  85  89
ATOM     89  S   UNL A   1      41.422  20.093  27.083  1.00  0.00     0.124 S 
ATOM     90  O   UNL A   1      42.664  19.329  27.140  1.00  0.00    -0.237 OA
ATOM     91  O   UNL A   1      40.774  20.362  28.362  1.00  0.00    -0.237 OA
ATOM     92  O   UNL A   1      40.520  19.739  25.989  1.00  0.00    -0.744 OA
ENDBRANCH  85  89
ENDBRANCH  58  82
BRANCH  70  93
ATOM     93  C   UNL A   1      47.146  26.158  32.002  1.00  0.00     0.023 A 
ATOM     94  C   UNL A   1      48.330  26.516  31.333  1.00  0.00     0.031 A 
ATOM     95  C   UNL A   1      47.247  25.261  33.082  1.00  0.00     0.131 A 
ATOM     96  C   UNL A   1      49.550  25.934  31.711  1.00  0.00     0.055 A 
ATOM     97  C   UNL A   1      48.473  24.741  33.499  1.00  0.00     0.041 A 
ATOM     98  F   UNL A   1      46.150  24.880  33.759  1.00  0.00    -0.206 F 
ATOM     99  C   UNL A   1      49.632  25.065  32.802  1.00  0.00     0.022 A 
BRANCH  96 100
ATOM    100  S   UNL A   1      51.020  26.249  30.694  1.00  0.00     0.124 S 
ATOM    101  O   UNL A   1      50.548  25.896  29.359  1.00  0.00    -0.237 OA
ATOM    102  O   UNL A   1      51.264  27.668  30.929  1.00  0.00    -0.237 OA
ATOM    103  O   UNL A   1      52.025  25.348  31.256  1.00  0.00    -0.744 OA
ENDBRANCH  96 100
ENDBRANCH  70  93
ENDBRANCH  44  45
ENDBRANCH  37  39
ENDBRANCH  36  37
ENDBRANCH  35  36
ENDBRANCH  34  35
ENDBRANCH  33  34
ENDBRANCH   1  33
TORSDOF 23
ENDMDL
MODEL 2
REMARK VINA RESULT:     -11.4      1.918      7.329
REMARK SMILES C[NH+]1CCC(C(=O)N2C[C@@H](C(=O)OCCOCCOCCOC(=O)c3ccc(-c4c5nc(c(-c6cc(S(=O)(=O)[O-])ccc6F)c6ccc([nH]6)c(-c6cc(S(=O)(=O)[O-])ccc6F)c6nc(c(-c7cc(S(=O)(=O)[O-])ccc7F)c7ccc4[nH]7)C=C6)C=C5)cc3)[C@H](c3ccc4c(c3)OCO4)C2)CC1
REMARK SMILES IDX 18 1 17 2 16 3 15 4 14 5 13 6 11 7 12 8 10 9 8 10 9 11 98 12
REMARK SMILES IDX 88 13 6 14 7 15 5 16 1 17 2 18 3 19 100 20 4 22 99 23 89 24
REMARK SMILES IDX 90 25 94 26 91 27 93 28 92 29 95 30 97 31 96 32 19 33 20 34
REMARK SMILES IDX 21 35 22 36 23 37 24 38 25 39 26 40 87 41 27 42 86 43 28 44
REMARK SMILES IDX 29 45 30 46 80 47 31 48 85 49 79 50 81 51 32 52 84 53 78 54
REMARK SMILES IDX 77 55 33 57 65 58 45 59 64 60 46 61 49 62 63 63 82 64 47 65
REMARK SMILES IDX 48 66 62 68 83 69 50 70 34 71 35 72 43 73 36 74 42 75 44 76
REMARK SMILES IDX 41 77 37 78 38 79 39 80 40 81 66 82 67 83 75 84 68 85 74 86
REMARK SMILES IDX 76 87 73 88 69 89 70 90 71 91 72 92 51 93 52 94 60 95 53 96
REMARK SMILES IDX 59 97 61 98 58 99 54 100 55 101 56 102 57 103
REMARK H PARENT 2 21 81 56 49 67
REMARK Flexibility Score: inf
ROOT
ATOM      1  C   UNL A   1      32.107  25.157  25.982  1.00  0.00     0.188 C 
ENDROOT
BRANCH   1   2
ATOM      2  C   UNL A   1      31.408  23.934  26.621  1.00  0.00     0.188 C 
BRANCH   2   3
ATOM      3  O   UNL A   1      31.948  23.332  27.790  1.00  0.00    -0.376 OA
BRANCH   3   4
ATOM      4  C   UNL A   1      32.753  22.167  27.687  1.00  0.00     0.202 C 
BRANCH   4   5
ATOM      5  C   UNL A   1      34.273  22.292  27.525  1.00  0.00     0.261 C 
BRANCH   5   6
ATOM      6  O   UNL A   1      34.707  22.625  26.202  1.00  0.00    -0.463 OA
BRANCH   6   7
ATOM      7  C   UNL A   1      34.954  21.592  25.347  1.00  0.00     0.311 C 
ATOM      8  O   UNL A   1      35.668  20.630  25.588  1.00  0.00    -0.252 OA
BRANCH   7   9
ATOM      9  C   UNL A   1      34.237  21.822  24.041  1.00  0.00     0.128 C 
ATOM     10  N   UNL A   1      33.198  23.392  22.694  1.00  0.00    -0.341 N 
ATOM     11  C   UNL A   1      34.337  23.260  23.577  1.00  0.00     0.135 C 
ATOM     12  C   UNL A   1      32.100  22.578  23.201  1.00  0.00     0.128 C 
ATOM     13  C   UNL A   1      32.720  21.538  24.162  1.00  0.00     0.055 C 
BRANCH  10  14
ATOM     14  C   UNL A   1      32.931  24.446  21.842  1.00  0.00     0.226 C 
ATOM     15  O   UNL A   1      33.280  24.386  20.659  1.00  0.00    -0.275 OA
BRANCH  14  16
ATOM     16  C   UNL A   1      32.507  25.803  22.421  1.00  0.00     0.090 C 
ATOM     17  C   UNL A   1      30.681  29.687  22.764  1.00  0.00     0.332 C 
ATOM     18  N   UNL A   1      31.251  28.430  22.272  1.00  0.00    -0.337 N 
ATOM     19  C   UNL A   1      30.482  27.287  22.780  1.00  0.00     0.262 C 
ATOM     20  C   UNL A   1      32.660  28.309  22.678  1.00  0.00     0.262 C 
ATOM     21  H   UNL A   1      31.201  28.433  21.253  1.00  0.00     0.347 HD
ATOM     22  C   UNL A   1      31.005  25.991  22.166  1.00  0.00     0.075 C 
ATOM     23  C   UNL A   1      33.281  27.058  22.036  1.00  0.00     0.075 C 
ENDBRANCH  14  16
ENDBRANCH  10  14
BRANCH  13  24
ATOM     24  C   UNL A   1      32.519  20.043  23.921  1.00  0.00    -0.038 A 
ATOM     25  C   UNL A   1      32.478  19.454  22.639  1.00  0.00     0.008 A 
ATOM     26  C   UNL A   1      32.589  19.194  25.048  1.00  0.00     0.054 A 
ATOM     27  C   UNL A   1      32.633  18.070  22.472  1.00  0.00     0.051 A 
ATOM     28  C   UNL A   1      32.843  17.858  24.851  1.00  0.00     0.166 A 
ATOM     29  C   UNL A   1      32.879  17.311  23.593  1.00  0.00     0.165 A 
ATOM     30  O   UNL A   1      33.186  16.963  25.818  1.00  0.00    -0.454 OA
ATOM     31  O   UNL A   1      33.243  16.000  23.620  1.00  0.00    -0.454 OA
ATOM     32  C   UNL A   1      33.684  15.894  24.991  1.00  0.00     0.468 C 
ENDBRANCH  13  24
ENDBRANCH   7   9
ENDBRANCH   6   7
ENDBRANCH   5   6
ENDBRANCH   4   5
ENDBRANCH   3   4
ENDBRANCH   2   3
ENDBRANCH   1   2
BRANCH   1  33
ATOM     33  O   UNL A   1      31.363  26.349  26.063  1.00  0.00    -0.376 OA
BRANCH  33  34
ATOM     34  C   UNL A   1      32.042  27.564  26.321  1.00  0.00     0.202 C 
BRANCH  34  35
ATOM     35  C   UNL A   1      33.577  27.741  26.284  1.00  0.00     0.261 C 
BRANCH  35  36
ATOM     36  O   UNL A   1      34.117  29.017  25.922  1.00  0.00    -0.460 OA
BRANCH  36  37
ATOM     37  C   UNL A   1      34.097  29.982  26.870  1.00  0.00     0.338 C 
ATOM     38  O   UNL A   1      33.154  30.714  27.146  1.00  0.00    -0.246 OA
BRANCH  37  39
ATOM     39  C   UNL A   1      35.340  29.900  27.663  1.00  0.00     0.060 A 
ATOM     40  C   UNL A   1      36.566  30.046  27.004  1.00  0.00     0.016 A 
ATOM     41  C   UNL A   1      35.311  29.666  29.039  1.00  0.00     0.016 A 
ATOM     42  C   UNL A   1      37.764  29.944  27.714  1.00  0.00     0.010 A 
ATOM     43  C   UNL A   1      36.517  29.533  29.743  1.00  0.00     0.010 A 
ATOM     44  C   UNL A   1      37.753  29.645  29.080  1.00  0.00    -0.014 A 
BRANCH  44  45
ATOM     45  C   UNL A   1      39.021  29.249  29.750  1.00  0.00     0.031 A 
ATOM     46  C   UNL A   1      39.842  28.148  29.127  1.00  0.00     0.074 A 
ATOM     47  C   UNL A   1      39.471  29.877  30.855  1.00  0.00     0.049 A 
ATOM     48  N   UNL A   1      40.924  27.564  29.567  1.00  0.00    -0.248 NA
ATOM     49  C   UNL A   1      39.373  27.644  27.826  1.00  0.00     0.031 C 
ATOM     50  C   UNL A   1      38.828  31.021  31.499  1.00  0.00     0.029 A 
ATOM     51  N   UNL A   1      40.578  29.635  31.634  1.00  0.00    -0.354 N 
ATOM     52  C   UNL A   1      41.248  26.600  28.618  1.00  0.00     0.074 A 
ATOM     53  C   UNL A   1      40.243  26.677  27.580  1.00  0.00     0.031 C 
ATOM     54  C   UNL A   1      39.545  31.371  32.583  1.00  0.00     0.029 A 
ATOM     55  C   UNL A   1      40.664  30.443  32.746  1.00  0.00     0.049 A 
ATOM     56  H   UNL A   1      41.248  28.947  31.417  1.00  0.00     0.167 HD
ATOM     57  C   UNL A   1      42.285  25.728  28.618  1.00  0.00     0.034 A 
ATOM     58  C   UNL A   1      41.519  30.409  33.792  1.00  0.00     0.034 A 
ATOM     59  C   UNL A   1      43.287  25.670  29.652  1.00  0.00     0.049 A 
ATOM     60  C   UNL A   1      42.606  29.353  33.816  1.00  0.00     0.074 A 
ATOM     61  C   UNL A   1      44.390  24.836  29.733  1.00  0.00     0.029 A 
ATOM     62  N   UNL A   1      43.305  26.463  30.791  1.00  0.00    -0.354 N 
ATOM     63  N   UNL A   1      42.896  28.439  32.916  1.00  0.00    -0.248 NA
ATOM     64  C   UNL A   1      43.483  29.325  34.995  1.00  0.00     0.031 C 
ATOM     65  C   UNL A   1      45.020  25.062  30.959  1.00  0.00     0.029 A 
ATOM     66  C   UNL A   1      44.374  26.108  31.600  1.00  0.00     0.049 A 
ATOM     67  H   UNL A   1      42.655  27.173  30.995  1.00  0.00     0.167 HD
ATOM     68  C   UNL A   1      44.018  27.769  33.403  1.00  0.00     0.074 A 
ATOM     69  C   UNL A   1      44.357  28.386  34.666  1.00  0.00     0.031 C 
ATOM     70  C   UNL A   1      44.712  26.739  32.853  1.00  0.00     0.034 A 
BRANCH  57  71
ATOM     71  C   UNL A   1      42.348  24.710  27.505  1.00  0.00     0.023 A 
ATOM     72  C   UNL A   1      41.534  23.566  27.485  1.00  0.00     0.031 A 
ATOM     73  C   UNL A   1      43.241  24.905  26.436  1.00  0.00     0.131 A 
ATOM     74  C   UNL A   1      41.662  22.638  26.440  1.00  0.00     0.055 A 
ATOM     75  C   UNL A   1      43.311  24.017  25.362  1.00  0.00     0.041 A 
ATOM     76  F   UNL A   1      44.063  25.966  26.418  1.00  0.00    -0.206 F 
ATOM     77  C   UNL A   1      42.524  22.870  25.364  1.00  0.00     0.022 A 
BRANCH  74  78
ATOM     78  S   UNL A   1      40.771  21.062  26.559  1.00  0.00     0.124 S 
ATOM     79  O   UNL A   1      40.757  20.840  28.002  1.00  0.00    -0.237 OA
ATOM     80  O   UNL A   1      39.484  21.380  25.951  1.00  0.00    -0.237 OA
ATOM     81  O   UNL A   1      41.608  20.136  25.801  1.00  0.00    -0.744 OA
ENDBRANCH  74  78
ENDBRANCH  57  71
BRANCH  58  82
ATOM     82  C   UNL A   1      41.366  31.344  34.950  1.00  0.00     0.023 A 
ATOM     83  C   UNL A   1      40.262  31.254  35.817  1.00  0.00     0.031 A 
ATOM     84  C   UNL A   1      42.252  32.420  35.134  1.00  0.00     0.131 A 
ATOM     85  C   UNL A   1      40.033  32.261  36.769  1.00  0.00     0.055 A 
ATOM     86  C   UNL A   1      42.063  33.376  36.134  1.00  0.00     0.041 A 
ATOM     87  F   UNL A   1      43.316  32.570  34.328  1.00  0.00    -0.206 F 
ATOM     88  C   UNL A   1      40.935  33.312  36.945  1.00  0.00     0.022 A 
BRANCH  85  89
ATOM     89  S   UNL A   1      38.456  32.262  37.670  1.00  0.00     0.124 S 
ATOM     90  O   UNL A   1      37.914  33.568  37.310  1.00  0.00    -0.237 OA
ATOM     91  O   UNL A   1      37.779  31.105  37.095  1.00  0.00    -0.237 OA
ATOM     92  O   UNL A   1      38.862  32.116  39.066  1.00  0.00    -0.744 OA
ENDBRANCH  85  89
ENDBRANCH  58  82
BRANCH  70  93
ATOM     93  C   UNL A   1      45.958  26.272  33.572  1.00  0.00     0.023 A 
ATOM     94  C   UNL A   1      45.952  25.171  34.446  1.00  0.00     0.031 A 
ATOM     95  C   UNL A   1      47.175  26.951  33.375  1.00  0.00     0.131 A 
ATOM     96  C   UNL A   1      47.124  24.819  35.135  1.00  0.00     0.055 A 
ATOM     97  C   UNL A   1      48.353  26.553  34.008  1.00  0.00     0.041 A 
ATOM     98  F   UNL A   1      47.242  28.012  32.554  1.00  0.00    -0.206 F 
ATOM     99  C   UNL A   1      48.328  25.490  34.906  1.00  0.00     0.022 A 
BRANCH  96 100
ATOM    100  S   UNL A   1      47.034  23.534  36.412  1.00  0.00     0.124 S 
ATOM    101  O   UNL A   1      47.416  22.339  35.668  1.00  0.00    -0.237 OA
ATOM    102  O   UNL A   1      47.998  24.007  37.399  1.00  0.00    -0.237 OA
ATOM    103  O   UNL A   1      45.637  23.577  36.843  1.00  0.00    -0.744 OA
ENDBRANCH  96 100
ENDBRANCH  70  93
ENDBRANCH  44  45
ENDBRANCH  37  39
ENDBRANCH  36  37
ENDBRANCH  35  36
ENDBRANCH  34  35
ENDBRANCH  33  34
ENDBRANCH   1  33
TORSDOF 23
ENDMDL
MODEL 3
REMARK VINA RESULT:     -11.0      1.331      7.258
REMARK SMILES C[NH+]1CCC(C(=O)N2C[C@@H](C(=O)OCCOCCOCCOC(=O)c3ccc(-c4c5nc(c(-c6cc(S(=O)(=O)[O-])ccc6F)c6ccc([nH]6)c(-c6cc(S(=O)(=O)[O-])ccc6F)c6nc(c(-c7cc(S(=O)(=O)[O-])ccc7F)c7ccc4[nH]7)C=C6)C=C5)cc3)[C@H](c3ccc4c(c3)OCO4)C2)CC1
REMARK SMILES IDX 18 1 17 2 16 3 15 4 14 5 13 6 11 7 12 8 10 9 8 10 9 11 98 12
REMARK SMILES IDX 88 13 6 14 7 15 5 16 1 17 2 18 3 19 100 20 4 22 99 23 89 24
REMARK SMILES IDX 90 25 94 26 91 27 93 28 92 29 95 30 97 31 96 32 19 33 20 34
REMARK SMILES IDX 21 35 22 36 23 37 24 38 25 39 26 40 87 41 27 42 86 43 28 44
REMARK SMILES IDX 29 45 30 46 80 47 31 48 85 49 79 50 81 51 32 52 84 53 78 54
REMARK SMILES IDX 77 55 33 57 65 58 45 59 64 60 46 61 49 62 63 63 82 64 47 65
REMARK SMILES IDX 48 66 62 68 83 69 50 70 34 71 35 72 43 73 36 74 42 75 44 76
REMARK SMILES IDX 41 77 37 78 38 79 39 80 40 81 66 82 67 83 75 84 68 85 74 86
REMARK SMILES IDX 76 87 73 88 69 89 70 90 71 91 72 92 51 93 52 94 60 95 53 96
REMARK SMILES IDX 59 97 61 98 58 99 54 100 55 101 56 102 57 103
REMARK H PARENT 2 21 81 56 49 67
REMARK Flexibility Score: inf
ROOT
ATOM      1  C   UNL A   1      32.044  24.994  26.094  1.00  0.00     0.188 C 
ENDROOT
BRANCH   1   2
ATOM      2  C   UNL A   1      31.412  23.808  26.861  1.00  0.00     0.188 C 
BRANCH   2   3
ATOM      3  O   UNL A   1      32.141  23.153  27.890  1.00  0.00    -0.376 OA
BRANCH   3   4
ATOM      4  C   UNL A   1      33.105  22.162  27.565  1.00  0.00     0.202 C 
BRANCH   4   5
ATOM      5  C   UNL A   1      34.581  22.546  27.405  1.00  0.00     0.261 C 
BRANCH   5   6
ATOM      6  O   UNL A   1      34.998  22.765  26.052  1.00  0.00    -0.463 OA
BRANCH   6   7
ATOM      7  C   UNL A   1      35.054  21.677  25.232  1.00  0.00     0.311 C 
ATOM      8  O   UNL A   1      35.661  20.644  25.469  1.00  0.00    -0.252 OA
BRANCH   7   9
ATOM      9  C   UNL A   1      34.276  21.945  23.969  1.00  0.00     0.128 C 
ATOM     10  N   UNL A   1      33.204  23.560  22.702  1.00  0.00    -0.341 N 
ATOM     11  C   UNL A   1      34.383  23.388  23.523  1.00  0.00     0.135 C 
ATOM     12  C   UNL A   1      32.115  22.760  23.252  1.00  0.00     0.128 C 
ATOM     13  C   UNL A   1      32.761  21.691  24.163  1.00  0.00     0.055 C 
BRANCH  10  14
ATOM     14  C   UNL A   1      32.917  24.633  21.883  1.00  0.00     0.226 C 
ATOM     15  O   UNL A   1      33.272  24.618  20.700  1.00  0.00    -0.275 OA
BRANCH  14  16
ATOM     16  C   UNL A   1      32.461  25.962  22.501  1.00  0.00     0.090 C 
ATOM     17  C   UNL A   1      30.488  29.758  22.986  1.00  0.00     0.332 C 
ATOM     18  N   UNL A   1      31.089  28.534  22.449  1.00  0.00    -0.337 N 
ATOM     19  C   UNL A   1      30.392  27.352  22.970  1.00  0.00     0.262 C 
ATOM     20  C   UNL A   1      32.518  28.469  22.793  1.00  0.00     0.262 C 
ATOM     21  H   UNL A   1      30.995  28.550  21.434  1.00  0.00     0.347 HD
ATOM     22  C   UNL A   1      30.942  26.089  22.313  1.00  0.00     0.075 C 
ATOM     23  C   UNL A   1      33.163  27.255  22.105  1.00  0.00     0.075 C 
ENDBRANCH  14  16
ENDBRANCH  10  14
BRANCH  13  24
ATOM     24  C   UNL A   1      32.515  20.205  23.908  1.00  0.00    -0.038 A 
ATOM     25  C   UNL A   1      32.422  19.635  22.620  1.00  0.00     0.008 A 
ATOM     26  C   UNL A   1      32.596  19.339  25.022  1.00  0.00     0.054 A 
ATOM     27  C   UNL A   1      32.537  18.250  22.431  1.00  0.00     0.051 A 
ATOM     28  C   UNL A   1      32.810  18.000  24.800  1.00  0.00     0.166 A 
ATOM     29  C   UNL A   1      32.795  17.469  23.535  1.00  0.00     0.165 A 
ATOM     30  O   UNL A   1      33.158  17.084  25.745  1.00  0.00    -0.454 OA
ATOM     31  O   UNL A   1      33.127  16.149  23.533  1.00  0.00    -0.454 OA
ATOM     32  C   UNL A   1      33.604  16.013  24.890  1.00  0.00     0.468 C 
ENDBRANCH  13  24
ENDBRANCH   7   9
ENDBRANCH   6   7
ENDBRANCH   5   6
ENDBRANCH   4   5
ENDBRANCH   3   4
ENDBRANCH   2   3
ENDBRANCH   1   2
BRANCH   1  33
ATOM     33  O   UNL A   1      31.360  26.212  26.260  1.00  0.00    -0.376 OA
BRANCH  33  34
ATOM     34  C   UNL A   1      32.084  27.351  26.692  1.00  0.00     0.202 C 
BRANCH  34  35
ATOM     35  C   UNL A   1      33.609  27.537  26.534  1.00  0.00     0.261 C 
BRANCH  35  36
ATOM     36  O   UNL A   1      34.111  28.813  26.121  1.00  0.00    -0.460 OA
BRANCH  36  37
ATOM     37  C   UNL A   1      34.115  29.799  27.049  1.00  0.00     0.338 C 
ATOM     38  O   UNL A   1      33.173  30.523  27.348  1.00  0.00    -0.246 OA
BRANCH  37  39
ATOM     39  C   UNL A   1      35.390  29.752  27.791  1.00  0.00     0.060 A 
ATOM     40  C   UNL A   1      36.581  29.976  27.091  1.00  0.00     0.016 A 
ATOM     41  C   UNL A   1      35.426  29.475  29.159  1.00  0.00     0.016 A 
ATOM     42  C   UNL A   1      37.810  29.908  27.752  1.00  0.00     0.010 A 
ATOM     43  C   UNL A   1      36.663  29.378  29.813  1.00  0.00     0.010 A 
ATOM     44  C   UNL A   1      37.866  29.569  29.107  1.00  0.00    -0.014 A 
BRANCH  44  45
ATOM     45  C   UNL A   1      39.176  29.213  29.717  1.00  0.00     0.031 A 
ATOM     46  C   UNL A   1      39.974  28.098  29.089  1.00  0.00     0.074 A 
ATOM     47  C   UNL A   1      39.681  29.887  30.769  1.00  0.00     0.049 A 
ATOM     48  N   UNL A   1      41.088  27.544  29.486  1.00  0.00    -0.248 NA
ATOM     49  C   UNL A   1      39.437  27.540  27.836  1.00  0.00     0.031 C 
ATOM     50  C   UNL A   1      39.061  31.047  31.407  1.00  0.00     0.029 A 
ATOM     51  N   UNL A   1      40.835  29.688  31.490  1.00  0.00    -0.354 N 
ATOM     52  C   UNL A   1      41.370  26.549  28.556  1.00  0.00     0.074 A 
ATOM     53  C   UNL A   1      40.306  26.575  27.576  1.00  0.00     0.031 C 
ATOM     54  C   UNL A   1      39.835  31.447  32.434  1.00  0.00     0.029 A 
ATOM     55  C   UNL A   1      40.973  30.539  32.566  1.00  0.00     0.049 A 
ATOM     56  H   UNL A   1      41.500  29.000  31.261  1.00  0.00     0.167 HD
ATOM     57  C   UNL A   1      42.417  25.690  28.527  1.00  0.00     0.034 A 
ATOM     58  C   UNL A   1      41.888  30.554  33.560  1.00  0.00     0.034 A 
ATOM     59  C   UNL A   1      43.478  25.682  29.503  1.00  0.00     0.049 A 
ATOM     60  C   UNL A   1      42.989  29.512  33.560  1.00  0.00     0.074 A 
ATOM     61  C   UNL A   1      44.595  24.865  29.550  1.00  0.00     0.029 A 
ATOM     62  N   UNL A   1      43.551  26.518  30.609  1.00  0.00    -0.354 N 
ATOM     63  N   UNL A   1      43.239  28.569  32.679  1.00  0.00    -0.248 NA
ATOM     64  C   UNL A   1      43.934  29.539  34.686  1.00  0.00     0.031 C 
ATOM     65  C   UNL A   1      45.292  25.145  30.728  1.00  0.00     0.029 A 
ATOM     66  C   UNL A   1      44.670  26.206  31.366  1.00  0.00     0.049 A 
ATOM     67  H   UNL A   1      42.904  27.228  30.824  1.00  0.00     0.167 HD
ATOM     68  C   UNL A   1      44.396  27.930  33.124  1.00  0.00     0.074 A 
ATOM     69  C   UNL A   1      44.799  28.599  34.341  1.00  0.00     0.031 C 
ATOM     70  C   UNL A   1      45.071  26.888  32.572  1.00  0.00     0.034 A 
BRANCH  57  71
ATOM     71  C   UNL A   1      42.429  24.631  27.452  1.00  0.00     0.023 A 
ATOM     72  C   UNL A   1      41.646  23.468  27.531  1.00  0.00     0.031 A 
ATOM     73  C   UNL A   1      43.240  24.805  26.316  1.00  0.00     0.131 A 
ATOM     74  C   UNL A   1      41.726  22.503  26.514  1.00  0.00     0.055 A 
ATOM     75  C   UNL A   1      43.259  23.878  25.273  1.00  0.00     0.041 A 
ATOM     76  F   UNL A   1      44.032  25.883  26.201  1.00  0.00    -0.206 F 
ATOM     77  C   UNL A   1      42.504  22.713  25.373  1.00  0.00     0.022 A 
BRANCH  74  78
ATOM     78  S   UNL A   1      40.886  20.913  26.754  1.00  0.00     0.124 S 
ATOM     79  O   UNL A   1      40.847  20.817  28.211  1.00  0.00    -0.237 OA
ATOM     80  O   UNL A   1      39.603  21.130  26.095  1.00  0.00    -0.237 OA
ATOM     81  O   UNL A   1      41.772  19.955  26.097  1.00  0.00    -0.744 OA
ENDBRANCH  74  78
ENDBRANCH  57  71
BRANCH  58  82
ATOM     82  C   UNL A   1      41.789  31.530  34.690  1.00  0.00     0.023 A 
ATOM     83  C   UNL A   1      42.539  32.720  34.690  1.00  0.00     0.031 A 
ATOM     84  C   UNL A   1      41.042  31.231  35.843  1.00  0.00     0.131 A 
ATOM     85  C   UNL A   1      42.587  33.519  35.844  1.00  0.00     0.055 A 
ATOM     86  C   UNL A   1      41.030  32.070  36.959  1.00  0.00     0.041 A 
ATOM     87  F   UNL A   1      40.317  30.102  35.910  1.00  0.00    -0.206 F 
ATOM     88  C   UNL A   1      41.824  33.212  36.972  1.00  0.00     0.022 A 
BRANCH  85  89
ATOM     89  S   UNL A   1      43.783  34.885  35.906  1.00  0.00     0.124 S 
ATOM     90  O   UNL A   1      43.611  35.363  37.273  1.00  0.00    -0.237 OA
ATOM     91  O   UNL A   1      45.038  34.201  35.617  1.00  0.00    -0.237 OA
ATOM     92  O   UNL A   1      43.315  35.794  34.862  1.00  0.00    -0.744 OA
ENDBRANCH  85  89
ENDBRANCH  58  82
BRANCH  70  93
ATOM     93  C   UNL A   1      46.363  26.463  33.235  1.00  0.00     0.023 A 
ATOM     94  C   UNL A   1      47.607  27.013  32.877  1.00  0.00     0.031 A 
ATOM     95  C   UNL A   1      46.342  25.484  34.245  1.00  0.00     0.131 A 
ATOM     96  C   UNL A   1      48.781  26.537  33.481  1.00  0.00     0.055 A 
ATOM     97  C   UNL A   1      47.505  25.065  34.892  1.00  0.00     0.041 A 
ATOM     98  F   UNL A   1      45.184  24.921  34.628  1.00  0.00    -0.206 F 
ATOM     99  C   UNL A   1      48.736  25.581  34.500  1.00  0.00     0.022 A 
BRANCH  96 100
ATOM    100  S   UNL A   1      50.382  27.109  32.849  1.00  0.00     0.124 S 
ATOM    101  O   UNL A   1      51.157  25.872  32.818  1.00  0.00    -0.237 OA
ATOM    102  O   UNL A   1      50.023  27.668  31.550  1.00  0.00    -0.237 OA
ATOM    103  O   UNL A   1      50.815  28.087  33.846  1.00  0.00    -0.744 OA
ENDBRANCH  96 100
ENDBRANCH  70  93
ENDBRANCH  44  45
ENDBRANCH  37  39
ENDBRANCH  36  37
ENDBRANCH  35  36
ENDBRANCH  34  35
ENDBRANCH  33  34
ENDBRANCH   1  33
TORSDOF 23
ENDMDL
