MODEL 1
REMARK VINA RESULT:     -11.2      0.000      0.000
REMARK SMILES COc1cccc(-c2c([C@H]3c4ccccc4C(=O)N3CC(=O)OCCOCCOCCOC(=O)c3ccc(-c4c5nc(c(-c6cc(S(=O)(=O)[O-])ccc6F)c6ccc([nH]6)c(-c6cc(S(=O)(=O)[O-])ccc6F)c6nc(c(-c7cc(S(=O)(=O)[O-])ccc7F)c7ccc4[nH]7)C=C6)C=C5)cc3)c3ccccc3n2C)c1
REMARK SMILES IDX 27 1 26 2 25 3 24 4 23 5 21 6 22 7 20 8 19 9 10 10 11 11
REMARK SMILES IDX 12 12 16 13 17 14 13 15 15 16 18 17 14 18 9 19 8 20 104 21
REMARK SMILES IDX 98 22 103 23 105 24 99 25 102 26 100 27 101 28 7 29 3 30
REMARK SMILES IDX 4 31 106 32 5 33 6 34 2 35 1 36 28 37 29 38 30 39 31 40
REMARK SMILES IDX 32 41 33 42 34 43 35 44 36 45 97 46 37 47 96 48 38 49 39 50
REMARK SMILES IDX 40 51 90 52 41 53 95 54 89 55 91 56 42 57 94 58 88 59 87 60
REMARK SMILES IDX 43 62 75 63 55 64 74 65 56 66 59 67 73 68 92 69 57 70 58 71
REMARK SMILES IDX 72 73 93 74 60 75 44 76 45 77 53 78 46 79 52 80 54 81 51 82
REMARK SMILES IDX 47 83 48 84 49 85 50 86 76 87 77 88 85 89 78 90 84 91 86 92
REMARK SMILES IDX 83 93 79 94 80 95 81 96 82 97 61 98 62 99 70 100 63 101
REMARK SMILES IDX 69 102 71 103 68 104 64 105 65 106 66 107 67 108
REMARK H PARENT 91 61 59 72
REMARK Flexibility Score: inf
ROOT
ATOM      1  C   UNL A   1      33.179  31.364  27.460  1.00  0.00     0.188 C 
ENDROOT
BRANCH   1   2
ATOM      2  O   UNL A   1      33.218  30.015  27.029  1.00  0.00    -0.376 OA
BRANCH   2   3
ATOM      3  C   UNL A   1      32.005  29.313  26.786  1.00  0.00     0.202 C 
BRANCH   3   4
ATOM      4  C   UNL A   1      31.877  28.371  25.584  1.00  0.00     0.261 C 
BRANCH   4   5
ATOM      5  O   UNL A   1      32.394  27.063  25.845  1.00  0.00    -0.462 OA
BRANCH   5   6
ATOM      6  C   UNL A   1      33.522  26.737  25.181  1.00  0.00     0.325 C 
ATOM      7  O   UNL A   1      33.959  27.333  24.200  1.00  0.00    -0.250 OA
BRANCH   6   8
ATOM      8  C   UNL A   1      34.353  25.678  25.884  1.00  0.00     0.243 C 
BRANCH   8   9
ATOM      9  N   UNL A   1      34.116  24.228  25.795  1.00  0.00    -0.316 N 
ATOM     10  C   UNL A   1      34.649  23.608  24.589  1.00  0.00     0.150 C 
ATOM     11  C   UNL A   1      33.431  23.728  23.708  1.00  0.00    -0.008 A 
ATOM     12  C   UNL A   1      33.340  24.525  22.570  1.00  0.00     0.007 A 
ATOM     13  C   UNL A   1      32.294  23.583  24.513  1.00  0.00     0.045 A 
ATOM     14  C   UNL A   1      32.753  23.885  25.894  1.00  0.00     0.255 C 
ATOM     15  C   UNL A   1      32.098  25.094  22.249  1.00  0.00     0.000 A 
ATOM     16  C   UNL A   1      31.027  23.992  24.125  1.00  0.00     0.014 A 
ATOM     17  O   UNL A   1      32.004  24.093  26.831  1.00  0.00    -0.269 OA
ATOM     18  C   UNL A   1      30.944  24.792  22.991  1.00  0.00     0.001 A 
BRANCH  10  19
ATOM     19  C   UNL A   1      35.031  22.128  24.694  1.00  0.00     0.013 A 
ATOM     20  C   UNL A   1      36.303  21.658  25.096  1.00  0.00     0.055 A 
ATOM     21  N   UNL A   1      36.320  20.294  24.863  1.00  0.00    -0.343 N 
ATOM     22  C   UNL A   1      34.214  20.939  24.535  1.00  0.00     0.006 A 
ATOM     23  C   UNL A   1      35.033  19.822  24.734  1.00  0.00     0.049 A 
ATOM     24  C   UNL A   1      37.491  19.455  24.697  1.00  0.00     0.150 C 
ATOM     25  C   UNL A   1      32.850  20.680  24.267  1.00  0.00     0.011 A 
ATOM     26  C   UNL A   1      34.536  18.502  24.745  1.00  0.00     0.027 A 
ATOM     27  C   UNL A   1      32.354  19.369  24.230  1.00  0.00     0.001 A 
ATOM     28  C   UNL A   1      33.183  18.294  24.495  1.00  0.00     0.002 A 
BRANCH  20  29
ATOM     29  C   UNL A   1      37.418  22.449  25.652  1.00  0.00     0.002 A 
ATOM     30  C   UNL A   1      39.618  22.378  26.701  1.00  0.00     0.119 A 
ATOM     31  C   UNL A   1      39.452  23.698  27.112  1.00  0.00     0.046 A 
ATOM     32  C   UNL A   1      38.637  21.790  25.907  1.00  0.00     0.056 A 
ATOM     33  C   UNL A   1      38.313  24.415  26.747  1.00  0.00     0.005 A 
ATOM     34  C   UNL A   1      37.286  23.783  26.045  1.00  0.00     0.010 A 
BRANCH  30  35
ATOM     35  O   UNL A   1      40.718  21.754  27.217  1.00  0.00    -0.497 OA
ATOM     36  C   UNL A   1      40.929  20.388  26.891  1.00  0.00     0.278 C 
ENDBRANCH  30  35
ENDBRANCH  20  29
ENDBRANCH  10  19
ENDBRANCH   8   9
ENDBRANCH   6   8
ENDBRANCH   5   6
ENDBRANCH   4   5
ENDBRANCH   3   4
ENDBRANCH   2   3
ENDBRANCH   1   2
BRANCH   1  37
ATOM     37  C   UNL A   1      34.460  32.100  27.896  1.00  0.00     0.188 C 
BRANCH  37  38
ATOM     38  O   UNL A   1      34.395  33.479  28.143  1.00  0.00    -0.376 OA
BRANCH  38  39
ATOM     39  C   UNL A   1      33.607  34.014  29.189  1.00  0.00     0.202 C 
BRANCH  39  40
ATOM     40  C   UNL A   1      33.114  35.466  29.304  1.00  0.00     0.261 C 
BRANCH  40  41
ATOM     41  O   UNL A   1      33.461  36.191  30.482  1.00  0.00    -0.460 OA
BRANCH  41  42
ATOM     42  C   UNL A   1      32.964  35.673  31.634  1.00  0.00     0.338 C 
ATOM     43  O   UNL A   1      31.794  35.639  31.995  1.00  0.00    -0.246 OA
BRANCH  42  44
ATOM     44  C   UNL A   1      34.048  34.972  32.335  1.00  0.00     0.060 A 
ATOM     45  C   UNL A   1      35.335  35.525  32.336  1.00  0.00     0.016 A 
ATOM     46  C   UNL A   1      33.792  33.752  32.959  1.00  0.00     0.016 A 
ATOM     47  C   UNL A   1      36.376  34.849  32.969  1.00  0.00     0.010 A 
ATOM     48  C   UNL A   1      34.842  33.071  33.575  1.00  0.00     0.010 A 
ATOM     49  C   UNL A   1      36.141  33.608  33.571  1.00  0.00    -0.014 A 
BRANCH  49  50
ATOM     50  C   UNL A   1      37.271  32.777  34.051  1.00  0.00     0.031 A 
ATOM     51  C   UNL A   1      37.910  33.140  35.361  1.00  0.00     0.074 A 
ATOM     52  C   UNL A   1      37.737  31.742  33.330  1.00  0.00     0.049 A 
ATOM     53  N   UNL A   1      39.020  32.705  35.893  1.00  0.00    -0.248 NA
ATOM     54  C   UNL A   1      37.198  34.140  36.173  1.00  0.00     0.031 C 
ATOM     55  C   UNL A   1      37.151  31.245  32.086  1.00  0.00     0.029 A 
ATOM     56  N   UNL A   1      38.834  30.939  33.529  1.00  0.00    -0.354 N 
ATOM     57  C   UNL A   1      39.159  33.396  37.091  1.00  0.00     0.074 A 
ATOM     58  C   UNL A   1      38.025  34.290  37.196  1.00  0.00     0.031 C 
ATOM     59  C   UNL A   1      37.911  30.239  31.619  1.00  0.00     0.029 A 
ATOM     60  C   UNL A   1      39.071  30.066  32.493  1.00  0.00     0.049 A 
ATOM     61  H   UNL A   1      39.396  30.984  34.337  1.00  0.00     0.167 HD
ATOM     62  C   UNL A   1      40.148  33.297  38.011  1.00  0.00     0.034 A 
ATOM     63  C   UNL A   1      40.130  29.263  32.252  1.00  0.00     0.034 A 
ATOM     64  C   UNL A   1      41.274  32.405  37.880  1.00  0.00     0.049 A 
ATOM     65  C   UNL A   1      41.280  29.250  33.238  1.00  0.00     0.074 A 
ATOM     66  C   UNL A   1      42.328  32.218  38.756  1.00  0.00     0.029 A 
ATOM     67  N   UNL A   1      41.501  31.563  36.799  1.00  0.00    -0.354 N 
ATOM     68  N   UNL A   1      41.416  29.921  34.359  1.00  0.00    -0.248 NA
ATOM     69  C   UNL A   1      42.417  28.374  32.924  1.00  0.00     0.031 C 
ATOM     70  C   UNL A   1      43.233  31.330  38.167  1.00  0.00     0.029 A 
ATOM     71  C   UNL A   1      42.698  30.885  36.968  1.00  0.00     0.049 A 
ATOM     72  H   UNL A   1      40.900  31.463  36.025  1.00  0.00     0.167 HD
ATOM     73  C   UNL A   1      42.635  29.516  34.899  1.00  0.00     0.074 A 
ATOM     74  C   UNL A   1      43.190  28.540  33.987  1.00  0.00     0.031 C 
ATOM     75  C   UNL A   1      43.239  29.909  36.051  1.00  0.00     0.034 A 
BRANCH  62  76
ATOM     76  C   UNL A   1      40.090  34.223  39.200  1.00  0.00     0.023 A 
ATOM     77  C   UNL A   1      39.342  33.916  40.349  1.00  0.00     0.031 A 
ATOM     78  C   UNL A   1      40.783  35.447  39.173  1.00  0.00     0.131 A 
ATOM     79  C   UNL A   1      39.254  34.848  41.395  1.00  0.00     0.055 A 
ATOM     80  C   UNL A   1      40.758  36.333  40.250  1.00  0.00     0.041 A 
ATOM     81  F   UNL A   1      41.489  35.808  38.089  1.00  0.00    -0.206 F 
ATOM     82  C   UNL A   1      39.980  36.041  41.365  1.00  0.00     0.022 A 
BRANCH  79  83
ATOM     83  S   UNL A   1      38.067  34.541  42.732  1.00  0.00     0.124 S 
ATOM     84  O   UNL A   1      36.792  34.765  42.053  1.00  0.00    -0.237 OA
ATOM     85  O   UNL A   1      38.359  33.161  43.103  1.00  0.00    -0.237 OA
ATOM     86  O   UNL A   1      38.414  35.545  43.736  1.00  0.00    -0.744 OA
ENDBRANCH  79  83
ENDBRANCH  62  76
BRANCH  63  87
ATOM     87  C   UNL A   1      40.205  28.455  30.997  1.00  0.00     0.023 A 
ATOM     88  C   UNL A   1      41.120  28.775  29.983  1.00  0.00     0.031 A 
ATOM     89  C   UNL A   1      39.306  27.400  30.761  1.00  0.00     0.131 A 
ATOM     90  C   UNL A   1      41.079  28.087  28.758  1.00  0.00     0.055 A 
ATOM     91  C   UNL A   1      39.313  26.674  29.568  1.00  0.00     0.041 A 
ATOM     92  F   UNL A   1      38.399  27.056  31.690  1.00  0.00    -0.206 F 
ATOM     93  C   UNL A   1      40.194  27.028  28.551  1.00  0.00     0.022 A 
BRANCH  90  94
ATOM     94  S   UNL A   1      42.124  28.675  27.396  1.00  0.00     0.124 S 
ATOM     95  O   UNL A   1      41.198  28.619  26.271  1.00  0.00    -0.237 OA
ATOM     96  O   UNL A   1      42.496  30.009  27.856  1.00  0.00    -0.237 OA
ATOM     97  O   UNL A   1      43.213  27.703  27.358  1.00  0.00    -0.744 OA
ENDBRANCH  90  94
ENDBRANCH  63  87
BRANCH  75  98
ATOM     98  C   UNL A   1      44.535  29.230  36.429  1.00  0.00     0.023 A 
ATOM     99  C   UNL A   1      44.588  28.183  37.365  1.00  0.00     0.031 A 
ATOM    100  C   UNL A   1      45.738  29.632  35.820  1.00  0.00     0.131 A 
ATOM    101  C   UNL A   1      45.823  27.604  37.697  1.00  0.00     0.055 A 
ATOM    102  C   UNL A   1      46.954  29.009  36.106  1.00  0.00     0.041 A 
ATOM    103  F   UNL A   1      45.751  30.630  34.922  1.00  0.00    -0.206 F 
ATOM    104  C   UNL A   1      47.003  27.995  37.058  1.00  0.00     0.022 A 
BRANCH 101 105
ATOM    105  S   UNL A   1      45.885  26.384  39.039  1.00  0.00     0.124 S 
ATOM    106  O   UNL A   1      47.002  26.875  39.841  1.00  0.00    -0.237 OA
ATOM    107  O   UNL A   1      44.562  26.513  39.641  1.00  0.00    -0.237 OA
ATOM    108  O   UNL A   1      46.128  25.122  38.344  1.00  0.00    -0.744 OA
ENDBRANCH 101 105
ENDBRANCH  75  98
ENDBRANCH  49  50
ENDBRANCH  42  44
ENDBRANCH  41  42
ENDBRANCH  40  41
ENDBRANCH  39  40
ENDBRANCH  38  39
ENDBRANCH  37  38
ENDBRANCH   1  37
TORSDOF 24
ENDMDL
MODEL 2
REMARK VINA RESULT:     -10.9      5.181     10.110
REMARK SMILES COc1cccc(-c2c([C@H]3c4ccccc4C(=O)N3CC(=O)OCCOCCOCCOC(=O)c3ccc(-c4c5nc(c(-c6cc(S(=O)(=O)[O-])ccc6F)c6ccc([nH]6)c(-c6cc(S(=O)(=O)[O-])ccc6F)c6nc(c(-c7cc(S(=O)(=O)[O-])ccc7F)c7ccc4[nH]7)C=C6)C=C5)cc3)c3ccccc3n2C)c1
REMARK SMILES IDX 27 1 26 2 25 3 24 4 23 5 21 6 22 7 20 8 19 9 10 10 11 11
REMARK SMILES IDX 12 12 16 13 17 14 13 15 15 16 18 17 14 18 9 19 8 20 104 21
REMARK SMILES IDX 98 22 103 23 105 24 99 25 102 26 100 27 101 28 7 29 3 30
REMARK SMILES IDX 4 31 106 32 5 33 6 34 2 35 1 36 28 37 29 38 30 39 31 40
REMARK SMILES IDX 32 41 33 42 34 43 35 44 36 45 97 46 37 47 96 48 38 49 39 50
REMARK SMILES IDX 40 51 90 52 41 53 95 54 89 55 91 56 42 57 94 58 88 59 87 60
REMARK SMILES IDX 43 62 75 63 55 64 74 65 56 66 59 67 73 68 92 69 57 70 58 71
REMARK SMILES IDX 72 73 93 74 60 75 44 76 45 77 53 78 46 79 52 80 54 81 51 82
REMARK SMILES IDX 47 83 48 84 49 85 50 86 76 87 77 88 85 89 78 90 84 91 86 92
REMARK SMILES IDX 83 93 79 94 80 95 81 96 82 97 61 98 62 99 70 100 63 101
REMARK SMILES IDX 69 102 71 103 68 104 64 105 65 106 66 107 67 108
REMARK H PARENT 91 61 59 72
REMARK Flexibility Score: inf
ROOT
ATOM      1  C   UNL A   1      48.451  28.245  26.603  1.00  0.00     0.188 C 
ENDROOT
BRANCH   1   2
ATOM      2  O   UNL A   1      48.035  27.098  25.882  1.00  0.00    -0.376 OA
BRANCH   2   3
ATOM      3  C   UNL A   1      46.945  27.190  24.973  1.00  0.00     0.202 C 
BRANCH   3   4
ATOM      4  C   UNL A   1      45.556  26.675  25.367  1.00  0.00     0.261 C 
BRANCH   4   5
ATOM      5  O   UNL A   1      44.509  27.235  24.568  1.00  0.00    -0.462 OA
BRANCH   5   6
ATOM      6  C   UNL A   1      43.442  27.703  25.247  1.00  0.00     0.325 C 
ATOM      7  O   UNL A   1      42.450  28.215  24.734  1.00  0.00    -0.250 OA
BRANCH   6   8
ATOM      8  C   UNL A   1      43.461  27.349  26.723  1.00  0.00     0.243 C 
BRANCH   8   9
ATOM      9  N   UNL A   1      42.268  27.249  27.580  1.00  0.00    -0.316 N 
ATOM     10  C   UNL A   1      42.514  27.545  28.984  1.00  0.00     0.150 C 
ATOM     11  C   UNL A   1      42.813  26.148  29.467  1.00  0.00    -0.008 A 
ATOM     12  C   UNL A   1      44.051  25.710  29.933  1.00  0.00     0.007 A 
ATOM     13  C   UNL A   1      42.022  25.254  28.735  1.00  0.00     0.045 A 
ATOM     14  C   UNL A   1      41.638  25.991  27.503  1.00  0.00     0.255 C 
ATOM     15  C   UNL A   1      44.417  24.374  29.703  1.00  0.00     0.000 A 
ATOM     16  C   UNL A   1      42.287  23.896  28.646  1.00  0.00     0.014 A 
ATOM     17  O   UNL A   1      41.150  25.467  26.518  1.00  0.00    -0.269 OA
ATOM     18  C   UNL A   1      43.526  23.465  29.108  1.00  0.00     0.001 A 
BRANCH  10  19
ATOM     19  C   UNL A   1      41.327  28.093  29.785  1.00  0.00     0.013 A 
ATOM     20  C   UNL A   1      41.371  28.410  31.162  1.00  0.00     0.055 A 
ATOM     21  N   UNL A   1      40.071  28.668  31.558  1.00  0.00    -0.343 N 
ATOM     22  C   UNL A   1      40.007  28.501  29.338  1.00  0.00     0.006 A 
ATOM     23  C   UNL A   1      39.288  28.933  30.457  1.00  0.00     0.049 A 
ATOM     24  C   UNL A   1      39.544  28.607  32.908  1.00  0.00     0.150 C 
ATOM     25  C   UNL A   1      39.342  28.578  28.093  1.00  0.00     0.011 A 
ATOM     26  C   UNL A   1      37.994  29.489  30.366  1.00  0.00     0.027 A 
ATOM     27  C   UNL A   1      38.039  29.086  27.996  1.00  0.00     0.001 A 
ATOM     28  C   UNL A   1      37.384  29.563  29.118  1.00  0.00     0.002 A 
BRANCH  20  29
ATOM     29  C   UNL A   1      42.560  28.455  32.035  1.00  0.00     0.002 A 
ATOM     30  C   UNL A   1      44.739  29.477  32.429  1.00  0.00     0.119 A 
ATOM     31  C   UNL A   1      45.061  28.432  33.290  1.00  0.00     0.046 A 
ATOM     32  C   UNL A   1      43.463  29.524  31.872  1.00  0.00     0.056 A 
ATOM     33  C   UNL A   1      44.126  27.438  33.577  1.00  0.00     0.005 A 
ATOM     34  C   UNL A   1      42.891  27.433  32.928  1.00  0.00     0.010 A 
BRANCH  30  35
ATOM     35  O   UNL A   1      45.775  30.320  32.143  1.00  0.00    -0.497 OA
ATOM     36  C   UNL A   1      47.053  30.020  32.687  1.00  0.00     0.278 C 
ENDBRANCH  30  35
ENDBRANCH  20  29
ENDBRANCH  10  19
ENDBRANCH   8   9
ENDBRANCH   6   8
ENDBRANCH   5   6
ENDBRANCH   4   5
ENDBRANCH   3   4
ENDBRANCH   2   3
ENDBRANCH   1   2
BRANCH   1  37
ATOM     37  C   UNL A   1      47.509  28.944  27.601  1.00  0.00     0.188 C 
BRANCH  37  38
ATOM     38  O   UNL A   1      47.702  30.307  27.870  1.00  0.00    -0.376 OA
BRANCH  38  39
ATOM     39  C   UNL A   1      47.735  31.275  26.839  1.00  0.00     0.202 C 
BRANCH  39  40
ATOM     40  C   UNL A   1      46.631  32.293  26.512  1.00  0.00     0.261 C 
BRANCH  40  41
ATOM     41  O   UNL A   1      45.421  31.797  25.941  1.00  0.00    -0.460 OA
BRANCH  41  42
ATOM     42  C   UNL A   1      44.395  32.685  25.925  1.00  0.00     0.338 C 
ATOM     43  O   UNL A   1      43.783  33.102  24.949  1.00  0.00    -0.246 OA
BRANCH  42  44
ATOM     44  C   UNL A   1      43.987  32.951  27.311  1.00  0.00     0.060 A 
ATOM     45  C   UNL A   1      43.690  31.875  28.157  1.00  0.00     0.016 A 
ATOM     46  C   UNL A   1      43.868  34.267  27.756  1.00  0.00     0.016 A 
ATOM     47  C   UNL A   1      43.269  32.120  29.463  1.00  0.00     0.010 A 
ATOM     48  C   UNL A   1      43.429  34.506  29.058  1.00  0.00     0.010 A 
ATOM     49  C   UNL A   1      43.114  33.436  29.913  1.00  0.00    -0.014 A 
BRANCH  49  50
ATOM     50  C   UNL A   1      42.460  33.715  31.214  1.00  0.00     0.031 A 
ATOM     51  C   UNL A   1      43.310  33.688  32.453  1.00  0.00     0.074 A 
ATOM     52  C   UNL A   1      41.140  33.959  31.299  1.00  0.00     0.049 A 
ATOM     53  N   UNL A   1      42.949  33.699  33.708  1.00  0.00    -0.248 NA
ATOM     54  C   UNL A   1      44.764  33.630  32.239  1.00  0.00     0.031 C 
ATOM     55  C   UNL A   1      40.230  34.090  30.163  1.00  0.00     0.029 A 
ATOM     56  N   UNL A   1      40.332  34.113  32.399  1.00  0.00    -0.354 N 
ATOM     57  C   UNL A   1      44.130  33.622  34.438  1.00  0.00     0.074 A 
ATOM     58  C   UNL A   1      45.214  33.548  33.481  1.00  0.00     0.031 C 
ATOM     59  C   UNL A   1      38.981  34.277  30.627  1.00  0.00     0.029 A 
ATOM     60  C   UNL A   1      38.995  34.212  32.088  1.00  0.00     0.049 A 
ATOM     61  H   UNL A   1      40.676  34.149  33.320  1.00  0.00     0.167 HD
ATOM     62  C   UNL A   1      44.289  33.606  35.783  1.00  0.00     0.034 A 
ATOM     63  C   UNL A   1      37.908  34.196  32.889  1.00  0.00     0.034 A 
ATOM     64  C   UNL A   1      43.192  33.670  36.717  1.00  0.00     0.049 A 
ATOM     65  C   UNL A   1      38.102  34.062  34.385  1.00  0.00     0.074 A 
ATOM     66  C   UNL A   1      43.240  33.669  38.100  1.00  0.00     0.029 A 
ATOM     67  N   UNL A   1      41.850  33.732  36.366  1.00  0.00    -0.354 N 
ATOM     68  N   UNL A   1      39.219  33.969  35.070  1.00  0.00    -0.248 NA
ATOM     69  C   UNL A   1      36.889  34.031  35.214  1.00  0.00     0.031 C 
ATOM     70  C   UNL A   1      41.928  33.643  38.583  1.00  0.00     0.029 A 
ATOM     71  C   UNL A   1      41.060  33.729  37.506  1.00  0.00     0.049 A 
ATOM     72  H   UNL A   1      41.508  33.771  35.444  1.00  0.00     0.167 HD
ATOM     73  C   UNL A   1      38.841  33.908  36.410  1.00  0.00     0.074 A 
ATOM     74  C   UNL A   1      37.396  33.982  36.437  1.00  0.00     0.031 C 
ATOM     75  C   UNL A   1      39.618  33.807  37.519  1.00  0.00     0.034 A 
BRANCH  62  76
ATOM     76  C   UNL A   1      45.690  33.443  36.318  1.00  0.00     0.023 A 
ATOM     77  C   UNL A   1      46.310  32.186  36.413  1.00  0.00     0.031 A 
ATOM     78  C   UNL A   1      46.410  34.568  36.759  1.00  0.00     0.131 A 
ATOM     79  C   UNL A   1      47.584  32.077  36.993  1.00  0.00     0.055 A 
ATOM     80  C   UNL A   1      47.708  34.463  37.259  1.00  0.00     0.041 A 
ATOM     81  F   UNL A   1      45.856  35.791  36.721  1.00  0.00    -0.206 F 
ATOM     82  C   UNL A   1      48.297  33.210  37.390  1.00  0.00     0.022 A 
BRANCH  79  83
ATOM     83  S   UNL A   1      48.236  30.423  37.350  1.00  0.00     0.124 S 
ATOM     84  O   UNL A   1      47.006  29.646  37.497  1.00  0.00    -0.237 OA
ATOM     85  O   UNL A   1      49.034  30.135  36.164  1.00  0.00    -0.237 OA
ATOM     86  O   UNL A   1      48.994  30.612  38.584  1.00  0.00    -0.744 OA
ENDBRANCH  79  83
ENDBRANCH  62  76
BRANCH  63  87
ATOM     87  C   UNL A   1      36.531  34.231  32.309  1.00  0.00     0.023 A 
ATOM     88  C   UNL A   1      35.741  35.388  32.386  1.00  0.00     0.031 A 
ATOM     89  C   UNL A   1      35.956  33.080  31.740  1.00  0.00     0.131 A 
ATOM     90  C   UNL A   1      34.404  35.354  31.956  1.00  0.00     0.055 A 
ATOM     91  C   UNL A   1      34.648  33.071  31.251  1.00  0.00     0.041 A 
ATOM     92  F   UNL A   1      36.660  31.940  31.650  1.00  0.00    -0.206 F 
ATOM     93  C   UNL A   1      33.858  34.209  31.373  1.00  0.00     0.022 A 
BRANCH  90  94
ATOM     94  S   UNL A   1      33.352  36.797  32.276  1.00  0.00     0.124 S 
ATOM     95  O   UNL A   1      32.153  36.172  32.821  1.00  0.00    -0.237 OA
ATOM     96  O   UNL A   1      34.164  37.560  33.218  1.00  0.00    -0.237 OA
ATOM     97  O   UNL A   1      33.195  37.403  30.956  1.00  0.00    -0.744 OA
ENDBRANCH  90  94
ENDBRANCH  63  87
BRANCH  75  98
ATOM     98  C   UNL A   1      38.927  33.846  38.863  1.00  0.00     0.023 A 
ATOM     99  C   UNL A   1      38.345  32.705  39.441  1.00  0.00     0.031 A 
ATOM    100  C   UNL A   1      38.873  35.052  39.586  1.00  0.00     0.131 A 
ATOM    101  C   UNL A   1      37.696  32.803  40.681  1.00  0.00     0.055 A 
ATOM    102  C   UNL A   1      38.283  35.130  40.849  1.00  0.00     0.041 A 
ATOM    103  F   UNL A   1      39.407  36.177  39.083  1.00  0.00    -0.206 F 
ATOM    104  C   UNL A   1      37.680  34.003  41.398  1.00  0.00     0.022 A 
BRANCH 101 105
ATOM    105  S   UNL A   1      36.796  31.361  41.315  1.00  0.00     0.124 S 
ATOM    106  O   UNL A   1      36.459  31.787  42.670  1.00  0.00    -0.237 OA
ATOM    107  O   UNL A   1      35.678  31.254  40.383  1.00  0.00    -0.237 OA
ATOM    108  O   UNL A   1      37.777  30.280  41.231  1.00  0.00    -0.744 OA
ENDBRANCH 101 105
ENDBRANCH  75  98
ENDBRANCH  49  50
ENDBRANCH  42  44
ENDBRANCH  41  42
ENDBRANCH  40  41
ENDBRANCH  39  40
ENDBRANCH  38  39
ENDBRANCH  37  38
ENDBRANCH   1  37
TORSDOF 24
ENDMDL
MODEL 3
REMARK VINA RESULT:     -10.7      1.766      2.038
REMARK SMILES COc1cccc(-c2c([C@H]3c4ccccc4C(=O)N3CC(=O)OCCOCCOCCOC(=O)c3ccc(-c4c5nc(c(-c6cc(S(=O)(=O)[O-])ccc6F)c6ccc([nH]6)c(-c6cc(S(=O)(=O)[O-])ccc6F)c6nc(c(-c7cc(S(=O)(=O)[O-])ccc7F)c7ccc4[nH]7)C=C6)C=C5)cc3)c3ccccc3n2C)c1
REMARK SMILES IDX 27 1 26 2 25 3 24 4 23 5 21 6 22 7 20 8 19 9 10 10 11 11
REMARK SMILES IDX 12 12 16 13 17 14 13 15 15 16 18 17 14 18 9 19 8 20 104 21
REMARK SMILES IDX 98 22 103 23 105 24 99 25 102 26 100 27 101 28 7 29 3 30
REMARK SMILES IDX 4 31 106 32 5 33 6 34 2 35 1 36 28 37 29 38 30 39 31 40
REMARK SMILES IDX 32 41 33 42 34 43 35 44 36 45 97 46 37 47 96 48 38 49 39 50
REMARK SMILES IDX 40 51 90 52 41 53 95 54 89 55 91 56 42 57 94 58 88 59 87 60
REMARK SMILES IDX 43 62 75 63 55 64 74 65 56 66 59 67 73 68 92 69 57 70 58 71
REMARK SMILES IDX 72 73 93 74 60 75 44 76 45 77 53 78 46 79 52 80 54 81 51 82
REMARK SMILES IDX 47 83 48 84 49 85 50 86 76 87 77 88 85 89 78 90 84 91 86 92
REMARK SMILES IDX 83 93 79 94 80 95 81 96 82 97 61 98 62 99 70 100 63 101
REMARK SMILES IDX 69 102 71 103 68 104 64 105 65 106 66 107 67 108
REMARK H PARENT 91 61 59 72
REMARK Flexibility Score: inf
ROOT
ATOM      1  C   UNL A   1      33.028  31.202  27.348  1.00  0.00     0.188 C 
ENDROOT
BRANCH   1   2
ATOM      2  O   UNL A   1      32.927  29.805  27.133  1.00  0.00    -0.376 OA
BRANCH   2   3
ATOM      3  C   UNL A   1      31.727  29.254  26.604  1.00  0.00     0.202 C 
BRANCH   3   4
ATOM      4  C   UNL A   1      31.777  28.177  25.515  1.00  0.00     0.261 C 
BRANCH   4   5
ATOM      5  O   UNL A   1      32.486  27.005  25.925  1.00  0.00    -0.462 OA
BRANCH   5   6
ATOM      6  C   UNL A   1      33.529  26.650  25.147  1.00  0.00     0.325 C 
ATOM      7  O   UNL A   1      33.859  27.219  24.109  1.00  0.00    -0.250 OA
BRANCH   6   8
ATOM      8  C   UNL A   1      34.423  25.597  25.776  1.00  0.00     0.243 C 
BRANCH   8   9
ATOM      9  N   UNL A   1      34.170  24.147  25.738  1.00  0.00    -0.316 N 
ATOM     10  C   UNL A   1      34.654  23.488  24.532  1.00  0.00     0.150 C 
ATOM     11  C   UNL A   1      33.405  23.594  23.692  1.00  0.00    -0.008 A 
ATOM     12  C   UNL A   1      33.281  24.360  22.535  1.00  0.00     0.007 A 
ATOM     13  C   UNL A   1      32.297  23.485  24.542  1.00  0.00     0.045 A 
ATOM     14  C   UNL A   1      32.808  23.821  25.895  1.00  0.00     0.255 C 
ATOM     15  C   UNL A   1      32.032  24.932  22.243  1.00  0.00     0.000 A 
ATOM     16  C   UNL A   1      31.020  23.895  24.188  1.00  0.00     0.014 A 
ATOM     17  O   UNL A   1      32.096  24.064  26.853  1.00  0.00    -0.269 OA
ATOM     18  C   UNL A   1      30.903  24.663  23.035  1.00  0.00     0.001 A 
BRANCH  10  19
ATOM     19  C   UNL A   1      35.025  22.007  24.665  1.00  0.00     0.013 A 
ATOM     20  C   UNL A   1      36.297  21.536  25.066  1.00  0.00     0.055 A 
ATOM     21  N   UNL A   1      36.302  20.167  24.863  1.00  0.00    -0.343 N 
ATOM     22  C   UNL A   1      34.197  20.821  24.541  1.00  0.00     0.006 A 
ATOM     23  C   UNL A   1      35.010  19.703  24.756  1.00  0.00     0.049 A 
ATOM     24  C   UNL A   1      37.465  19.316  24.704  1.00  0.00     0.150 C 
ATOM     25  C   UNL A   1      32.829  20.567  24.292  1.00  0.00     0.011 A 
ATOM     26  C   UNL A   1      34.504  18.387  24.801  1.00  0.00     0.027 A 
ATOM     27  C   UNL A   1      32.323  19.260  24.289  1.00  0.00     0.001 A 
ATOM     28  C   UNL A   1      33.147  18.184  24.569  1.00  0.00     0.002 A 
BRANCH  20  29
ATOM     29  C   UNL A   1      37.423  22.331  25.593  1.00  0.00     0.002 A 
ATOM     30  C   UNL A   1      39.631  22.265  26.627  1.00  0.00     0.119 A 
ATOM     31  C   UNL A   1      39.480  23.597  27.006  1.00  0.00     0.046 A 
ATOM     32  C   UNL A   1      38.638  21.667  25.855  1.00  0.00     0.056 A 
ATOM     33  C   UNL A   1      38.345  24.315  26.633  1.00  0.00     0.005 A 
ATOM     34  C   UNL A   1      37.306  23.675  25.955  1.00  0.00     0.010 A 
BRANCH  30  35
ATOM     35  O   UNL A   1      40.730  21.645  27.150  1.00  0.00    -0.497 OA
ATOM     36  C   UNL A   1      40.892  20.255  26.910  1.00  0.00     0.278 C 
ENDBRANCH  30  35
ENDBRANCH  20  29
ENDBRANCH  10  19
ENDBRANCH   8   9
ENDBRANCH   6   8
ENDBRANCH   5   6
ENDBRANCH   4   5
ENDBRANCH   3   4
ENDBRANCH   2   3
ENDBRANCH   1   2
BRANCH   1  37
ATOM     37  C   UNL A   1      34.378  31.861  27.689  1.00  0.00     0.188 C 
BRANCH  37  38
ATOM     38  O   UNL A   1      34.407  33.236  27.963  1.00  0.00    -0.376 OA
BRANCH  38  39
ATOM     39  C   UNL A   1      33.540  33.827  28.912  1.00  0.00     0.202 C 
BRANCH  39  40
ATOM     40  C   UNL A   1      33.233  35.327  29.053  1.00  0.00     0.261 C 
BRANCH  40  41
ATOM     41  O   UNL A   1      33.721  35.995  30.215  1.00  0.00    -0.460 OA
BRANCH  41  42
ATOM     42  C   UNL A   1      33.237  35.517  31.390  1.00  0.00     0.338 C 
ATOM     43  O   UNL A   1      32.076  35.527  31.779  1.00  0.00    -0.246 OA
BRANCH  42  44
ATOM     44  C   UNL A   1      34.316  34.798  32.080  1.00  0.00     0.060 A 
ATOM     45  C   UNL A   1      35.591  35.375  32.150  1.00  0.00     0.016 A 
ATOM     46  C   UNL A   1      34.069  33.539  32.624  1.00  0.00     0.016 A 
ATOM     47  C   UNL A   1      36.628  34.684  32.772  1.00  0.00     0.010 A 
ATOM     48  C   UNL A   1      35.116  32.843  33.229  1.00  0.00     0.010 A 
ATOM     49  C   UNL A   1      36.403  33.405  33.294  1.00  0.00    -0.014 A 
BRANCH  49  50
ATOM     50  C   UNL A   1      37.537  32.570  33.757  1.00  0.00     0.031 A 
ATOM     51  C   UNL A   1      38.186  32.921  35.066  1.00  0.00     0.074 A 
ATOM     52  C   UNL A   1      37.998  31.542  33.023  1.00  0.00     0.049 A 
ATOM     53  N   UNL A   1      39.301  32.481  35.584  1.00  0.00    -0.248 NA
ATOM     54  C   UNL A   1      37.481  33.913  35.893  1.00  0.00     0.031 C 
ATOM     55  C   UNL A   1      37.402  31.056  31.780  1.00  0.00     0.029 A 
ATOM     56  N   UNL A   1      39.096  30.737  33.206  1.00  0.00    -0.354 N 
ATOM     57  C   UNL A   1      39.449  33.162  36.787  1.00  0.00     0.074 A 
ATOM     58  C   UNL A   1      38.316  34.055  36.910  1.00  0.00     0.031 C 
ATOM     59  C   UNL A   1      38.158  30.055  31.297  1.00  0.00     0.029 A 
ATOM     60  C   UNL A   1      39.325  29.874  32.160  1.00  0.00     0.049 A 
ATOM     61  H   UNL A   1      39.664  30.775  34.010  1.00  0.00     0.167 HD
ATOM     62  C   UNL A   1      40.445  33.054  37.699  1.00  0.00     0.034 A 
ATOM     63  C   UNL A   1      40.382  29.073  31.903  1.00  0.00     0.034 A 
ATOM     64  C   UNL A   1      41.571  32.164  37.550  1.00  0.00     0.049 A 
ATOM     65  C   UNL A   1      41.539  29.052  32.880  1.00  0.00     0.074 A 
ATOM     66  C   UNL A   1      42.631  31.969  38.416  1.00  0.00     0.029 A 
ATOM     67  N   UNL A   1      41.789  31.332  36.460  1.00  0.00    -0.354 N 
ATOM     68  N   UNL A   1      41.685  29.712  34.006  1.00  0.00    -0.248 NA
ATOM     69  C   UNL A   1      42.675  28.179  32.549  1.00  0.00     0.031 C 
ATOM     70  C   UNL A   1      43.532  31.086  37.812  1.00  0.00     0.029 A 
ATOM     71  C   UNL A   1      42.987  30.652  36.614  1.00  0.00     0.049 A 
ATOM     72  H   UNL A   1      41.182  31.238  35.690  1.00  0.00     0.167 HD
ATOM     73  C   UNL A   1      42.908  29.303  34.533  1.00  0.00     0.074 A 
ATOM     74  C   UNL A   1      43.456  28.335  33.608  1.00  0.00     0.031 C 
ATOM     75  C   UNL A   1      43.521  29.685  35.683  1.00  0.00     0.034 A 
BRANCH  62  76
ATOM     76  C   UNL A   1      40.397  33.969  38.897  1.00  0.00     0.023 A 
ATOM     77  C   UNL A   1      41.045  35.216  38.909  1.00  0.00     0.031 A 
ATOM     78  C   UNL A   1      39.703  33.576  40.056  1.00  0.00     0.131 A 
ATOM     79  C   UNL A   1      41.039  35.995  40.076  1.00  0.00     0.055 A 
ATOM     80  C   UNL A   1      39.632  34.392  41.185  1.00  0.00     0.041 A 
ATOM     81  F   UNL A   1      39.091  32.382  40.113  1.00  0.00    -0.206 F 
ATOM     82  C   UNL A   1      40.312  35.605  41.204  1.00  0.00     0.022 A 
BRANCH  79  83
ATOM     83  S   UNL A   1      42.107  37.459  40.147  1.00  0.00     0.124 S 
ATOM     84  O   UNL A   1      41.173  38.485  40.607  1.00  0.00    -0.237 OA
ATOM     85  O   UNL A   1      43.134  37.056  41.101  1.00  0.00    -0.237 OA
ATOM     86  O   UNL A   1      42.562  37.618  38.767  1.00  0.00    -0.744 OA
ENDBRANCH  79  83
ENDBRANCH  62  76
BRANCH  63  87
ATOM     87  C   UNL A   1      40.448  28.277  30.640  1.00  0.00     0.023 A 
ATOM     88  C   UNL A   1      41.342  28.617  29.614  1.00  0.00     0.031 A 
ATOM     89  C   UNL A   1      39.558  27.212  30.409  1.00  0.00     0.131 A 
ATOM     90  C   UNL A   1      41.290  27.939  28.384  1.00  0.00     0.055 A 
ATOM     91  C   UNL A   1      39.556  26.496  29.210  1.00  0.00     0.041 A 
ATOM     92  F   UNL A   1      38.671  26.849  31.350  1.00  0.00    -0.206 F 
ATOM     93  C   UNL A   1      40.415  26.870  28.183  1.00  0.00     0.022 A 
BRANCH  90  94
ATOM     94  S   UNL A   1      42.304  28.552  27.011  1.00  0.00     0.124 S 
ATOM     95  O   UNL A   1      43.211  29.464  27.699  1.00  0.00    -0.237 OA
ATOM     96  O   UNL A   1      42.897  27.320  26.501  1.00  0.00    -0.237 OA
ATOM     97  O   UNL A   1      41.331  29.188  26.127  1.00  0.00    -0.744 OA
ENDBRANCH  90  94
ENDBRANCH  63  87
BRANCH  75  98
ATOM     98  C   UNL A   1      44.820  29.003  36.045  1.00  0.00     0.023 A 
ATOM     99  C   UNL A   1      46.071  29.526  35.676  1.00  0.00     0.031 A 
ATOM    100  C   UNL A   1      44.799  27.811  36.794  1.00  0.00     0.131 A 
ATOM    101  C   UNL A   1      47.245  28.838  36.017  1.00  0.00     0.055 A 
ATOM    102  C   UNL A   1      45.972  27.166  37.187  1.00  0.00     0.041 A 
ATOM    103  F   UNL A   1      43.634  27.261  37.171  1.00  0.00    -0.206 F 
ATOM    104  C   UNL A   1      47.205  27.674  36.789  1.00  0.00     0.022 A 
BRANCH 101 105
ATOM    105  S   UNL A   1      48.831  29.438  35.371  1.00  0.00     0.124 S 
ATOM    106  O   UNL A   1      49.643  28.225  35.390  1.00  0.00    -0.237 OA
ATOM    107  O   UNL A   1      48.462  29.938  34.051  1.00  0.00    -0.237 OA
ATOM    108  O   UNL A   1      49.228  30.464  36.333  1.00  0.00    -0.744 OA
ENDBRANCH 101 105
ENDBRANCH  75  98
ENDBRANCH  49  50
ENDBRANCH  42  44
ENDBRANCH  41  42
ENDBRANCH  40  41
ENDBRANCH  39  40
ENDBRANCH  38  39
ENDBRANCH  37  38
ENDBRANCH   1  37
TORSDOF 24
ENDMDL
