MODEL 1
REMARK VINA RESULT:      -9.4      0.000      0.000
REMARK SMILES CC1(C)CSC[C@H](N(CCC(=O)OCCOCCOCCOC(=O)c2ccc(-c3c4nc(c(-c5cc(S(=O)(=O)[O-])ccc5F)c5ccc([nH]5)c(-c5cc(S(=O)(=O)[O-])ccc5F)c5nc(c(-c6cc(S(=O)(=O)[O-])ccc6F)c6ccc3[nH]6)C=C5)C=C4)cc2)c2ccccc2)C1
REMARK SMILES IDX 17 1 16 2 15 3 14 4 13 5 11 6 12 7 10 8 9 9 8 10 7 11 1 12
REMARK SMILES IDX 2 13 3 14 4 15 94 16 5 17 6 18 88 19 89 20 93 21 90 22 92 23
REMARK SMILES IDX 91 24 18 25 19 26 20 27 21 28 22 29 23 30 24 31 25 32 26 33
REMARK SMILES IDX 87 34 27 35 86 36 28 37 29 38 30 39 80 40 31 41 85 42 79 43
REMARK SMILES IDX 81 44 32 45 84 46 78 47 77 48 33 50 65 51 45 52 64 53 46 54
REMARK SMILES IDX 49 55 63 56 82 57 47 58 48 59 62 61 83 62 50 63 34 64 35 65
REMARK SMILES IDX 43 66 36 67 42 68 44 69 41 70 37 71 38 72 39 73 40 74 66 75
REMARK SMILES IDX 67 76 75 77 68 78 74 79 76 80 73 81 69 82 70 83 71 84 72 85
REMARK SMILES IDX 51 86 52 87 60 88 53 89 59 90 61 91 58 92 54 93 55 94 56 95
REMARK SMILES IDX 57 96
REMARK H PARENT 81 49 49 60
REMARK Flexibility Score: inf
ROOT
ATOM      1  C   UNL A   1      44.126  41.805  27.693  1.00  0.00     0.188 C 
ENDROOT
BRANCH   1   2
ATOM      2  O   UNL A   1      44.360  42.541  26.499  1.00  0.00    -0.376 OA
BRANCH   2   3
ATOM      3  C   UNL A   1      43.763  41.974  25.330  1.00  0.00     0.202 C 
BRANCH   3   4
ATOM      4  C   UNL A   1      43.623  42.989  24.191  1.00  0.00     0.261 C 
BRANCH   4   5
ATOM      5  O   UNL A   1      43.012  42.343  23.055  1.00  0.00    -0.463 OA
BRANCH   5   6
ATOM      6  C   UNL A   1      43.548  42.517  21.826  1.00  0.00     0.307 C 
ATOM      7  O   UNL A   1      43.514  41.683  20.931  1.00  0.00    -0.252 OA
BRANCH   6   8
ATOM      8  C   UNL A   1      44.264  43.846  21.695  1.00  0.00     0.144 C 
BRANCH   8   9
ATOM      9  C   UNL A   1      43.658  44.816  20.680  1.00  0.00     0.128 C 
BRANCH   9  10
ATOM     10  N   UNL A   1      44.624  45.360  19.710  1.00  0.00    -0.367 N 
BRANCH  10  11
ATOM     11  C   UNL A   1      46.102  45.377  19.917  1.00  0.00     0.092 C 
ATOM     12  C   UNL A   1      48.494  46.114  21.907  1.00  0.00     0.012 C 
ATOM     13  C   UNL A   1      48.054  46.983  20.714  1.00  0.00    -0.024 C 
ATOM     14  C   UNL A   1      48.231  48.464  21.119  1.00  0.00     0.012 C 
ATOM     15  C   UNL A   1      48.897  46.714  19.458  1.00  0.00     0.076 C 
ATOM     16  C   UNL A   1      46.560  46.775  20.416  1.00  0.00     0.033 C 
ATOM     17  S   UNL A   1      48.685  45.039  18.787  1.00  0.00    -0.159 SA
ATOM     18  C   UNL A   1      46.867  45.015  18.625  1.00  0.00     0.094 C 
ENDBRANCH  10  11
BRANCH  10  19
ATOM     19  C   UNL A   1      44.083  46.058  18.633  1.00  0.00     0.037 A 
ATOM     20  C   UNL A   1      43.274  45.437  17.678  1.00  0.00     0.026 A 
ATOM     21  C   UNL A   1      44.268  47.443  18.543  1.00  0.00     0.026 A 
ATOM     22  C   UNL A   1      42.702  46.171  16.634  1.00  0.00     0.002 A 
ATOM     23  C   UNL A   1      43.637  48.191  17.548  1.00  0.00     0.002 A 
ATOM     24  C   UNL A   1      42.874  47.551  16.577  1.00  0.00     0.000 A 
ENDBRANCH  10  19
ENDBRANCH   9  10
ENDBRANCH   8   9
ENDBRANCH   6   8
ENDBRANCH   5   6
ENDBRANCH   4   5
ENDBRANCH   3   4
ENDBRANCH   2   3
ENDBRANCH   1   2
BRANCH   1  25
ATOM     25  C   UNL A   1      43.709  40.369  27.432  1.00  0.00     0.188 C 
BRANCH  25  26
ATOM     26  O   UNL A   1      44.420  39.368  28.154  1.00  0.00    -0.376 OA
BRANCH  26  27
ATOM     27  C   UNL A   1      45.823  39.628  28.262  1.00  0.00     0.202 C 
BRANCH  27  28
ATOM     28  C   UNL A   1      46.696  38.514  28.874  1.00  0.00     0.261 C 
BRANCH  28  29
ATOM     29  O   UNL A   1      46.675  37.303  28.104  1.00  0.00    -0.460 OA
BRANCH  29  30
ATOM     30  C   UNL A   1      47.359  36.260  28.646  1.00  0.00     0.338 C 
ATOM     31  O   UNL A   1      48.418  36.323  29.250  1.00  0.00    -0.246 OA
BRANCH  30  32
ATOM     32  C   UNL A   1      46.491  35.052  28.619  1.00  0.00     0.060 A 
ATOM     33  C   UNL A   1      46.637  34.116  29.657  1.00  0.00     0.016 A 
ATOM     34  C   UNL A   1      45.471  34.892  27.675  1.00  0.00     0.016 A 
ATOM     35  C   UNL A   1      45.784  33.015  29.742  1.00  0.00     0.010 A 
ATOM     36  C   UNL A   1      44.628  33.781  27.749  1.00  0.00     0.010 A 
ATOM     37  C   UNL A   1      44.801  32.822  28.763  1.00  0.00    -0.014 A 
BRANCH  37  38
ATOM     38  C   UNL A   1      44.150  31.497  28.624  1.00  0.00     0.031 A 
ATOM     39  C   UNL A   1      44.875  30.462  27.806  1.00  0.00     0.074 A 
ATOM     40  C   UNL A   1      42.963  31.214  29.192  1.00  0.00     0.049 A 
ATOM     41  N   UNL A   1      44.497  29.265  27.446  1.00  0.00    -0.248 NA
ATOM     42  C   UNL A   1      46.210  30.847  27.317  1.00  0.00     0.031 C 
ATOM     43  C   UNL A   1      42.192  32.117  30.044  1.00  0.00     0.029 A 
ATOM     44  N   UNL A   1      42.194  30.079  29.123  1.00  0.00    -0.354 N 
ATOM     45  C   UNL A   1      45.544  28.757  26.685  1.00  0.00     0.074 A 
ATOM     46  C   UNL A   1      46.551  29.790  26.601  1.00  0.00     0.031 C 
ATOM     47  C   UNL A   1      41.049  31.503  30.405  1.00  0.00     0.029 A 
ATOM     48  C   UNL A   1      40.991  30.182  29.781  1.00  0.00     0.049 A 
ATOM     49  H   UNL A   1      42.478  29.265  28.646  1.00  0.00     0.167 HD
ATOM     50  C   UNL A   1      45.659  27.533  26.116  1.00  0.00     0.034 A 
ATOM     51  C   UNL A   1      39.955  29.317  29.843  1.00  0.00     0.034 A 
ATOM     52  C   UNL A   1      44.637  26.523  26.190  1.00  0.00     0.049 A 
ATOM     53  C   UNL A   1      40.066  27.993  29.119  1.00  0.00     0.074 A 
ATOM     54  C   UNL A   1      44.642  25.249  25.650  1.00  0.00     0.029 A 
ATOM     55  N   UNL A   1      43.417  26.676  26.837  1.00  0.00    -0.354 N 
ATOM     56  N   UNL A   1      41.063  27.517  28.406  1.00  0.00    -0.248 NA
ATOM     57  C   UNL A   1      38.913  27.086  29.211  1.00  0.00     0.031 C 
ATOM     58  C   UNL A   1      43.400  24.660  25.909  1.00  0.00     0.029 A 
ATOM     59  C   UNL A   1      42.651  25.533  26.683  1.00  0.00     0.049 A 
ATOM     60  H   UNL A   1      43.138  27.480  27.331  1.00  0.00     0.167 HD
ATOM     61  C   UNL A   1      40.670  26.242  28.001  1.00  0.00     0.074 A 
ATOM     62  C   UNL A   1      39.350  26.020  28.557  1.00  0.00     0.031 C 
ATOM     63  C   UNL A   1      41.336  25.332  27.246  1.00  0.00     0.034 A 
BRANCH  50  64
ATOM     64  C   UNL A   1      46.912  27.261  25.320  1.00  0.00     0.023 A 
ATOM     65  C   UNL A   1      47.098  27.788  24.031  1.00  0.00     0.031 A 
ATOM     66  C   UNL A   1      47.913  26.422  25.841  1.00  0.00     0.131 A 
ATOM     67  C   UNL A   1      48.222  27.414  23.278  1.00  0.00     0.055 A 
ATOM     68  C   UNL A   1      49.068  26.120  25.120  1.00  0.00     0.041 A 
ATOM     69  F   UNL A   1      47.774  25.865  27.055  1.00  0.00    -0.206 F 
ATOM     70  C   UNL A   1      49.221  26.605  23.823  1.00  0.00     0.022 A 
BRANCH  67  71
ATOM     71  S   UNL A   1      48.286  27.880  21.526  1.00  0.00     0.124 S 
ATOM     72  O   UNL A   1      48.736  26.635  20.907  1.00  0.00    -0.237 OA
ATOM     73  O   UNL A   1      46.908  28.268  21.251  1.00  0.00    -0.237 OA
ATOM     74  O   UNL A   1      49.259  28.970  21.497  1.00  0.00    -0.744 OA
ENDBRANCH  67  71
ENDBRANCH  50  64
BRANCH  51  75
ATOM     75  C   UNL A   1      38.701  29.674  30.572  1.00  0.00     0.023 A 
ATOM     76  C   UNL A   1      37.734  30.512  29.992  1.00  0.00     0.031 A 
ATOM     77  C   UNL A   1      38.490  29.249  31.896  1.00  0.00     0.131 A 
ATOM     78  C   UNL A   1      36.633  30.943  30.750  1.00  0.00     0.055 A 
ATOM     79  C   UNL A   1      37.362  29.633  32.627  1.00  0.00     0.041 A 
ATOM     80  F   UNL A   1      39.385  28.455  32.507  1.00  0.00    -0.206 F 
ATOM     81  C   UNL A   1      36.433  30.498  32.059  1.00  0.00     0.022 A 
BRANCH  78  82
ATOM     82  S   UNL A   1      35.517  32.183  30.035  1.00  0.00     0.124 S 
ATOM     83  O   UNL A   1      34.574  32.396  31.127  1.00  0.00    -0.237 OA
ATOM     84  O   UNL A   1      36.429  33.284  29.751  1.00  0.00    -0.237 OA
ATOM     85  O   UNL A   1      34.968  31.511  28.860  1.00  0.00    -0.744 OA
ENDBRANCH  78  82
ENDBRANCH  51  75
BRANCH  63  86
ATOM     86  C   UNL A   1      40.674  23.992  27.030  1.00  0.00     0.023 A 
ATOM     87  C   UNL A   1      39.524  23.848  26.235  1.00  0.00     0.031 A 
ATOM     88  C   UNL A   1      41.212  22.838  27.630  1.00  0.00     0.131 A 
ATOM     89  C   UNL A   1      38.917  22.589  26.106  1.00  0.00     0.055 A 
ATOM     90  C   UNL A   1      40.641  21.578  27.445  1.00  0.00     0.041 A 
ATOM     91  F   UNL A   1      42.310  22.916  28.398  1.00  0.00    -0.206 F 
ATOM     92  C   UNL A   1      39.478  21.451  26.691  1.00  0.00     0.022 A 
BRANCH  89  93
ATOM     93  S   UNL A   1      37.331  22.471  25.234  1.00  0.00     0.124 S 
ATOM     94  O   UNL A   1      37.283  23.741  24.518  1.00  0.00    -0.237 OA
ATOM     95  O   UNL A   1      37.514  21.281  24.410  1.00  0.00    -0.237 OA
ATOM     96  O   UNL A   1      36.355  22.331  26.314  1.00  0.00    -0.744 OA
ENDBRANCH  89  93
ENDBRANCH  63  86
ENDBRANCH  37  38
ENDBRANCH  30  32
ENDBRANCH  29  30
ENDBRANCH  28  29
ENDBRANCH  27  28
ENDBRANCH  26  27
ENDBRANCH  25  26
ENDBRANCH   1  25
TORSDOF 24
ENDMDL
MODEL 2
REMARK VINA RESULT:      -9.3      1.192      2.375
REMARK SMILES CC1(C)CSC[C@H](N(CCC(=O)OCCOCCOCCOC(=O)c2ccc(-c3c4nc(c(-c5cc(S(=O)(=O)[O-])ccc5F)c5ccc([nH]5)c(-c5cc(S(=O)(=O)[O-])ccc5F)c5nc(c(-c6cc(S(=O)(=O)[O-])ccc6F)c6ccc3[nH]6)C=C5)C=C4)cc2)c2ccccc2)C1
REMARK SMILES IDX 17 1 16 2 15 3 14 4 13 5 11 6 12 7 10 8 9 9 8 10 7 11 1 12
REMARK SMILES IDX 2 13 3 14 4 15 94 16 5 17 6 18 88 19 89 20 93 21 90 22 92 23
REMARK SMILES IDX 91 24 18 25 19 26 20 27 21 28 22 29 23 30 24 31 25 32 26 33
REMARK SMILES IDX 87 34 27 35 86 36 28 37 29 38 30 39 80 40 31 41 85 42 79 43
REMARK SMILES IDX 81 44 32 45 84 46 78 47 77 48 33 50 65 51 45 52 64 53 46 54
REMARK SMILES IDX 49 55 63 56 82 57 47 58 48 59 62 61 83 62 50 63 34 64 35 65
REMARK SMILES IDX 43 66 36 67 42 68 44 69 41 70 37 71 38 72 39 73 40 74 66 75
REMARK SMILES IDX 67 76 75 77 68 78 74 79 76 80 73 81 69 82 70 83 71 84 72 85
REMARK SMILES IDX 51 86 52 87 60 88 53 89 59 90 61 91 58 92 54 93 55 94 56 95
REMARK SMILES IDX 57 96
REMARK H PARENT 81 49 49 60
REMARK Flexibility Score: inf
ROOT
ATOM      1  C   UNL A   1      44.108  41.517  27.936  1.00  0.00     0.188 C 
ENDROOT
BRANCH   1   2
ATOM      2  O   UNL A   1      44.279  42.395  26.830  1.00  0.00    -0.376 OA
BRANCH   2   3
ATOM      3  C   UNL A   1      43.943  41.821  25.565  1.00  0.00     0.202 C 
BRANCH   3   4
ATOM      4  C   UNL A   1      44.414  42.681  24.386  1.00  0.00     0.261 C 
BRANCH   4   5
ATOM      5  O   UNL A   1      45.690  43.269  24.711  1.00  0.00    -0.463 OA
BRANCH   5   6
ATOM      6  C   UNL A   1      46.064  44.417  24.103  1.00  0.00     0.307 C 
ATOM      7  O   UNL A   1      46.983  45.134  24.480  1.00  0.00    -0.252 OA
BRANCH   6   8
ATOM      8  C   UNL A   1      45.171  44.764  22.929  1.00  0.00     0.144 C 
BRANCH   8   9
ATOM      9  C   UNL A   1      45.536  44.083  21.609  1.00  0.00     0.128 C 
BRANCH   9  10
ATOM     10  N   UNL A   1      45.181  44.861  20.409  1.00  0.00    -0.367 N 
BRANCH  10  11
ATOM     11  C   UNL A   1      44.072  44.505  19.476  1.00  0.00     0.092 C 
ATOM     12  C   UNL A   1      42.917  44.767  16.506  1.00  0.00     0.012 C 
ATOM     13  C   UNL A   1      42.435  45.604  17.705  1.00  0.00    -0.024 C 
ATOM     14  C   UNL A   1      42.086  47.017  17.183  1.00  0.00     0.012 C 
ATOM     15  C   UNL A   1      41.185  45.003  18.367  1.00  0.00     0.076 C 
ATOM     16  C   UNL A   1      43.564  45.772  18.735  1.00  0.00     0.033 C 
ATOM     17  S   UNL A   1      41.482  43.388  19.145  1.00  0.00    -0.159 SA
ATOM     18  C   UNL A   1      42.895  43.832  20.214  1.00  0.00     0.094 C 
ENDBRANCH  10  11
BRANCH  10  19
ATOM     19  C   UNL A   1      46.068  45.873  20.052  1.00  0.00     0.037 A 
ATOM     20  C   UNL A   1      45.938  47.178  20.535  1.00  0.00     0.026 A 
ATOM     21  C   UNL A   1      47.183  45.570  19.261  1.00  0.00     0.026 A 
ATOM     22  C   UNL A   1      46.870  48.165  20.201  1.00  0.00     0.002 A 
ATOM     23  C   UNL A   1      48.156  46.532  18.988  1.00  0.00     0.002 A 
ATOM     24  C   UNL A   1      47.987  47.837  19.437  1.00  0.00     0.000 A 
ENDBRANCH  10  19
ENDBRANCH   9  10
ENDBRANCH   8   9
ENDBRANCH   6   8
ENDBRANCH   5   6
ENDBRANCH   4   5
ENDBRANCH   3   4
ENDBRANCH   2   3
ENDBRANCH   1   2
BRANCH   1  25
ATOM     25  C   UNL A   1      43.938  40.066  27.521  1.00  0.00     0.188 C 
BRANCH  25  26
ATOM     26  O   UNL A   1      44.709  39.113  28.245  1.00  0.00    -0.376 OA
BRANCH  26  27
ATOM     27  C   UNL A   1      46.088  39.471  28.375  1.00  0.00     0.202 C 
BRANCH  27  28
ATOM     28  C   UNL A   1      47.031  38.413  28.981  1.00  0.00     0.261 C 
BRANCH  28  29
ATOM     29  O   UNL A   1      47.098  37.211  28.201  1.00  0.00    -0.460 OA
BRANCH  29  30
ATOM     30  C   UNL A   1      47.726  36.164  28.800  1.00  0.00     0.338 C 
ATOM     31  O   UNL A   1      48.754  36.216  29.458  1.00  0.00    -0.246 OA
BRANCH  30  32
ATOM     32  C   UNL A   1      46.832  34.976  28.752  1.00  0.00     0.060 A 
ATOM     33  C   UNL A   1      46.876  34.079  29.832  1.00  0.00     0.016 A 
ATOM     34  C   UNL A   1      45.881  34.804  27.742  1.00  0.00     0.016 A 
ATOM     35  C   UNL A   1      45.990  33.001  29.894  1.00  0.00     0.010 A 
ATOM     36  C   UNL A   1      45.006  33.716  27.793  1.00  0.00     0.010 A 
ATOM     37  C   UNL A   1      45.079  32.793  28.852  1.00  0.00    -0.014 A 
BRANCH  37  38
ATOM     38  C   UNL A   1      44.405  31.479  28.713  1.00  0.00     0.031 A 
ATOM     39  C   UNL A   1      45.103  30.440  27.877  1.00  0.00     0.074 A 
ATOM     40  C   UNL A   1      43.223  31.210  29.296  1.00  0.00     0.049 A 
ATOM     41  N   UNL A   1      44.701  29.251  27.514  1.00  0.00    -0.248 NA
ATOM     42  C   UNL A   1      46.436  30.808  27.371  1.00  0.00     0.031 C 
ATOM     43  C   UNL A   1      42.479  32.118  30.166  1.00  0.00     0.029 A 
ATOM     44  N   UNL A   1      42.436  30.087  29.230  1.00  0.00    -0.354 N 
ATOM     45  C   UNL A   1      45.729  28.733  26.733  1.00  0.00     0.074 A 
ATOM     46  C   UNL A   1      46.750  29.751  26.642  1.00  0.00     0.031 C 
ATOM     47  C   UNL A   1      41.332  31.519  30.540  1.00  0.00     0.029 A 
ATOM     48  C   UNL A   1      41.244  30.203  29.907  1.00  0.00     0.049 A 
ATOM     49  H   UNL A   1      42.700  29.273  28.744  1.00  0.00     0.167 HD
ATOM     50  C   UNL A   1      45.817  27.512  26.154  1.00  0.00     0.034 A 
ATOM     51  C   UNL A   1      40.196  29.354  29.978  1.00  0.00     0.034 A 
ATOM     52  C   UNL A   1      44.781  26.516  26.236  1.00  0.00     0.049 A 
ATOM     53  C   UNL A   1      40.277  28.033  29.243  1.00  0.00     0.074 A 
ATOM     54  C   UNL A   1      44.760  25.247  25.688  1.00  0.00     0.029 A 
ATOM     55  N   UNL A   1      43.574  26.683  26.902  1.00  0.00    -0.354 N 
ATOM     56  N   UNL A   1      41.256  27.548  28.512  1.00  0.00    -0.248 NA
ATOM     57  C   UNL A   1      39.111  27.144  29.346  1.00  0.00     0.031 C 
ATOM     58  C   UNL A   1      43.513  24.675  25.960  1.00  0.00     0.029 A 
ATOM     59  C   UNL A   1      42.788  25.553  26.751  1.00  0.00     0.049 A 
ATOM     60  H   UNL A   1      43.314  27.487  27.407  1.00  0.00     0.167 HD
ATOM     61  C   UNL A   1      40.838  26.282  28.104  1.00  0.00     0.074 A 
ATOM     62  C   UNL A   1      39.523  26.076  28.678  1.00  0.00     0.031 C 
ATOM     63  C   UNL A   1      41.479  25.367  27.333  1.00  0.00     0.034 A 
BRANCH  50  64
ATOM     64  C   UNL A   1      47.054  27.226  25.338  1.00  0.00     0.023 A 
ATOM     65  C   UNL A   1      47.201  27.706  24.025  1.00  0.00     0.031 A 
ATOM     66  C   UNL A   1      48.080  26.424  25.866  1.00  0.00     0.131 A 
ATOM     67  C   UNL A   1      48.310  27.319  23.259  1.00  0.00     0.055 A 
ATOM     68  C   UNL A   1      49.221  26.110  25.127  1.00  0.00     0.041 A 
ATOM     69  F   UNL A   1      47.981  25.912  27.103  1.00  0.00    -0.206 F 
ATOM     70  C   UNL A   1      49.335  26.546  23.809  1.00  0.00     0.022 A 
BRANCH  67  71
ATOM     71  S   UNL A   1      48.324  27.717  21.489  1.00  0.00     0.124 S 
ATOM     72  O   UNL A   1      48.445  26.390  20.890  1.00  0.00    -0.237 OA
ATOM     73  O   UNL A   1      47.042  28.386  21.306  1.00  0.00    -0.237 OA
ATOM     74  O   UNL A   1      49.501  28.570  21.339  1.00  0.00    -0.744 OA
ENDBRANCH  67  71
ENDBRANCH  50  64
BRANCH  51  75
ATOM     75  C   UNL A   1      38.959  29.724  30.728  1.00  0.00     0.023 A 
ATOM     76  C   UNL A   1      38.062  30.682  30.227  1.00  0.00     0.031 A 
ATOM     77  C   UNL A   1      38.697  29.185  32.001  1.00  0.00     0.131 A 
ATOM     78  C   UNL A   1      36.982  31.112  31.015  1.00  0.00     0.055 A 
ATOM     79  C   UNL A   1      37.588  29.573  32.756  1.00  0.00     0.041 A 
ATOM     80  F   UNL A   1      39.525  28.272  32.536  1.00  0.00    -0.206 F 
ATOM     81  C   UNL A   1      36.730  30.554  32.270  1.00  0.00     0.022 A 
BRANCH  78  82
ATOM     82  S   UNL A   1      35.966  32.494  30.419  1.00  0.00     0.124 S 
ATOM     83  O   UNL A   1      36.012  33.406  31.556  1.00  0.00    -0.237 OA
ATOM     84  O   UNL A   1      36.696  32.915  29.229  1.00  0.00    -0.237 OA
ATOM     85  O   UNL A   1      34.666  31.878  30.166  1.00  0.00    -0.744 OA
ENDBRANCH  78  82
ENDBRANCH  51  75
BRANCH  63  86
ATOM     86  C   UNL A   1      40.793  24.039  27.117  1.00  0.00     0.023 A 
ATOM     87  C   UNL A   1      39.642  23.915  26.322  1.00  0.00     0.031 A 
ATOM     88  C   UNL A   1      41.311  22.876  27.718  1.00  0.00     0.131 A 
ATOM     89  C   UNL A   1      39.013  22.667  26.193  1.00  0.00     0.055 A 
ATOM     90  C   UNL A   1      40.718  21.627  27.534  1.00  0.00     0.041 A 
ATOM     91  F   UNL A   1      42.409  22.936  28.487  1.00  0.00    -0.206 F 
ATOM     92  C   UNL A   1      39.554  21.519  26.778  1.00  0.00     0.022 A 
BRANCH  89  93
ATOM     93  S   UNL A   1      37.426  22.576  25.319  1.00  0.00     0.124 S 
ATOM     94  O   UNL A   1      37.333  23.903  24.720  1.00  0.00    -0.237 OA
ATOM     95  O   UNL A   1      37.642  21.471  24.392  1.00  0.00    -0.237 OA
ATOM     96  O   UNL A   1      36.462  22.309  26.386  1.00  0.00    -0.744 OA
ENDBRANCH  89  93
ENDBRANCH  63  86
ENDBRANCH  37  38
ENDBRANCH  30  32
ENDBRANCH  29  30
ENDBRANCH  28  29
ENDBRANCH  27  28
ENDBRANCH  26  27
ENDBRANCH  25  26
ENDBRANCH   1  25
TORSDOF 24
ENDMDL
MODEL 3
REMARK VINA RESULT:      -9.1     10.659     20.391
REMARK SMILES CC1(C)CSC[C@H](N(CCC(=O)OCCOCCOCCOC(=O)c2ccc(-c3c4nc(c(-c5cc(S(=O)(=O)[O-])ccc5F)c5ccc([nH]5)c(-c5cc(S(=O)(=O)[O-])ccc5F)c5nc(c(-c6cc(S(=O)(=O)[O-])ccc6F)c6ccc3[nH]6)C=C5)C=C4)cc2)c2ccccc2)C1
REMARK SMILES IDX 17 1 16 2 15 3 14 4 13 5 11 6 12 7 10 8 9 9 8 10 7 11 1 12
REMARK SMILES IDX 2 13 3 14 4 15 94 16 5 17 6 18 88 19 89 20 93 21 90 22 92 23
REMARK SMILES IDX 91 24 18 25 19 26 20 27 21 28 22 29 23 30 24 31 25 32 26 33
REMARK SMILES IDX 87 34 27 35 86 36 28 37 29 38 30 39 80 40 31 41 85 42 79 43
REMARK SMILES IDX 81 44 32 45 84 46 78 47 77 48 33 50 65 51 45 52 64 53 46 54
REMARK SMILES IDX 49 55 63 56 82 57 47 58 48 59 62 61 83 62 50 63 34 64 35 65
REMARK SMILES IDX 43 66 36 67 42 68 44 69 41 70 37 71 38 72 39 73 40 74 66 75
REMARK SMILES IDX 67 76 75 77 68 78 74 79 76 80 73 81 69 82 70 83 71 84 72 85
REMARK SMILES IDX 51 86 52 87 60 88 53 89 59 90 61 91 58 92 54 93 55 94 56 95
REMARK SMILES IDX 57 96
REMARK H PARENT 81 49 49 60
REMARK Flexibility Score: inf
ROOT
ATOM      1  C   UNL A   1      50.050  23.852  38.659  1.00  0.00     0.188 C 
ENDROOT
BRANCH   1   2
ATOM      2  O   UNL A   1      48.750  23.763  39.227  1.00  0.00    -0.376 OA
BRANCH   2   3
ATOM      3  C   UNL A   1      48.086  22.520  38.990  1.00  0.00     0.202 C 
BRANCH   3   4
ATOM      4  C   UNL A   1      46.600  22.566  39.361  1.00  0.00     0.261 C 
BRANCH   4   5
ATOM      5  O   UNL A   1      46.373  21.724  40.509  1.00  0.00    -0.463 OA
BRANCH   5   6
ATOM      6  C   UNL A   1      46.055  20.423  40.325  1.00  0.00     0.307 C 
ATOM      7  O   UNL A   1      46.111  19.842  39.249  1.00  0.00    -0.252 OA
BRANCH   6   8
ATOM      8  C   UNL A   1      45.549  19.769  41.595  1.00  0.00     0.144 C 
BRANCH   8   9
ATOM      9  C   UNL A   1      46.388  18.596  42.103  1.00  0.00     0.128 C 
BRANCH   9  10
ATOM     10  N   UNL A   1      45.604  17.400  42.458  1.00  0.00    -0.367 N 
BRANCH  10  11
ATOM     11  C   UNL A   1      45.696  16.696  43.771  1.00  0.00     0.092 C 
ATOM     12  C   UNL A   1      46.886  14.187  45.358  1.00  0.00     0.012 C 
ATOM     13  C   UNL A   1      45.439  14.284  44.839  1.00  0.00    -0.024 C 
ATOM     14  C   UNL A   1      45.004  12.869  44.393  1.00  0.00     0.012 C 
ATOM     15  C   UNL A   1      44.466  14.778  45.920  1.00  0.00     0.076 C 
ATOM     16  C   UNL A   1      45.370  15.187  43.597  1.00  0.00     0.033 C 
ATOM     17  S   UNL A   1      44.778  16.488  46.450  1.00  0.00    -0.159 SA
ATOM     18  C   UNL A   1      44.745  17.311  44.820  1.00  0.00     0.094 C 
ENDBRANCH  10  11
BRANCH  10  19
ATOM     19  C   UNL A   1      44.884  16.810  41.422  1.00  0.00     0.037 A 
ATOM     20  C   UNL A   1      43.500  16.628  41.490  1.00  0.00     0.026 A 
ATOM     21  C   UNL A   1      45.538  16.470  40.231  1.00  0.00     0.026 A 
ATOM     22  C   UNL A   1      42.794  16.079  40.416  1.00  0.00     0.002 A 
ATOM     23  C   UNL A   1      44.827  15.993  39.129  1.00  0.00     0.002 A 
ATOM     24  C   UNL A   1      43.457  15.773  39.230  1.00  0.00     0.000 A 
ENDBRANCH  10  19
ENDBRANCH   9  10
ENDBRANCH   8   9
ENDBRANCH   6   8
ENDBRANCH   5   6
ENDBRANCH   4   5
ENDBRANCH   3   4
ENDBRANCH   2   3
ENDBRANCH   1   2
BRANCH   1  25
ATOM     25  C   UNL A   1      50.245  22.922  37.474  1.00  0.00     0.188 C 
BRANCH  25  26
ATOM     26  O   UNL A   1      50.228  23.535  36.188  1.00  0.00    -0.376 OA
BRANCH  26  27
ATOM     27  C   UNL A   1      48.931  23.562  35.584  1.00  0.00     0.202 C 
BRANCH  27  28
ATOM     28  C   UNL A   1      48.674  24.658  34.530  1.00  0.00     0.261 C 
BRANCH  28  29
ATOM     29  O   UNL A   1      48.594  25.972  35.099  1.00  0.00    -0.460 OA
BRANCH  29  30
ATOM     30  C   UNL A   1      47.603  26.149  36.014  1.00  0.00     0.338 C 
ATOM     31  O   UNL A   1      47.706  26.029  37.225  1.00  0.00    -0.246 OA
BRANCH  30  32
ATOM     32  C   UNL A   1      46.431  26.767  35.339  1.00  0.00     0.060 A 
ATOM     33  C   UNL A   1      45.228  26.041  35.318  1.00  0.00     0.016 A 
ATOM     34  C   UNL A   1      46.463  28.077  34.847  1.00  0.00     0.016 A 
ATOM     35  C   UNL A   1      44.068  26.609  34.789  1.00  0.00     0.010 A 
ATOM     36  C   UNL A   1      45.307  28.639  34.301  1.00  0.00     0.010 A 
ATOM     37  C   UNL A   1      44.114  27.897  34.241  1.00  0.00    -0.014 A 
BRANCH  37  38
ATOM     38  C   UNL A   1      43.017  28.361  33.356  1.00  0.00     0.031 A 
ATOM     39  C   UNL A   1      41.970  29.247  33.975  1.00  0.00     0.074 A 
ATOM     40  C   UNL A   1      42.942  28.014  32.059  1.00  0.00     0.049 A 
ATOM     41  N   UNL A   1      40.863  29.716  33.465  1.00  0.00    -0.248 NA
ATOM     42  C   UNL A   1      42.207  29.645  35.374  1.00  0.00     0.031 C 
ATOM     43  C   UNL A   1      43.921  27.202  31.339  1.00  0.00     0.029 A 
ATOM     44  N   UNL A   1      41.983  28.297  31.118  1.00  0.00    -0.354 N 
ATOM     45  C   UNL A   1      40.269  30.458  34.480  1.00  0.00     0.074 A 
ATOM     46  C   UNL A   1      41.117  30.341  35.645  1.00  0.00     0.031 C 
ATOM     47  C   UNL A   1      43.501  27.039  30.069  1.00  0.00     0.029 A 
ATOM     48  C   UNL A   1      42.208  27.702  29.898  1.00  0.00     0.049 A 
ATOM     49  H   UNL A   1      41.205  28.873  31.300  1.00  0.00     0.167 HD
ATOM     50  C   UNL A   1      39.125  31.181  34.441  1.00  0.00     0.034 A 
ATOM     51  C   UNL A   1      41.441  27.676  28.787  1.00  0.00     0.034 A 
ATOM     52  C   UNL A   1      38.280  31.269  33.279  1.00  0.00     0.049 A 
ATOM     53  C   UNL A   1      40.118  28.412  28.797  1.00  0.00     0.074 A 
ATOM     54  C   UNL A   1      37.097  31.968  33.124  1.00  0.00     0.029 A 
ATOM     55  N   UNL A   1      38.524  30.626  32.072  1.00  0.00    -0.354 N 
ATOM     56  N   UNL A   1      39.567  29.117  29.759  1.00  0.00    -0.248 NA
ATOM     57  C   UNL A   1      39.315  28.352  27.567  1.00  0.00     0.031 C 
ATOM     58  C   UNL A   1      36.589  31.690  31.851  1.00  0.00     0.029 A 
ATOM     59  C   UNL A   1      37.497  30.886  31.179  1.00  0.00     0.049 A 
ATOM     60  H   UNL A   1      39.310  30.066  31.880  1.00  0.00     0.167 HD
ATOM     61  C   UNL A   1      38.375  29.615  29.235  1.00  0.00     0.074 A 
ATOM     62  C   UNL A   1      38.293  29.138  27.870  1.00  0.00     0.031 C 
ATOM     63  C   UNL A   1      37.435  30.400  29.821  1.00  0.00     0.034 A 
BRANCH  50  64
ATOM     64  C   UNL A   1      38.707  31.876  35.713  1.00  0.00     0.023 A 
ATOM     65  C   UNL A   1      38.117  31.175  36.779  1.00  0.00     0.031 A 
ATOM     66  C   UNL A   1      38.858  33.268  35.842  1.00  0.00     0.131 A 
ATOM     67  C   UNL A   1      37.634  31.876  37.895  1.00  0.00     0.055 A 
ATOM     68  C   UNL A   1      38.451  33.948  36.990  1.00  0.00     0.041 A 
ATOM     69  F   UNL A   1      39.387  33.993  34.844  1.00  0.00    -0.206 F 
ATOM     70  C   UNL A   1      37.820  33.254  38.019  1.00  0.00     0.022 A 
BRANCH  67  71
ATOM     71  S   UNL A   1      36.628  30.982  39.111  1.00  0.00     0.124 S 
ATOM     72  O   UNL A   1      37.504  30.990  40.280  1.00  0.00    -0.237 OA
ATOM     73  O   UNL A   1      35.433  31.813  39.204  1.00  0.00    -0.237 OA
ATOM     74  O   UNL A   1      36.431  29.671  38.496  1.00  0.00    -0.744 OA
ENDBRANCH  67  71
ENDBRANCH  50  64
BRANCH  51  75
ATOM     75  C   UNL A   1      41.861  26.898  27.583  1.00  0.00     0.023 A 
ATOM     76  C   UNL A   1      41.761  25.497  27.549  1.00  0.00     0.031 A 
ATOM     77  C   UNL A   1      42.449  27.540  26.478  1.00  0.00     0.131 A 
ATOM     78  C   UNL A   1      42.291  24.782  26.463  1.00  0.00     0.055 A 
ATOM     79  C   UNL A   1      42.921  26.828  25.373  1.00  0.00     0.041 A 
ATOM     80  F   UNL A   1      42.580  28.877  26.458  1.00  0.00    -0.206 F 
ATOM     81  C   UNL A   1      42.858  25.439  25.368  1.00  0.00     0.022 A 
BRANCH  78  82
ATOM     82  S   UNL A   1      42.327  22.969  26.549  1.00  0.00     0.124 S 
ATOM     83  O   UNL A   1      43.494  22.736  27.391  1.00  0.00    -0.237 OA
ATOM     84  O   UNL A   1      41.032  22.669  27.149  1.00  0.00    -0.237 OA
ATOM     85  O   UNL A   1      42.474  22.564  25.153  1.00  0.00    -0.744 OA
ENDBRANCH  78  82
ENDBRANCH  51  75
BRANCH  63  86
ATOM     86  C   UNL A   1      36.269  30.841  28.967  1.00  0.00     0.023 A 
ATOM     87  C   UNL A   1      35.362  29.922  28.413  1.00  0.00     0.031 A 
ATOM     88  C   UNL A   1      36.064  32.210  28.712  1.00  0.00     0.131 A 
ATOM     89  C   UNL A   1      34.324  30.378  27.585  1.00  0.00     0.055 A 
ATOM     90  C   UNL A   1      34.993  32.662  27.941  1.00  0.00     0.041 A 
ATOM     91  F   UNL A   1      36.899  33.131  29.218  1.00  0.00    -0.206 F 
ATOM     92  C   UNL A   1      34.123  31.743  27.361  1.00  0.00     0.022 A 
BRANCH  89  93
ATOM     93  S   UNL A   1      33.289  29.158  26.732  1.00  0.00     0.124 S 
ATOM     94  O   UNL A   1      32.371  28.747  27.789  1.00  0.00    -0.237 OA
ATOM     95  O   UNL A   1      32.704  29.944  25.650  1.00  0.00    -0.237 OA
ATOM     96  O   UNL A   1      34.243  28.135  26.307  1.00  0.00    -0.744 OA
ENDBRANCH  89  93
ENDBRANCH  63  86
ENDBRANCH  37  38
ENDBRANCH  30  32
ENDBRANCH  29  30
ENDBRANCH  28  29
ENDBRANCH  27  28
ENDBRANCH  26  27
ENDBRANCH  25  26
ENDBRANCH   1  25
TORSDOF 24
ENDMDL
