MODEL 1
REMARK VINA RESULT:      -6.6      0.000      0.000
REMARK SMILES O=C(OCCOCCOCCOC(=O)[C@H](NC(=O)[C@H]1CC[C@@H](CNC(=O)[C@@H]2Cc3ccccc3C[NH2+]2)CC1)c1ccccc1)c1ccc(-c2c3nc(c(-c4cc(S(=O)(=O)[O-])ccc4F)c4ccc([nH]4)c(-c4cc(S(=O)(=O)[O-])ccc4F)c4nc(c(-c5cc(S(=O)(=O)[O-])ccc5F)c5ccc2[nH]5)C=C4)C=C3)cc1
REMARK SMILES IDX 8 1 7 2 6 3 5 4 4 5 3 6 2 7 1 8 45 9 46 10 107 11 47 12
REMARK SMILES IDX 106 13 48 14 49 15 50 16 100 17 51 18 105 19 99 20 101 21
REMARK SMILES IDX 52 22 104 23 98 24 97 25 53 27 85 28 65 29 84 30 66 31 69 32
REMARK SMILES IDX 83 33 102 34 67 35 68 36 82 38 103 39 70 40 54 41 55 42
REMARK SMILES IDX 63 43 56 44 62 45 64 46 61 47 57 48 58 49 59 50 60 51 86 52
REMARK SMILES IDX 87 53 95 54 88 55 94 56 96 57 93 58 89 59 90 60 91 61 92 62
REMARK SMILES IDX 71 63 72 64 80 65 73 66 79 67 81 68 78 69 74 70 75 71 76 72
REMARK SMILES IDX 77 73 9 74 10 75 11 76 12 77 13 78 14 79 15 80 39 81 40 82
REMARK SMILES IDX 44 83 41 84 43 85 42 86 16 87 17 88 18 90 19 91 38 92 20 93
REMARK SMILES IDX 37 94 21 95 22 96 23 97 24 98 25 99 26 101 27 102 28 103
REMARK SMILES IDX 36 104 29 105 35 106 30 109 34 110 31 111 33 112 32 113
REMARK H PARENT 101 26 69 37 16 89 24 100 36 107 36 108
REMARK Flexibility Score: inf
ROOT
ATOM      1  C   UNL A   1      47.172  39.494  26.464  1.00  0.00     0.188 C 
ENDROOT
BRANCH   1   2
ATOM      2  C   UNL A   1      46.828  40.368  25.261  1.00  0.00     0.188 C 
BRANCH   2   3
ATOM      3  O   UNL A   1      45.407  40.503  25.123  1.00  0.00    -0.376 OA
BRANCH   3   4
ATOM      4  C   UNL A   1      44.702  40.299  26.351  1.00  0.00     0.202 C 
BRANCH   4   5
ATOM      5  C   UNL A   1      44.334  41.591  27.090  1.00  0.00     0.261 C 
BRANCH   5   6
ATOM      6  O   UNL A   1      43.537  41.346  28.260  1.00  0.00    -0.460 OA
BRANCH   6   7
ATOM      7  C   UNL A   1      43.964  41.137  29.531  1.00  0.00     0.338 C 
ATOM      8  O   UNL A   1      44.198  42.116  30.237  1.00  0.00    -0.246 OA
BRANCH   7   9
ATOM      9  C   UNL A   1      44.107  39.777  30.141  1.00  0.00     0.060 A 
ATOM     10  C   UNL A   1      43.661  38.585  29.567  1.00  0.00     0.016 A 
ATOM     11  C   UNL A   1      44.793  39.694  31.362  1.00  0.00     0.016 A 
ATOM     12  C   UNL A   1      43.760  37.366  30.244  1.00  0.00     0.010 A 
ATOM     13  C   UNL A   1      44.960  38.463  32.013  1.00  0.00     0.010 A 
ATOM     14  C   UNL A   1      44.403  37.290  31.479  1.00  0.00    -0.014 A 
BRANCH  14  15
ATOM     15  C   UNL A   1      44.395  36.026  32.263  1.00  0.00     0.031 A 
ATOM     16  C   UNL A   1      45.276  34.891  31.808  1.00  0.00     0.074 A 
ATOM     17  C   UNL A   1      43.654  35.884  33.381  1.00  0.00     0.049 A 
ATOM     18  N   UNL A   1      45.304  33.650  32.217  1.00  0.00    -0.248 NA
ATOM     19  C   UNL A   1      46.276  35.209  30.775  1.00  0.00     0.031 C 
ATOM     20  C   UNL A   1      42.869  36.931  34.038  1.00  0.00     0.029 A 
ATOM     21  N   UNL A   1      43.406  34.769  34.147  1.00  0.00    -0.354 N 
ATOM     22  C   UNL A   1      46.338  33.044  31.511  1.00  0.00     0.074 A 
ATOM     23  C   UNL A   1      46.875  34.039  30.607  1.00  0.00     0.031 C 
ATOM     24  C   UNL A   1      42.150  36.386  35.037  1.00  0.00     0.029 A 
ATOM     25  C   UNL A   1      42.381  34.951  35.051  1.00  0.00     0.049 A 
ATOM     26  H   UNL A   1      43.909  33.927  34.059  1.00  0.00     0.167 HD
ATOM     27  C   UNL A   1      46.817  31.783  31.630  1.00  0.00     0.034 A 
ATOM     28  C   UNL A   1      41.657  34.038  35.726  1.00  0.00     0.034 A 
ATOM     29  C   UNL A   1      46.284  30.800  32.536  1.00  0.00     0.049 A 
ATOM     30  C   UNL A   1      42.018  32.581  35.605  1.00  0.00     0.074 A 
ATOM     31  C   UNL A   1      46.753  29.527  32.817  1.00  0.00     0.029 A 
ATOM     32  N   UNL A   1      45.134  30.974  33.284  1.00  0.00    -0.354 N 
ATOM     33  N   UNL A   1      42.994  32.023  34.933  1.00  0.00    -0.248 NA
ATOM     34  C   UNL A   1      41.168  31.637  36.344  1.00  0.00     0.031 C 
ATOM     35  C   UNL A   1      45.843  28.905  33.682  1.00  0.00     0.029 A 
ATOM     36  C   UNL A   1      44.838  29.810  33.973  1.00  0.00     0.049 A 
ATOM     37  H   UNL A   1      44.604  31.802  33.323  1.00  0.00     0.167 HD
ATOM     38  C   UNL A   1      42.891  30.664  35.211  1.00  0.00     0.074 A 
ATOM     39  C   UNL A   1      41.762  30.488  36.092  1.00  0.00     0.031 C 
ATOM     40  C   UNL A   1      43.681  29.645  34.800  1.00  0.00     0.034 A 
BRANCH  27  41
ATOM     41  C   UNL A   1      47.957  31.387  30.738  1.00  0.00     0.023 A 
ATOM     42  C   UNL A   1      47.741  30.917  29.433  1.00  0.00     0.031 A 
ATOM     43  C   UNL A   1      49.278  31.486  31.204  1.00  0.00     0.131 A 
ATOM     44  C   UNL A   1      48.833  30.518  28.649  1.00  0.00     0.055 A 
ATOM     45  C   UNL A   1      50.365  31.142  30.400  1.00  0.00     0.041 A 
ATOM     46  F   UNL A   1      49.532  31.909  32.452  1.00  0.00    -0.206 F 
ATOM     47  C   UNL A   1      50.145  30.648  29.116  1.00  0.00     0.022 A 
BRANCH  44  48
ATOM     48  S   UNL A   1      48.512  29.745  27.041  1.00  0.00     0.124 S 
ATOM     49  O   UNL A   1      49.814  29.866  26.390  1.00  0.00    -0.237 OA
ATOM     50  O   UNL A   1      48.109  28.394  27.413  1.00  0.00    -0.237 OA
ATOM     51  O   UNL A   1      47.455  30.575  26.468  1.00  0.00    -0.744 OA
ENDBRANCH  44  48
ENDBRANCH  27  41
BRANCH  28  52
ATOM     52  C   UNL A   1      40.374  34.339  36.420  1.00  0.00     0.023 A 
ATOM     53  C   UNL A   1      40.312  34.358  37.821  1.00  0.00     0.031 A 
ATOM     54  C   UNL A   1      39.186  34.131  35.691  1.00  0.00     0.131 A 
ATOM     55  C   UNL A   1      39.099  34.019  38.446  1.00  0.00     0.055 A 
ATOM     56  C   UNL A   1      37.964  33.908  36.322  1.00  0.00     0.041 A 
ATOM     57  F   UNL A   1      39.232  34.008  34.355  1.00  0.00    -0.206 F 
ATOM     58  C   UNL A   1      37.923  33.819  37.710  1.00  0.00     0.022 A 
BRANCH  55  59
ATOM     59  S   UNL A   1      39.117  33.534  40.199  1.00  0.00     0.124 S 
ATOM     60  O   UNL A   1      38.092  34.417  40.739  1.00  0.00    -0.237 OA
ATOM     61  O   UNL A   1      38.763  32.118  40.161  1.00  0.00    -0.237 OA
ATOM     62  O   UNL A   1      40.487  33.827  40.614  1.00  0.00    -0.744 OA
ENDBRANCH  55  59
ENDBRANCH  28  52
BRANCH  40  63
ATOM     63  C   UNL A   1      43.339  28.301  35.372  1.00  0.00     0.023 A 
ATOM     64  C   UNL A   1      43.915  27.858  36.575  1.00  0.00     0.031 A 
ATOM     65  C   UNL A   1      42.581  27.395  34.613  1.00  0.00     0.131 A 
ATOM     66  C   UNL A   1      43.794  26.512  36.942  1.00  0.00     0.055 A 
ATOM     67  C   UNL A   1      42.414  26.071  35.016  1.00  0.00     0.041 A 
ATOM     68  F   UNL A   1      42.035  27.771  33.445  1.00  0.00    -0.206 F 
ATOM     69  C   UNL A   1      43.038  25.619  36.177  1.00  0.00     0.022 A 
BRANCH  66  70
ATOM     70  S   UNL A   1      44.731  25.916  38.376  1.00  0.00     0.124 S 
ATOM     71  O   UNL A   1      44.666  24.470  38.202  1.00  0.00    -0.237 OA
ATOM     72  O   UNL A   1      46.043  26.522  38.170  1.00  0.00    -0.237 OA
ATOM     73  O   UNL A   1      43.982  26.444  39.516  1.00  0.00    -0.744 OA
ENDBRANCH  66  70
ENDBRANCH  40  63
ENDBRANCH  14  15
ENDBRANCH   7   9
ENDBRANCH   6   7
ENDBRANCH   5   6
ENDBRANCH   4   5
ENDBRANCH   3   4
ENDBRANCH   2   3
ENDBRANCH   1   2
BRANCH   1  74
ATOM     74  O   UNL A   1      47.884  38.289  26.176  1.00  0.00    -0.376 OA
BRANCH  74  75
ATOM     75  C   UNL A   1      47.758  37.204  27.089  1.00  0.00     0.202 C 
BRANCH  75  76
ATOM     76  C   UNL A   1      47.358  35.842  26.512  1.00  0.00     0.261 C 
BRANCH  76  77
ATOM     77  O   UNL A   1      46.419  35.083  27.287  1.00  0.00    -0.461 OA
BRANCH  77  78
ATOM     78  C   UNL A   1      45.855  34.035  26.616  1.00  0.00     0.333 C 
ATOM     79  O   UNL A   1      45.922  33.859  25.402  1.00  0.00    -0.249 OA
BRANCH  78  80
ATOM     80  C   UNL A   1      45.008  33.145  27.554  1.00  0.00     0.223 C 
BRANCH  80  81
ATOM     81  C   UNL A   1      43.835  34.029  27.932  1.00  0.00    -0.014 A 
ATOM     82  C   UNL A   1      43.350  34.949  26.988  1.00  0.00     0.006 A 
ATOM     83  C   UNL A   1      43.133  33.853  29.137  1.00  0.00     0.006 A 
ATOM     84  C   UNL A   1      42.176  35.653  27.234  1.00  0.00     0.000 A 
ATOM     85  C   UNL A   1      41.979  34.591  29.393  1.00  0.00     0.000 A 
ATOM     86  C   UNL A   1      41.494  35.477  28.436  1.00  0.00     0.000 A 
ENDBRANCH  80  81
BRANCH  80  87
ATOM     87  N   UNL A   1      44.670  31.919  26.807  1.00  0.00    -0.339 N 
ATOM     88  C   UNL A   1      44.031  30.757  27.063  1.00  0.00     0.224 C 
ATOM     89  H   UNL A   1      44.995  31.957  25.879  1.00  0.00     0.164 HD
ATOM     90  O   UNL A   1      44.187  29.882  26.198  1.00  0.00    -0.275 OA
BRANCH  88  91
ATOM     91  C   UNL A   1      43.109  30.454  28.255  1.00  0.00     0.078 C 
ATOM     92  C   UNL A   1      42.063  29.378  28.063  1.00  0.00     0.014 C 
ATOM     93  C   UNL A   1      44.016  30.134  29.468  1.00  0.00     0.014 C 
ATOM     94  C   UNL A   1      41.325  29.007  29.335  1.00  0.00     0.006 C 
ATOM     95  C   UNL A   1      43.285  29.625  30.712  1.00  0.00     0.006 C 
ATOM     96  C   UNL A   1      42.276  28.510  30.425  1.00  0.00     0.008 C 
BRANCH  96  97
ATOM     97  C   UNL A   1      42.929  27.158  30.039  1.00  0.00     0.119 C 
BRANCH  97  98
ATOM     98  N   UNL A   1      43.907  26.743  31.030  1.00  0.00    -0.351 N 
ATOM     99  C   UNL A   1      44.873  25.781  31.012  1.00  0.00     0.278 C 
ATOM    100  H   UNL A   1      43.863  27.250  31.874  1.00  0.00     0.163 HD
ATOM    101  O   UNL A   1      45.609  25.736  32.009  1.00  0.00    -0.268 OA
BRANCH  99 102
ATOM    102  C   UNL A   1      45.153  24.875  29.774  1.00  0.00     0.277 C 
ATOM    103  C   UNL A   1      45.028  25.601  28.416  1.00  0.00     0.111 C 
ATOM    104  N   UNL A   1      44.344  23.618  29.920  1.00  0.00    -0.332 N 
ATOM    105  C   UNL A   1      44.410  24.793  27.306  1.00  0.00    -0.033 A 
ATOM    106  C   UNL A   1      43.119  23.661  29.104  1.00  0.00     0.298 C 
ATOM    107  H   UNL A   1      44.085  23.505  30.901  1.00  0.00     0.347 HD
ATOM    108  H   UNL A   1      44.914  22.836  29.599  1.00  0.00     0.347 HD
ATOM    109  C   UNL A   1      44.674  25.063  25.958  1.00  0.00     0.004 A 
ATOM    110  C   UNL A   1      43.454  23.830  27.648  1.00  0.00     0.010 A 
ATOM    111  C   UNL A   1      44.014  24.352  24.956  1.00  0.00     0.000 A 
ATOM    112  C   UNL A   1      42.768  23.147  26.638  1.00  0.00     0.010 A 
ATOM    113  C   UNL A   1      43.058  23.399  25.297  1.00  0.00     0.001 A 
ENDBRANCH  99 102
ENDBRANCH  97  98
ENDBRANCH  96  97
ENDBRANCH  88  91
ENDBRANCH  80  87
ENDBRANCH  78  80
ENDBRANCH  77  78
ENDBRANCH  76  77
ENDBRANCH  75  76
ENDBRANCH  74  75
ENDBRANCH   1  74
TORSDOF 26
ENDMDL
MODEL 2
REMARK VINA RESULT:      -6.4      4.709      8.839
REMARK SMILES O=C(OCCOCCOCCOC(=O)[C@H](NC(=O)[C@H]1CC[C@@H](CNC(=O)[C@@H]2Cc3ccccc3C[NH2+]2)CC1)c1ccccc1)c1ccc(-c2c3nc(c(-c4cc(S(=O)(=O)[O-])ccc4F)c4ccc([nH]4)c(-c4cc(S(=O)(=O)[O-])ccc4F)c4nc(c(-c5cc(S(=O)(=O)[O-])ccc5F)c5ccc2[nH]5)C=C4)C=C3)cc1
REMARK SMILES IDX 8 1 7 2 6 3 5 4 4 5 3 6 2 7 1 8 45 9 46 10 107 11 47 12
REMARK SMILES IDX 106 13 48 14 49 15 50 16 100 17 51 18 105 19 99 20 101 21
REMARK SMILES IDX 52 22 104 23 98 24 97 25 53 27 85 28 65 29 84 30 66 31 69 32
REMARK SMILES IDX 83 33 102 34 67 35 68 36 82 38 103 39 70 40 54 41 55 42
REMARK SMILES IDX 63 43 56 44 62 45 64 46 61 47 57 48 58 49 59 50 60 51 86 52
REMARK SMILES IDX 87 53 95 54 88 55 94 56 96 57 93 58 89 59 90 60 91 61 92 62
REMARK SMILES IDX 71 63 72 64 80 65 73 66 79 67 81 68 78 69 74 70 75 71 76 72
REMARK SMILES IDX 77 73 9 74 10 75 11 76 12 77 13 78 14 79 15 80 39 81 40 82
REMARK SMILES IDX 44 83 41 84 43 85 42 86 16 87 17 88 18 90 19 91 38 92 20 93
REMARK SMILES IDX 37 94 21 95 22 96 23 97 24 98 25 99 26 101 27 102 28 103
REMARK SMILES IDX 36 104 29 105 35 106 30 109 34 110 31 111 33 112 32 113
REMARK H PARENT 101 26 69 37 16 89 24 100 36 107 36 108
REMARK Flexibility Score: inf
ROOT
ATOM      1  C   UNL A   1      40.790  33.492  30.715  1.00  0.00     0.188 C 
ENDROOT
BRANCH   1   2
ATOM      2  C   UNL A   1      39.681  34.292  31.394  1.00  0.00     0.188 C 
BRANCH   2   3
ATOM      3  O   UNL A   1      38.395  33.739  31.086  1.00  0.00    -0.376 OA
BRANCH   3   4
ATOM      4  C   UNL A   1      37.727  33.200  32.230  1.00  0.00     0.202 C 
BRANCH   4   5
ATOM      5  C   UNL A   1      37.372  31.713  32.111  1.00  0.00     0.261 C 
BRANCH   5   6
ATOM      6  O   UNL A   1      38.338  30.864  32.752  1.00  0.00    -0.460 OA
BRANCH   6   7
ATOM      7  C   UNL A   1      38.905  29.731  32.266  1.00  0.00     0.338 C 
ATOM      8  O   UNL A   1      38.389  29.192  31.289  1.00  0.00    -0.246 OA
BRANCH   7   9
ATOM      9  C   UNL A   1      40.162  29.133  32.819  1.00  0.00     0.060 A 
ATOM     10  C   UNL A   1      40.611  29.274  34.133  1.00  0.00     0.016 A 
ATOM     11  C   UNL A   1      40.917  28.324  31.957  1.00  0.00     0.016 A 
ATOM     12  C   UNL A   1      41.841  28.752  34.545  1.00  0.00     0.010 A 
ATOM     13  C   UNL A   1      42.116  27.737  32.385  1.00  0.00     0.010 A 
ATOM     14  C   UNL A   1      42.613  27.984  33.675  1.00  0.00    -0.014 A 
BRANCH  14  15
ATOM     15  C   UNL A   1      43.978  27.539  34.062  1.00  0.00     0.031 A 
ATOM     16  C   UNL A   1      45.157  28.374  33.634  1.00  0.00     0.074 A 
ATOM     17  C   UNL A   1      44.184  26.435  34.810  1.00  0.00     0.049 A 
ATOM     18  N   UNL A   1      46.433  28.099  33.696  1.00  0.00    -0.248 NA
ATOM     19  C   UNL A   1      44.854  29.709  33.091  1.00  0.00     0.031 C 
ATOM     20  C   UNL A   1      43.149  25.605  35.430  1.00  0.00     0.029 A 
ATOM     21  N   UNL A   1      45.353  25.792  35.143  1.00  0.00    -0.354 N 
ATOM     22  C   UNL A   1      47.088  29.231  33.224  1.00  0.00     0.074 A 
ATOM     23  C   UNL A   1      46.066  30.176  32.827  1.00  0.00     0.031 C 
ATOM     24  C   UNL A   1      43.721  24.514  35.973  1.00  0.00     0.029 A 
ATOM     25  C   UNL A   1      45.146  24.543  35.689  1.00  0.00     0.049 A 
ATOM     26  H   UNL A   1      46.246  26.183  35.005  1.00  0.00     0.167 HD
ATOM     27  C   UNL A   1      48.418  29.474  33.160  1.00  0.00     0.034 A 
ATOM     28  C   UNL A   1      46.005  23.517  35.840  1.00  0.00     0.034 A 
ATOM     29  C   UNL A   1      49.430  28.534  33.564  1.00  0.00     0.049 A 
ATOM     30  C   UNL A   1      47.452  23.712  35.468  1.00  0.00     0.074 A 
ATOM     31  C   UNL A   1      50.802  28.708  33.641  1.00  0.00     0.029 A 
ATOM     32  N   UNL A   1      49.174  27.224  33.926  1.00  0.00    -0.354 N 
ATOM     33  N   UNL A   1      48.055  24.785  35.022  1.00  0.00    -0.248 NA
ATOM     34  C   UNL A   1      48.327  22.543  35.630  1.00  0.00     0.031 C 
ATOM     35  C   UNL A   1      51.381  27.478  33.981  1.00  0.00     0.029 A 
ATOM     36  C   UNL A   1      50.365  26.558  34.161  1.00  0.00     0.049 A 
ATOM     37  H   UNL A   1      48.279  26.823  34.007  1.00  0.00     0.167 HD
ATOM     38  C   UNL A   1      49.390  24.421  34.892  1.00  0.00     0.074 A 
ATOM     39  C   UNL A   1      49.501  23.038  35.293  1.00  0.00     0.031 C 
ATOM     40  C   UNL A   1      50.449  25.171  34.506  1.00  0.00     0.034 A 
BRANCH  27  41
ATOM     41  C   UNL A   1      48.856  30.798  32.606  1.00  0.00     0.023 A 
ATOM     42  C   UNL A   1      49.260  30.940  31.269  1.00  0.00     0.031 A 
ATOM     43  C   UNL A   1      48.865  31.935  33.431  1.00  0.00     0.131 A 
ATOM     44  C   UNL A   1      49.702  32.187  30.805  1.00  0.00     0.055 A 
ATOM     45  C   UNL A   1      49.249  33.186  32.949  1.00  0.00     0.041 A 
ATOM     46  F   UNL A   1      48.507  31.844  34.722  1.00  0.00    -0.206 F 
ATOM     47  C   UNL A   1      49.678  33.315  31.631  1.00  0.00     0.022 A 
BRANCH  44  48
ATOM     48  S   UNL A   1      50.389  32.297  29.132  1.00  0.00     0.124 S 
ATOM     49  O   UNL A   1      49.361  31.617  28.345  1.00  0.00    -0.237 OA
ATOM     50  O   UNL A   1      50.498  33.737  28.927  1.00  0.00    -0.237 OA
ATOM     51  O   UNL A   1      51.660  31.584  29.236  1.00  0.00    -0.744 OA
ENDBRANCH  44  48
ENDBRANCH  27  41
BRANCH  28  52
ATOM     52  C   UNL A   1      45.590  22.119  36.143  1.00  0.00     0.023 A 
ATOM     53  C   UNL A   1      45.952  21.519  37.358  1.00  0.00     0.031 A 
ATOM     54  C   UNL A   1      45.268  21.294  35.048  1.00  0.00     0.131 A 
ATOM     55  C   UNL A   1      46.126  20.124  37.393  1.00  0.00     0.055 A 
ATOM     56  C   UNL A   1      45.334  19.904  35.128  1.00  0.00     0.041 A 
ATOM     57  F   UNL A   1      45.016  21.840  33.848  1.00  0.00    -0.206 F 
ATOM     58  C   UNL A   1      45.797  19.313  36.299  1.00  0.00     0.022 A 
BRANCH  55  59
ATOM     59  S   UNL A   1      47.074  19.390  38.762  1.00  0.00     0.124 S 
ATOM     60  O   UNL A   1      46.395  18.109  38.910  1.00  0.00    -0.237 OA
ATOM     61  O   UNL A   1      48.432  19.318  38.231  1.00  0.00    -0.237 OA
ATOM     62  O   UNL A   1      46.877  20.340  39.854  1.00  0.00    -0.744 OA
ENDBRANCH  55  59
ENDBRANCH  28  52
BRANCH  40  63
ATOM     63  C   UNL A   1      51.779  24.481  34.572  1.00  0.00     0.023 A 
ATOM     64  C   UNL A   1      52.140  23.511  33.621  1.00  0.00     0.031 A 
ATOM     65  C   UNL A   1      52.602  24.663  35.695  1.00  0.00     0.131 A 
ATOM     66  C   UNL A   1      53.254  22.695  33.857  1.00  0.00     0.055 A 
ATOM     67  C   UNL A   1      53.744  23.889  35.892  1.00  0.00     0.041 A 
ATOM     68  F   UNL A   1      52.279  25.562  36.639  1.00  0.00    -0.206 F 
ATOM     69  C   UNL A   1      54.064  22.886  34.979  1.00  0.00     0.022 A 
BRANCH  66  70
ATOM     70  S   UNL A   1      53.567  21.307  32.733  1.00  0.00     0.124 S 
ATOM     71  O   UNL A   1      54.629  21.836  31.885  1.00  0.00    -0.237 OA
ATOM     72  O   UNL A   1      53.959  20.240  33.650  1.00  0.00    -0.237 OA
ATOM     73  O   UNL A   1      52.279  21.107  32.071  1.00  0.00    -0.744 OA
ENDBRANCH  66  70
ENDBRANCH  40  63
ENDBRANCH  14  15
ENDBRANCH   7   9
ENDBRANCH   6   7
ENDBRANCH   5   6
ENDBRANCH   4   5
ENDBRANCH   3   4
ENDBRANCH   2   3
ENDBRANCH   1   2
BRANCH   1  74
ATOM     74  O   UNL A   1      41.818  32.999  31.575  1.00  0.00    -0.376 OA
BRANCH  74  75
ATOM     75  C   UNL A   1      42.246  31.652  31.402  1.00  0.00     0.202 C 
BRANCH  75  76
ATOM     76  C   UNL A   1      42.974  31.307  30.099  1.00  0.00     0.261 C 
BRANCH  76  77
ATOM     77  O   UNL A   1      44.378  31.603  30.065  1.00  0.00    -0.461 OA
BRANCH  77  78
ATOM     78  C   UNL A   1      44.913  31.645  28.810  1.00  0.00     0.333 C 
ATOM     79  O   UNL A   1      46.107  31.789  28.558  1.00  0.00    -0.249 OA
BRANCH  78  80
ATOM     80  C   UNL A   1      43.818  31.608  27.719  1.00  0.00     0.223 C 
BRANCH  80  81
ATOM     81  C   UNL A   1      43.954  32.949  27.023  1.00  0.00    -0.014 A 
ATOM     82  C   UNL A   1      44.026  32.978  25.621  1.00  0.00     0.006 A 
ATOM     83  C   UNL A   1      43.865  34.162  27.727  1.00  0.00     0.006 A 
ATOM     84  C   UNL A   1      43.979  34.191  24.941  1.00  0.00     0.000 A 
ATOM     85  C   UNL A   1      43.858  35.375  27.042  1.00  0.00     0.000 A 
ATOM     86  C   UNL A   1      43.900  35.387  25.651  1.00  0.00     0.000 A 
ENDBRANCH  80  81
BRANCH  80  87
ATOM     87  N   UNL A   1      44.075  30.424  26.880  1.00  0.00    -0.339 N 
ATOM     88  C   UNL A   1      43.658  29.140  26.837  1.00  0.00     0.224 C 
ATOM     89  H   UNL A   1      44.721  30.619  26.163  1.00  0.00     0.164 HD
ATOM     90  O   UNL A   1      44.328  28.405  26.095  1.00  0.00    -0.275 OA
BRANCH  88  91
ATOM     91  C   UNL A   1      42.435  28.542  27.551  1.00  0.00     0.078 C 
ATOM     92  C   UNL A   1      41.152  28.441  26.755  1.00  0.00     0.014 C 
ATOM     93  C   UNL A   1      42.855  27.159  28.104  1.00  0.00     0.014 C 
ATOM     94  C   UNL A   1      40.053  27.671  27.462  1.00  0.00     0.006 C 
ATOM     95  C   UNL A   1      41.719  26.320  28.693  1.00  0.00     0.006 C 
ATOM     96  C   UNL A   1      40.479  26.242  27.799  1.00  0.00     0.008 C 
BRANCH  96  97
ATOM     97  C   UNL A   1      40.682  25.390  26.520  1.00  0.00     0.119 C 
BRANCH  97  98
ATOM     98  N   UNL A   1      40.004  24.109  26.626  1.00  0.00    -0.351 N 
ATOM     99  C   UNL A   1      40.472  22.829  26.660  1.00  0.00     0.278 C 
ATOM    100  H   UNL A   1      39.023  24.178  26.682  1.00  0.00     0.163 HD
ATOM    101  O   UNL A   1      39.620  21.947  26.842  1.00  0.00    -0.268 OA
BRANCH  99 102
ATOM    102  C   UNL A   1      41.990  22.474  26.618  1.00  0.00     0.277 C 
ATOM    103  C   UNL A   1      42.838  23.187  27.694  1.00  0.00     0.111 C 
ATOM    104  N   UNL A   1      42.468  22.624  25.202  1.00  0.00    -0.332 N 
ATOM    105  C   UNL A   1      44.204  23.635  27.247  1.00  0.00    -0.033 A 
ATOM    106  C   UNL A   1      43.176  23.900  24.999  1.00  0.00     0.298 C 
ATOM    107  H   UNL A   1      41.663  22.589  24.577  1.00  0.00     0.347 HD
ATOM    108  H   UNL A   1      43.119  21.864  25.005  1.00  0.00     0.347 HD
ATOM    109  C   UNL A   1      45.259  23.812  28.151  1.00  0.00     0.004 A 
ATOM    110  C   UNL A   1      44.372  23.995  25.905  1.00  0.00     0.010 A 
ATOM    111  C   UNL A   1      46.484  24.313  27.714  1.00  0.00     0.000 A 
ATOM    112  C   UNL A   1      45.591  24.534  25.481  1.00  0.00     0.010 A 
ATOM    113  C   UNL A   1      46.647  24.679  26.380  1.00  0.00     0.001 A 
ENDBRANCH  99 102
ENDBRANCH  97  98
ENDBRANCH  96  97
ENDBRANCH  88  91
ENDBRANCH  80  87
ENDBRANCH  78  80
ENDBRANCH  77  78
ENDBRANCH  76  77
ENDBRANCH  75  76
ENDBRANCH  74  75
ENDBRANCH   1  74
TORSDOF 26
ENDMDL
MODEL 3
REMARK VINA RESULT:      -6.4      5.571     10.762
REMARK SMILES O=C(OCCOCCOCCOC(=O)[C@H](NC(=O)[C@H]1CC[C@@H](CNC(=O)[C@@H]2Cc3ccccc3C[NH2+]2)CC1)c1ccccc1)c1ccc(-c2c3nc(c(-c4cc(S(=O)(=O)[O-])ccc4F)c4ccc([nH]4)c(-c4cc(S(=O)(=O)[O-])ccc4F)c4nc(c(-c5cc(S(=O)(=O)[O-])ccc5F)c5ccc2[nH]5)C=C4)C=C3)cc1
REMARK SMILES IDX 8 1 7 2 6 3 5 4 4 5 3 6 2 7 1 8 45 9 46 10 107 11 47 12
REMARK SMILES IDX 106 13 48 14 49 15 50 16 100 17 51 18 105 19 99 20 101 21
REMARK SMILES IDX 52 22 104 23 98 24 97 25 53 27 85 28 65 29 84 30 66 31 69 32
REMARK SMILES IDX 83 33 102 34 67 35 68 36 82 38 103 39 70 40 54 41 55 42
REMARK SMILES IDX 63 43 56 44 62 45 64 46 61 47 57 48 58 49 59 50 60 51 86 52
REMARK SMILES IDX 87 53 95 54 88 55 94 56 96 57 93 58 89 59 90 60 91 61 92 62
REMARK SMILES IDX 71 63 72 64 80 65 73 66 79 67 81 68 78 69 74 70 75 71 76 72
REMARK SMILES IDX 77 73 9 74 10 75 11 76 12 77 13 78 14 79 15 80 39 81 40 82
REMARK SMILES IDX 44 83 41 84 43 85 42 86 16 87 17 88 18 90 19 91 38 92 20 93
REMARK SMILES IDX 37 94 21 95 22 96 23 97 24 98 25 99 26 101 27 102 28 103
REMARK SMILES IDX 36 104 29 105 35 106 30 109 34 110 31 111 33 112 32 113
REMARK H PARENT 101 26 69 37 16 89 24 100 36 107 36 108
REMARK Flexibility Score: inf
ROOT
ATOM      1  C   UNL A   1      42.621  33.367  32.966  1.00  0.00     0.188 C 
ENDROOT
BRANCH   1   2
ATOM      2  C   UNL A   1      42.145  34.364  31.912  1.00  0.00     0.188 C 
BRANCH   2   3
ATOM      3  O   UNL A   1      40.738  34.219  31.678  1.00  0.00    -0.376 OA
BRANCH   3   4
ATOM      4  C   UNL A   1      40.318  34.768  30.425  1.00  0.00     0.202 C 
BRANCH   4   5
ATOM      5  C   UNL A   1      41.215  34.392  29.239  1.00  0.00     0.261 C 
BRANCH   5   6
ATOM      6  O   UNL A   1      41.707  35.544  28.536  1.00  0.00    -0.460 OA
BRANCH   6   7
ATOM      7  C   UNL A   1      42.587  35.577  27.503  1.00  0.00     0.338 C 
ATOM      8  O   UNL A   1      42.415  36.408  26.614  1.00  0.00    -0.246 OA
BRANCH   7   9
ATOM      9  C   UNL A   1      43.795  34.696  27.419  1.00  0.00     0.060 A 
ATOM     10  C   UNL A   1      44.045  33.764  26.410  1.00  0.00     0.016 A 
ATOM     11  C   UNL A   1      44.778  34.863  28.407  1.00  0.00     0.016 A 
ATOM     12  C   UNL A   1      45.160  32.922  26.452  1.00  0.00     0.010 A 
ATOM     13  C   UNL A   1      45.935  34.070  28.415  1.00  0.00     0.010 A 
ATOM     14  C   UNL A   1      46.114  33.057  27.460  1.00  0.00    -0.014 A 
BRANCH  14  15
ATOM     15  C   UNL A   1      47.230  32.082  27.586  1.00  0.00     0.031 A 
ATOM     16  C   UNL A   1      48.535  32.388  26.899  1.00  0.00     0.074 A 
ATOM     17  C   UNL A   1      47.115  30.957  28.323  1.00  0.00     0.049 A 
ATOM     18  N   UNL A   1      49.576  31.618  26.719  1.00  0.00    -0.248 NA
ATOM     19  C   UNL A   1      48.697  33.754  26.375  1.00  0.00     0.031 C 
ATOM     20  C   UNL A   1      45.977  30.589  29.168  1.00  0.00     0.029 A 
ATOM     21  N   UNL A   1      47.964  29.882  28.442  1.00  0.00    -0.354 N 
ATOM     22  C   UNL A   1      50.525  32.409  26.081  1.00  0.00     0.074 A 
ATOM     23  C   UNL A   1      49.916  33.703  25.857  1.00  0.00     0.031 C 
ATOM     24  C   UNL A   1      46.154  29.337  29.630  1.00  0.00     0.029 A 
ATOM     25  C   UNL A   1      47.382  28.801  29.068  1.00  0.00     0.049 A 
ATOM     26  H   UNL A   1      48.892  29.886  28.115  1.00  0.00     0.167 HD
ATOM     27  C   UNL A   1      51.799  32.097  25.745  1.00  0.00     0.034 A 
ATOM     28  C   UNL A   1      47.765  27.510  29.087  1.00  0.00     0.034 A 
ATOM     29  C   UNL A   1      52.402  30.811  25.978  1.00  0.00     0.049 A 
ATOM     30  C   UNL A   1      49.062  27.120  28.429  1.00  0.00     0.074 A 
ATOM     31  C   UNL A   1      53.713  30.412  25.775  1.00  0.00     0.029 A 
ATOM     32  N   UNL A   1      51.716  29.702  26.436  1.00  0.00    -0.354 N 
ATOM     33  N   UNL A   1      49.946  27.876  27.829  1.00  0.00    -0.248 NA
ATOM     34  C   UNL A   1      49.403  25.691  28.460  1.00  0.00     0.031 C 
ATOM     35  C   UNL A   1      53.801  29.040  26.042  1.00  0.00     0.029 A 
ATOM     36  C   UNL A   1      52.556  28.601  26.456  1.00  0.00     0.049 A 
ATOM     37  H   UNL A   1      50.770  29.693  26.709  1.00  0.00     0.167 HD
ATOM     38  C   UNL A   1      50.966  27.010  27.452  1.00  0.00     0.074 A 
ATOM     39  C   UNL A   1      50.585  25.684  27.877  1.00  0.00     0.031 C 
ATOM     40  C   UNL A   1      52.138  27.285  26.833  1.00  0.00     0.034 A 
BRANCH  27  41
ATOM     41  C   UNL A   1      52.616  33.155  25.063  1.00  0.00     0.023 A 
ATOM     42  C   UNL A   1      53.264  34.166  25.789  1.00  0.00     0.031 A 
ATOM     43  C   UNL A   1      52.749  33.145  23.665  1.00  0.00     0.131 A 
ATOM     44  C   UNL A   1      53.983  35.159  25.108  1.00  0.00     0.055 A 
ATOM     45  C   UNL A   1      53.513  34.101  22.996  1.00  0.00     0.041 A 
ATOM     46  F   UNL A   1      52.130  32.210  22.927  1.00  0.00    -0.206 F 
ATOM     47  C   UNL A   1      54.129  35.120  23.718  1.00  0.00     0.022 A 
BRANCH  44  48
ATOM     48  S   UNL A   1      54.652  36.551  26.056  1.00  0.00     0.124 S 
ATOM     49  O   UNL A   1      55.195  37.397  24.996  1.00  0.00    -0.237 OA
ATOM     50  O   UNL A   1      53.472  37.066  26.741  1.00  0.00    -0.237 OA
ATOM     51  O   UNL A   1      55.651  35.927  26.921  1.00  0.00    -0.744 OA
ENDBRANCH  44  48
ENDBRANCH  27  41
BRANCH  28  52
ATOM     52  C   UNL A   1      46.888  26.387  29.523  1.00  0.00     0.023 A 
ATOM     53  C   UNL A   1      45.918  25.865  28.655  1.00  0.00     0.031 A 
ATOM     54  C   UNL A   1      46.730  26.197  30.910  1.00  0.00     0.131 A 
ATOM     55  C   UNL A   1      44.751  25.308  29.207  1.00  0.00     0.055 A 
ATOM     56  C   UNL A   1      45.622  25.541  31.443  1.00  0.00     0.041 A 
ATOM     57  F   UNL A   1      47.589  26.771  31.767  1.00  0.00    -0.206 F 
ATOM     58  C   UNL A   1      44.608  25.121  30.589  1.00  0.00     0.022 A 
BRANCH  55  59
ATOM     59  S   UNL A   1      43.285  25.108  28.149  1.00  0.00     0.124 S 
ATOM     60  O   UNL A   1      43.318  23.672  27.902  1.00  0.00    -0.237 OA
ATOM     61  O   UNL A   1      42.191  25.569  28.998  1.00  0.00    -0.237 OA
ATOM     62  O   UNL A   1      43.584  25.954  26.997  1.00  0.00    -0.744 OA
ENDBRANCH  55  59
ENDBRANCH  28  52
BRANCH  40  63
ATOM     63  C   UNL A   1      53.060  26.114  26.662  1.00  0.00     0.023 A 
ATOM     64  C   UNL A   1      54.148  25.917  27.531  1.00  0.00     0.031 A 
ATOM     65  C   UNL A   1      52.955  25.307  25.519  1.00  0.00     0.131 A 
ATOM     66  C   UNL A   1      55.139  24.987  27.193  1.00  0.00     0.055 A 
ATOM     67  C   UNL A   1      53.915  24.341  25.220  1.00  0.00     0.041 A 
ATOM     68  F   UNL A   1      51.945  25.480  24.651  1.00  0.00    -0.206 F 
ATOM     69  C   UNL A   1      55.024  24.191  26.050  1.00  0.00     0.022 A 
BRANCH  66  70
ATOM     70  S   UNL A   1      56.640  24.911  28.209  1.00  0.00     0.124 S 
ATOM     71  O   UNL A   1      56.579  26.173  28.936  1.00  0.00    -0.237 OA
ATOM     72  O   UNL A   1      56.420  23.708  29.006  1.00  0.00    -0.237 OA
ATOM     73  O   UNL A   1      57.714  24.807  27.222  1.00  0.00    -0.744 OA
ENDBRANCH  66  70
ENDBRANCH  40  63
ENDBRANCH  14  15
ENDBRANCH   7   9
ENDBRANCH   6   7
ENDBRANCH   5   6
ENDBRANCH   4   5
ENDBRANCH   3   4
ENDBRANCH   2   3
ENDBRANCH   1   2
BRANCH   1  74
ATOM     74  O   UNL A   1      42.274  33.674  34.317  1.00  0.00    -0.376 OA
BRANCH  74  75
ATOM     75  C   UNL A   1      41.333  32.831  34.974  1.00  0.00     0.202 C 
BRANCH  75  76
ATOM     76  C   UNL A   1      40.448  31.944  34.092  1.00  0.00     0.261 C 
BRANCH  76  77
ATOM     77  O   UNL A   1      40.602  30.528  34.271  1.00  0.00    -0.461 OA
BRANCH  77  78
ATOM     78  C   UNL A   1      40.590  29.811  33.108  1.00  0.00     0.333 C 
ATOM     79  O   UNL A   1      41.129  28.719  32.949  1.00  0.00    -0.249 OA
BRANCH  78  80
ATOM     80  C   UNL A   1      39.911  30.593  31.961  1.00  0.00     0.223 C 
BRANCH  80  81
ATOM     81  C   UNL A   1      40.710  30.201  30.733  1.00  0.00    -0.014 A 
ATOM     82  C   UNL A   1      40.168  29.256  29.847  1.00  0.00     0.006 A 
ATOM     83  C   UNL A   1      41.902  30.859  30.383  1.00  0.00     0.006 A 
ATOM     84  C   UNL A   1      40.789  28.999  28.628  1.00  0.00     0.000 A 
ATOM     85  C   UNL A   1      42.539  30.568  29.179  1.00  0.00     0.000 A 
ATOM     86  C   UNL A   1      41.975  29.651  28.298  1.00  0.00     0.000 A 
ENDBRANCH  80  81
BRANCH  80  87
ATOM     87  N   UNL A   1      38.489  30.204  31.948  1.00  0.00    -0.339 N 
ATOM     88  C   UNL A   1      37.320  30.739  32.364  1.00  0.00     0.224 C 
ATOM     89  H   UNL A   1      38.356  29.325  31.527  1.00  0.00     0.164 HD
ATOM     90  O   UNL A   1      36.365  29.947  32.370  1.00  0.00    -0.275 OA
BRANCH  88  91
ATOM     91  C   UNL A   1      37.061  32.202  32.755  1.00  0.00     0.078 C 
ATOM     92  C   UNL A   1      37.157  33.238  31.657  1.00  0.00     0.014 C 
ATOM     93  C   UNL A   1      35.679  32.256  33.449  1.00  0.00     0.014 C 
ATOM     94  C   UNL A   1      36.704  34.623  32.080  1.00  0.00     0.006 C 
ATOM     95  C   UNL A   1      35.155  33.662  33.752  1.00  0.00     0.006 C 
ATOM     96  C   UNL A   1      35.256  34.629  32.569  1.00  0.00     0.008 C 
BRANCH  96  97
ATOM     97  C   UNL A   1      34.264  34.316  31.419  1.00  0.00     0.119 C 
BRANCH  97  98
ATOM     98  N   UNL A   1      33.833  35.530  30.749  1.00  0.00    -0.351 N 
ATOM     99  C   UNL A   1      33.718  35.853  29.429  1.00  0.00     0.278 C 
ATOM    100  H   UNL A   1      33.577  36.257  31.361  1.00  0.00     0.163 HD
ATOM    101  O   UNL A   1      33.232  36.967  29.185  1.00  0.00    -0.268 OA
BRANCH  99 102
ATOM    102  C   UNL A   1      34.035  34.852  28.275  1.00  0.00     0.277 C 
ATOM    103  C   UNL A   1      33.327  33.486  28.409  1.00  0.00     0.111 C 
ATOM    104  N   UNL A   1      35.524  34.803  28.092  1.00  0.00    -0.332 N 
ATOM    105  C   UNL A   1      34.145  32.292  27.992  1.00  0.00    -0.033 A 
ATOM    106  C   UNL A   1      36.113  33.616  28.736  1.00  0.00     0.298 C 
ATOM    107  H   UNL A   1      35.935  35.642  28.504  1.00  0.00     0.347 HD
ATOM    108  H   UNL A   1      35.720  34.753  27.092  1.00  0.00     0.347 HD
ATOM    109  C   UNL A   1      33.550  31.099  27.564  1.00  0.00     0.004 A 
ATOM    110  C   UNL A   1      35.533  32.355  28.160  1.00  0.00     0.010 A 
ATOM    111  C   UNL A   1      34.337  29.986  27.271  1.00  0.00     0.000 A 
ATOM    112  C   UNL A   1      36.313  31.223  27.902  1.00  0.00     0.010 A 
ATOM    113  C   UNL A   1      35.717  30.047  27.446  1.00  0.00     0.001 A 
ENDBRANCH  99 102
ENDBRANCH  97  98
ENDBRANCH  96  97
ENDBRANCH  88  91
ENDBRANCH  80  87
ENDBRANCH  78  80
ENDBRANCH  77  78
ENDBRANCH  76  77
ENDBRANCH  75  76
ENDBRANCH  74  75
ENDBRANCH   1  74
TORSDOF 26
ENDMDL
