MODEL 1
REMARK VINA RESULT:     -10.5      0.000      0.000
REMARK SMILES C[C@H](NC(=O)N(CC(=O)OCCOCCOCCOC(=O)c1ccc(-c2c3nc(c(-c4cc(S(=O)(=O)[O-])ccc4F)c4ccc([nH]4)c(-c4cc(S(=O)(=O)[O-])ccc4F)c4nc(c(-c5cc(S(=O)(=O)[O-])ccc5F)c5ccc2[nH]5)C=C4)C=C3)cc1)C(C)(C)C)c1ccccc1
REMARK SMILES IDX 14 1 13 2 12 3 11 4 10 5 8 6 9 7 7 8 6 9 4 10 3 11 5 13 2 14
REMARK SMILES IDX 1 15 89 16 90 17 94 18 91 19 93 20 92 21 85 22 86 23 87 24
REMARK SMILES IDX 88 25 15 26 16 27 17 28 18 29 19 30 20 31 21 32 22 33 23 34
REMARK SMILES IDX 84 35 24 36 83 37 25 38 26 39 27 40 77 41 28 42 82 43 76 44
REMARK SMILES IDX 78 45 29 46 81 47 75 48 74 49 30 51 62 52 42 53 61 54 43 55
REMARK SMILES IDX 46 56 60 57 79 58 44 59 45 60 59 62 80 63 47 64 31 65 32 66
REMARK SMILES IDX 40 67 33 68 39 69 41 70 38 71 34 72 35 73 36 74 37 75 63 76
REMARK SMILES IDX 64 77 72 78 65 79 71 80 73 81 70 82 66 83 67 84 68 85 69 86
REMARK SMILES IDX 48 87 49 88 57 89 50 90 56 91 58 92 55 93 51 94 52 95 53 96
REMARK SMILES IDX 54 97
REMARK H PARENT 3 12 78 50 46 61
REMARK Flexibility Score: inf
ROOT
ATOM      1  C   UNL A   1      33.448  19.315  24.716  1.00  0.00     0.188 C 
ENDROOT
BRANCH   1   2
ATOM      2  O   UNL A   1      32.502  19.254  23.650  1.00  0.00    -0.376 OA
BRANCH   2   3
ATOM      3  C   UNL A   1      32.314  20.425  22.862  1.00  0.00     0.202 C 
BRANCH   3   4
ATOM      4  C   UNL A   1      32.520  21.754  23.593  1.00  0.00     0.261 C 
BRANCH   4   5
ATOM      5  O   UNL A   1      33.726  22.450  23.204  1.00  0.00    -0.462 OA
BRANCH   5   6
ATOM      6  C   UNL A   1      33.560  23.529  22.394  1.00  0.00     0.325 C 
ATOM      7  O   UNL A   1      33.478  23.461  21.171  1.00  0.00    -0.250 OA
BRANCH   6   8
ATOM      8  C   UNL A   1      33.634  24.879  23.114  1.00  0.00     0.244 C 
BRANCH   8   9
ATOM      9  N   UNL A   1      32.602  25.274  24.076  1.00  0.00    -0.309 N 
BRANCH   9  10
ATOM     10  C   UNL A   1      31.310  25.546  23.724  1.00  0.00     0.318 C 
ATOM     11  N   UNL A   1      30.770  26.760  23.581  1.00  0.00    -0.331 N 
ATOM     12  H   UNL A   1      29.804  26.638  23.435  1.00  0.00     0.165 HD
ATOM     13  O   UNL A   1      30.496  24.647  23.474  1.00  0.00    -0.249 OA
BRANCH  11  14
ATOM     14  C   UNL A   1      31.040  28.205  23.555  1.00  0.00     0.111 C 
ATOM     15  C   UNL A   1      32.267  28.633  22.755  1.00  0.00     0.036 C 
BRANCH  14  16
ATOM     16  C   UNL A   1      29.795  29.074  23.470  1.00  0.00    -0.026 A 
ATOM     17  C   UNL A   1      28.545  28.599  23.044  1.00  0.00     0.006 A 
ATOM     18  C   UNL A   1      29.897  30.440  23.793  1.00  0.00     0.006 A 
ATOM     19  C   UNL A   1      27.435  29.446  22.970  1.00  0.00     0.000 A 
ATOM     20  C   UNL A   1      28.798  31.295  23.685  1.00  0.00     0.000 A 
ATOM     21  C   UNL A   1      27.565  30.796  23.281  1.00  0.00     0.000 A 
ENDBRANCH  14  16
ENDBRANCH  11  14
ENDBRANCH   9  10
BRANCH   9  22
ATOM     22  C   UNL A   1      32.962  25.287  25.555  1.00  0.00     0.037 C 
ATOM     23  C   UNL A   1      32.042  24.366  26.395  1.00  0.00     0.034 C 
ATOM     24  C   UNL A   1      34.429  24.836  25.739  1.00  0.00     0.034 C 
ATOM     25  C   UNL A   1      32.874  26.690  26.193  1.00  0.00     0.034 C 
ENDBRANCH   9  22
ENDBRANCH   8   9
ENDBRANCH   6   8
ENDBRANCH   5   6
ENDBRANCH   4   5
ENDBRANCH   3   4
ENDBRANCH   2   3
ENDBRANCH   1   2
BRANCH   1  26
ATOM     26  C   UNL A   1      34.708  18.454  24.558  1.00  0.00     0.188 C 
BRANCH  26  27
ATOM     27  O   UNL A   1      35.950  19.131  24.730  1.00  0.00    -0.376 OA
BRANCH  27  28
ATOM     28  C   UNL A   1      35.868  20.521  25.040  1.00  0.00     0.202 C 
BRANCH  28  29
ATOM     29  C   UNL A   1      37.135  21.297  24.683  1.00  0.00     0.261 C 
BRANCH  29  30
ATOM     30  O   UNL A   1      37.612  22.010  25.843  1.00  0.00    -0.460 OA
BRANCH  30  31
ATOM     31  C   UNL A   1      38.921  21.812  26.122  1.00  0.00     0.338 C 
ATOM     32  O   UNL A   1      39.597  20.842  25.833  1.00  0.00    -0.246 OA
BRANCH  31  33
ATOM     33  C   UNL A   1      39.472  23.000  26.793  1.00  0.00     0.060 A 
ATOM     34  C   UNL A   1      39.075  24.266  26.360  1.00  0.00     0.016 A 
ATOM     35  C   UNL A   1      40.507  22.865  27.712  1.00  0.00     0.016 A 
ATOM     36  C   UNL A   1      39.767  25.404  26.773  1.00  0.00     0.010 A 
ATOM     37  C   UNL A   1      41.168  24.011  28.167  1.00  0.00     0.010 A 
ATOM     38  C   UNL A   1      40.839  25.286  27.665  1.00  0.00    -0.014 A 
BRANCH  38  39
ATOM     39  C   UNL A   1      41.723  26.448  27.967  1.00  0.00     0.031 A 
ATOM     40  C   UNL A   1      41.184  27.560  28.828  1.00  0.00     0.074 A 
ATOM     41  C   UNL A   1      42.988  26.522  27.509  1.00  0.00     0.049 A 
ATOM     42  N   UNL A   1      41.619  28.783  28.983  1.00  0.00    -0.248 NA
ATOM     43  C   UNL A   1      39.977  27.246  29.607  1.00  0.00     0.031 C 
ATOM     44  C   UNL A   1      43.687  25.474  26.767  1.00  0.00     0.029 A 
ATOM     45  N   UNL A   1      43.908  27.538  27.598  1.00  0.00    -0.354 N 
ATOM     46  C   UNL A   1      40.701  29.408  29.821  1.00  0.00     0.074 A 
ATOM     47  C   UNL A   1      39.691  28.422  30.146  1.00  0.00     0.031 C 
ATOM     48  C   UNL A   1      44.926  25.900  26.471  1.00  0.00     0.029 A 
ATOM     49  C   UNL A   1      45.075  27.283  26.915  1.00  0.00     0.049 A 
ATOM     50  H   UNL A   1      43.748  28.370  28.100  1.00  0.00     0.167 HD
ATOM     51  C   UNL A   1      40.698  30.691  30.264  1.00  0.00     0.034 A 
ATOM     52  C   UNL A   1      46.115  28.091  26.621  1.00  0.00     0.034 A 
ATOM     53  C   UNL A   1      41.738  31.642  29.960  1.00  0.00     0.049 A 
ATOM     54  C   UNL A   1      46.065  29.534  27.060  1.00  0.00     0.074 A 
ATOM     55  C   UNL A   1      41.827  32.976  30.321  1.00  0.00     0.029 A 
ATOM     56  N   UNL A   1      42.885  31.353  29.232  1.00  0.00    -0.354 N 
ATOM     57  N   UNL A   1      45.129  30.160  27.736  1.00  0.00    -0.248 NA
ATOM     58  C   UNL A   1      47.199  30.384  26.675  1.00  0.00     0.031 C 
ATOM     59  C   UNL A   1      43.004  33.502  29.773  1.00  0.00     0.029 A 
ATOM     60  C   UNL A   1      43.679  32.483  29.122  1.00  0.00     0.049 A 
ATOM     61  H   UNL A   1      43.102  30.472  28.850  1.00  0.00     0.167 HD
ATOM     62  C   UNL A   1      45.568  31.475  27.862  1.00  0.00     0.074 A 
ATOM     63  C   UNL A   1      46.860  31.546  27.211  1.00  0.00     0.031 C 
ATOM     64  C   UNL A   1      44.959  32.533  28.457  1.00  0.00     0.034 A 
BRANCH  51  65
ATOM     65  C   UNL A   1      39.490  31.147  31.045  1.00  0.00     0.023 A 
ATOM     66  C   UNL A   1      39.514  31.303  32.442  1.00  0.00     0.031 A 
ATOM     67  C   UNL A   1      38.271  31.374  30.379  1.00  0.00     0.131 A 
ATOM     68  C   UNL A   1      38.327  31.599  33.132  1.00  0.00     0.055 A 
ATOM     69  C   UNL A   1      37.113  31.747  31.063  1.00  0.00     0.041 A 
ATOM     70  F   UNL A   1      38.182  31.218  29.048  1.00  0.00    -0.206 F 
ATOM     71  C   UNL A   1      37.133  31.845  32.450  1.00  0.00     0.022 A 
BRANCH  68  72
ATOM     72  S   UNL A   1      38.333  31.515  34.945  1.00  0.00     0.124 S 
ATOM     73  O   UNL A   1      37.137  32.285  35.279  1.00  0.00    -0.237 OA
ATOM     74  O   UNL A   1      38.262  30.081  35.194  1.00  0.00    -0.237 OA
ATOM     75  O   UNL A   1      39.597  32.152  35.312  1.00  0.00    -0.744 OA
ENDBRANCH  68  72
ENDBRANCH  51  65
BRANCH  52  76
ATOM     76  C   UNL A   1      47.244  27.593  25.784  1.00  0.00     0.023 A 
ATOM     77  C   UNL A   1      47.333  27.905  24.419  1.00  0.00     0.031 A 
ATOM     78  C   UNL A   1      48.232  26.755  26.334  1.00  0.00     0.131 A 
ATOM     79  C   UNL A   1      48.368  27.359  23.643  1.00  0.00     0.055 A 
ATOM     80  C   UNL A   1      49.288  26.257  25.570  1.00  0.00     0.041 A 
ATOM     81  F   UNL A   1      48.190  26.418  27.633  1.00  0.00    -0.206 F 
ATOM     82  C   UNL A   1      49.353  26.549  24.213  1.00  0.00     0.022 A 
BRANCH  79  83
ATOM     83  S   UNL A   1      48.368  27.661  21.854  1.00  0.00     0.124 S 
ATOM     84  O   UNL A   1      48.555  26.314  21.325  1.00  0.00    -0.237 OA
ATOM     85  O   UNL A   1      47.051  28.254  21.648  1.00  0.00    -0.237 OA
ATOM     86  O   UNL A   1      49.496  28.570  21.661  1.00  0.00    -0.744 OA
ENDBRANCH  79  83
ENDBRANCH  52  76
BRANCH  64  87
ATOM     87  C   UNL A   1      45.713  33.838  28.458  1.00  0.00     0.023 A 
ATOM     88  C   UNL A   1      46.664  34.140  29.448  1.00  0.00     0.031 A 
ATOM     89  C   UNL A   1      45.460  34.797  27.462  1.00  0.00     0.131 A 
ATOM     90  C   UNL A   1      47.296  35.392  29.447  1.00  0.00     0.055 A 
ATOM     91  C   UNL A   1      46.126  36.023  27.441  1.00  0.00     0.041 A 
ATOM     92  F   UNL A   1      44.561  34.557  26.495  1.00  0.00    -0.206 F 
ATOM     93  C   UNL A   1      47.042  36.330  28.442  1.00  0.00     0.022 A 
BRANCH  90  94
ATOM     94  S   UNL A   1      48.405  35.810  30.820  1.00  0.00     0.124 S 
ATOM     95  O   UNL A   1      48.397  34.579  31.604  1.00  0.00    -0.237 OA
ATOM     96  O   UNL A   1      49.654  36.119  30.131  1.00  0.00    -0.237 OA
ATOM     97  O   UNL A   1      47.751  36.953  31.454  1.00  0.00    -0.744 OA
ENDBRANCH  90  94
ENDBRANCH  64  87
ENDBRANCH  38  39
ENDBRANCH  31  33
ENDBRANCH  30  31
ENDBRANCH  29  30
ENDBRANCH  28  29
ENDBRANCH  27  28
ENDBRANCH  26  27
ENDBRANCH   1  26
TORSDOF 25
ENDMDL
MODEL 2
REMARK VINA RESULT:     -10.3      1.693      2.738
REMARK SMILES C[C@H](NC(=O)N(CC(=O)OCCOCCOCCOC(=O)c1ccc(-c2c3nc(c(-c4cc(S(=O)(=O)[O-])ccc4F)c4ccc([nH]4)c(-c4cc(S(=O)(=O)[O-])ccc4F)c4nc(c(-c5cc(S(=O)(=O)[O-])ccc5F)c5ccc2[nH]5)C=C4)C=C3)cc1)C(C)(C)C)c1ccccc1
REMARK SMILES IDX 14 1 13 2 12 3 11 4 10 5 8 6 9 7 7 8 6 9 4 10 3 11 5 13 2 14
REMARK SMILES IDX 1 15 89 16 90 17 94 18 91 19 93 20 92 21 85 22 86 23 87 24
REMARK SMILES IDX 88 25 15 26 16 27 17 28 18 29 19 30 20 31 21 32 22 33 23 34
REMARK SMILES IDX 84 35 24 36 83 37 25 38 26 39 27 40 77 41 28 42 82 43 76 44
REMARK SMILES IDX 78 45 29 46 81 47 75 48 74 49 30 51 62 52 42 53 61 54 43 55
REMARK SMILES IDX 46 56 60 57 79 58 44 59 45 60 59 62 80 63 47 64 31 65 32 66
REMARK SMILES IDX 40 67 33 68 39 69 41 70 38 71 34 72 35 73 36 74 37 75 63 76
REMARK SMILES IDX 64 77 72 78 65 79 71 80 73 81 70 82 66 83 67 84 68 85 69 86
REMARK SMILES IDX 48 87 49 88 57 89 50 90 56 91 58 92 55 93 51 94 52 95 53 96
REMARK SMILES IDX 54 97
REMARK H PARENT 3 12 78 50 46 61
REMARK Flexibility Score: inf
ROOT
ATOM      1  C   UNL A   1      32.381  20.889  24.422  1.00  0.00     0.188 C 
ENDROOT
BRANCH   1   2
ATOM      2  O   UNL A   1      32.117  21.418  23.124  1.00  0.00    -0.376 OA
BRANCH   2   3
ATOM      3  C   UNL A   1      32.220  22.828  22.949  1.00  0.00     0.202 C 
BRANCH   3   4
ATOM      4  C   UNL A   1      33.439  23.310  22.159  1.00  0.00     0.261 C 
BRANCH   4   5
ATOM      5  O   UNL A   1      33.223  24.560  21.465  1.00  0.00    -0.462 OA
BRANCH   5   6
ATOM      6  C   UNL A   1      32.929  25.634  22.245  1.00  0.00     0.325 C 
ATOM      7  O   UNL A   1      33.629  26.014  23.180  1.00  0.00    -0.250 OA
BRANCH   6   8
ATOM      8  C   UNL A   1      31.560  26.263  21.968  1.00  0.00     0.244 C 
BRANCH   8   9
ATOM      9  N   UNL A   1      30.883  27.068  22.988  1.00  0.00    -0.309 N 
BRANCH   9  10
ATOM     10  C   UNL A   1      30.108  26.531  23.976  1.00  0.00     0.318 C 
ATOM     11  N   UNL A   1      30.541  26.056  25.148  1.00  0.00    -0.331 N 
ATOM     12  H   UNL A   1      29.773  25.636  25.599  1.00  0.00     0.165 HD
ATOM     13  O   UNL A   1      28.876  26.454  23.875  1.00  0.00    -0.249 OA
BRANCH  11  14
ATOM     14  C   UNL A   1      31.704  25.910  26.035  1.00  0.00     0.111 C 
ATOM     15  C   UNL A   1      32.571  24.678  25.789  1.00  0.00     0.036 C 
BRANCH  14  16
ATOM     16  C   UNL A   1      32.404  27.217  26.375  1.00  0.00    -0.026 A 
ATOM     17  C   UNL A   1      33.736  27.495  26.031  1.00  0.00     0.006 A 
ATOM     18  C   UNL A   1      31.703  28.192  27.109  1.00  0.00     0.006 A 
ATOM     19  C   UNL A   1      34.335  28.709  26.382  1.00  0.00     0.000 A 
ATOM     20  C   UNL A   1      32.312  29.389  27.491  1.00  0.00     0.000 A 
ATOM     21  C   UNL A   1      33.626  29.651  27.119  1.00  0.00     0.000 A 
ENDBRANCH  14  16
ENDBRANCH  11  14
ENDBRANCH   9  10
BRANCH   9  22
ATOM     22  C   UNL A   1      31.135  28.569  23.006  1.00  0.00     0.037 C 
ATOM     23  C   UNL A   1      30.645  29.234  24.317  1.00  0.00     0.034 C 
ATOM     24  C   UNL A   1      32.645  28.848  22.835  1.00  0.00     0.034 C 
ATOM     25  C   UNL A   1      30.438  29.319  21.851  1.00  0.00     0.034 C 
ENDBRANCH   9  22
ENDBRANCH   8   9
ENDBRANCH   6   8
ENDBRANCH   5   6
ENDBRANCH   4   5
ENDBRANCH   3   4
ENDBRANCH   2   3
ENDBRANCH   1   2
BRANCH   1  26
ATOM     26  C   UNL A   1      33.345  19.697  24.488  1.00  0.00     0.188 C 
BRANCH  26  27
ATOM     27  O   UNL A   1      34.725  20.020  24.635  1.00  0.00    -0.376 OA
BRANCH  27  28
ATOM     28  C   UNL A   1      35.018  21.372  24.986  1.00  0.00     0.202 C 
BRANCH  28  29
ATOM     29  C   UNL A   1      36.258  21.513  25.867  1.00  0.00     0.261 C 
BRANCH  29  30
ATOM     30  O   UNL A   1      37.426  21.694  25.039  1.00  0.00    -0.460 OA
BRANCH  30  31
ATOM     31  C   UNL A   1      38.590  21.341  25.631  1.00  0.00     0.338 C 
ATOM     32  O   UNL A   1      39.174  20.278  25.532  1.00  0.00    -0.246 OA
BRANCH  31  33
ATOM     33  C   UNL A   1      39.125  22.481  26.394  1.00  0.00     0.060 A 
ATOM     34  C   UNL A   1      38.670  23.766  26.098  1.00  0.00     0.016 A 
ATOM     35  C   UNL A   1      40.197  22.298  27.261  1.00  0.00     0.016 A 
ATOM     36  C   UNL A   1      39.337  24.885  26.594  1.00  0.00     0.010 A 
ATOM     37  C   UNL A   1      40.836  23.420  27.801  1.00  0.00     0.010 A 
ATOM     38  C   UNL A   1      40.444  24.724  27.434  1.00  0.00    -0.014 A 
BRANCH  38  39
ATOM     39  C   UNL A   1      41.300  25.884  27.817  1.00  0.00     0.031 A 
ATOM     40  C   UNL A   1      40.720  26.940  28.721  1.00  0.00     0.074 A 
ATOM     41  C   UNL A   1      42.572  26.004  27.393  1.00  0.00     0.049 A 
ATOM     42  N   UNL A   1      41.128  28.160  28.949  1.00  0.00    -0.248 NA
ATOM     43  C   UNL A   1      39.502  26.564  29.455  1.00  0.00     0.031 C 
ATOM     44  C   UNL A   1      43.308  25.008  26.615  1.00  0.00     0.029 A 
ATOM     45  N   UNL A   1      43.471  27.030  27.556  1.00  0.00    -0.354 N 
ATOM     46  C   UNL A   1      40.179  28.725  29.796  1.00  0.00     0.074 A 
ATOM     47  C   UNL A   1      39.182  27.705  30.047  1.00  0.00     0.031 C 
ATOM     48  C   UNL A   1      44.545  25.472  26.370  1.00  0.00     0.029 A 
ATOM     49  C   UNL A   1      44.658  26.832  26.888  1.00  0.00     0.049 A 
ATOM     50  H   UNL A   1      43.284  27.832  28.096  1.00  0.00     0.167 HD
ATOM     51  C   UNL A   1      40.142  29.982  30.305  1.00  0.00     0.034 A 
ATOM     52  C   UNL A   1      45.688  27.673  26.661  1.00  0.00     0.034 A 
ATOM     53  C   UNL A   1      41.170  30.967  30.075  1.00  0.00     0.049 A 
ATOM     54  C   UNL A   1      45.601  29.090  27.172  1.00  0.00     0.074 A 
ATOM     55  C   UNL A   1      41.225  32.282  30.505  1.00  0.00     0.029 A 
ATOM     56  N   UNL A   1      42.338  30.736  29.360  1.00  0.00    -0.354 N 
ATOM     57  N   UNL A   1      44.638  29.663  27.858  1.00  0.00    -0.248 NA
ATOM     58  C   UNL A   1      46.727  29.978  26.858  1.00  0.00     0.031 C 
ATOM     59  C   UNL A   1      42.404  32.856  30.013  1.00  0.00     0.029 A 
ATOM     60  C   UNL A   1      43.114  31.885  29.327  1.00  0.00     0.049 A 
ATOM     61  H   UNL A   1      42.581  29.881  28.938  1.00  0.00     0.167 HD
ATOM     62  C   UNL A   1      45.049  30.978  28.061  1.00  0.00     0.074 A 
ATOM     63  C   UNL A   1      46.354  31.105  27.445  1.00  0.00     0.031 C 
ATOM     64  C   UNL A   1      44.407  31.992  28.696  1.00  0.00     0.034 A 
BRANCH  51  65
ATOM     65  C   UNL A   1      38.908  30.375  31.080  1.00  0.00     0.023 A 
ATOM     66  C   UNL A   1      37.815  31.020  30.475  1.00  0.00     0.031 A 
ATOM     67  C   UNL A   1      38.852  30.149  32.468  1.00  0.00     0.131 A 
ATOM     68  C   UNL A   1      36.751  31.482  31.267  1.00  0.00     0.055 A 
ATOM     69  C   UNL A   1      37.756  30.542  33.236  1.00  0.00     0.041 A 
ATOM     70  F   UNL A   1      39.877  29.559  33.104  1.00  0.00    -0.206 F 
ATOM     71  C   UNL A   1      36.704  31.227  32.639  1.00  0.00     0.022 A 
BRANCH  68  72
ATOM     72  S   UNL A   1      35.500  32.551  30.501  1.00  0.00     0.124 S 
ATOM     73  O   UNL A   1      36.182  33.843  30.494  1.00  0.00    -0.237 OA
ATOM     74  O   UNL A   1      35.304  31.924  29.200  1.00  0.00    -0.237 OA
ATOM     75  O   UNL A   1      34.365  32.460  31.417  1.00  0.00    -0.744 OA
ENDBRANCH  68  72
ENDBRANCH  51  65
BRANCH  52  76
ATOM     76  C   UNL A   1      46.846  27.239  25.826  1.00  0.00     0.023 A 
ATOM     77  C   UNL A   1      47.028  27.727  24.523  1.00  0.00     0.031 A 
ATOM     78  C   UNL A   1      47.765  26.290  26.310  1.00  0.00     0.131 A 
ATOM     79  C   UNL A   1      48.086  27.242  23.737  1.00  0.00     0.055 A 
ATOM     80  C   UNL A   1      48.844  25.849  25.543  1.00  0.00     0.041 A 
ATOM     81  F   UNL A   1      47.633  25.784  27.546  1.00  0.00    -0.206 F 
ATOM     82  C   UNL A   1      49.003  26.318  24.244  1.00  0.00     0.022 A 
BRANCH  79  83
ATOM     83  S   UNL A   1      48.204  27.780  22.009  1.00  0.00     0.124 S 
ATOM     84  O   UNL A   1      49.399  28.616  22.038  1.00  0.00    -0.237 OA
ATOM     85  O   UNL A   1      48.330  26.508  21.304  1.00  0.00    -0.237 OA
ATOM     86  O   UNL A   1      46.948  28.492  21.785  1.00  0.00    -0.744 OA
ENDBRANCH  79  83
ENDBRANCH  52  76
BRANCH  64  87
ATOM     87  C   UNL A   1      45.135  33.308  28.782  1.00  0.00     0.023 A 
ATOM     88  C   UNL A   1      46.011  33.599  29.842  1.00  0.00     0.031 A 
ATOM     89  C   UNL A   1      44.935  34.289  27.795  1.00  0.00     0.131 A 
ATOM     90  C   UNL A   1      46.619  34.861  29.917  1.00  0.00     0.055 A 
ATOM     91  C   UNL A   1      45.578  35.526  27.851  1.00  0.00     0.041 A 
ATOM     92  F   UNL A   1      44.108  34.060  26.763  1.00  0.00    -0.206 F 
ATOM     93  C   UNL A   1      46.418  35.821  28.921  1.00  0.00     0.022 A 
BRANCH  90  94
ATOM     94  S   UNL A   1      47.624  35.260  31.373  1.00  0.00     0.124 S 
ATOM     95  O   UNL A   1      46.770  36.209  32.081  1.00  0.00    -0.237 OA
ATOM     96  O   UNL A   1      47.789  33.956  32.007  1.00  0.00    -0.237 OA
ATOM     97  O   UNL A   1      48.843  35.829  30.804  1.00  0.00    -0.744 OA
ENDBRANCH  90  94
ENDBRANCH  64  87
ENDBRANCH  38  39
ENDBRANCH  31  33
ENDBRANCH  30  31
ENDBRANCH  29  30
ENDBRANCH  28  29
ENDBRANCH  27  28
ENDBRANCH  26  27
ENDBRANCH   1  26
TORSDOF 25
ENDMDL
MODEL 3
REMARK VINA RESULT:     -10.1      2.453      2.857
REMARK SMILES C[C@H](NC(=O)N(CC(=O)OCCOCCOCCOC(=O)c1ccc(-c2c3nc(c(-c4cc(S(=O)(=O)[O-])ccc4F)c4ccc([nH]4)c(-c4cc(S(=O)(=O)[O-])ccc4F)c4nc(c(-c5cc(S(=O)(=O)[O-])ccc5F)c5ccc2[nH]5)C=C4)C=C3)cc1)C(C)(C)C)c1ccccc1
REMARK SMILES IDX 14 1 13 2 12 3 11 4 10 5 8 6 9 7 7 8 6 9 4 10 3 11 5 13 2 14
REMARK SMILES IDX 1 15 89 16 90 17 94 18 91 19 93 20 92 21 85 22 86 23 87 24
REMARK SMILES IDX 88 25 15 26 16 27 17 28 18 29 19 30 20 31 21 32 22 33 23 34
REMARK SMILES IDX 84 35 24 36 83 37 25 38 26 39 27 40 77 41 28 42 82 43 76 44
REMARK SMILES IDX 78 45 29 46 81 47 75 48 74 49 30 51 62 52 42 53 61 54 43 55
REMARK SMILES IDX 46 56 60 57 79 58 44 59 45 60 59 62 80 63 47 64 31 65 32 66
REMARK SMILES IDX 40 67 33 68 39 69 41 70 38 71 34 72 35 73 36 74 37 75 63 76
REMARK SMILES IDX 64 77 72 78 65 79 71 80 73 81 70 82 66 83 67 84 68 85 69 86
REMARK SMILES IDX 48 87 49 88 57 89 50 90 56 91 58 92 55 93 51 94 52 95 53 96
REMARK SMILES IDX 54 97
REMARK H PARENT 3 12 78 50 46 61
REMARK Flexibility Score: inf
ROOT
ATOM      1  C   UNL A   1      32.473  20.488  24.598  1.00  0.00     0.188 C 
ENDROOT
BRANCH   1   2
ATOM      2  O   UNL A   1      32.242  20.762  23.218  1.00  0.00    -0.376 OA
BRANCH   2   3
ATOM      3  C   UNL A   1      32.415  22.103  22.770  1.00  0.00     0.202 C 
BRANCH   3   4
ATOM      4  C   UNL A   1      33.862  22.596  22.702  1.00  0.00     0.261 C 
BRANCH   4   5
ATOM      5  O   UNL A   1      33.982  24.001  22.387  1.00  0.00    -0.462 OA
BRANCH   5   6
ATOM      6  C   UNL A   1      33.935  24.858  23.441  1.00  0.00     0.325 C 
ATOM      7  O   UNL A   1      34.690  24.798  24.408  1.00  0.00    -0.250 OA
BRANCH   6   8
ATOM      8  C   UNL A   1      32.753  25.833  23.414  1.00  0.00     0.244 C 
BRANCH   8   9
ATOM      9  N   UNL A   1      31.942  26.064  24.612  1.00  0.00    -0.309 N 
BRANCH   9  10
ATOM     10  C   UNL A   1      32.064  27.174  25.400  1.00  0.00     0.318 C 
ATOM     11  N   UNL A   1      31.962  28.443  24.995  1.00  0.00    -0.331 N 
ATOM     12  H   UNL A   1      32.208  29.017  25.756  1.00  0.00     0.165 HD
ATOM     13  O   UNL A   1      32.269  27.094  26.618  1.00  0.00    -0.249 OA
BRANCH  11  14
ATOM     14  C   UNL A   1      31.630  29.328  23.868  1.00  0.00     0.111 C 
ATOM     15  C   UNL A   1      32.596  29.283  22.688  1.00  0.00     0.036 C 
BRANCH  14  16
ATOM     16  C   UNL A   1      30.143  29.433  23.569  1.00  0.00    -0.026 A 
ATOM     17  C   UNL A   1      29.423  30.636  23.633  1.00  0.00     0.006 A 
ATOM     18  C   UNL A   1      29.431  28.262  23.249  1.00  0.00     0.006 A 
ATOM     19  C   UNL A   1      28.052  30.673  23.361  1.00  0.00     0.000 A 
ATOM     20  C   UNL A   1      28.054  28.293  23.013  1.00  0.00     0.000 A 
ATOM     21  C   UNL A   1      27.366  29.501  23.061  1.00  0.00     0.000 A 
ENDBRANCH  14  16
ENDBRANCH  11  14
ENDBRANCH   9  10
BRANCH   9  22
ATOM     22  C   UNL A   1      30.841  25.066  24.941  1.00  0.00     0.037 C 
ATOM     23  C   UNL A   1      30.206  24.448  23.670  1.00  0.00     0.034 C 
ATOM     24  C   UNL A   1      31.412  23.930  25.821  1.00  0.00     0.034 C 
ATOM     25  C   UNL A   1      29.681  25.680  25.753  1.00  0.00     0.034 C 
ENDBRANCH   9  22
ENDBRANCH   8   9
ENDBRANCH   6   8
ENDBRANCH   5   6
ENDBRANCH   4   5
ENDBRANCH   3   4
ENDBRANCH   2   3
ENDBRANCH   1   2
BRANCH   1  26
ATOM     26  C   UNL A   1      33.650  19.558  24.919  1.00  0.00     0.188 C 
BRANCH  26  27
ATOM     27  O   UNL A   1      34.927  20.182  25.019  1.00  0.00    -0.376 OA
BRANCH  27  28
ATOM     28  C   UNL A   1      34.939  21.498  25.568  1.00  0.00     0.202 C 
BRANCH  28  29
ATOM     29  C   UNL A   1      36.272  21.872  26.216  1.00  0.00     0.261 C 
BRANCH  29  30
ATOM     30  O   UNL A   1      37.316  21.864  25.221  1.00  0.00    -0.460 OA
BRANCH  30  31
ATOM     31  C   UNL A   1      38.543  21.556  25.700  1.00  0.00     0.338 C 
ATOM     32  O   UNL A   1      39.175  20.534  25.503  1.00  0.00    -0.246 OA
BRANCH  31  33
ATOM     33  C   UNL A   1      39.075  22.689  26.473  1.00  0.00     0.060 A 
ATOM     34  C   UNL A   1      38.701  23.986  26.116  1.00  0.00     0.016 A 
ATOM     35  C   UNL A   1      40.073  22.482  27.418  1.00  0.00     0.016 A 
ATOM     36  C   UNL A   1      39.383  25.086  26.634  1.00  0.00     0.010 A 
ATOM     37  C   UNL A   1      40.724  23.587  27.977  1.00  0.00     0.010 A 
ATOM     38  C   UNL A   1      40.420  24.898  27.554  1.00  0.00    -0.014 A 
BRANCH  38  39
ATOM     39  C   UNL A   1      41.298  26.028  27.970  1.00  0.00     0.031 A 
ATOM     40  C   UNL A   1      40.708  27.128  28.814  1.00  0.00     0.074 A 
ATOM     41  C   UNL A   1      42.600  26.084  27.631  1.00  0.00     0.049 A 
ATOM     42  N   UNL A   1      41.154  28.335  29.044  1.00  0.00    -0.248 NA
ATOM     43  C   UNL A   1      39.429  26.822  29.471  1.00  0.00     0.031 C 
ATOM     44  C   UNL A   1      43.341  25.041  26.923  1.00  0.00     0.029 A 
ATOM     45  N   UNL A   1      43.531  27.075  27.833  1.00  0.00    -0.354 N 
ATOM     46  C   UNL A   1      40.177  28.958  29.815  1.00  0.00     0.074 A 
ATOM     47  C   UNL A   1      39.121  27.988  30.018  1.00  0.00     0.031 C 
ATOM     48  C   UNL A   1      44.611  25.445  26.752  1.00  0.00     0.029 A 
ATOM     49  C   UNL A   1      44.750  26.811  27.250  1.00  0.00     0.049 A 
ATOM     50  H   UNL A   1      43.344  27.895  28.344  1.00  0.00     0.167 HD
ATOM     51  C   UNL A   1      40.162  30.227  30.296  1.00  0.00     0.034 A 
ATOM     52  C   UNL A   1      45.828  27.601  27.076  1.00  0.00     0.034 A 
ATOM     53  C   UNL A   1      41.246  31.161  30.116  1.00  0.00     0.049 A 
ATOM     54  C   UNL A   1      45.771  29.032  27.553  1.00  0.00     0.074 A 
ATOM     55  C   UNL A   1      41.331  32.482  30.524  1.00  0.00     0.029 A 
ATOM     56  N   UNL A   1      42.447  30.865  29.486  1.00  0.00    -0.354 N 
ATOM     57  N   UNL A   1      44.791  29.661  28.161  1.00  0.00    -0.248 NA
ATOM     58  C   UNL A   1      46.953  29.864  27.297  1.00  0.00     0.031 C 
ATOM     59  C   UNL A   1      42.564  32.994  30.100  1.00  0.00     0.029 A 
ATOM     60  C   UNL A   1      43.273  31.978  29.482  1.00  0.00     0.049 A 
ATOM     61  H   UNL A   1      42.679  29.990  29.097  1.00  0.00     0.167 HD
ATOM     62  C   UNL A   1      45.246  30.961  28.366  1.00  0.00     0.074 A 
ATOM     63  C   UNL A   1      46.593  31.019  27.836  1.00  0.00     0.031 C 
ATOM     64  C   UNL A   1      44.609  32.015  28.937  1.00  0.00     0.034 A 
BRANCH  51  65
ATOM     65  C   UNL A   1      38.898  30.690  30.979  1.00  0.00     0.023 A 
ATOM     66  C   UNL A   1      37.899  31.411  30.301  1.00  0.00     0.031 A 
ATOM     67  C   UNL A   1      38.719  30.452  32.354  1.00  0.00     0.131 A 
ATOM     68  C   UNL A   1      36.808  31.932  31.016  1.00  0.00     0.055 A 
ATOM     69  C   UNL A   1      37.593  30.905  33.042  1.00  0.00     0.041 A 
ATOM     70  F   UNL A   1      39.651  29.789  33.058  1.00  0.00    -0.206 F 
ATOM     71  C   UNL A   1      36.637  31.664  32.376  1.00  0.00     0.022 A 
BRANCH  68  72
ATOM     72  S   UNL A   1      35.692  33.088  30.173  1.00  0.00     0.124 S 
ATOM     73  O   UNL A   1      36.514  33.520  29.045  1.00  0.00    -0.237 OA
ATOM     74  O   UNL A   1      34.550  32.243  29.847  1.00  0.00    -0.237 OA
ATOM     75  O   UNL A   1      35.441  34.117  31.180  1.00  0.00    -0.744 OA
ENDBRANCH  68  72
ENDBRANCH  51  65
BRANCH  52  76
ATOM     76  C   UNL A   1      47.018  27.100  26.329  1.00  0.00     0.023 A 
ATOM     77  C   UNL A   1      48.067  26.438  26.986  1.00  0.00     0.031 A 
ATOM     78  C   UNL A   1      47.142  27.319  24.944  1.00  0.00     0.131 A 
ATOM     79  C   UNL A   1      49.206  26.046  26.266  1.00  0.00     0.055 A 
ATOM     80  C   UNL A   1      48.254  26.881  24.223  1.00  0.00     0.041 A 
ATOM     81  F   UNL A   1      46.173  27.955  24.267  1.00  0.00    -0.206 F 
ATOM     82  C   UNL A   1      49.299  26.250  24.887  1.00  0.00     0.022 A 
BRANCH  79  83
ATOM     83  S   UNL A   1      50.605  25.329  27.171  1.00  0.00     0.124 S 
ATOM     84  O   UNL A   1      51.024  26.448  28.008  1.00  0.00    -0.237 OA
ATOM     85  O   UNL A   1      49.975  24.211  27.865  1.00  0.00    -0.237 OA
ATOM     86  O   UNL A   1      51.541  24.955  26.113  1.00  0.00    -0.744 OA
ENDBRANCH  79  83
ENDBRANCH  52  76
BRANCH  64  87
ATOM     87  C   UNL A   1      45.387  33.301  29.046  1.00  0.00     0.023 A 
ATOM     88  C   UNL A   1      45.317  34.292  28.052  1.00  0.00     0.031 A 
ATOM     89  C   UNL A   1      46.223  33.526  30.154  1.00  0.00     0.131 A 
ATOM     90  C   UNL A   1      46.107  35.446  28.163  1.00  0.00     0.055 A 
ATOM     91  C   UNL A   1      46.971  34.696  30.281  1.00  0.00     0.041 A 
ATOM     92  F   UNL A   1      46.325  32.609  31.129  1.00  0.00    -0.206 F 
ATOM     93  C   UNL A   1      46.924  35.660  29.278  1.00  0.00     0.022 A 
BRANCH  90  94
ATOM     94  S   UNL A   1      46.110  36.637  26.794  1.00  0.00     0.124 S 
ATOM     95  O   UNL A   1      46.492  35.798  25.663  1.00  0.00    -0.237 OA
ATOM     96  O   UNL A   1      44.732  37.117  26.795  1.00  0.00    -0.237 OA
ATOM     97  O   UNL A   1      47.108  37.624  27.200  1.00  0.00    -0.744 OA
ENDBRANCH  90  94
ENDBRANCH  64  87
ENDBRANCH  38  39
ENDBRANCH  31  33
ENDBRANCH  30  31
ENDBRANCH  29  30
ENDBRANCH  28  29
ENDBRANCH  27  28
ENDBRANCH  26  27
ENDBRANCH   1  26
TORSDOF 25
ENDMDL
