MODEL 1
REMARK VINA RESULT:      -6.3      0.000      0.000
REMARK SMILES O=C(OCCOCCOCCOC(=O)[C@@H]1CCC(=O)N(CCCOC2CCCCC2)[C@H]1c1ccco1)c1ccc(-c2c3nc(c(-c4cc(S(=O)(=O)[O-])ccc4F)c4ccc([nH]4)c(-c4cc(S(=O)(=O)[O-])ccc4F)c4nc(c(-c5cc(S(=O)(=O)[O-])ccc5F)c5ccc2[nH]5)C=C4)C=C3)cc1
REMARK SMILES IDX 8 1 7 2 6 3 5 4 4 5 3 6 2 7 1 8 37 9 38 10 99 11 39 12 98 13
REMARK SMILES IDX 40 14 41 15 42 16 92 17 43 18 97 19 91 20 93 21 44 22 96 23
REMARK SMILES IDX 90 24 89 25 45 27 77 28 57 29 76 30 58 31 61 32 75 33 94 34
REMARK SMILES IDX 59 35 60 36 74 38 95 39 62 40 46 41 47 42 55 43 48 44 54 45
REMARK SMILES IDX 56 46 53 47 49 48 50 49 51 50 52 51 78 52 79 53 87 54 80 55
REMARK SMILES IDX 86 56 88 57 85 58 81 59 82 60 83 61 84 62 63 63 64 64 72 65
REMARK SMILES IDX 65 66 71 67 73 68 70 69 66 70 67 71 68 72 69 73 9 74 10 75
REMARK SMILES IDX 11 76 12 77 13 78 14 79 15 80 16 81 31 82 17 83 20 84 18 85
REMARK SMILES IDX 19 86 32 87 33 88 36 89 34 90 35 91 21 92 22 93 23 94 24 95
REMARK SMILES IDX 25 96 26 97 30 98 27 99 29 100 28 101
REMARK H PARENT 93 26 61 37
REMARK Flexibility Score: inf
ROOT
ATOM      1  C   UNL A   1      43.788  21.341  25.337  1.00  0.00     0.188 C 
ENDROOT
BRANCH   1   2
ATOM      2  C   UNL A   1      43.020  20.138  25.889  1.00  0.00     0.188 C 
BRANCH   2   3
ATOM      3  O   UNL A   1      42.574  20.267  27.233  1.00  0.00    -0.376 OA
BRANCH   3   4
ATOM      4  C   UNL A   1      41.167  20.268  27.435  1.00  0.00     0.202 C 
BRANCH   4   5
ATOM      5  C   UNL A   1      40.342  20.738  26.223  1.00  0.00     0.261 C 
BRANCH   5   6
ATOM      6  O   UNL A   1      40.442  22.151  25.986  1.00  0.00    -0.460 OA
BRANCH   6   7
ATOM      7  C   UNL A   1      40.173  23.159  26.856  1.00  0.00     0.338 C 
ATOM      8  O   UNL A   1      38.996  23.497  26.988  1.00  0.00    -0.246 OA
BRANCH   7   9
ATOM      9  C   UNL A   1      41.231  23.977  27.551  1.00  0.00     0.060 A 
ATOM     10  C   UNL A   1      42.614  23.782  27.477  1.00  0.00     0.016 A 
ATOM     11  C   UNL A   1      40.788  25.067  28.314  1.00  0.00     0.016 A 
ATOM     12  C   UNL A   1      43.530  24.619  28.115  1.00  0.00     0.010 A 
ATOM     13  C   UNL A   1      41.701  25.913  28.959  1.00  0.00     0.010 A 
ATOM     14  C   UNL A   1      43.083  25.686  28.872  1.00  0.00    -0.014 A 
BRANCH  14  15
ATOM     15  C   UNL A   1      44.043  26.393  29.751  1.00  0.00     0.031 A 
ATOM     16  C   UNL A   1      44.345  27.813  29.381  1.00  0.00     0.074 A 
ATOM     17  C   UNL A   1      44.540  25.855  30.885  1.00  0.00     0.049 A 
ATOM     18  N   UNL A   1      45.056  28.694  30.027  1.00  0.00    -0.248 NA
ATOM     19  C   UNL A   1      43.691  28.336  28.168  1.00  0.00     0.031 C 
ATOM     20  C   UNL A   1      44.148  24.575  31.475  1.00  0.00     0.029 A 
ATOM     21  N   UNL A   1      45.520  26.297  31.735  1.00  0.00    -0.354 N 
ATOM     22  C   UNL A   1      44.861  29.886  29.344  1.00  0.00     0.074 A 
ATOM     23  C   UNL A   1      44.090  29.592  28.162  1.00  0.00     0.031 C 
ATOM     24  C   UNL A   1      45.005  24.243  32.455  1.00  0.00     0.029 A 
ATOM     25  C   UNL A   1      45.925  25.349  32.651  1.00  0.00     0.049 A 
ATOM     26  H   UNL A   1      45.899  27.205  31.696  1.00  0.00     0.167 HD
ATOM     27  C   UNL A   1      45.224  31.130  29.725  1.00  0.00     0.034 A 
ATOM     28  C   UNL A   1      46.904  25.390  33.574  1.00  0.00     0.034 A 
ATOM     29  C   UNL A   1      46.035  31.373  30.886  1.00  0.00     0.049 A 
ATOM     30  C   UNL A   1      47.513  26.739  33.840  1.00  0.00     0.074 A 
ATOM     31  C   UNL A   1      46.528  32.570  31.363  1.00  0.00     0.029 A 
ATOM     32  N   UNL A   1      46.500  30.375  31.739  1.00  0.00    -0.354 N 
ATOM     33  N   UNL A   1      47.282  27.875  33.220  1.00  0.00    -0.248 NA
ATOM     34  C   UNL A   1      48.411  26.842  34.991  1.00  0.00     0.031 C 
ATOM     35  C   UNL A   1      47.358  32.287  32.454  1.00  0.00     0.029 A 
ATOM     36  C   UNL A   1      47.312  30.923  32.714  1.00  0.00     0.049 A 
ATOM     37  H   UNL A   1      46.282  29.418  31.659  1.00  0.00     0.167 HD
ATOM     38  C   UNL A   1      47.928  28.849  33.967  1.00  0.00     0.074 A 
ATOM     39  C   UNL A   1      48.577  28.154  35.066  1.00  0.00     0.031 C 
ATOM     40  C   UNL A   1      47.952  30.195  33.786  1.00  0.00     0.034 A 
BRANCH  27  41
ATOM     41  C   UNL A   1      44.778  32.254  28.827  1.00  0.00     0.023 A 
ATOM     42  C   UNL A   1      45.537  32.640  27.703  1.00  0.00     0.031 A 
ATOM     43  C   UNL A   1      43.676  33.046  29.182  1.00  0.00     0.131 A 
ATOM     44  C   UNL A   1      45.248  33.845  27.044  1.00  0.00     0.055 A 
ATOM     45  C   UNL A   1      43.339  34.194  28.466  1.00  0.00     0.041 A 
ATOM     46  F   UNL A   1      42.941  32.746  30.265  1.00  0.00    -0.206 F 
ATOM     47  C   UNL A   1      44.137  34.612  27.405  1.00  0.00     0.022 A 
BRANCH  44  48
ATOM     48  S   UNL A   1      46.448  34.493  25.845  1.00  0.00     0.124 S 
ATOM     49  O   UNL A   1      47.580  33.589  26.040  1.00  0.00    -0.237 OA
ATOM     50  O   UNL A   1      45.736  34.359  24.579  1.00  0.00    -0.237 OA
ATOM     51  O   UNL A   1      46.671  35.866  26.291  1.00  0.00    -0.744 OA
ENDBRANCH  44  48
ENDBRANCH  27  41
BRANCH  28  52
ATOM     52  C   UNL A   1      47.277  24.185  34.371  1.00  0.00     0.023 A 
ATOM     53  C   UNL A   1      48.323  23.334  33.978  1.00  0.00     0.031 A 
ATOM     54  C   UNL A   1      46.551  23.837  35.527  1.00  0.00     0.131 A 
ATOM     55  C   UNL A   1      48.580  22.155  34.698  1.00  0.00     0.055 A 
ATOM     56  C   UNL A   1      46.831  22.678  36.258  1.00  0.00     0.041 A 
ATOM     57  F   UNL A   1      45.549  24.618  35.960  1.00  0.00    -0.206 F 
ATOM     58  C   UNL A   1      47.844  21.821  35.836  1.00  0.00     0.022 A 
BRANCH  55  59
ATOM     59  S   UNL A   1      49.853  21.019  34.077  1.00  0.00     0.124 S 
ATOM     60  O   UNL A   1      50.529  20.624  35.306  1.00  0.00    -0.237 OA
ATOM     61  O   UNL A   1      49.044  19.993  33.427  1.00  0.00    -0.237 OA
ATOM     62  O   UNL A   1      50.641  21.853  33.171  1.00  0.00    -0.744 OA
ENDBRANCH  55  59
ENDBRANCH  28  52
BRANCH  40  63
ATOM     63  C   UNL A   1      48.669  30.997  34.839  1.00  0.00     0.023 A 
ATOM     64  C   UNL A   1      47.986  31.537  35.938  1.00  0.00     0.031 A 
ATOM     65  C   UNL A   1      50.049  31.234  34.725  1.00  0.00     0.131 A 
ATOM     66  C   UNL A   1      48.670  32.358  36.841  1.00  0.00     0.055 A 
ATOM     67  C   UNL A   1      50.742  31.981  35.676  1.00  0.00     0.041 A 
ATOM     68  F   UNL A   1      50.748  30.743  33.688  1.00  0.00    -0.206 F 
ATOM     69  C   UNL A   1      50.048  32.564  36.732  1.00  0.00     0.022 A 
BRANCH  66  70
ATOM     70  S   UNL A   1      47.703  33.258  38.081  1.00  0.00     0.124 S 
ATOM     71  O   UNL A   1      46.594  33.769  37.284  1.00  0.00    -0.237 OA
ATOM     72  O   UNL A   1      47.370  32.208  39.038  1.00  0.00    -0.237 OA
ATOM     73  O   UNL A   1      48.636  34.271  38.571  1.00  0.00    -0.744 OA
ENDBRANCH  66  70
ENDBRANCH  40  63
ENDBRANCH  14  15
ENDBRANCH   7   9
ENDBRANCH   6   7
ENDBRANCH   5   6
ENDBRANCH   4   5
ENDBRANCH   3   4
ENDBRANCH   2   3
ENDBRANCH   1   2
BRANCH   1  74
ATOM     74  O   UNL A   1      45.159  21.452  25.680  1.00  0.00    -0.376 OA
BRANCH  74  75
ATOM     75  C   UNL A   1      46.068  21.767  24.628  1.00  0.00     0.202 C 
BRANCH  75  76
ATOM     76  C   UNL A   1      46.293  23.257  24.322  1.00  0.00     0.261 C 
BRANCH  76  77
ATOM     77  O   UNL A   1      45.809  24.196  25.326  1.00  0.00    -0.463 OA
BRANCH  77  78
ATOM     78  C   UNL A   1      46.733  24.727  26.178  1.00  0.00     0.311 C 
ATOM     79  O   UNL A   1      47.288  24.074  27.058  1.00  0.00    -0.252 OA
BRANCH  78  80
ATOM     80  C   UNL A   1      46.933  26.247  26.071  1.00  0.00     0.130 C 
ATOM     81  C   UNL A   1      46.468  26.945  24.806  1.00  0.00     0.028 C 
ATOM     82  C   UNL A   1      48.368  26.683  26.466  1.00  0.00     0.166 C 
ATOM     83  C   UNL A   1      47.551  27.058  23.758  1.00  0.00     0.101 C 
ATOM     84  N   UNL A   1      49.330  26.738  25.345  1.00  0.00    -0.332 N 
ATOM     85  C   UNL A   1      48.928  27.434  24.220  1.00  0.00     0.223 C 
ATOM     86  O   UNL A   1      49.672  28.152  23.571  1.00  0.00    -0.275 OA
BRANCH  82  87
ATOM     87  C   UNL A   1      48.369  28.041  27.141  1.00  0.00     0.127 A 
ATOM     88  C   UNL A   1      48.210  28.467  28.445  1.00  0.00     0.048 A 
ATOM     89  O   UNL A   1      48.651  29.123  26.355  1.00  0.00    -0.467 OA
ATOM     90  C   UNL A   1      48.473  29.862  28.449  1.00  0.00     0.042 A 
ATOM     91  C   UNL A   1      48.742  30.210  27.148  1.00  0.00     0.195 A 
ENDBRANCH  82  87
BRANCH  84  92
ATOM     92  C   UNL A   1      50.777  26.502  25.457  1.00  0.00     0.122 C 
BRANCH  92  93
ATOM     93  C   UNL A   1      51.634  27.302  26.435  1.00  0.00     0.050 C 
BRANCH  93  94
ATOM     94  C   UNL A   1      52.453  26.507  27.456  1.00  0.00     0.162 C 
BRANCH  94  95
ATOM     95  O   UNL A   1      51.734  25.667  28.365  1.00  0.00    -0.378 OA
BRANCH  95  96
ATOM     96  C   UNL A   1      50.873  26.184  29.391  1.00  0.00     0.118 C 
ATOM     97  C   UNL A   1      50.343  25.182  30.414  1.00  0.00     0.032 C 
ATOM     98  C   UNL A   1      51.469  27.481  29.938  1.00  0.00     0.032 C 
ATOM     99  C   UNL A   1      50.263  25.596  31.884  1.00  0.00     0.003 C 
ATOM    100  C   UNL A   1      50.803  27.950  31.220  1.00  0.00     0.003 C 
ATOM    101  C   UNL A   1      50.951  26.892  32.287  1.00  0.00     0.000 C 
ENDBRANCH  95  96
ENDBRANCH  94  95
ENDBRANCH  93  94
ENDBRANCH  92  93
ENDBRANCH  84  92
ENDBRANCH  78  80
ENDBRANCH  77  78
ENDBRANCH  76  77
ENDBRANCH  75  76
ENDBRANCH  74  75
ENDBRANCH   1  74
TORSDOF 26
ENDMDL
MODEL 2
REMARK VINA RESULT:      -5.7      4.481     10.440
REMARK SMILES O=C(OCCOCCOCCOC(=O)[C@@H]1CCC(=O)N(CCCOC2CCCCC2)[C@H]1c1ccco1)c1ccc(-c2c3nc(c(-c4cc(S(=O)(=O)[O-])ccc4F)c4ccc([nH]4)c(-c4cc(S(=O)(=O)[O-])ccc4F)c4nc(c(-c5cc(S(=O)(=O)[O-])ccc5F)c5ccc2[nH]5)C=C4)C=C3)cc1
REMARK SMILES IDX 8 1 7 2 6 3 5 4 4 5 3 6 2 7 1 8 37 9 38 10 99 11 39 12 98 13
REMARK SMILES IDX 40 14 41 15 42 16 92 17 43 18 97 19 91 20 93 21 44 22 96 23
REMARK SMILES IDX 90 24 89 25 45 27 77 28 57 29 76 30 58 31 61 32 75 33 94 34
REMARK SMILES IDX 59 35 60 36 74 38 95 39 62 40 46 41 47 42 55 43 48 44 54 45
REMARK SMILES IDX 56 46 53 47 49 48 50 49 51 50 52 51 78 52 79 53 87 54 80 55
REMARK SMILES IDX 86 56 88 57 85 58 81 59 82 60 83 61 84 62 63 63 64 64 72 65
REMARK SMILES IDX 65 66 71 67 73 68 70 69 66 70 67 71 68 72 69 73 9 74 10 75
REMARK SMILES IDX 11 76 12 77 13 78 14 79 15 80 16 81 31 82 17 83 20 84 18 85
REMARK SMILES IDX 19 86 32 87 33 88 36 89 34 90 35 91 21 92 22 93 23 94 24 95
REMARK SMILES IDX 25 96 26 97 30 98 27 99 29 100 28 101
REMARK H PARENT 93 26 61 37
REMARK Flexibility Score: inf
ROOT
ATOM      1  C   UNL A   1      45.594  34.820  26.590  1.00  0.00     0.188 C 
ENDROOT
BRANCH   1   2
ATOM      2  C   UNL A   1      45.370  36.319  26.379  1.00  0.00     0.188 C 
BRANCH   2   3
ATOM      3  O   UNL A   1      46.255  37.171  27.096  1.00  0.00    -0.376 OA
BRANCH   3   4
ATOM      4  C   UNL A   1      46.236  38.547  26.739  1.00  0.00     0.202 C 
BRANCH   4   5
ATOM      5  C   UNL A   1      44.837  39.117  26.443  1.00  0.00     0.261 C 
BRANCH   5   6
ATOM      6  O   UNL A   1      44.157  39.583  27.619  1.00  0.00    -0.460 OA
BRANCH   6   7
ATOM      7  C   UNL A   1      43.177  38.951  28.316  1.00  0.00     0.338 C 
ATOM      8  O   UNL A   1      42.053  39.453  28.297  1.00  0.00    -0.246 OA
BRANCH   7   9
ATOM      9  C   UNL A   1      43.416  37.769  29.220  1.00  0.00     0.060 A 
ATOM     10  C   UNL A   1      44.238  37.738  30.349  1.00  0.00     0.016 A 
ATOM     11  C   UNL A   1      42.710  36.593  28.922  1.00  0.00     0.016 A 
ATOM     12  C   UNL A   1      44.365  36.612  31.162  1.00  0.00     0.010 A 
ATOM     13  C   UNL A   1      42.832  35.456  29.732  1.00  0.00     0.010 A 
ATOM     14  C   UNL A   1      43.672  35.455  30.856  1.00  0.00    -0.014 A 
BRANCH  14  15
ATOM     15  C   UNL A   1      44.022  34.202  31.563  1.00  0.00     0.031 A 
ATOM     16  C   UNL A   1      43.152  33.844  32.729  1.00  0.00     0.074 A 
ATOM     17  C   UNL A   1      44.984  33.357  31.137  1.00  0.00     0.049 A 
ATOM     18  N   UNL A   1      43.159  32.762  33.455  1.00  0.00    -0.248 NA
ATOM     19  C   UNL A   1      42.076  34.793  33.070  1.00  0.00     0.031 C 
ATOM     20  C   UNL A   1      45.743  33.474  29.892  1.00  0.00     0.029 A 
ATOM     21  N   UNL A   1      45.527  32.243  31.722  1.00  0.00    -0.354 N 
ATOM     22  C   UNL A   1      42.043  32.868  34.273  1.00  0.00     0.074 A 
ATOM     23  C   UNL A   1      41.466  34.171  34.060  1.00  0.00     0.031 C 
ATOM     24  C   UNL A   1      46.773  32.611  29.901  1.00  0.00     0.029 A 
ATOM     25  C   UNL A   1      46.666  31.787  31.093  1.00  0.00     0.049 A 
ATOM     26  H   UNL A   1      45.140  31.808  32.517  1.00  0.00     0.167 HD
ATOM     27  C   UNL A   1      41.502  31.917  35.066  1.00  0.00     0.034 A 
ATOM     28  C   UNL A   1      47.505  30.787  31.422  1.00  0.00     0.034 A 
ATOM     29  C   UNL A   1      42.137  30.648  35.288  1.00  0.00     0.049 A 
ATOM     30  C   UNL A   1      47.032  29.849  32.498  1.00  0.00     0.074 A 
ATOM     31  C   UNL A   1      41.739  29.611  36.107  1.00  0.00     0.029 A 
ATOM     32  N   UNL A   1      43.338  30.260  34.700  1.00  0.00    -0.354 N 
ATOM     33  N   UNL A   1      45.944  29.930  33.232  1.00  0.00    -0.248 NA
ATOM     34  C   UNL A   1      47.822  28.635  32.709  1.00  0.00     0.031 C 
ATOM     35  C   UNL A   1      42.739  28.633  36.078  1.00  0.00     0.029 A 
ATOM     36  C   UNL A   1      43.720  29.018  35.172  1.00  0.00     0.049 A 
ATOM     37  H   UNL A   1      43.843  30.793  34.043  1.00  0.00     0.167 HD
ATOM     38  C   UNL A   1      45.865  28.729  33.921  1.00  0.00     0.074 A 
ATOM     39  C   UNL A   1      47.033  27.958  33.529  1.00  0.00     0.031 C 
ATOM     40  C   UNL A   1      44.899  28.287  34.768  1.00  0.00     0.034 A 
BRANCH  27  41
ATOM     41  C   UNL A   1      40.216  32.286  35.757  1.00  0.00     0.023 A 
ATOM     42  C   UNL A   1      40.215  32.898  37.028  1.00  0.00     0.031 A 
ATOM     43  C   UNL A   1      38.985  31.883  35.218  1.00  0.00     0.131 A 
ATOM     44  C   UNL A   1      39.021  32.987  37.760  1.00  0.00     0.055 A 
ATOM     45  C   UNL A   1      37.789  32.058  35.914  1.00  0.00     0.041 A 
ATOM     46  F   UNL A   1      38.931  31.262  34.030  1.00  0.00    -0.206 F 
ATOM     47  C   UNL A   1      37.803  32.593  37.200  1.00  0.00     0.022 A 
BRANCH  44  48
ATOM     48  S   UNL A   1      39.107  33.441  39.517  1.00  0.00     0.124 S 
ATOM     49  O   UNL A   1      40.108  32.501  40.017  1.00  0.00    -0.237 OA
ATOM     50  O   UNL A   1      39.518  34.840  39.465  1.00  0.00    -0.237 OA
ATOM     51  O   UNL A   1      37.748  33.209  39.998  1.00  0.00    -0.744 OA
ENDBRANCH  44  48
ENDBRANCH  27  41
BRANCH  28  52
ATOM     52  C   UNL A   1      48.776  30.556  30.676  1.00  0.00     0.023 A 
ATOM     53  C   UNL A   1      48.807  29.818  29.482  1.00  0.00     0.031 A 
ATOM     54  C   UNL A   1      50.000  31.038  31.178  1.00  0.00     0.131 A 
ATOM     55  C   UNL A   1      50.035  29.536  28.859  1.00  0.00     0.055 A 
ATOM     56  C   UNL A   1      51.217  30.780  30.539  1.00  0.00     0.041 A 
ATOM     57  F   UNL A   1      50.032  31.761  32.308  1.00  0.00    -0.206 F 
ATOM     58  C   UNL A   1      51.240  30.013  29.377  1.00  0.00     0.022 A 
BRANCH  55  59
ATOM     59  S   UNL A   1      50.040  28.467  27.392  1.00  0.00     0.124 S 
ATOM     60  O   UNL A   1      51.435  28.050  27.328  1.00  0.00    -0.237 OA
ATOM     61  O   UNL A   1      49.077  27.438  27.770  1.00  0.00    -0.237 OA
ATOM     62  O   UNL A   1      49.605  29.360  26.319  1.00  0.00    -0.744 OA
ENDBRANCH  55  59
ENDBRANCH  28  52
BRANCH  40  63
ATOM     63  C   UNL A   1      45.055  26.881  35.281  1.00  0.00     0.023 A 
ATOM     64  C   UNL A   1      44.559  25.782  34.566  1.00  0.00     0.031 A 
ATOM     65  C   UNL A   1      45.693  26.647  36.511  1.00  0.00     0.131 A 
ATOM     66  C   UNL A   1      44.637  24.502  35.124  1.00  0.00     0.055 A 
ATOM     67  C   UNL A   1      45.845  25.359  37.021  1.00  0.00     0.041 A 
ATOM     68  F   UNL A   1      46.181  27.667  37.237  1.00  0.00    -0.206 F 
ATOM     69  C   UNL A   1      45.299  24.278  36.335  1.00  0.00     0.022 A 
BRANCH  66  70
ATOM     70  S   UNL A   1      43.744  23.154  34.306  1.00  0.00     0.124 S 
ATOM     71  O   UNL A   1      42.392  23.332  34.824  1.00  0.00    -0.237 OA
ATOM     72  O   UNL A   1      43.932  23.469  32.893  1.00  0.00    -0.237 OA
ATOM     73  O   UNL A   1      44.436  21.954  34.771  1.00  0.00    -0.744 OA
ENDBRANCH  66  70
ENDBRANCH  40  63
ENDBRANCH  14  15
ENDBRANCH   7   9
ENDBRANCH   6   7
ENDBRANCH   5   6
ENDBRANCH   4   5
ENDBRANCH   3   4
ENDBRANCH   2   3
ENDBRANCH   1   2
BRANCH   1  74
ATOM     74  O   UNL A   1      44.445  33.994  26.661  1.00  0.00    -0.376 OA
BRANCH  74  75
ATOM     75  C   UNL A   1      44.482  32.766  25.938  1.00  0.00     0.202 C 
BRANCH  75  76
ATOM     76  C   UNL A   1      44.177  31.481  26.727  1.00  0.00     0.261 C 
BRANCH  76  77
ATOM     77  O   UNL A   1      43.727  31.667  28.101  1.00  0.00    -0.463 OA
BRANCH  77  78
ATOM     78  C   UNL A   1      43.322  30.553  28.777  1.00  0.00     0.311 C 
ATOM     79  O   UNL A   1      43.613  29.412  28.428  1.00  0.00    -0.252 OA
BRANCH  78  80
ATOM     80  C   UNL A   1      42.340  30.803  29.933  1.00  0.00     0.130 C 
ATOM     81  C   UNL A   1      42.708  30.283  31.311  1.00  0.00     0.028 C 
ATOM     82  C   UNL A   1      40.881  30.436  29.559  1.00  0.00     0.166 C 
ATOM     83  C   UNL A   1      42.170  28.898  31.587  1.00  0.00     0.101 C 
ATOM     84  N   UNL A   1      40.491  29.045  29.870  1.00  0.00    -0.332 N 
ATOM     85  C   UNL A   1      40.767  28.598  31.149  1.00  0.00     0.223 C 
ATOM     86  O   UNL A   1      40.009  27.889  31.793  1.00  0.00    -0.275 OA
BRANCH  82  87
ATOM     87  C   UNL A   1      39.886  31.356  30.238  1.00  0.00     0.127 A 
ATOM     88  C   UNL A   1      39.999  32.514  30.983  1.00  0.00     0.048 A 
ATOM     89  O   UNL A   1      38.560  31.076  30.059  1.00  0.00    -0.467 OA
ATOM     90  C   UNL A   1      38.677  32.982  31.205  1.00  0.00     0.042 A 
ATOM     91  C   UNL A   1      37.838  32.070  30.615  1.00  0.00     0.195 A 
ENDBRANCH  82  87
BRANCH  84  92
ATOM     92  C   UNL A   1      39.498  28.256  29.127  1.00  0.00     0.122 C 
BRANCH  92  93
ATOM     93  C   UNL A   1      39.804  26.832  28.668  1.00  0.00     0.050 C 
BRANCH  93  94
ATOM     94  C   UNL A   1      41.242  26.532  28.238  1.00  0.00     0.162 C 
BRANCH  94  95
ATOM     95  O   UNL A   1      41.652  25.161  28.221  1.00  0.00    -0.378 OA
BRANCH  95  96
ATOM     96  C   UNL A   1      41.500  24.315  27.071  1.00  0.00     0.118 C 
ATOM     97  C   UNL A   1      42.512  24.499  25.943  1.00  0.00     0.032 C 
ATOM     98  C   UNL A   1      41.236  22.883  27.536  1.00  0.00     0.032 C 
ATOM     99  C   UNL A   1      43.054  23.263  25.224  1.00  0.00     0.003 C 
ATOM    100  C   UNL A   1      41.356  21.861  26.418  1.00  0.00     0.003 C 
ATOM    101  C   UNL A   1      42.749  21.904  25.837  1.00  0.00     0.000 C 
ENDBRANCH  95  96
ENDBRANCH  94  95
ENDBRANCH  93  94
ENDBRANCH  92  93
ENDBRANCH  84  92
ENDBRANCH  78  80
ENDBRANCH  77  78
ENDBRANCH  76  77
ENDBRANCH  75  76
ENDBRANCH  74  75
ENDBRANCH   1  74
TORSDOF 26
ENDMDL
MODEL 3
REMARK VINA RESULT:      -5.7      1.781      2.200
REMARK SMILES O=C(OCCOCCOCCOC(=O)[C@@H]1CCC(=O)N(CCCOC2CCCCC2)[C@H]1c1ccco1)c1ccc(-c2c3nc(c(-c4cc(S(=O)(=O)[O-])ccc4F)c4ccc([nH]4)c(-c4cc(S(=O)(=O)[O-])ccc4F)c4nc(c(-c5cc(S(=O)(=O)[O-])ccc5F)c5ccc2[nH]5)C=C4)C=C3)cc1
REMARK SMILES IDX 8 1 7 2 6 3 5 4 4 5 3 6 2 7 1 8 37 9 38 10 99 11 39 12 98 13
REMARK SMILES IDX 40 14 41 15 42 16 92 17 43 18 97 19 91 20 93 21 44 22 96 23
REMARK SMILES IDX 90 24 89 25 45 27 77 28 57 29 76 30 58 31 61 32 75 33 94 34
REMARK SMILES IDX 59 35 60 36 74 38 95 39 62 40 46 41 47 42 55 43 48 44 54 45
REMARK SMILES IDX 56 46 53 47 49 48 50 49 51 50 52 51 78 52 79 53 87 54 80 55
REMARK SMILES IDX 86 56 88 57 85 58 81 59 82 60 83 61 84 62 63 63 64 64 72 65
REMARK SMILES IDX 65 66 71 67 73 68 70 69 66 70 67 71 68 72 69 73 9 74 10 75
REMARK SMILES IDX 11 76 12 77 13 78 14 79 15 80 16 81 31 82 17 83 20 84 18 85
REMARK SMILES IDX 19 86 32 87 33 88 36 89 34 90 35 91 21 92 22 93 23 94 24 95
REMARK SMILES IDX 25 96 26 97 30 98 27 99 29 100 28 101
REMARK H PARENT 93 26 61 37
REMARK Flexibility Score: inf
ROOT
ATOM      1  C   UNL A   1      43.595  21.741  25.451  1.00  0.00     0.188 C 
ENDROOT
BRANCH   1   2
ATOM      2  C   UNL A   1      42.548  20.701  25.855  1.00  0.00     0.188 C 
BRANCH   2   3
ATOM      3  O   UNL A   1      42.358  20.544  27.256  1.00  0.00    -0.376 OA
BRANCH   3   4
ATOM      4  C   UNL A   1      41.122  21.009  27.783  1.00  0.00     0.202 C 
BRANCH   4   5
ATOM      5  C   UNL A   1      40.117  21.503  26.728  1.00  0.00     0.261 C 
BRANCH   5   6
ATOM      6  O   UNL A   1      40.294  22.885  26.383  1.00  0.00    -0.460 OA
BRANCH   6   7
ATOM      7  C   UNL A   1      40.130  23.968  27.185  1.00  0.00     0.338 C 
ATOM      8  O   UNL A   1      38.990  24.419  27.305  1.00  0.00    -0.246 OA
BRANCH   7   9
ATOM      9  C   UNL A   1      41.267  24.732  27.814  1.00  0.00     0.060 A 
ATOM     10  C   UNL A   1      42.632  24.496  27.624  1.00  0.00     0.016 A 
ATOM     11  C   UNL A   1      40.923  25.812  28.641  1.00  0.00     0.016 A 
ATOM     12  C   UNL A   1      43.624  25.283  28.208  1.00  0.00     0.010 A 
ATOM     13  C   UNL A   1      41.913  26.608  29.233  1.00  0.00     0.010 A 
ATOM     14  C   UNL A   1      43.276  26.341  29.029  1.00  0.00    -0.014 A 
BRANCH  14  15
ATOM     15  C   UNL A   1      44.326  26.990  29.846  1.00  0.00     0.031 A 
ATOM     16  C   UNL A   1      44.675  28.397  29.465  1.00  0.00     0.074 A 
ATOM     17  C   UNL A   1      44.869  26.418  30.941  1.00  0.00     0.049 A 
ATOM     18  N   UNL A   1      45.470  29.235  30.068  1.00  0.00    -0.248 NA
ATOM     19  C   UNL A   1      43.969  28.963  28.301  1.00  0.00     0.031 C 
ATOM     20  C   UNL A   1      44.452  25.154  31.548  1.00  0.00     0.029 A 
ATOM     21  N   UNL A   1      45.924  26.801  31.727  1.00  0.00    -0.354 N 
ATOM     22  C   UNL A   1      45.293  30.441  29.406  1.00  0.00     0.074 A 
ATOM     23  C   UNL A   1      44.431  30.198  28.276  1.00  0.00     0.031 C 
ATOM     24  C   UNL A   1      45.354  24.769  32.467  1.00  0.00     0.029 A 
ATOM     25  C   UNL A   1      46.340  25.826  32.609  1.00  0.00     0.049 A 
ATOM     26  H   UNL A   1      46.345  27.690  31.668  1.00  0.00     0.167 HD
ATOM     27  C   UNL A   1      45.742  31.662  29.770  1.00  0.00     0.034 A 
ATOM     28  C   UNL A   1      47.379  25.809  33.465  1.00  0.00     0.034 A 
ATOM     29  C   UNL A   1      46.639  31.852  30.876  1.00  0.00     0.049 A 
ATOM     30  C   UNL A   1      48.071  27.123  33.698  1.00  0.00     0.074 A 
ATOM     31  C   UNL A   1      47.223  33.019  31.326  1.00  0.00     0.029 A 
ATOM     32  N   UNL A   1      47.108  30.824  31.690  1.00  0.00    -0.354 N 
ATOM     33  N   UNL A   1      47.858  28.275  33.101  1.00  0.00    -0.248 NA
ATOM     34  C   UNL A   1      49.047  27.170  34.787  1.00  0.00     0.031 C 
ATOM     35  C   UNL A   1      48.108  32.684  32.358  1.00  0.00     0.029 A 
ATOM     36  C   UNL A   1      48.010  31.322  32.613  1.00  0.00     0.049 A 
ATOM     37  H   UNL A   1      46.837  29.880  31.619  1.00  0.00     0.167 HD
ATOM     38  C   UNL A   1      48.601  29.208  33.810  1.00  0.00     0.074 A 
ATOM     39  C   UNL A   1      49.285  28.471  34.859  1.00  0.00     0.031 C 
ATOM     40  C   UNL A   1      48.682  30.553  33.635  1.00  0.00     0.034 A 
BRANCH  27  41
ATOM     41  C   UNL A   1      45.296  32.815  28.910  1.00  0.00     0.023 A 
ATOM     42  C   UNL A   1      46.130  33.346  27.904  1.00  0.00     0.031 A 
ATOM     43  C   UNL A   1      44.100  33.488  29.199  1.00  0.00     0.131 A 
ATOM     44  C   UNL A   1      45.807  34.573  27.304  1.00  0.00     0.055 A 
ATOM     45  C   UNL A   1      43.741  34.660  28.533  1.00  0.00     0.041 A 
ATOM     46  F   UNL A   1      43.287  33.048  30.171  1.00  0.00    -0.206 F 
ATOM     47  C   UNL A   1      44.604  35.221  27.596  1.00  0.00     0.022 A 
BRANCH  44  48
ATOM     48  S   UNL A   1      47.064  35.405  26.290  1.00  0.00     0.124 S 
ATOM     49  O   UNL A   1      48.114  35.665  27.273  1.00  0.00    -0.237 OA
ATOM     50  O   UNL A   1      47.372  34.401  25.278  1.00  0.00    -0.237 OA
ATOM     51  O   UNL A   1      46.374  36.594  25.796  1.00  0.00    -0.744 OA
ENDBRANCH  44  48
ENDBRANCH  27  41
BRANCH  28  52
ATOM     52  C   UNL A   1      47.741  24.579  34.228  1.00  0.00     0.023 A 
ATOM     53  C   UNL A   1      48.787  23.738  33.818  1.00  0.00     0.031 A 
ATOM     54  C   UNL A   1      47.005  24.200  35.367  1.00  0.00     0.131 A 
ATOM     55  C   UNL A   1      49.036  22.536  34.504  1.00  0.00     0.055 A 
ATOM     56  C   UNL A   1      47.276  23.018  36.065  1.00  0.00     0.041 A 
ATOM     57  F   UNL A   1      46.002  24.970  35.815  1.00  0.00    -0.206 F 
ATOM     58  C   UNL A   1      48.289  22.171  35.626  1.00  0.00     0.022 A 
BRANCH  55  59
ATOM     59  S   UNL A   1      50.310  21.415  33.860  1.00  0.00     0.124 S 
ATOM     60  O   UNL A   1      49.505  20.362  33.254  1.00  0.00    -0.237 OA
ATOM     61  O   UNL A   1      51.034  22.285  32.939  1.00  0.00    -0.237 OA
ATOM     62  O   UNL A   1      51.053  21.023  35.056  1.00  0.00    -0.744 OA
ENDBRANCH  55  59
ENDBRANCH  28  52
BRANCH  40  63
ATOM     63  C   UNL A   1      49.506  31.308  34.643  1.00  0.00     0.023 A 
ATOM     64  C   UNL A   1      50.876  31.531  34.447  1.00  0.00     0.031 A 
ATOM     65  C   UNL A   1      48.909  31.791  35.820  1.00  0.00     0.131 A 
ATOM     66  C   UNL A   1      51.626  32.150  35.452  1.00  0.00     0.055 A 
ATOM     67  C   UNL A   1      49.646  32.486  36.779  1.00  0.00     0.041 A 
ATOM     68  F   UNL A   1      47.602  31.599  36.057  1.00  0.00    -0.206 F 
ATOM     69  C   UNL A   1      51.016  32.652  36.606  1.00  0.00     0.022 A 
BRANCH  66  70
ATOM     70  S   UNL A   1      53.430  32.171  35.286  1.00  0.00     0.124 S 
ATOM     71  O   UNL A   1      53.652  31.120  34.298  1.00  0.00    -0.237 OA
ATOM     72  O   UNL A   1      53.685  33.534  34.834  1.00  0.00    -0.237 OA
ATOM     73  O   UNL A   1      53.901  31.866  36.635  1.00  0.00    -0.744 OA
ENDBRANCH  66  70
ENDBRANCH  40  63
ENDBRANCH  14  15
ENDBRANCH   7   9
ENDBRANCH   6   7
ENDBRANCH   5   6
ENDBRANCH   4   5
ENDBRANCH   3   4
ENDBRANCH   2   3
ENDBRANCH   1   2
BRANCH   1  74
ATOM     74  O   UNL A   1      44.942  21.483  25.811  1.00  0.00    -0.376 OA
BRANCH  74  75
ATOM     75  C   UNL A   1      45.928  21.651  24.796  1.00  0.00     0.202 C 
BRANCH  75  76
ATOM     76  C   UNL A   1      45.837  22.924  23.937  1.00  0.00     0.261 C 
BRANCH  76  77
ATOM     77  O   UNL A   1      45.741  24.182  24.667  1.00  0.00    -0.463 OA
BRANCH  77  78
ATOM     78  C   UNL A   1      46.876  24.934  24.759  1.00  0.00     0.311 C 
ATOM     79  O   UNL A   1      47.753  24.935  23.898  1.00  0.00    -0.252 OA
BRANCH  78  80
ATOM     80  C   UNL A   1      47.070  25.676  26.091  1.00  0.00     0.130 C 
ATOM     81  C   UNL A   1      46.187  26.877  26.378  1.00  0.00     0.028 C 
ATOM     82  C   UNL A   1      48.561  25.985  26.383  1.00  0.00     0.166 C 
ATOM     83  C   UNL A   1      46.800  28.185  25.935  1.00  0.00     0.101 C 
ATOM     84  N   UNL A   1      49.034  27.292  25.883  1.00  0.00    -0.332 N 
ATOM     85  C   UNL A   1      48.262  28.393  26.205  1.00  0.00     0.223 C 
ATOM     86  O   UNL A   1      48.730  29.477  26.517  1.00  0.00    -0.275 OA
BRANCH  82  87
ATOM     87  C   UNL A   1      48.858  25.925  27.869  1.00  0.00     0.127 A 
ATOM     88  C   UNL A   1      48.192  26.351  29.002  1.00  0.00     0.048 A 
ATOM     89  O   UNL A   1      49.988  25.256  28.248  1.00  0.00    -0.467 OA
ATOM     90  C   UNL A   1      48.927  25.857  30.112  1.00  0.00     0.042 A 
ATOM     91  C   UNL A   1      50.010  25.191  29.595  1.00  0.00     0.195 A 
ENDBRANCH  82  87
BRANCH  84  92
ATOM     92  C   UNL A   1      50.409  27.590  25.456  1.00  0.00     0.122 C 
BRANCH  92  93
ATOM     93  C   UNL A   1      51.367  28.361  26.361  1.00  0.00     0.050 C 
BRANCH  93  94
ATOM     94  C   UNL A   1      52.546  27.584  26.951  1.00  0.00     0.162 C 
BRANCH  94  95
ATOM     95  O   UNL A   1      53.072  28.035  28.203  1.00  0.00    -0.378 OA
BRANCH  95  96
ATOM     96  C   UNL A   1      52.504  27.662  29.468  1.00  0.00     0.118 C 
ATOM     97  C   UNL A   1      53.343  26.746  30.355  1.00  0.00     0.032 C 
ATOM     98  C   UNL A   1      51.898  28.900  30.129  1.00  0.00     0.032 C 
ATOM     99  C   UNL A   1      53.378  27.002  31.862  1.00  0.00     0.003 C 
ATOM    100  C   UNL A   1      51.539  28.681  31.589  1.00  0.00     0.003 C 
ATOM    101  C   UNL A   1      52.778  28.306  32.367  1.00  0.00     0.000 C 
ENDBRANCH  95  96
ENDBRANCH  94  95
ENDBRANCH  93  94
ENDBRANCH  92  93
ENDBRANCH  84  92
ENDBRANCH  78  80
ENDBRANCH  77  78
ENDBRANCH  76  77
ENDBRANCH  75  76
ENDBRANCH  74  75
ENDBRANCH   1  74
TORSDOF 26
ENDMDL
