MODEL 1
REMARK VINA RESULT:      -9.8      0.000      0.000
REMARK SMILES Cc1nc(NC(=O)[C@@H]2CCC[C@@H](C(=O)OCCOCCOCCOC(=O)c3ccc(-c4c5nc(c(-c6cc(S(=O)(=O)[O-])ccc6F)c6ccc([nH]6)c(-c6cc(S(=O)(=O)[O-])ccc6F)c6nc(c(-c7cc(S(=O)(=O)[O-])ccc7F)c7ccc4[nH]7)C=C6)C=C5)cc3)C2)ccc1Br
REMARK SMILES IDX 20 1 19 2 18 3 17 4 16 5 15 6 13 7 14 8 12 9 8 10 9 11 90 12
REMARK SMILES IDX 10 13 11 14 6 15 5 16 7 18 4 19 1 20 2 21 3 22 93 23 92 24
REMARK SMILES IDX 94 25 91 26 21 27 22 28 23 29 24 30 25 31 26 32 27 33 28 34
REMARK SMILES IDX 89 35 29 36 88 37 30 38 31 39 32 40 82 41 33 42 87 43 81 44
REMARK SMILES IDX 83 45 34 46 86 47 80 48 79 49 35 51 67 52 47 53 66 54 48 55
REMARK SMILES IDX 51 56 65 57 84 58 49 59 50 60 64 62 85 63 52 64 36 65 37 66
REMARK SMILES IDX 45 67 38 68 44 69 46 70 43 71 39 72 40 73 41 74 42 75 68 76
REMARK SMILES IDX 69 77 77 78 70 79 76 80 78 81 75 82 71 83 72 84 73 85 74 86
REMARK SMILES IDX 53 87 54 88 62 89 55 90 61 91 63 92 60 93 56 94 57 95 58 96
REMARK SMILES IDX 59 97
REMARK H PARENT 5 17 83 50 51 61
REMARK Flexibility Score: inf
ROOT
ATOM      1  C   UNL A   1      43.821  18.565  25.332  1.00  0.00     0.188 C 
ENDROOT
BRANCH   1   2
ATOM      2  C   UNL A   1      45.007  19.174  24.559  1.00  0.00     0.188 C 
BRANCH   2   3
ATOM      3  O   UNL A   1      44.792  20.302  23.726  1.00  0.00    -0.376 OA
BRANCH   3   4
ATOM      4  C   UNL A   1      44.747  21.582  24.329  1.00  0.00     0.202 C 
BRANCH   4   5
ATOM      5  C   UNL A   1      46.105  22.202  24.641  1.00  0.00     0.261 C 
BRANCH   5   6
ATOM      6  O   UNL A   1      46.309  22.412  26.052  1.00  0.00    -0.463 OA
BRANCH   6   7
ATOM      7  C   UNL A   1      45.983  23.644  26.519  1.00  0.00     0.309 C 
ATOM      8  O   UNL A   1      45.708  23.888  27.689  1.00  0.00    -0.252 OA
BRANCH   7   9
ATOM      9  C   UNL A   1      45.963  24.732  25.444  1.00  0.00     0.100 C 
ATOM     10  C   UNL A   1      44.587  26.906  25.782  1.00  0.00     0.080 C 
ATOM     11  C   UNL A   1      45.646  27.568  24.910  1.00  0.00     0.013 C 
ATOM     12  C   UNL A   1      44.571  25.418  25.394  1.00  0.00     0.028 C 
ATOM     13  C   UNL A   1      46.989  27.151  25.481  1.00  0.00     0.002 C 
ATOM     14  C   UNL A   1      47.211  25.646  25.355  1.00  0.00     0.015 C 
BRANCH  10  15
ATOM     15  C   UNL A   1      43.252  27.613  25.626  1.00  0.00     0.228 C 
ATOM     16  N   UNL A   1      43.054  28.876  26.104  1.00  0.00    -0.310 N 
ATOM     17  H   UNL A   1      42.123  29.171  25.969  1.00  0.00     0.171 HD
ATOM     18  O   UNL A   1      42.303  27.035  25.091  1.00  0.00    -0.274 OA
BRANCH  16  19
ATOM     19  C   UNL A   1      43.822  29.869  26.738  1.00  0.00     0.132 A 
ATOM     20  C   UNL A   1      44.140  33.510  26.043  1.00  0.00     0.068 C 
ATOM     21  C   UNL A   1      44.392  32.171  26.683  1.00  0.00     0.054 A 
ATOM     22  N   UNL A   1      43.761  31.082  26.151  1.00  0.00    -0.235 NA
ATOM     23  C   UNL A   1      45.208  32.047  27.790  1.00  0.00     0.039 A 
ATOM     24  C   UNL A   1      45.295  30.799  28.389  1.00  0.00     0.021 A 
ATOM     25  Br  UNL A   1      46.196  33.480  28.524  1.00  0.00    -0.049 Br
ATOM     26  C   UNL A   1      44.576  29.716  27.876  1.00  0.00     0.048 A 
ENDBRANCH  16  19
ENDBRANCH  10  15
ENDBRANCH   7   9
ENDBRANCH   6   7
ENDBRANCH   5   6
ENDBRANCH   4   5
ENDBRANCH   3   4
ENDBRANCH   2   3
ENDBRANCH   1   2
BRANCH   1  27
ATOM     27  O   UNL A   1      42.544  19.178  25.196  1.00  0.00    -0.376 OA
BRANCH  27  28
ATOM     28  C   UNL A   1      42.035  19.870  26.335  1.00  0.00     0.202 C 
BRANCH  28  29
ATOM     29  C   UNL A   1      40.515  20.027  26.347  1.00  0.00     0.261 C 
BRANCH  29  30
ATOM     30  O   UNL A   1      40.113  21.119  27.200  1.00  0.00    -0.460 OA
BRANCH  30  31
ATOM     31  C   UNL A   1      39.503  22.133  26.548  1.00  0.00     0.338 C 
ATOM     32  O   UNL A   1      38.604  21.989  25.718  1.00  0.00    -0.246 OA
BRANCH  31  33
ATOM     33  C   UNL A   1      40.007  23.474  26.946  1.00  0.00     0.060 A 
ATOM     34  C   UNL A   1      41.346  23.712  27.257  1.00  0.00     0.016 A 
ATOM     35  C   UNL A   1      39.075  24.490  27.183  1.00  0.00     0.016 A 
ATOM     36  C   UNL A   1      41.720  24.907  27.896  1.00  0.00     0.010 A 
ATOM     37  C   UNL A   1      39.455  25.681  27.829  1.00  0.00     0.010 A 
ATOM     38  C   UNL A   1      40.772  25.879  28.261  1.00  0.00    -0.014 A 
BRANCH  38  39
ATOM     39  C   UNL A   1      41.148  27.069  29.079  1.00  0.00     0.031 A 
ATOM     40  C   UNL A   1      40.210  28.211  29.357  1.00  0.00     0.074 A 
ATOM     41  C   UNL A   1      42.296  27.124  29.765  1.00  0.00     0.049 A 
ATOM     42  N   UNL A   1      40.331  29.494  29.161  1.00  0.00    -0.248 NA
ATOM     43  C   UNL A   1      38.957  27.860  30.008  1.00  0.00     0.031 C 
ATOM     44  C   UNL A   1      43.276  26.054  29.877  1.00  0.00     0.029 A 
ATOM     45  N   UNL A   1      42.801  28.149  30.517  1.00  0.00    -0.354 N 
ATOM     46  C   UNL A   1      39.064  30.034  29.421  1.00  0.00     0.074 A 
ATOM     47  C   UNL A   1      38.218  28.947  29.838  1.00  0.00     0.031 C 
ATOM     48  C   UNL A   1      44.271  26.473  30.671  1.00  0.00     0.029 A 
ATOM     49  C   UNL A   1      44.054  27.882  30.996  1.00  0.00     0.049 A 
ATOM     50  H   UNL A   1      42.317  28.988  30.695  1.00  0.00     0.167 HD
ATOM     51  C   UNL A   1      38.698  31.336  29.491  1.00  0.00     0.034 A 
ATOM     52  C   UNL A   1      44.953  28.717  31.544  1.00  0.00     0.034 A 
ATOM     53  C   UNL A   1      39.663  32.334  29.876  1.00  0.00     0.049 A 
ATOM     54  C   UNL A   1      44.575  30.163  31.726  1.00  0.00     0.074 A 
ATOM     55  C   UNL A   1      39.483  33.690  30.067  1.00  0.00     0.029 A 
ATOM     56  N   UNL A   1      40.930  32.022  30.352  1.00  0.00    -0.354 N 
ATOM     57  N   UNL A   1      43.464  30.776  31.380  1.00  0.00    -0.248 NA
ATOM     58  C   UNL A   1      45.567  31.035  32.362  1.00  0.00     0.031 C 
ATOM     59  C   UNL A   1      40.615  34.181  30.727  1.00  0.00     0.029 A 
ATOM     60  C   UNL A   1      41.502  33.132  30.935  1.00  0.00     0.049 A 
ATOM     61  H   UNL A   1      41.358  31.137  30.284  1.00  0.00     0.167 HD
ATOM     62  C   UNL A   1      43.618  32.103  31.769  1.00  0.00     0.074 A 
ATOM     63  C   UNL A   1      44.923  32.196  32.394  1.00  0.00     0.031 C 
ATOM     64  C   UNL A   1      42.775  33.155  31.612  1.00  0.00     0.034 A 
BRANCH  51  65
ATOM     65  C   UNL A   1      37.263  31.772  29.275  1.00  0.00     0.023 A 
ATOM     66  C   UNL A   1      36.665  32.562  30.285  1.00  0.00     0.031 A 
ATOM     67  C   UNL A   1      36.441  31.357  28.216  1.00  0.00     0.131 A 
ATOM     68  C   UNL A   1      35.302  32.894  30.221  1.00  0.00     0.055 A 
ATOM     69  C   UNL A   1      35.100  31.750  28.121  1.00  0.00     0.041 A 
ATOM     70  F   UNL A   1      36.905  30.536  27.261  1.00  0.00    -0.206 F 
ATOM     71  C   UNL A   1      34.523  32.512  29.131  1.00  0.00     0.022 A 
BRANCH  68  72
ATOM     72  S   UNL A   1      34.484  33.762  31.595  1.00  0.00     0.124 S 
ATOM     73  O   UNL A   1      33.886  32.648  32.338  1.00  0.00    -0.237 OA
ATOM     74  O   UNL A   1      35.621  34.402  32.264  1.00  0.00    -0.237 OA
ATOM     75  O   UNL A   1      33.551  34.651  30.950  1.00  0.00    -0.744 OA
ENDBRANCH  68  72
ENDBRANCH  51  65
BRANCH  52  76
ATOM     76  C   UNL A   1      46.282  28.157  31.897  1.00  0.00     0.023 A 
ATOM     77  C   UNL A   1      46.523  27.686  33.202  1.00  0.00     0.031 A 
ATOM     78  C   UNL A   1      47.370  28.284  31.022  1.00  0.00     0.131 A 
ATOM     79  C   UNL A   1      47.835  27.463  33.629  1.00  0.00     0.055 A 
ATOM     80  C   UNL A   1      48.671  27.985  31.430  1.00  0.00     0.041 A 
ATOM     81  F   UNL A   1      47.186  28.745  29.775  1.00  0.00    -0.206 F 
ATOM     82  C   UNL A   1      48.911  27.597  32.746  1.00  0.00     0.022 A 
BRANCH  79  83
ATOM     83  S   UNL A   1      48.198  27.167  35.383  1.00  0.00     0.124 S 
ATOM     84  O   UNL A   1      48.619  28.489  35.833  1.00  0.00    -0.237 OA
ATOM     85  O   UNL A   1      46.903  26.712  35.882  1.00  0.00    -0.237 OA
ATOM     86  O   UNL A   1      49.243  26.148  35.352  1.00  0.00    -0.744 OA
ENDBRANCH  79  83
ENDBRANCH  52  76
BRANCH  64  87
ATOM     87  C   UNL A   1      43.193  34.491  32.159  1.00  0.00     0.023 A 
ATOM     88  C   UNL A   1      42.921  34.816  33.500  1.00  0.00     0.031 A 
ATOM     89  C   UNL A   1      43.675  35.491  31.302  1.00  0.00     0.131 A 
ATOM     90  C   UNL A   1      43.096  36.135  33.936  1.00  0.00     0.055 A 
ATOM     91  C   UNL A   1      43.878  36.794  31.750  1.00  0.00     0.041 A 
ATOM     92  F   UNL A   1      43.929  35.216  30.012  1.00  0.00    -0.206 F 
ATOM     93  C   UNL A   1      43.577  37.123  33.070  1.00  0.00     0.022 A 
BRANCH  90  94
ATOM     94  S   UNL A   1      42.637  36.633  35.618  1.00  0.00     0.124 S 
ATOM     95  O   UNL A   1      41.181  36.717  35.522  1.00  0.00    -0.237 OA
ATOM     96  O   UNL A   1      43.147  35.522  36.416  1.00  0.00    -0.237 OA
ATOM     97  O   UNL A   1      43.319  37.909  35.807  1.00  0.00    -0.744 OA
ENDBRANCH  90  94
ENDBRANCH  64  87
ENDBRANCH  38  39
ENDBRANCH  31  33
ENDBRANCH  30  31
ENDBRANCH  29  30
ENDBRANCH  28  29
ENDBRANCH  27  28
ENDBRANCH   1  27
TORSDOF 22
ENDMDL
MODEL 2
REMARK VINA RESULT:      -9.5      3.124      7.868
REMARK SMILES Cc1nc(NC(=O)[C@@H]2CCC[C@@H](C(=O)OCCOCCOCCOC(=O)c3ccc(-c4c5nc(c(-c6cc(S(=O)(=O)[O-])ccc6F)c6ccc([nH]6)c(-c6cc(S(=O)(=O)[O-])ccc6F)c6nc(c(-c7cc(S(=O)(=O)[O-])ccc7F)c7ccc4[nH]7)C=C6)C=C5)cc3)C2)ccc1Br
REMARK SMILES IDX 20 1 19 2 18 3 17 4 16 5 15 6 13 7 14 8 12 9 8 10 9 11 90 12
REMARK SMILES IDX 10 13 11 14 6 15 5 16 7 18 4 19 1 20 2 21 3 22 93 23 92 24
REMARK SMILES IDX 94 25 91 26 21 27 22 28 23 29 24 30 25 31 26 32 27 33 28 34
REMARK SMILES IDX 89 35 29 36 88 37 30 38 31 39 32 40 82 41 33 42 87 43 81 44
REMARK SMILES IDX 83 45 34 46 86 47 80 48 79 49 35 51 67 52 47 53 66 54 48 55
REMARK SMILES IDX 51 56 65 57 84 58 49 59 50 60 64 62 85 63 52 64 36 65 37 66
REMARK SMILES IDX 45 67 38 68 44 69 46 70 43 71 39 72 40 73 41 74 42 75 68 76
REMARK SMILES IDX 69 77 77 78 70 79 76 80 78 81 75 82 71 83 72 84 73 85 74 86
REMARK SMILES IDX 53 87 54 88 62 89 55 90 61 91 63 92 60 93 56 94 57 95 58 96
REMARK SMILES IDX 59 97
REMARK H PARENT 5 17 83 50 51 61
REMARK Flexibility Score: inf
ROOT
ATOM      1  C   UNL A   1      42.265  18.873  26.125  1.00  0.00     0.188 C 
ENDROOT
BRANCH   1   2
ATOM      2  C   UNL A   1      43.623  19.457  25.689  1.00  0.00     0.188 C 
BRANCH   2   3
ATOM      3  O   UNL A   1      43.665  20.716  25.037  1.00  0.00    -0.376 OA
BRANCH   3   4
ATOM      4  C   UNL A   1      44.729  20.971  24.140  1.00  0.00     0.202 C 
BRANCH   4   5
ATOM      5  C   UNL A   1      46.121  20.968  24.763  1.00  0.00     0.261 C 
BRANCH   5   6
ATOM      6  O   UNL A   1      46.353  22.111  25.609  1.00  0.00    -0.463 OA
BRANCH   6   7
ATOM      7  C   UNL A   1      46.244  23.323  25.008  1.00  0.00     0.309 C 
ATOM      8  O   UNL A   1      46.680  23.581  23.891  1.00  0.00    -0.252 OA
BRANCH   7   9
ATOM      9  C   UNL A   1      45.536  24.378  25.859  1.00  0.00     0.100 C 
ATOM     10  C   UNL A   1      45.746  26.902  25.290  1.00  0.00     0.080 C 
ATOM     11  C   UNL A   1      44.354  27.030  25.896  1.00  0.00     0.013 C 
ATOM     12  C   UNL A   1      46.394  25.670  25.945  1.00  0.00     0.028 C 
ATOM     13  C   UNL A   1      43.510  25.941  25.258  1.00  0.00     0.002 C 
ATOM     14  C   UNL A   1      44.013  24.549  25.632  1.00  0.00     0.015 C 
BRANCH  10  15
ATOM     15  C   UNL A   1      46.524  28.193  25.468  1.00  0.00     0.228 C 
ATOM     16  N   UNL A   1      47.136  28.500  26.650  1.00  0.00    -0.310 N 
ATOM     17  H   UNL A   1      47.553  29.393  26.618  1.00  0.00     0.171 HD
ATOM     18  O   UNL A   1      46.587  29.012  24.547  1.00  0.00    -0.274 OA
BRANCH  16  19
ATOM     19  C   UNL A   1      47.327  27.886  27.900  1.00  0.00     0.132 A 
ATOM     20  C   UNL A   1      44.916  27.129  30.630  1.00  0.00     0.068 C 
ATOM     21  C   UNL A   1      46.228  27.238  29.899  1.00  0.00     0.054 A 
ATOM     22  N   UNL A   1      46.229  27.861  28.683  1.00  0.00    -0.235 NA
ATOM     23  C   UNL A   1      47.388  26.701  30.422  1.00  0.00     0.039 A 
ATOM     24  C   UNL A   1      48.528  26.742  29.634  1.00  0.00     0.021 A 
ATOM     25  Br  UNL A   1      47.493  25.917  32.138  1.00  0.00    -0.049 Br
ATOM     26  C   UNL A   1      48.487  27.311  28.359  1.00  0.00     0.048 A 
ENDBRANCH  16  19
ENDBRANCH  10  15
ENDBRANCH   7   9
ENDBRANCH   6   7
ENDBRANCH   5   6
ENDBRANCH   4   5
ENDBRANCH   3   4
ENDBRANCH   2   3
ENDBRANCH   1   2
BRANCH   1  27
ATOM     27  O   UNL A   1      41.474  19.622  27.041  1.00  0.00    -0.376 OA
BRANCH  27  28
ATOM     28  C   UNL A   1      40.571  20.577  26.485  1.00  0.00     0.202 C 
BRANCH  28  29
ATOM     29  C   UNL A   1      40.459  21.875  27.284  1.00  0.00     0.261 C 
BRANCH  29  30
ATOM     30  O   UNL A   1      40.686  23.024  26.441  1.00  0.00    -0.460 OA
BRANCH  30  31
ATOM     31  C   UNL A   1      39.781  24.014  26.602  1.00  0.00     0.338 C 
ATOM     32  O   UNL A   1      38.582  23.915  26.332  1.00  0.00    -0.246 OA
BRANCH  31  33
ATOM     33  C   UNL A   1      40.366  25.257  27.169  1.00  0.00     0.060 A 
ATOM     34  C   UNL A   1      40.899  25.318  28.457  1.00  0.00     0.016 A 
ATOM     35  C   UNL A   1      40.219  26.448  26.449  1.00  0.00     0.016 A 
ATOM     36  C   UNL A   1      41.175  26.563  29.047  1.00  0.00     0.010 A 
ATOM     37  C   UNL A   1      40.490  27.692  27.049  1.00  0.00     0.010 A 
ATOM     38  C   UNL A   1      40.905  27.774  28.384  1.00  0.00    -0.014 A 
BRANCH  38  39
ATOM     39  C   UNL A   1      41.047  29.091  29.070  1.00  0.00     0.031 A 
ATOM     40  C   UNL A   1      42.368  29.779  29.274  1.00  0.00     0.074 A 
ATOM     41  C   UNL A   1      39.985  29.834  29.405  1.00  0.00     0.049 A 
ATOM     42  N   UNL A   1      42.951  30.227  30.351  1.00  0.00    -0.248 NA
ATOM     43  C   UNL A   1      43.133  30.055  28.067  1.00  0.00     0.031 C 
ATOM     44  C   UNL A   1      38.596  29.525  29.099  1.00  0.00     0.029 A 
ATOM     45  N   UNL A   1      39.946  31.029  30.071  1.00  0.00    -0.354 N 
ATOM     46  C   UNL A   1      44.247  30.581  29.955  1.00  0.00     0.074 A 
ATOM     47  C   UNL A   1      44.338  30.346  28.539  1.00  0.00     0.031 C 
ATOM     48  C   UNL A   1      37.828  30.520  29.567  1.00  0.00     0.029 A 
ATOM     49  C   UNL A   1      38.668  31.449  30.321  1.00  0.00     0.049 A 
ATOM     50  H   UNL A   1      40.748  31.532  30.340  1.00  0.00     0.167 HD
ATOM     51  C   UNL A   1      45.204  31.221  30.670  1.00  0.00     0.034 A 
ATOM     52  C   UNL A   1      38.236  32.416  31.150  1.00  0.00     0.034 A 
ATOM     53  C   UNL A   1      44.827  32.128  31.723  1.00  0.00     0.049 A 
ATOM     54  C   UNL A   1      39.256  33.220  31.910  1.00  0.00     0.074 A 
ATOM     55  C   UNL A   1      45.633  32.919  32.520  1.00  0.00     0.029 A 
ATOM     56  N   UNL A   1      43.516  32.527  31.951  1.00  0.00    -0.354 N 
ATOM     57  N   UNL A   1      40.565  33.094  31.923  1.00  0.00    -0.248 NA
ATOM     58  C   UNL A   1      38.749  34.291  32.774  1.00  0.00     0.031 C 
ATOM     59  C   UNL A   1      44.810  33.845  33.171  1.00  0.00     0.029 A 
ATOM     60  C   UNL A   1      43.494  33.621  32.789  1.00  0.00     0.049 A 
ATOM     61  H   UNL A   1      42.719  32.092  31.569  1.00  0.00     0.167 HD
ATOM     62  C   UNL A   1      41.039  34.078  32.785  1.00  0.00     0.074 A 
ATOM     63  C   UNL A   1      39.875  34.802  33.257  1.00  0.00     0.031 C 
ATOM     64  C   UNL A   1      42.312  34.353  33.170  1.00  0.00     0.034 A 
BRANCH  51  65
ATOM     65  C   UNL A   1      46.674  31.093  30.326  1.00  0.00     0.023 A 
ATOM     66  C   UNL A   1      47.093  31.587  29.068  1.00  0.00     0.031 A 
ATOM     67  C   UNL A   1      47.630  30.415  31.099  1.00  0.00     0.131 A 
ATOM     68  C   UNL A   1      48.409  31.387  28.623  1.00  0.00     0.055 A 
ATOM     69  C   UNL A   1      48.960  30.279  30.679  1.00  0.00     0.041 A 
ATOM     70  F   UNL A   1      47.296  29.839  32.264  1.00  0.00    -0.206 F 
ATOM     71  C   UNL A   1      49.351  30.757  29.433  1.00  0.00     0.022 A 
BRANCH  68  72
ATOM     72  S   UNL A   1      48.913  31.867  26.941  1.00  0.00     0.124 S 
ATOM     73  O   UNL A   1      47.645  32.333  26.372  1.00  0.00    -0.237 OA
ATOM     74  O   UNL A   1      49.887  32.929  27.213  1.00  0.00    -0.237 OA
ATOM     75  O   UNL A   1      49.445  30.657  26.369  1.00  0.00    -0.744 OA
ENDBRANCH  68  72
ENDBRANCH  51  65
BRANCH  52  76
ATOM     76  C   UNL A   1      36.769  32.594  31.287  1.00  0.00     0.023 A 
ATOM     77  C   UNL A   1      36.053  33.307  30.305  1.00  0.00     0.031 A 
ATOM     78  C   UNL A   1      36.113  32.256  32.478  1.00  0.00     0.131 A 
ATOM     79  C   UNL A   1      34.757  33.753  30.578  1.00  0.00     0.055 A 
ATOM     80  C   UNL A   1      34.790  32.637  32.715  1.00  0.00     0.041 A 
ATOM     81  F   UNL A   1      36.764  31.592  33.445  1.00  0.00    -0.206 F 
ATOM     82  C   UNL A   1      34.115  33.411  31.772  1.00  0.00     0.022 A 
BRANCH  79  83
ATOM     83  S   UNL A   1      33.934  34.934  29.473  1.00  0.00     0.124 S 
ATOM     84  O   UNL A   1      33.771  36.097  30.339  1.00  0.00    -0.237 OA
ATOM     85  O   UNL A   1      34.918  35.076  28.403  1.00  0.00    -0.237 OA
ATOM     86  O   UNL A   1      32.701  34.252  29.093  1.00  0.00    -0.744 OA
ENDBRANCH  79  83
ENDBRANCH  52  76
BRANCH  64  87
ATOM     87  C   UNL A   1      42.539  35.506  34.106  1.00  0.00     0.023 A 
ATOM     88  C   UNL A   1      42.902  36.766  33.594  1.00  0.00     0.031 A 
ATOM     89  C   UNL A   1      42.585  35.299  35.492  1.00  0.00     0.131 A 
ATOM     90  C   UNL A   1      43.340  37.764  34.471  1.00  0.00     0.055 A 
ATOM     91  C   UNL A   1      42.991  36.308  36.364  1.00  0.00     0.041 A 
ATOM     92  F   UNL A   1      42.260  34.104  36.011  1.00  0.00    -0.206 F 
ATOM     93  C   UNL A   1      43.382  37.543  35.852  1.00  0.00     0.022 A 
BRANCH  90  94
ATOM     94  S   UNL A   1      43.942  39.358  33.850  1.00  0.00     0.124 S 
ATOM     95  O   UNL A   1      42.722  39.950  33.305  1.00  0.00    -0.237 OA
ATOM     96  O   UNL A   1      44.453  39.986  35.064  1.00  0.00    -0.237 OA
ATOM     97  O   UNL A   1      44.948  38.992  32.858  1.00  0.00    -0.744 OA
ENDBRANCH  90  94
ENDBRANCH  64  87
ENDBRANCH  38  39
ENDBRANCH  31  33
ENDBRANCH  30  31
ENDBRANCH  29  30
ENDBRANCH  28  29
ENDBRANCH  27  28
ENDBRANCH   1  27
TORSDOF 22
ENDMDL
MODEL 3
REMARK VINA RESULT:      -9.4      2.968      8.019
REMARK SMILES Cc1nc(NC(=O)[C@@H]2CCC[C@@H](C(=O)OCCOCCOCCOC(=O)c3ccc(-c4c5nc(c(-c6cc(S(=O)(=O)[O-])ccc6F)c6ccc([nH]6)c(-c6cc(S(=O)(=O)[O-])ccc6F)c6nc(c(-c7cc(S(=O)(=O)[O-])ccc7F)c7ccc4[nH]7)C=C6)C=C5)cc3)C2)ccc1Br
REMARK SMILES IDX 20 1 19 2 18 3 17 4 16 5 15 6 13 7 14 8 12 9 8 10 9 11 90 12
REMARK SMILES IDX 10 13 11 14 6 15 5 16 7 18 4 19 1 20 2 21 3 22 93 23 92 24
REMARK SMILES IDX 94 25 91 26 21 27 22 28 23 29 24 30 25 31 26 32 27 33 28 34
REMARK SMILES IDX 89 35 29 36 88 37 30 38 31 39 32 40 82 41 33 42 87 43 81 44
REMARK SMILES IDX 83 45 34 46 86 47 80 48 79 49 35 51 67 52 47 53 66 54 48 55
REMARK SMILES IDX 51 56 65 57 84 58 49 59 50 60 64 62 85 63 52 64 36 65 37 66
REMARK SMILES IDX 45 67 38 68 44 69 46 70 43 71 39 72 40 73 41 74 42 75 68 76
REMARK SMILES IDX 69 77 77 78 70 79 76 80 78 81 75 82 71 83 72 84 73 85 74 86
REMARK SMILES IDX 53 87 54 88 62 89 55 90 61 91 63 92 60 93 56 94 57 95 58 96
REMARK SMILES IDX 59 97
REMARK H PARENT 5 17 83 50 51 61
REMARK Flexibility Score: inf
ROOT
ATOM      1  C   UNL A   1      42.588  19.170  26.562  1.00  0.00     0.188 C 
ENDROOT
BRANCH   1   2
ATOM      2  C   UNL A   1      43.448  17.977  26.100  1.00  0.00     0.188 C 
BRANCH   2   3
ATOM      3  O   UNL A   1      44.631  18.216  25.354  1.00  0.00    -0.376 OA
BRANCH   3   4
ATOM      4  C   UNL A   1      44.559  19.100  24.251  1.00  0.00     0.202 C 
BRANCH   4   5
ATOM      5  C   UNL A   1      45.330  20.406  24.411  1.00  0.00     0.261 C 
BRANCH   5   6
ATOM      6  O   UNL A   1      44.589  21.403  25.141  1.00  0.00    -0.463 OA
BRANCH   6   7
ATOM      7  C   UNL A   1      44.700  22.676  24.682  1.00  0.00     0.309 C 
ATOM      8  O   UNL A   1      45.085  22.972  23.556  1.00  0.00    -0.252 OA
BRANCH   7   9
ATOM      9  C   UNL A   1      44.319  23.743  25.708  1.00  0.00     0.100 C 
ATOM     10  C   UNL A   1      46.143  25.170  26.879  1.00  0.00     0.080 C 
ATOM     11  C   UNL A   1      45.078  26.257  26.948  1.00  0.00     0.013 C 
ATOM     12  C   UNL A   1      45.393  23.828  26.826  1.00  0.00     0.028 C 
ATOM     13  C   UNL A   1      44.486  26.361  25.553  1.00  0.00     0.002 C 
ATOM     14  C   UNL A   1      43.764  25.078  25.152  1.00  0.00     0.015 C 
BRANCH  10  15
ATOM     15  C   UNL A   1      47.115  25.303  28.038  1.00  0.00     0.228 C 
ATOM     16  N   UNL A   1      48.412  25.679  27.842  1.00  0.00    -0.310 N 
ATOM     17  H   UNL A   1      48.922  25.669  28.685  1.00  0.00     0.171 HD
ATOM     18  O   UNL A   1      46.751  25.035  29.187  1.00  0.00    -0.274 OA
BRANCH  16  19
ATOM     19  C   UNL A   1      49.216  26.076  26.758  1.00  0.00     0.132 A 
ATOM     20  C   UNL A   1      52.562  24.884  25.653  1.00  0.00     0.068 C 
ATOM     21  C   UNL A   1      51.302  25.706  25.690  1.00  0.00     0.054 A 
ATOM     22  N   UNL A   1      50.428  25.484  26.717  1.00  0.00    -0.235 NA
ATOM     23  C   UNL A   1      51.018  26.633  24.706  1.00  0.00     0.039 A 
ATOM     24  C   UNL A   1      49.784  27.263  24.751  1.00  0.00     0.021 A 
ATOM     25  Br  UNL A   1      52.216  27.072  23.312  1.00  0.00    -0.049 Br
ATOM     26  C   UNL A   1      48.872  26.960  25.766  1.00  0.00     0.048 A 
ENDBRANCH  16  19
ENDBRANCH  10  15
ENDBRANCH   7   9
ENDBRANCH   6   7
ENDBRANCH   5   6
ENDBRANCH   4   5
ENDBRANCH   3   4
ENDBRANCH   2   3
ENDBRANCH   1   2
BRANCH   1  27
ATOM     27  O   UNL A   1      41.380  19.440  25.860  1.00  0.00    -0.376 OA
BRANCH  27  28
ATOM     28  C   UNL A   1      40.416  20.257  26.523  1.00  0.00     0.202 C 
BRANCH  28  29
ATOM     29  C   UNL A   1      41.017  21.333  27.424  1.00  0.00     0.261 C 
BRANCH  29  30
ATOM     30  O   UNL A   1      41.033  22.615  26.761  1.00  0.00    -0.460 OA
BRANCH  30  31
ATOM     31  C   UNL A   1      39.807  23.147  26.560  1.00  0.00     0.338 C 
ATOM     32  O   UNL A   1      38.839  22.525  26.117  1.00  0.00    -0.246 OA
BRANCH  31  33
ATOM     33  C   UNL A   1      39.717  24.578  26.951  1.00  0.00     0.060 A 
ATOM     34  C   UNL A   1      40.293  25.601  26.197  1.00  0.00     0.016 A 
ATOM     35  C   UNL A   1      39.184  24.892  28.206  1.00  0.00     0.016 A 
ATOM     36  C   UNL A   1      40.429  26.889  26.744  1.00  0.00     0.010 A 
ATOM     37  C   UNL A   1      39.330  26.181  28.750  1.00  0.00     0.010 A 
ATOM     38  C   UNL A   1      40.019  27.183  28.057  1.00  0.00    -0.014 A 
BRANCH  38  39
ATOM     39  C   UNL A   1      40.310  28.502  28.689  1.00  0.00     0.031 A 
ATOM     40  C   UNL A   1      41.697  29.057  28.846  1.00  0.00     0.074 A 
ATOM     41  C   UNL A   1      39.336  29.363  29.012  1.00  0.00     0.049 A 
ATOM     42  N   UNL A   1      42.345  29.482  29.895  1.00  0.00    -0.248 NA
ATOM     43  C   UNL A   1      42.463  29.209  27.618  1.00  0.00     0.031 C 
ATOM     44  C   UNL A   1      37.917  29.189  28.740  1.00  0.00     0.029 A 
ATOM     45  N   UNL A   1      39.433  30.579  29.632  1.00  0.00    -0.354 N 
ATOM     46  C   UNL A   1      43.662  29.686  29.466  1.00  0.00     0.074 A 
ATOM     47  C   UNL A   1      43.700  29.391  28.059  1.00  0.00     0.031 C 
ATOM     48  C   UNL A   1      37.265  30.274  29.181  1.00  0.00     0.029 A 
ATOM     49  C   UNL A   1      38.210  31.138  29.886  1.00  0.00     0.049 A 
ATOM     50  H   UNL A   1      40.287  31.006  29.869  1.00  0.00     0.167 HD
ATOM     51  C   UNL A   1      44.693  30.250  30.141  1.00  0.00     0.034 A 
ATOM     52  C   UNL A   1      37.896  32.174  30.683  1.00  0.00     0.034 A 
ATOM     53  C   UNL A   1      44.433  31.229  31.164  1.00  0.00     0.049 A 
ATOM     54  C   UNL A   1      39.008  32.896  31.396  1.00  0.00     0.074 A 
ATOM     55  C   UNL A   1      45.330  31.961  31.917  1.00  0.00     0.029 A 
ATOM     56  N   UNL A   1      43.173  31.769  31.396  1.00  0.00    -0.354 N 
ATOM     57  N   UNL A   1      40.297  32.636  31.393  1.00  0.00    -0.248 NA
ATOM     58  C   UNL A   1      38.630  34.044  32.226  1.00  0.00     0.031 C 
ATOM     59  C   UNL A   1      44.620  32.990  32.545  1.00  0.00     0.029 A 
ATOM     60  C   UNL A   1      43.280  32.889  32.192  1.00  0.00     0.049 A 
ATOM     61  H   UNL A   1      42.328  31.404  31.044  1.00  0.00     0.167 HD
ATOM     62  C   UNL A   1      40.886  33.597  32.209  1.00  0.00     0.074 A 
ATOM     63  C   UNL A   1      39.811  34.454  32.671  1.00  0.00     0.031 C 
ATOM     64  C   UNL A   1      42.187  33.753  32.564  1.00  0.00     0.034 A 
BRANCH  51  65
ATOM     65  C   UNL A   1      46.135  29.957  29.779  1.00  0.00     0.023 A 
ATOM     66  C   UNL A   1      46.774  30.847  28.883  1.00  0.00     0.031 A 
ATOM     67  C   UNL A   1      46.850  28.812  30.163  1.00  0.00     0.131 A 
ATOM     68  C   UNL A   1      48.062  30.573  28.398  1.00  0.00     0.055 A 
ATOM     69  C   UNL A   1      48.163  28.579  29.730  1.00  0.00     0.041 A 
ATOM     70  F   UNL A   1      46.288  27.874  30.941  1.00  0.00    -0.206 F 
ATOM     71  C   UNL A   1      48.769  29.455  28.837  1.00  0.00     0.022 A 
BRANCH  68  72
ATOM     72  S   UNL A   1      48.825  31.617  27.118  1.00  0.00     0.124 S 
ATOM     73  O   UNL A   1      49.512  32.628  27.928  1.00  0.00    -0.237 OA
ATOM     74  O   UNL A   1      49.715  30.665  26.447  1.00  0.00    -0.237 OA
ATOM     75  O   UNL A   1      47.711  32.095  26.338  1.00  0.00    -0.744 OA
ENDBRANCH  68  72
ENDBRANCH  51  65
BRANCH  52  76
ATOM     76  C   UNL A   1      36.457  32.508  30.836  1.00  0.00     0.023 A 
ATOM     77  C   UNL A   1      35.802  33.265  29.845  1.00  0.00     0.031 A 
ATOM     78  C   UNL A   1      35.790  32.272  32.046  1.00  0.00     0.131 A 
ATOM     79  C   UNL A   1      34.564  33.850  30.124  1.00  0.00     0.055 A 
ATOM     80  C   UNL A   1      34.519  32.795  32.291  1.00  0.00     0.041 A 
ATOM     81  F   UNL A   1      36.386  31.570  33.022  1.00  0.00    -0.206 F 
ATOM     82  C   UNL A   1      33.912  33.609  31.336  1.00  0.00     0.022 A 
BRANCH  79  83
ATOM     83  S   UNL A   1      33.849  35.080  28.997  1.00  0.00     0.124 S 
ATOM     84  O   UNL A   1      33.719  36.247  29.864  1.00  0.00    -0.237 OA
ATOM     85  O   UNL A   1      34.879  35.172  27.965  1.00  0.00    -0.237 OA
ATOM     86  O   UNL A   1      32.595  34.470  28.568  1.00  0.00    -0.744 OA
ENDBRANCH  79  83
ENDBRANCH  52  76
BRANCH  64  87
ATOM     87  C   UNL A   1      42.550  34.910  33.450  1.00  0.00     0.023 A 
ATOM     88  C   UNL A   1      42.196  34.890  34.812  1.00  0.00     0.031 A 
ATOM     89  C   UNL A   1      43.065  36.093  32.900  1.00  0.00     0.131 A 
ATOM     90  C   UNL A   1      42.323  36.059  35.572  1.00  0.00     0.055 A 
ATOM     91  C   UNL A   1      43.220  37.244  33.670  1.00  0.00     0.041 A 
ATOM     92  F   UNL A   1      43.398  36.150  31.601  1.00  0.00    -0.206 F 
ATOM     93  C   UNL A   1      42.837  37.233  35.010  1.00  0.00     0.022 A 
BRANCH  90  94
ATOM     94  S   UNL A   1      41.759  36.120  37.294  1.00  0.00     0.124 S 
ATOM     95  O   UNL A   1      41.698  34.703  37.644  1.00  0.00    -0.237 OA
ATOM     96  O   UNL A   1      42.828  36.877  37.939  1.00  0.00    -0.237 OA
ATOM     97  O   UNL A   1      40.468  36.795  37.218  1.00  0.00    -0.744 OA
ENDBRANCH  90  94
ENDBRANCH  64  87
ENDBRANCH  38  39
ENDBRANCH  31  33
ENDBRANCH  30  31
ENDBRANCH  29  30
ENDBRANCH  28  29
ENDBRANCH  27  28
ENDBRANCH   1  27
TORSDOF 22
ENDMDL
