MODEL 1
REMARK VINA RESULT:     -10.8      0.000      0.000
REMARK SMILES O=C(OCCOCCOCCOC(=O)c1cc(NC(=O)c2cccnc2Cl)ccc1O)c1ccc(-c2c3nc(c(-c4cc(S(=O)(=O)[O-])ccc4F)c4ccc([nH]4)c(-c4cc(S(=O)(=O)[O-])ccc4F)c4nc(c(-c5cc(S(=O)(=O)[O-])ccc5F)c5ccc2[nH]5)C=C4)C=C3)cc1
REMARK SMILES IDX 7 1 6 2 5 3 4 4 3 5 2 6 1 7 32 8 33 9 94 10 34 11 93 12
REMARK SMILES IDX 35 13 36 14 37 15 87 16 38 17 92 18 86 19 88 20 39 21 91 22
REMARK SMILES IDX 85 23 84 24 40 26 72 27 52 28 71 29 53 30 56 31 70 32 89 33
REMARK SMILES IDX 54 34 55 35 69 37 90 38 57 39 41 40 42 41 50 42 43 43 49 44
REMARK SMILES IDX 51 45 48 46 44 47 45 48 46 49 47 50 73 51 74 52 82 53 75 54
REMARK SMILES IDX 81 55 83 56 80 57 76 58 77 59 78 60 79 61 58 62 59 63 67 64
REMARK SMILES IDX 60 65 66 66 68 67 65 68 61 69 62 70 63 71 64 72 8 73 9 74
REMARK SMILES IDX 10 75 11 76 12 77 13 78 14 79 15 80 16 81 30 82 17 83 29 84
REMARK SMILES IDX 28 85 31 86 18 88 19 89 20 91 21 92 22 93 26 94 23 95 25 96
REMARK SMILES IDX 27 97 24 98
REMARK H PARENT 88 25 56 36 31 87 18 90
REMARK Flexibility Score: inf
ROOT
ATOM      1  C   UNL A   1      33.288  30.450  26.811  1.00  0.00     0.188 C 
ENDROOT
BRANCH   1   2
ATOM      2  O   UNL A   1      31.914  30.622  27.153  1.00  0.00    -0.376 OA
BRANCH   2   3
ATOM      3  C   UNL A   1      31.312  31.874  26.834  1.00  0.00     0.202 C 
BRANCH   3   4
ATOM      4  C   UNL A   1      32.220  33.119  26.814  1.00  0.00     0.261 C 
BRANCH   4   5
ATOM      5  O   UNL A   1      32.183  33.876  28.030  1.00  0.00    -0.460 OA
BRANCH   5   6
ATOM      6  C   UNL A   1      33.294  34.493  28.524  1.00  0.00     0.338 C 
ATOM      7  O   UNL A   1      33.395  35.714  28.445  1.00  0.00    -0.246 OA
BRANCH   6   8
ATOM      8  C   UNL A   1      34.485  33.658  28.913  1.00  0.00     0.060 A 
ATOM      9  C   UNL A   1      34.417  32.433  29.577  1.00  0.00     0.016 A 
ATOM     10  C   UNL A   1      35.758  34.127  28.553  1.00  0.00     0.016 A 
ATOM     11  C   UNL A   1      35.540  31.646  29.807  1.00  0.00     0.010 A 
ATOM     12  C   UNL A   1      36.906  33.357  28.811  1.00  0.00     0.010 A 
ATOM     13  C   UNL A   1      36.797  32.104  29.437  1.00  0.00    -0.014 A 
BRANCH  13  14
ATOM     14  C   UNL A   1      37.967  31.406  30.016  1.00  0.00     0.031 A 
ATOM     15  C   UNL A   1      38.242  31.684  31.464  1.00  0.00     0.074 A 
ATOM     16  C   UNL A   1      38.636  30.442  29.354  1.00  0.00     0.049 A 
ATOM     17  N   UNL A   1      39.197  31.244  32.234  1.00  0.00    -0.248 NA
ATOM     18  C   UNL A   1      37.295  32.593  32.133  1.00  0.00     0.031 C 
ATOM     19  C   UNL A   1      38.340  29.982  27.995  1.00  0.00     0.029 A 
ATOM     20  N   UNL A   1      39.678  29.640  29.752  1.00  0.00    -0.354 N 
ATOM     21  C   UNL A   1      38.976  31.847  33.468  1.00  0.00     0.074 A 
ATOM     22  C   UNL A   1      37.847  32.732  33.322  1.00  0.00     0.031 C 
ATOM     23  C   UNL A   1      39.168  28.968  27.689  1.00  0.00     0.029 A 
ATOM     24  C   UNL A   1      40.097  28.748  28.790  1.00  0.00     0.049 A 
ATOM     25  H   UNL A   1      40.089  29.699  30.644  1.00  0.00     0.167 HD
ATOM     26  C   UNL A   1      39.639  31.654  34.631  1.00  0.00     0.034 A 
ATOM     27  C   UNL A   1      41.124  27.872  28.798  1.00  0.00     0.034 A 
ATOM     28  C   UNL A   1      40.753  30.755  34.748  1.00  0.00     0.049 A 
ATOM     29  C   UNL A   1      41.948  27.775  30.063  1.00  0.00     0.074 A 
ATOM     30  C   UNL A   1      41.560  30.515  35.841  1.00  0.00     0.029 A 
ATOM     31  N   UNL A   1      41.214  29.942  33.717  1.00  0.00    -0.354 N 
ATOM     32  N   UNL A   1      41.779  28.402  31.207  1.00  0.00    -0.248 NA
ATOM     33  C   UNL A   1      43.090  26.853  30.049  1.00  0.00     0.031 C 
ATOM     34  C   UNL A   1      42.553  29.609  35.450  1.00  0.00     0.029 A 
ATOM     35  C   UNL A   1      42.313  29.218  34.141  1.00  0.00     0.049 A 
ATOM     36  H   UNL A   1      40.816  29.891  32.818  1.00  0.00     0.167 HD
ATOM     37  C   UNL A   1      42.768  27.919  32.059  1.00  0.00     0.074 A 
ATOM     38  C   UNL A   1      43.522  26.942  31.298  1.00  0.00     0.031 C 
ATOM     39  C   UNL A   1      43.032  28.245  33.351  1.00  0.00     0.034 A 
BRANCH  26  40
ATOM     40  C   UNL A   1      39.206  32.507  35.796  1.00  0.00     0.023 A 
ATOM     41  C   UNL A   1      39.758  33.782  36.027  1.00  0.00     0.031 A 
ATOM     42  C   UNL A   1      38.354  31.970  36.776  1.00  0.00     0.131 A 
ATOM     43  C   UNL A   1      39.549  34.419  37.259  1.00  0.00     0.055 A 
ATOM     44  C   UNL A   1      38.068  32.657  37.956  1.00  0.00     0.041 A 
ATOM     45  F   UNL A   1      37.827  30.745  36.626  1.00  0.00    -0.206 F 
ATOM     46  C   UNL A   1      38.686  33.878  38.215  1.00  0.00     0.022 A 
BRANCH  43  47
ATOM     47  S   UNL A   1      40.585  35.850  37.680  1.00  0.00     0.124 S 
ATOM     48  O   UNL A   1      39.577  36.849  38.029  1.00  0.00    -0.237 OA
ATOM     49  O   UNL A   1      41.391  35.344  38.784  1.00  0.00    -0.237 OA
ATOM     50  O   UNL A   1      41.316  36.118  36.443  1.00  0.00    -0.744 OA
ENDBRANCH  43  47
ENDBRANCH  26  40
BRANCH  27  51
ATOM     51  C   UNL A   1      41.481  27.068  27.585  1.00  0.00     0.023 A 
ATOM     52  C   UNL A   1      41.289  25.677  27.532  1.00  0.00     0.031 A 
ATOM     53  C   UNL A   1      42.106  27.677  26.477  1.00  0.00     0.131 A 
ATOM     54  C   UNL A   1      41.763  24.938  26.431  1.00  0.00     0.055 A 
ATOM     55  C   UNL A   1      42.530  26.945  25.364  1.00  0.00     0.041 A 
ATOM     56  F   UNL A   1      42.314  29.003  26.456  1.00  0.00    -0.206 F 
ATOM     57  C   UNL A   1      42.373  25.565  25.343  1.00  0.00     0.022 A 
BRANCH  54  58
ATOM     58  S   UNL A   1      41.654  23.126  26.479  1.00  0.00     0.124 S 
ATOM     59  O   UNL A   1      40.211  22.915  26.480  1.00  0.00    -0.237 OA
ATOM     60  O   UNL A   1      42.359  22.754  25.257  1.00  0.00    -0.237 OA
ATOM     61  O   UNL A   1      42.340  22.778  27.721  1.00  0.00    -0.744 OA
ENDBRANCH  54  58
ENDBRANCH  27  51
BRANCH  39  62
ATOM     62  C   UNL A   1      44.142  27.491  34.035  1.00  0.00     0.023 A 
ATOM     63  C   UNL A   1      43.958  26.192  34.532  1.00  0.00     0.031 A 
ATOM     64  C   UNL A   1      45.413  28.080  34.163  1.00  0.00     0.131 A 
ATOM     65  C   UNL A   1      45.015  25.540  35.181  1.00  0.00     0.055 A 
ATOM     66  C   UNL A   1      46.480  27.399  34.746  1.00  0.00     0.041 A 
ATOM     67  F   UNL A   1      45.641  29.322  33.706  1.00  0.00    -0.206 F 
ATOM     68  C   UNL A   1      46.281  26.125  35.270  1.00  0.00     0.022 A 
BRANCH  65  69
ATOM     69  S   UNL A   1      44.687  23.952  35.990  1.00  0.00     0.124 S 
ATOM     70  O   UNL A   1      44.984  24.257  37.386  1.00  0.00    -0.237 OA
ATOM     71  O   UNL A   1      43.281  23.723  35.673  1.00  0.00    -0.237 OA
ATOM     72  O   UNL A   1      45.625  23.038  35.341  1.00  0.00    -0.744 OA
ENDBRANCH  65  69
ENDBRANCH  39  62
ENDBRANCH  13  14
ENDBRANCH   6   8
ENDBRANCH   5   6
ENDBRANCH   4   5
ENDBRANCH   3   4
ENDBRANCH   2   3
ENDBRANCH   1   2
BRANCH   1  73
ATOM     73  C   UNL A   1      33.936  29.136  27.252  1.00  0.00     0.188 C 
BRANCH  73  74
ATOM     74  O   UNL A   1      34.072  28.206  26.189  1.00  0.00    -0.376 OA
BRANCH  74  75
ATOM     75  C   UNL A   1      33.072  28.256  25.179  1.00  0.00     0.202 C 
BRANCH  75  76
ATOM     76  C   UNL A   1      31.860  27.318  25.289  1.00  0.00     0.261 C 
BRANCH  76  77
ATOM     77  O   UNL A   1      30.687  27.639  24.518  1.00  0.00    -0.460 OA
BRANCH  77  78
ATOM     78  C   UNL A   1      29.974  26.654  23.935  1.00  0.00     0.342 C 
ATOM     79  O   UNL A   1      28.754  26.563  23.870  1.00  0.00    -0.246 OA
BRANCH  78  80
ATOM     80  C   UNL A   1      30.914  25.722  23.278  1.00  0.00     0.103 A 
ATOM     81  C   UNL A   1      31.141  24.442  23.827  1.00  0.00     0.045 A 
ATOM     82  C   UNL A   1      31.603  26.133  22.134  1.00  0.00     0.130 A 
ATOM     83  C   UNL A   1      32.044  23.567  23.207  1.00  0.00     0.042 A 
ATOM     84  C   UNL A   1      32.527  25.281  21.539  1.00  0.00     0.049 A 
ATOM     85  C   UNL A   1      32.738  24.008  22.071  1.00  0.00     0.030 A 
BRANCH  82  86
ATOM     86  O   UNL A   1      31.392  27.377  21.611  1.00  0.00    -0.507 OA
ATOM     87  H   UNL A   1      30.982  28.039  22.131  1.00  0.00     0.293 HD
ENDBRANCH  82  86
BRANCH  83  88
ATOM     88  N   UNL A   1      32.343  22.254  23.628  1.00  0.00    -0.322 N 
ATOM     89  C   UNL A   1      33.478  21.633  24.093  1.00  0.00     0.258 C 
ATOM     90  H   UNL A   1      31.568  21.649  23.577  1.00  0.00     0.170 HD
ATOM     91  O   UNL A   1      33.505  20.405  24.188  1.00  0.00    -0.269 OA
BRANCH  89  92
ATOM     92  C   UNL A   1      34.653  22.366  24.568  1.00  0.00     0.077 A 
ATOM     93  C   UNL A   1      35.836  22.330  23.824  1.00  0.00     0.018 A 
ATOM     94  C   UNL A   1      34.693  22.976  25.805  1.00  0.00     0.141 A 
ATOM     95  C   UNL A   1      36.975  22.970  24.310  1.00  0.00     0.021 A 
ATOM     96  N   UNL A   1      35.782  23.615  26.294  1.00  0.00    -0.244 NA
ATOM     97  Cl  UNL A   1      33.373  22.962  26.889  1.00  0.00    -0.061 Cl
ATOM     98  C   UNL A   1      36.898  23.602  25.538  1.00  0.00     0.113 A 
ENDBRANCH  89  92
ENDBRANCH  83  88
ENDBRANCH  78  80
ENDBRANCH  77  78
ENDBRANCH  76  77
ENDBRANCH  75  76
ENDBRANCH  74  75
ENDBRANCH  73  74
ENDBRANCH   1  73
TORSDOF 23
ENDMDL
MODEL 2
REMARK VINA RESULT:     -10.3      2.424      3.508
REMARK SMILES O=C(OCCOCCOCCOC(=O)c1cc(NC(=O)c2cccnc2Cl)ccc1O)c1ccc(-c2c3nc(c(-c4cc(S(=O)(=O)[O-])ccc4F)c4ccc([nH]4)c(-c4cc(S(=O)(=O)[O-])ccc4F)c4nc(c(-c5cc(S(=O)(=O)[O-])ccc5F)c5ccc2[nH]5)C=C4)C=C3)cc1
REMARK SMILES IDX 7 1 6 2 5 3 4 4 3 5 2 6 1 7 32 8 33 9 94 10 34 11 93 12
REMARK SMILES IDX 35 13 36 14 37 15 87 16 38 17 92 18 86 19 88 20 39 21 91 22
REMARK SMILES IDX 85 23 84 24 40 26 72 27 52 28 71 29 53 30 56 31 70 32 89 33
REMARK SMILES IDX 54 34 55 35 69 37 90 38 57 39 41 40 42 41 50 42 43 43 49 44
REMARK SMILES IDX 51 45 48 46 44 47 45 48 46 49 47 50 73 51 74 52 82 53 75 54
REMARK SMILES IDX 81 55 83 56 80 57 76 58 77 59 78 60 79 61 58 62 59 63 67 64
REMARK SMILES IDX 60 65 66 66 68 67 65 68 61 69 62 70 63 71 64 72 8 73 9 74
REMARK SMILES IDX 10 75 11 76 12 77 13 78 14 79 15 80 16 81 30 82 17 83 29 84
REMARK SMILES IDX 28 85 31 86 18 88 19 89 20 91 21 92 22 93 26 94 23 95 25 96
REMARK SMILES IDX 27 97 24 98
REMARK H PARENT 88 25 56 36 31 87 18 90
REMARK Flexibility Score: inf
ROOT
ATOM      1  C   UNL A   1      33.196  33.450  27.994  1.00  0.00     0.188 C 
ENDROOT
BRANCH   1   2
ATOM      2  O   UNL A   1      32.541  34.676  28.313  1.00  0.00    -0.376 OA
BRANCH   2   3
ATOM      3  C   UNL A   1      33.341  35.723  28.858  1.00  0.00     0.202 C 
BRANCH   3   4
ATOM      4  C   UNL A   1      32.902  36.329  30.205  1.00  0.00     0.261 C 
BRANCH   4   5
ATOM      5  O   UNL A   1      32.673  35.351  31.228  1.00  0.00    -0.460 OA
BRANCH   5   6
ATOM      6  C   UNL A   1      33.429  35.311  32.362  1.00  0.00     0.338 C 
ATOM      7  O   UNL A   1      33.235  36.139  33.248  1.00  0.00    -0.246 OA
BRANCH   6   8
ATOM      8  C   UNL A   1      34.653  34.435  32.398  1.00  0.00     0.060 A 
ATOM      9  C   UNL A   1      34.686  33.132  32.900  1.00  0.00     0.016 A 
ATOM     10  C   UNL A   1      35.842  34.949  31.859  1.00  0.00     0.016 A 
ATOM     11  C   UNL A   1      35.812  32.324  32.802  1.00  0.00     0.010 A 
ATOM     12  C   UNL A   1      36.999  34.153  31.785  1.00  0.00     0.010 A 
ATOM     13  C   UNL A   1      36.984  32.828  32.254  1.00  0.00    -0.014 A 
BRANCH  13  14
ATOM     14  C   UNL A   1      38.227  32.063  32.497  1.00  0.00     0.031 A 
ATOM     15  C   UNL A   1      38.884  32.291  33.826  1.00  0.00     0.074 A 
ATOM     16  C   UNL A   1      38.650  31.086  31.671  1.00  0.00     0.049 A 
ATOM     17  N   UNL A   1      39.983  31.788  34.314  1.00  0.00    -0.248 NA
ATOM     18  C   UNL A   1      38.193  33.225  34.732  1.00  0.00     0.031 C 
ATOM     19  C   UNL A   1      37.986  30.676  30.431  1.00  0.00     0.029 A 
ATOM     20  N   UNL A   1      39.717  30.228  31.771  1.00  0.00    -0.354 N 
ATOM     21  C   UNL A   1      40.123  32.367  35.570  1.00  0.00     0.074 A 
ATOM     22  C   UNL A   1      39.042  33.307  35.736  1.00  0.00     0.031 C 
ATOM     23  C   UNL A   1      38.653  29.633  29.905  1.00  0.00     0.029 A 
ATOM     24  C   UNL A   1      39.825  29.342  30.722  1.00  0.00     0.049 A 
ATOM     25  H   UNL A   1      40.350  30.244  32.526  1.00  0.00     0.167 HD
ATOM     26  C   UNL A   1      41.055  32.114  36.516  1.00  0.00     0.034 A 
ATOM     27  C   UNL A   1      40.772  28.420  30.449  1.00  0.00     0.034 A 
ATOM     28  C   UNL A   1      42.114  31.162  36.326  1.00  0.00     0.049 A 
ATOM     29  C   UNL A   1      41.892  28.253  31.453  1.00  0.00     0.074 A 
ATOM     30  C   UNL A   1      43.165  30.857  37.166  1.00  0.00     0.029 A 
ATOM     31  N   UNL A   1      42.248  30.356  35.199  1.00  0.00    -0.354 N 
ATOM     32  N   UNL A   1      42.059  28.857  32.610  1.00  0.00    -0.248 NA
ATOM     33  C   UNL A   1      42.941  27.280  31.128  1.00  0.00     0.031 C 
ATOM     34  C   UNL A   1      43.974  29.917  36.517  1.00  0.00     0.029 A 
ATOM     35  C   UNL A   1      43.381  29.572  35.311  1.00  0.00     0.049 A 
ATOM     36  H   UNL A   1      41.627  30.346  34.435  1.00  0.00     0.167 HD
ATOM     37  C   UNL A   1      43.211  28.307  33.166  1.00  0.00     0.074 A 
ATOM     38  C   UNL A   1      43.688  27.317  32.221  1.00  0.00     0.031 C 
ATOM     39  C   UNL A   1      43.818  28.588  34.348  1.00  0.00     0.034 A 
BRANCH  26  40
ATOM     40  C   UNL A   1      40.985  32.955  37.765  1.00  0.00     0.023 A 
ATOM     41  C   UNL A   1      40.264  32.537  38.900  1.00  0.00     0.031 A 
ATOM     42  C   UNL A   1      41.508  34.259  37.760  1.00  0.00     0.131 A 
ATOM     43  C   UNL A   1      39.983  33.455  39.924  1.00  0.00     0.055 A 
ATOM     44  C   UNL A   1      41.312  35.133  38.830  1.00  0.00     0.041 A 
ATOM     45  F   UNL A   1      42.174  34.724  36.691  1.00  0.00    -0.206 F 
ATOM     46  C   UNL A   1      40.525  34.741  39.910  1.00  0.00     0.022 A 
BRANCH  43  47
ATOM     47  S   UNL A   1      38.729  33.013  41.161  1.00  0.00     0.124 S 
ATOM     48  O   UNL A   1      38.166  31.793  40.586  1.00  0.00    -0.237 OA
ATOM     49  O   UNL A   1      39.523  32.840  42.371  1.00  0.00    -0.237 OA
ATOM     50  O   UNL A   1      37.830  34.165  41.163  1.00  0.00    -0.744 OA
ENDBRANCH  43  47
ENDBRANCH  26  40
BRANCH  27  51
ATOM     51  C   UNL A   1      40.759  27.633  29.174  1.00  0.00     0.023 A 
ATOM     52  C   UNL A   1      41.651  27.906  28.123  1.00  0.00     0.031 A 
ATOM     53  C   UNL A   1      39.783  26.640  28.953  1.00  0.00     0.131 A 
ATOM     54  C   UNL A   1      41.518  27.239  26.891  1.00  0.00     0.055 A 
ATOM     55  C   UNL A   1      39.686  25.945  27.743  1.00  0.00     0.041 A 
ATOM     56  F   UNL A   1      38.903  26.322  29.914  1.00  0.00    -0.206 F 
ATOM     57  C   UNL A   1      40.548  26.254  26.698  1.00  0.00     0.022 A 
BRANCH  54  58
ATOM     58  S   UNL A   1      42.576  27.742  25.502  1.00  0.00     0.124 S 
ATOM     59  O   UNL A   1      42.487  26.579  24.626  1.00  0.00    -0.237 OA
ATOM     60  O   UNL A   1      41.903  28.951  25.040  1.00  0.00    -0.237 OA
ATOM     61  O   UNL A   1      43.878  27.957  26.129  1.00  0.00    -0.744 OA
ENDBRANCH  54  58
ENDBRANCH  27  51
BRANCH  39  62
ATOM     62  C   UNL A   1      45.029  27.766  34.707  1.00  0.00     0.023 A 
ATOM     63  C   UNL A   1      44.931  26.612  35.501  1.00  0.00     0.031 A 
ATOM     64  C   UNL A   1      46.296  28.135  34.220  1.00  0.00     0.131 A 
ATOM     65  C   UNL A   1      46.089  25.895  35.828  1.00  0.00     0.055 A 
ATOM     66  C   UNL A   1      47.433  27.376  34.489  1.00  0.00     0.041 A 
ATOM     67  F   UNL A   1      46.443  29.231  33.459  1.00  0.00    -0.206 F 
ATOM     68  C   UNL A   1      47.336  26.254  35.307  1.00  0.00     0.022 A 
BRANCH  65  69
ATOM     69  S   UNL A   1      45.958  24.534  37.017  1.00  0.00     0.124 S 
ATOM     70  O   UNL A   1      45.450  25.217  38.203  1.00  0.00    -0.237 OA
ATOM     71  O   UNL A   1      45.025  23.628  36.356  1.00  0.00    -0.237 OA
ATOM     72  O   UNL A   1      47.329  24.040  37.125  1.00  0.00    -0.744 OA
ENDBRANCH  65  69
ENDBRANCH  39  62
ENDBRANCH  13  14
ENDBRANCH   6   8
ENDBRANCH   5   6
ENDBRANCH   4   5
ENDBRANCH   3   4
ENDBRANCH   2   3
ENDBRANCH   1   2
BRANCH   1  73
ATOM     73  C   UNL A   1      34.683  33.364  28.347  1.00  0.00     0.188 C 
BRANCH  73  74
ATOM     74  O   UNL A   1      35.334  32.270  27.723  1.00  0.00    -0.376 OA
BRANCH  74  75
ATOM     75  C   UNL A   1      35.180  31.004  28.354  1.00  0.00     0.202 C 
BRANCH  75  76
ATOM     76  C   UNL A   1      35.072  29.747  27.476  1.00  0.00     0.261 C 
BRANCH  76  77
ATOM     77  O   UNL A   1      33.810  29.054  27.443  1.00  0.00    -0.460 OA
BRANCH  77  78
ATOM     78  C   UNL A   1      32.865  29.419  26.554  1.00  0.00     0.342 C 
ATOM     79  O   UNL A   1      32.578  30.557  26.205  1.00  0.00    -0.246 OA
BRANCH  78  80
ATOM     80  C   UNL A   1      32.275  28.196  25.969  1.00  0.00     0.103 A 
ATOM     81  C   UNL A   1      32.604  27.811  24.652  1.00  0.00     0.045 A 
ATOM     82  C   UNL A   1      31.360  27.449  26.717  1.00  0.00     0.130 A 
ATOM     83  C   UNL A   1      32.031  26.658  24.099  1.00  0.00     0.042 A 
ATOM     84  C   UNL A   1      30.762  26.326  26.156  1.00  0.00     0.049 A 
ATOM     85  C   UNL A   1      31.101  25.935  24.860  1.00  0.00     0.030 A 
BRANCH  82  86
ATOM     86  O   UNL A   1      31.033  27.830  27.987  1.00  0.00    -0.507 OA
ATOM     87  H   UNL A   1      30.142  28.022  28.202  1.00  0.00     0.293 HD
ENDBRANCH  82  86
BRANCH  83  88
ATOM     88  N   UNL A   1      32.292  26.142  22.812  1.00  0.00    -0.322 N 
ATOM     89  C   UNL A   1      33.075  25.118  22.331  1.00  0.00     0.258 C 
ATOM     90  H   UNL A   1      31.808  26.621  22.101  1.00  0.00     0.170 HD
ATOM     91  O   UNL A   1      33.278  25.025  21.120  1.00  0.00    -0.269 OA
BRANCH  89  92
ATOM     92  C   UNL A   1      33.625  24.063  23.185  1.00  0.00     0.077 A 
ATOM     93  C   UNL A   1      34.986  24.073  23.501  1.00  0.00     0.018 A 
ATOM     94  C   UNL A   1      32.884  22.966  23.572  1.00  0.00     0.141 A 
ATOM     95  C   UNL A   1      35.525  23.032  24.257  1.00  0.00     0.021 A 
ATOM     96  N   UNL A   1      33.380  21.949  24.316  1.00  0.00    -0.244 NA
ATOM     97  Cl  UNL A   1      31.251  22.742  23.123  1.00  0.00    -0.061 Cl
ATOM     98  C   UNL A   1      34.686  22.002  24.645  1.00  0.00     0.113 A 
ENDBRANCH  89  92
ENDBRANCH  83  88
ENDBRANCH  78  80
ENDBRANCH  77  78
ENDBRANCH  76  77
ENDBRANCH  75  76
ENDBRANCH  74  75
ENDBRANCH  73  74
ENDBRANCH   1  73
TORSDOF 23
ENDMDL
MODEL 3
REMARK VINA RESULT:     -10.2      2.887      8.223
REMARK SMILES O=C(OCCOCCOCCOC(=O)c1cc(NC(=O)c2cccnc2Cl)ccc1O)c1ccc(-c2c3nc(c(-c4cc(S(=O)(=O)[O-])ccc4F)c4ccc([nH]4)c(-c4cc(S(=O)(=O)[O-])ccc4F)c4nc(c(-c5cc(S(=O)(=O)[O-])ccc5F)c5ccc2[nH]5)C=C4)C=C3)cc1
REMARK SMILES IDX 7 1 6 2 5 3 4 4 3 5 2 6 1 7 32 8 33 9 94 10 34 11 93 12
REMARK SMILES IDX 35 13 36 14 37 15 87 16 38 17 92 18 86 19 88 20 39 21 91 22
REMARK SMILES IDX 85 23 84 24 40 26 72 27 52 28 71 29 53 30 56 31 70 32 89 33
REMARK SMILES IDX 54 34 55 35 69 37 90 38 57 39 41 40 42 41 50 42 43 43 49 44
REMARK SMILES IDX 51 45 48 46 44 47 45 48 46 49 47 50 73 51 74 52 82 53 75 54
REMARK SMILES IDX 81 55 83 56 80 57 76 58 77 59 78 60 79 61 58 62 59 63 67 64
REMARK SMILES IDX 60 65 66 66 68 67 65 68 61 69 62 70 63 71 64 72 8 73 9 74
REMARK SMILES IDX 10 75 11 76 12 77 13 78 14 79 15 80 16 81 30 82 17 83 29 84
REMARK SMILES IDX 28 85 31 86 18 88 19 89 20 91 21 92 22 93 26 94 23 95 25 96
REMARK SMILES IDX 27 97 24 98
REMARK H PARENT 88 25 56 36 31 87 18 90
REMARK Flexibility Score: inf
ROOT
ATOM      1  C   UNL A   1      33.646  32.844  28.033  1.00  0.00     0.188 C 
ENDROOT
BRANCH   1   2
ATOM      2  O   UNL A   1      32.912  34.060  28.164  1.00  0.00    -0.376 OA
BRANCH   2   3
ATOM      3  C   UNL A   1      33.593  35.180  28.724  1.00  0.00     0.202 C 
BRANCH   3   4
ATOM      4  C   UNL A   1      32.805  36.084  29.691  1.00  0.00     0.261 C 
BRANCH   4   5
ATOM      5  O   UNL A   1      32.314  35.397  30.849  1.00  0.00    -0.460 OA
BRANCH   5   6
ATOM      6  C   UNL A   1      32.828  35.629  32.091  1.00  0.00     0.338 C 
ATOM      7  O   UNL A   1      32.441  36.599  32.735  1.00  0.00    -0.246 OA
BRANCH   6   8
ATOM      8  C   UNL A   1      34.040  34.856  32.539  1.00  0.00     0.060 A 
ATOM      9  C   UNL A   1      34.002  33.641  33.226  1.00  0.00     0.016 A 
ATOM     10  C   UNL A   1      35.303  35.374  32.215  1.00  0.00     0.016 A 
ATOM     11  C   UNL A   1      35.149  32.909  33.512  1.00  0.00     0.010 A 
ATOM     12  C   UNL A   1      36.474  34.661  32.530  1.00  0.00     0.010 A 
ATOM     13  C   UNL A   1      36.397  33.416  33.178  1.00  0.00    -0.014 A 
BRANCH  13  14
ATOM     14  C   UNL A   1      37.575  32.783  33.812  1.00  0.00     0.031 A 
ATOM     15  C   UNL A   1      38.204  31.658  33.044  1.00  0.00     0.074 A 
ATOM     16  C   UNL A   1      38.167  33.290  34.911  1.00  0.00     0.049 A 
ATOM     17  N   UNL A   1      39.222  30.903  33.348  1.00  0.00    -0.248 NA
ATOM     18  C   UNL A   1      37.587  31.347  31.742  1.00  0.00     0.031 C 
ATOM     19  C   UNL A   1      37.725  34.482  35.640  1.00  0.00     0.029 A 
ATOM     20  N   UNL A   1      39.296  32.894  35.584  1.00  0.00    -0.354 N 
ATOM     21  C   UNL A   1      39.345  30.014  32.286  1.00  0.00     0.074 A 
ATOM     22  C   UNL A   1      38.261  30.277  31.372  1.00  0.00     0.031 C 
ATOM     23  C   UNL A   1      38.590  34.725  36.641  1.00  0.00     0.029 A 
ATOM     24  C   UNL A   1      39.603  33.678  36.674  1.00  0.00     0.049 A 
ATOM     25  H   UNL A   1      39.838  32.118  35.312  1.00  0.00     0.167 HD
ATOM     26  C   UNL A   1      40.300  29.080  32.076  1.00  0.00     0.034 A 
ATOM     27  C   UNL A   1      40.579  33.547  37.598  1.00  0.00     0.034 A 
ATOM     28  C   UNL A   1      41.376  28.850  32.999  1.00  0.00     0.049 A 
ATOM     29  C   UNL A   1      41.554  32.404  37.426  1.00  0.00     0.074 A 
ATOM     30  C   UNL A   1      42.368  27.892  32.951  1.00  0.00     0.029 A 
ATOM     31  N   UNL A   1      41.593  29.601  34.151  1.00  0.00    -0.354 N 
ATOM     32  N   UNL A   1      41.623  31.518  36.455  1.00  0.00    -0.248 NA
ATOM     33  C   UNL A   1      42.585  32.242  38.458  1.00  0.00     0.031 C 
ATOM     34  C   UNL A   1      43.144  28.020  34.108  1.00  0.00     0.029 A 
ATOM     35  C   UNL A   1      42.690  29.111  34.835  1.00  0.00     0.049 A 
ATOM     36  H   UNL A   1      41.045  30.368  34.436  1.00  0.00     0.167 HD
ATOM     37  C   UNL A   1      42.729  30.722  36.741  1.00  0.00     0.074 A 
ATOM     38  C   UNL A   1      43.299  31.240  37.969  1.00  0.00     0.031 C 
ATOM     39  C   UNL A   1      43.232  29.663  36.055  1.00  0.00     0.034 A 
BRANCH  26  40
ATOM     40  C   UNL A   1      40.131  28.215  30.852  1.00  0.00     0.023 A 
ATOM     41  C   UNL A   1      40.814  28.489  29.651  1.00  0.00     0.031 A 
ATOM     42  C   UNL A   1      39.154  27.206  30.840  1.00  0.00     0.131 A 
ATOM     43  C   UNL A   1      40.422  27.849  28.466  1.00  0.00     0.055 A 
ATOM     44  C   UNL A   1      38.842  26.500  29.677  1.00  0.00     0.041 A 
ATOM     45  F   UNL A   1      38.447  26.925  31.946  1.00  0.00    -0.206 F 
ATOM     46  C   UNL A   1      39.460  26.837  28.475  1.00  0.00     0.022 A 
BRANCH  43  47
ATOM     47  S   UNL A   1      41.031  28.505  26.886  1.00  0.00     0.124 S 
ATOM     48  O   UNL A   1      41.285  27.277  26.136  1.00  0.00    -0.237 OA
ATOM     49  O   UNL A   1      39.910  29.314  26.425  1.00  0.00    -0.237 OA
ATOM     50  O   UNL A   1      42.227  29.254  27.266  1.00  0.00    -0.744 OA
ENDBRANCH  43  47
ENDBRANCH  26  40
BRANCH  27  51
ATOM     51  C   UNL A   1      40.663  34.457  38.786  1.00  0.00     0.023 A 
ATOM     52  C   UNL A   1      39.859  34.269  39.923  1.00  0.00     0.031 A 
ATOM     53  C   UNL A   1      41.497  35.593  38.764  1.00  0.00     0.131 A 
ATOM     54  C   UNL A   1      39.866  35.221  40.960  1.00  0.00     0.055 A 
ATOM     55  C   UNL A   1      41.537  36.510  39.819  1.00  0.00     0.041 A 
ATOM     56  F   UNL A   1      42.297  35.832  37.713  1.00  0.00    -0.206 F 
ATOM     57  C   UNL A   1      40.707  36.335  40.919  1.00  0.00     0.022 A 
BRANCH  54  58
ATOM     58  S   UNL A   1      38.688  35.036  42.330  1.00  0.00     0.124 S 
ATOM     59  O   UNL A   1      37.415  34.980  41.621  1.00  0.00    -0.237 OA
ATOM     60  O   UNL A   1      39.141  33.792  42.944  1.00  0.00    -0.237 OA
ATOM     61  O   UNL A   1      38.908  36.239  43.131  1.00  0.00    -0.744 OA
ENDBRANCH  54  58
ENDBRANCH  27  51
BRANCH  39  62
ATOM     62  C   UNL A   1      44.496  29.041  36.588  1.00  0.00     0.023 A 
ATOM     63  C   UNL A   1      44.470  28.021  37.551  1.00  0.00     0.031 A 
ATOM     64  C   UNL A   1      45.746  29.462  36.097  1.00  0.00     0.131 A 
ATOM     65  C   UNL A   1      45.673  27.489  38.033  1.00  0.00     0.055 A 
ATOM     66  C   UNL A   1      46.936  28.880  36.528  1.00  0.00     0.041 A 
ATOM     67  F   UNL A   1      45.825  30.436  35.176  1.00  0.00    -0.206 F 
ATOM     68  C   UNL A   1      46.905  27.894  37.510  1.00  0.00     0.022 A 
BRANCH  65  69
ATOM     69  S   UNL A   1      45.612  26.323  39.419  1.00  0.00     0.124 S 
ATOM     70  O   UNL A   1      45.939  25.060  38.765  1.00  0.00    -0.237 OA
ATOM     71  O   UNL A   1      46.627  26.855  40.322  1.00  0.00    -0.237 OA
ATOM     72  O   UNL A   1      44.235  26.435  39.899  1.00  0.00    -0.744 OA
ENDBRANCH  65  69
ENDBRANCH  39  62
ENDBRANCH  13  14
ENDBRANCH   6   8
ENDBRANCH   5   6
ENDBRANCH   4   5
ENDBRANCH   3   4
ENDBRANCH   2   3
ENDBRANCH   1   2
BRANCH   1  73
ATOM     73  C   UNL A   1      35.167  32.956  28.153  1.00  0.00     0.188 C 
BRANCH  73  74
ATOM     74  O   UNL A   1      35.844  31.818  27.645  1.00  0.00    -0.376 OA
BRANCH  74  75
ATOM     75  C   UNL A   1      35.703  30.617  28.393  1.00  0.00     0.202 C 
BRANCH  75  76
ATOM     76  C   UNL A   1      35.402  29.309  27.645  1.00  0.00     0.261 C 
BRANCH  76  77
ATOM     77  O   UNL A   1      34.030  28.881  27.558  1.00  0.00    -0.460 OA
BRANCH  77  78
ATOM     78  C   UNL A   1      33.348  29.036  26.405  1.00  0.00     0.342 C 
ATOM     79  O   UNL A   1      33.221  30.065  25.753  1.00  0.00    -0.246 OA
BRANCH  78  80
ATOM     80  C   UNL A   1      32.843  27.713  25.979  1.00  0.00     0.103 A 
ATOM     81  C   UNL A   1      33.408  27.067  24.860  1.00  0.00     0.045 A 
ATOM     82  C   UNL A   1      31.777  27.130  26.670  1.00  0.00     0.130 A 
ATOM     83  C   UNL A   1      32.915  25.820  24.452  1.00  0.00     0.042 A 
ATOM     84  C   UNL A   1      31.261  25.911  26.244  1.00  0.00     0.049 A 
ATOM     85  C   UNL A   1      31.832  25.262  25.148  1.00  0.00     0.030 A 
BRANCH  82  86
ATOM     86  O   UNL A   1      31.223  27.763  27.746  1.00  0.00    -0.507 OA
ATOM     87  H   UNL A   1      31.741  28.346  28.264  1.00  0.00     0.293 HD
ENDBRANCH  82  86
BRANCH  83  88
ATOM     88  N   UNL A   1      33.403  25.051  23.375  1.00  0.00    -0.322 N 
ATOM     89  C   UNL A   1      33.974  23.804  23.269  1.00  0.00     0.258 C 
ATOM     90  H   UNL A   1      33.315  25.507  22.507  1.00  0.00     0.170 HD
ATOM     91  O   UNL A   1      34.505  23.465  22.210  1.00  0.00    -0.269 OA
BRANCH  89  92
ATOM     92  C   UNL A   1      33.915  22.804  24.337  1.00  0.00     0.077 A 
ATOM     93  C   UNL A   1      32.916  21.828  24.314  1.00  0.00     0.018 A 
ATOM     94  C   UNL A   1      34.718  22.873  25.458  1.00  0.00     0.141 A 
ATOM     95  C   UNL A   1      32.817  20.918  25.366  1.00  0.00     0.021 A 
ATOM     96  N   UNL A   1      34.651  21.995  26.486  1.00  0.00    -0.244 NA
ATOM     97  Cl  UNL A   1      35.876  24.107  25.696  1.00  0.00    -0.061 Cl
ATOM     98  C   UNL A   1      33.706  21.036  26.420  1.00  0.00     0.113 A 
ENDBRANCH  89  92
ENDBRANCH  83  88
ENDBRANCH  78  80
ENDBRANCH  77  78
ENDBRANCH  76  77
ENDBRANCH  75  76
ENDBRANCH  74  75
ENDBRANCH  73  74
ENDBRANCH   1  73
TORSDOF 23
ENDMDL
