MODEL 1
REMARK VINA RESULT:     -10.3      0.000      0.000
REMARK SMILES COc1ccccc1NC(=O)N[C@@](C)(C(=O)OCCOCCOCCOC(=O)c1ccc(-c2c3nc(c(-c4cc(S(=O)(=O)[O-])ccc4F)c4ccc([nH]4)c(-c4cc(S(=O)(=O)[O-])ccc4F)c4nc(c(-c5cc(S(=O)(=O)[O-])ccc5F)c5ccc2[nH]5)C=C4)C=C3)cc1)C(F)(F)F
REMARK SMILES IDX 21 1 20 2 19 3 18 4 17 5 15 6 16 7 13 8 14 9 12 10 9 11
REMARK SMILES IDX 10 12 11 14 8 16 3 17 4 18 5 19 7 20 6 21 2 22 1 23 92 24
REMARK SMILES IDX 93 25 94 26 95 27 22 28 23 29 24 30 25 31 26 32 27 33 28 34
REMARK SMILES IDX 29 35 30 36 91 37 31 38 90 39 32 40 33 41 34 42 84 43 35 44
REMARK SMILES IDX 89 45 83 46 85 47 36 48 88 49 82 50 81 51 37 53 69 54 49 55
REMARK SMILES IDX 68 56 50 57 53 58 67 59 86 60 51 61 52 62 66 64 87 65 54 66
REMARK SMILES IDX 38 67 39 68 47 69 40 70 46 71 48 72 45 73 41 74 42 75 43 76
REMARK SMILES IDX 44 77 70 78 71 79 79 80 72 81 78 82 80 83 77 84 73 85 74 86
REMARK SMILES IDX 75 87 76 88 55 89 56 90 64 91 57 92 63 93 65 94 62 95 58 96
REMARK SMILES IDX 59 97 60 98 61 99
REMARK H PARENT 9 13 12 15 85 52 53 63
REMARK Flexibility Score: inf
ROOT
ATOM      1  C   UNL A   1      33.131  28.784  25.692  1.00  0.00     0.188 C 
ENDROOT
BRANCH   1   2
ATOM      2  O   UNL A   1      33.822  28.152  24.636  1.00  0.00    -0.376 OA
BRANCH   2   3
ATOM      3  C   UNL A   1      33.762  28.721  23.336  1.00  0.00     0.202 C 
BRANCH   3   4
ATOM      4  C   UNL A   1      33.324  27.952  22.071  1.00  0.00     0.261 C 
BRANCH   4   5
ATOM      5  O   UNL A   1      33.709  26.568  21.978  1.00  0.00    -0.461 OA
BRANCH   5   6
ATOM      6  C   UNL A   1      32.655  25.713  21.858  1.00  0.00     0.341 C 
ATOM      7  O   UNL A   1      31.902  25.740  20.887  1.00  0.00    -0.249 OA
BRANCH   6   8
ATOM      8  C   UNL A   1      32.696  24.528  22.867  1.00  0.00     0.232 C 
ATOM      9  C   UNL A   1      34.194  24.332  23.160  1.00  0.00     0.058 C 
BRANCH   8  10
ATOM     10  N   UNL A   1      32.232  23.199  22.336  1.00  0.00    -0.314 N 
ATOM     11  N   UNL A   1      32.662  21.250  23.705  1.00  0.00    -0.305 N 
ATOM     12  C   UNL A   1      32.336  21.888  22.579  1.00  0.00     0.320 C 
ATOM     13  H   UNL A   1      32.484  20.286  23.610  1.00  0.00     0.172 HD
ATOM     14  O   UNL A   1      31.945  21.167  21.648  1.00  0.00    -0.248 OA
ATOM     15  H   UNL A   1      31.663  23.341  21.545  1.00  0.00     0.166 HD
BRANCH  11  16
ATOM     16  C   UNL A   1      33.179  21.521  24.978  1.00  0.00     0.085 A 
ATOM     17  C   UNL A   1      32.260  21.828  25.996  1.00  0.00     0.142 A 
ATOM     18  C   UNL A   1      32.674  22.413  27.193  1.00  0.00     0.048 A 
ATOM     19  C   UNL A   1      34.033  22.567  27.437  1.00  0.00     0.004 A 
ATOM     20  C   UNL A   1      34.518  21.490  25.311  1.00  0.00     0.030 A 
ATOM     21  C   UNL A   1      34.950  22.036  26.531  1.00  0.00     0.002 A 
BRANCH  17  22
ATOM     22  O   UNL A   1      30.919  21.628  25.796  1.00  0.00    -0.495 OA
ATOM     23  C   UNL A   1      30.159  22.599  26.525  1.00  0.00     0.278 C 
ENDBRANCH  17  22
ENDBRANCH  11  16
ENDBRANCH   8  10
BRANCH   8  24
ATOM     24  C   UNL A   1      31.885  25.171  24.019  1.00  0.00     0.422 C 
ATOM     25  F   UNL A   1      30.829  24.410  24.380  1.00  0.00    -0.168 F 
ATOM     26  F   UNL A   1      32.665  25.409  25.095  1.00  0.00    -0.168 F 
ATOM     27  F   UNL A   1      31.345  26.381  23.723  1.00  0.00    -0.168 F 
ENDBRANCH   8  24
ENDBRANCH   6   8
ENDBRANCH   5   6
ENDBRANCH   4   5
ENDBRANCH   3   4
ENDBRANCH   2   3
ENDBRANCH   1   2
BRANCH   1  28
ATOM     28  C   UNL A   1      31.663  29.141  25.394  1.00  0.00     0.188 C 
BRANCH  28  29
ATOM     29  O   UNL A   1      31.317  30.396  24.833  1.00  0.00    -0.376 OA
BRANCH  29  30
ATOM     30  C   UNL A   1      30.645  31.338  25.655  1.00  0.00     0.202 C 
BRANCH  30  31
ATOM     31  C   UNL A   1      31.404  32.378  26.504  1.00  0.00     0.261 C 
BRANCH  31  32
ATOM     32  O   UNL A   1      32.516  31.901  27.278  1.00  0.00    -0.460 OA
BRANCH  32  33
ATOM     33  C   UNL A   1      33.427  32.847  27.621  1.00  0.00     0.338 C 
ATOM     34  O   UNL A   1      33.219  34.047  27.749  1.00  0.00    -0.246 OA
BRANCH  33  35
ATOM     35  C   UNL A   1      34.692  32.203  28.037  1.00  0.00     0.060 A 
ATOM     36  C   UNL A   1      34.693  30.823  28.290  1.00  0.00     0.016 A 
ATOM     37  C   UNL A   1      35.850  32.953  28.241  1.00  0.00     0.016 A 
ATOM     38  C   UNL A   1      35.846  30.197  28.759  1.00  0.00     0.010 A 
ATOM     39  C   UNL A   1      36.997  32.324  28.745  1.00  0.00     0.010 A 
ATOM     40  C   UNL A   1      36.994  30.946  29.030  1.00  0.00    -0.014 A 
BRANCH  40  41
ATOM     41  C   UNL A   1      38.101  30.322  29.800  1.00  0.00     0.031 A 
ATOM     42  C   UNL A   1      38.289  30.726  31.235  1.00  0.00     0.074 A 
ATOM     43  C   UNL A   1      38.911  29.397  29.253  1.00  0.00     0.049 A 
ATOM     44  N   UNL A   1      39.226  30.387  32.082  1.00  0.00    -0.248 NA
ATOM     45  C   UNL A   1      37.284  31.648  31.782  1.00  0.00     0.031 C 
ATOM     46  C   UNL A   1      38.795  28.877  27.893  1.00  0.00     0.029 A 
ATOM     47  N   UNL A   1      39.997  28.739  29.777  1.00  0.00    -0.354 N 
ATOM     48  C   UNL A   1      38.944  31.079  33.255  1.00  0.00     0.074 A 
ATOM     49  C   UNL A   1      37.758  31.870  32.996  1.00  0.00     0.031 C 
ATOM     50  C   UNL A   1      39.787  27.994  27.683  1.00  0.00     0.029 A 
ATOM     51  C   UNL A   1      40.630  27.916  28.876  1.00  0.00     0.049 A 
ATOM     52  H   UNL A   1      40.295  28.848  30.709  1.00  0.00     0.167 HD
ATOM     53  C   UNL A   1      39.617  31.063  34.433  1.00  0.00     0.034 A 
ATOM     54  C   UNL A   1      41.775  27.208  28.986  1.00  0.00     0.034 A 
ATOM     55  C   UNL A   1      40.807  30.281  34.667  1.00  0.00     0.049 A 
ATOM     56  C   UNL A   1      42.552  27.260  30.282  1.00  0.00     0.074 A 
ATOM     57  C   UNL A   1      41.551  30.173  35.830  1.00  0.00     0.029 A 
ATOM     58  N   UNL A   1      41.444  29.490  33.718  1.00  0.00    -0.354 N 
ATOM     59  N   UNL A   1      42.277  27.913  31.388  1.00  0.00    -0.248 NA
ATOM     60  C   UNL A   1      43.795  26.479  30.341  1.00  0.00     0.031 C 
ATOM     61  C   UNL A   1      42.684  29.399  35.557  1.00  0.00     0.029 A 
ATOM     62  C   UNL A   1      42.597  28.933  34.255  1.00  0.00     0.049 A 
ATOM     63  H   UNL A   1      41.123  29.345  32.799  1.00  0.00     0.167 HD
ATOM     64  C   UNL A   1      43.306  27.608  32.279  1.00  0.00     0.074 A 
ATOM     65  C   UNL A   1      44.192  26.695  31.588  1.00  0.00     0.031 C 
ATOM     66  C   UNL A   1      43.495  28.041  33.554  1.00  0.00     0.034 A 
BRANCH  53  67
ATOM     67  C   UNL A   1      39.121  31.989  35.521  1.00  0.00     0.023 A 
ATOM     68  C   UNL A   1      39.514  33.337  35.594  1.00  0.00     0.031 A 
ATOM     69  C   UNL A   1      38.290  31.492  36.542  1.00  0.00     0.131 A 
ATOM     70  C   UNL A   1      39.157  34.110  36.709  1.00  0.00     0.055 A 
ATOM     71  C   UNL A   1      37.858  32.295  37.599  1.00  0.00     0.041 A 
ATOM     72  F   UNL A   1      37.901  30.207  36.543  1.00  0.00    -0.206 F 
ATOM     73  C   UNL A   1      38.309  33.606  37.699  1.00  0.00     0.022 A 
BRANCH  70  74
ATOM     74  S   UNL A   1      39.968  35.717  36.944  1.00  0.00     0.124 S 
ATOM     75  O   UNL A   1      39.271  36.231  38.120  1.00  0.00    -0.237 OA
ATOM     76  O   UNL A   1      41.362  35.339  37.141  1.00  0.00    -0.237 OA
ATOM     77  O   UNL A   1      39.683  36.428  35.700  1.00  0.00    -0.744 OA
ENDBRANCH  70  74
ENDBRANCH  53  67
BRANCH  54  78
ATOM     78  C   UNL A   1      42.296  26.443  27.815  1.00  0.00     0.023 A 
ATOM     79  C   UNL A   1      41.974  25.091  27.615  1.00  0.00     0.031 A 
ATOM     80  C   UNL A   1      43.158  27.057  26.887  1.00  0.00     0.131 A 
ATOM     81  C   UNL A   1      42.528  24.392  26.529  1.00  0.00     0.055 A 
ATOM     82  C   UNL A   1      43.661  26.375  25.779  1.00  0.00     0.041 A 
ATOM     83  F   UNL A   1      43.509  28.344  27.036  1.00  0.00    -0.206 F 
ATOM     84  C   UNL A   1      43.354  25.031  25.600  1.00  0.00     0.022 A 
BRANCH  81  85
ATOM     85  S   UNL A   1      42.207  22.613  26.377  1.00  0.00     0.124 S 
ATOM     86  O   UNL A   1      43.013  22.071  27.465  1.00  0.00    -0.237 OA
ATOM     87  O   UNL A   1      40.760  22.550  26.556  1.00  0.00    -0.237 OA
ATOM     88  O   UNL A   1      42.678  22.296  25.030  1.00  0.00    -0.744 OA
ENDBRANCH  81  85
ENDBRANCH  54  78
BRANCH  66  89
ATOM     89  C   UNL A   1      44.695  27.499  34.302  1.00  0.00     0.023 A 
ATOM     90  C   UNL A   1      44.637  26.302  35.041  1.00  0.00     0.031 A 
ATOM     91  C   UNL A   1      45.918  28.196  34.278  1.00  0.00     0.131 A 
ATOM     92  C   UNL A   1      45.758  25.874  35.771  1.00  0.00     0.055 A 
ATOM     93  C   UNL A   1      47.049  27.727  34.948  1.00  0.00     0.041 A 
ATOM     94  F   UNL A   1      46.035  29.347  33.597  1.00  0.00    -0.206 F 
ATOM     95  C   UNL A   1      46.970  26.568  35.711  1.00  0.00     0.022 A 
BRANCH  92  96
ATOM     96  S   UNL A   1      45.584  24.457  36.891  1.00  0.00     0.124 S 
ATOM     97  O   UNL A   1      45.353  23.360  35.957  1.00  0.00    -0.237 OA
ATOM     98  O   UNL A   1      46.868  24.447  37.583  1.00  0.00    -0.237 OA
ATOM     99  O   UNL A   1      44.435  24.815  37.721  1.00  0.00    -0.744 OA
ENDBRANCH  92  96
ENDBRANCH  66  89
ENDBRANCH  40  41
ENDBRANCH  33  35
ENDBRANCH  32  33
ENDBRANCH  31  32
ENDBRANCH  30  31
ENDBRANCH  29  30
ENDBRANCH  28  29
ENDBRANCH   1  28
TORSDOF 24
ENDMDL
MODEL 2
REMARK VINA RESULT:     -10.2      2.207      7.759
REMARK SMILES COc1ccccc1NC(=O)N[C@@](C)(C(=O)OCCOCCOCCOC(=O)c1ccc(-c2c3nc(c(-c4cc(S(=O)(=O)[O-])ccc4F)c4ccc([nH]4)c(-c4cc(S(=O)(=O)[O-])ccc4F)c4nc(c(-c5cc(S(=O)(=O)[O-])ccc5F)c5ccc2[nH]5)C=C4)C=C3)cc1)C(F)(F)F
REMARK SMILES IDX 21 1 20 2 19 3 18 4 17 5 15 6 16 7 13 8 14 9 12 10 9 11
REMARK SMILES IDX 10 12 11 14 8 16 3 17 4 18 5 19 7 20 6 21 2 22 1 23 92 24
REMARK SMILES IDX 93 25 94 26 95 27 22 28 23 29 24 30 25 31 26 32 27 33 28 34
REMARK SMILES IDX 29 35 30 36 91 37 31 38 90 39 32 40 33 41 34 42 84 43 35 44
REMARK SMILES IDX 89 45 83 46 85 47 36 48 88 49 82 50 81 51 37 53 69 54 49 55
REMARK SMILES IDX 68 56 50 57 53 58 67 59 86 60 51 61 52 62 66 64 87 65 54 66
REMARK SMILES IDX 38 67 39 68 47 69 40 70 46 71 48 72 45 73 41 74 42 75 43 76
REMARK SMILES IDX 44 77 70 78 71 79 79 80 72 81 78 82 80 83 77 84 73 85 74 86
REMARK SMILES IDX 75 87 76 88 55 89 56 90 64 91 57 92 63 93 65 94 62 95 58 96
REMARK SMILES IDX 59 97 60 98 61 99
REMARK H PARENT 9 13 12 15 85 52 53 63
REMARK Flexibility Score: inf
ROOT
ATOM      1  C   UNL A   1      28.434  30.233  22.775  1.00  0.00     0.188 C 
ENDROOT
BRANCH   1   2
ATOM      2  O   UNL A   1      29.005  29.192  22.012  1.00  0.00    -0.376 OA
BRANCH   2   3
ATOM      3  C   UNL A   1      30.083  28.448  22.562  1.00  0.00     0.202 C 
BRANCH   3   4
ATOM      4  C   UNL A   1      30.122  27.921  24.013  1.00  0.00     0.261 C 
BRANCH   4   5
ATOM      5  O   UNL A   1      31.418  27.781  24.625  1.00  0.00    -0.461 OA
BRANCH   5   6
ATOM      6  C   UNL A   1      31.488  26.768  25.534  1.00  0.00     0.341 C 
ATOM      7  O   UNL A   1      30.911  26.826  26.618  1.00  0.00    -0.249 OA
BRANCH   6   8
ATOM      8  C   UNL A   1      32.070  25.448  24.951  1.00  0.00     0.232 C 
ATOM      9  C   UNL A   1      33.235  25.099  25.893  1.00  0.00     0.058 C 
BRANCH   8  10
ATOM     10  N   UNL A   1      32.698  25.554  23.587  1.00  0.00    -0.314 N 
ATOM     11  N   UNL A   1      33.764  23.569  22.703  1.00  0.00    -0.305 N 
ATOM     12  C   UNL A   1      33.490  24.874  22.752  1.00  0.00     0.320 C 
ATOM     13  H   UNL A   1      34.245  23.355  21.871  1.00  0.00     0.172 HD
ATOM     14  O   UNL A   1      33.928  25.550  21.807  1.00  0.00    -0.248 OA
ATOM     15  H   UNL A   1      32.441  26.409  23.173  1.00  0.00     0.166 HD
BRANCH  11  16
ATOM     16  C   UNL A   1      33.583  22.409  23.465  1.00  0.00     0.085 A 
ATOM     17  C   UNL A   1      34.633  22.022  24.316  1.00  0.00     0.142 A 
ATOM     18  C   UNL A   1      34.688  20.741  24.865  1.00  0.00     0.048 A 
ATOM     19  C   UNL A   1      33.614  19.880  24.680  1.00  0.00     0.004 A 
ATOM     20  C   UNL A   1      32.444  21.627  23.459  1.00  0.00     0.030 A 
ATOM     21  C   UNL A   1      32.467  20.351  24.044  1.00  0.00     0.002 A 
BRANCH  17  22
ATOM     22  O   UNL A   1      35.673  22.882  24.557  1.00  0.00    -0.495 OA
ATOM     23  C   UNL A   1      36.497  22.378  25.615  1.00  0.00     0.278 C 
ENDBRANCH  17  22
ENDBRANCH  11  16
ENDBRANCH   8  10
BRANCH   8  24
ATOM     24  C   UNL A   1      30.816  24.551  25.103  1.00  0.00     0.422 C 
ATOM     25  F   UNL A   1      30.289  24.212  23.907  1.00  0.00    -0.168 F 
ATOM     26  F   UNL A   1      31.094  23.436  25.812  1.00  0.00    -0.168 F 
ATOM     27  F   UNL A   1      29.787  25.127  25.776  1.00  0.00    -0.168 F 
ENDBRANCH   8  24
ENDBRANCH   6   8
ENDBRANCH   5   6
ENDBRANCH   4   5
ENDBRANCH   3   4
ENDBRANCH   2   3
ENDBRANCH   1   2
BRANCH   1  28
ATOM     28  C   UNL A   1      29.410  31.347  23.198  1.00  0.00     0.188 C 
BRANCH  28  29
ATOM     29  O   UNL A   1      29.522  31.742  24.555  1.00  0.00    -0.376 OA
BRANCH  29  30
ATOM     30  C   UNL A   1      30.605  31.231  25.317  1.00  0.00     0.202 C 
BRANCH  30  31
ATOM     31  C   UNL A   1      31.257  32.036  26.460  1.00  0.00     0.261 C 
BRANCH  31  32
ATOM     32  O   UNL A   1      32.644  31.778  26.730  1.00  0.00    -0.460 OA
BRANCH  32  33
ATOM     33  C   UNL A   1      33.267  32.716  27.490  1.00  0.00     0.338 C 
ATOM     34  O   UNL A   1      32.776  33.756  27.910  1.00  0.00    -0.246 OA
BRANCH  33  35
ATOM     35  C   UNL A   1      34.584  32.211  27.934  1.00  0.00     0.060 A 
ATOM     36  C   UNL A   1      34.697  30.866  28.313  1.00  0.00     0.016 A 
ATOM     37  C   UNL A   1      35.684  33.063  28.040  1.00  0.00     0.016 A 
ATOM     38  C   UNL A   1      35.903  30.376  28.811  1.00  0.00     0.010 A 
ATOM     39  C   UNL A   1      36.884  32.573  28.574  1.00  0.00     0.010 A 
ATOM     40  C   UNL A   1      36.993  31.232  28.984  1.00  0.00    -0.014 A 
BRANCH  40  41
ATOM     41  C   UNL A   1      38.158  30.770  29.782  1.00  0.00     0.031 A 
ATOM     42  C   UNL A   1      39.095  29.769  29.165  1.00  0.00     0.074 A 
ATOM     43  C   UNL A   1      38.403  31.243  31.018  1.00  0.00     0.049 A 
ATOM     44  N   UNL A   1      40.126  29.157  29.688  1.00  0.00    -0.248 NA
ATOM     45  C   UNL A   1      38.817  29.403  27.769  1.00  0.00     0.031 C 
ATOM     46  C   UNL A   1      37.608  32.258  31.702  1.00  0.00     0.029 A 
ATOM     47  N   UNL A   1      39.390  30.920  31.918  1.00  0.00    -0.354 N 
ATOM     48  C   UNL A   1      40.603  28.308  28.695  1.00  0.00     0.074 A 
ATOM     49  C   UNL A   1      39.733  28.475  27.550  1.00  0.00     0.031 C 
ATOM     50  C   UNL A   1      38.127  32.461  32.926  1.00  0.00     0.029 A 
ATOM     51  C   UNL A   1      39.264  31.563  33.127  1.00  0.00     0.049 A 
ATOM     52  H   UNL A   1      40.117  30.288  31.716  1.00  0.00     0.167 HD
ATOM     53  C   UNL A   1      41.664  27.462  28.740  1.00  0.00     0.034 A 
ATOM     54  C   UNL A   1      39.961  31.420  34.274  1.00  0.00     0.034 A 
ATOM     55  C   UNL A   1      42.511  27.298  29.897  1.00  0.00     0.049 A 
ATOM     56  C   UNL A   1      41.094  30.419  34.330  1.00  0.00     0.074 A 
ATOM     57  C   UNL A   1      43.624  26.487  30.040  1.00  0.00     0.029 A 
ATOM     58  N   UNL A   1      42.329  27.934  31.119  1.00  0.00    -0.354 N 
ATOM     59  N   UNL A   1      41.543  29.623  33.387  1.00  0.00    -0.248 NA
ATOM     60  C   UNL A   1      41.810  30.299  35.607  1.00  0.00     0.031 C 
ATOM     61  C   UNL A   1      44.054  26.561  31.370  1.00  0.00     0.029 A 
ATOM     62  C   UNL A   1      43.278  27.497  32.034  1.00  0.00     0.049 A 
ATOM     63  H   UNL A   1      41.629  28.600  31.309  1.00  0.00     0.167 HD
ATOM     64  C   UNL A   1      42.605  28.919  33.954  1.00  0.00     0.074 A 
ATOM     65  C   UNL A   1      42.741  29.403  35.312  1.00  0.00     0.031 C 
ATOM     66  C   UNL A   1      43.397  27.964  33.398  1.00  0.00     0.034 A 
BRANCH  53  67
ATOM     67  C   UNL A   1      41.902  26.593  27.527  1.00  0.00     0.023 A 
ATOM     68  C   UNL A   1      41.427  25.271  27.447  1.00  0.00     0.031 A 
ATOM     69  C   UNL A   1      42.676  27.076  26.456  1.00  0.00     0.131 A 
ATOM     70  C   UNL A   1      41.810  24.454  26.373  1.00  0.00     0.055 A 
ATOM     71  C   UNL A   1      42.972  26.288  25.343  1.00  0.00     0.041 A 
ATOM     72  F   UNL A   1      43.180  28.321  26.483  1.00  0.00    -0.206 F 
ATOM     73  C   UNL A   1      42.557  24.961  25.307  1.00  0.00     0.022 A 
BRANCH  70  74
ATOM     74  S   UNL A   1      41.480  22.672  26.480  1.00  0.00     0.124 S 
ATOM     75  O   UNL A   1      40.055  22.617  26.163  1.00  0.00    -0.237 OA
ATOM     76  O   UNL A   1      42.382  22.125  25.475  1.00  0.00    -0.237 OA
ATOM     77  O   UNL A   1      41.815  22.346  27.865  1.00  0.00    -0.744 OA
ENDBRANCH  70  74
ENDBRANCH  53  67
BRANCH  54  78
ATOM     78  C   UNL A   1      39.568  32.194  35.489  1.00  0.00     0.023 A 
ATOM     79  C   UNL A   1      38.733  31.644  36.475  1.00  0.00     0.031 A 
ATOM     80  C   UNL A   1      40.008  33.520  35.664  1.00  0.00     0.131 A 
ATOM     81  C   UNL A   1      38.343  32.424  37.577  1.00  0.00     0.055 A 
ATOM     82  C   UNL A   1      39.664  34.271  36.788  1.00  0.00     0.041 A 
ATOM     83  F   UNL A   1      40.798  34.099  34.747  1.00  0.00    -0.206 F 
ATOM     84  C   UNL A   1      38.819  33.727  37.749  1.00  0.00     0.022 A 
BRANCH  81  85
ATOM     85  S   UNL A   1      37.151  31.736  38.759  1.00  0.00     0.124 S 
ATOM     86  O   UNL A   1      36.011  32.628  38.585  1.00  0.00    -0.237 OA
ATOM     87  O   UNL A   1      36.984  30.374  38.262  1.00  0.00    -0.237 OA
ATOM     88  O   UNL A   1      37.843  31.846  40.042  1.00  0.00    -0.744 OA
ENDBRANCH  81  85
ENDBRANCH  54  78
BRANCH  66  89
ATOM     89  C   UNL A   1      44.513  27.401  34.253  1.00  0.00     0.023 A 
ATOM     90  C   UNL A   1      45.749  28.059  34.396  1.00  0.00     0.031 A 
ATOM     91  C   UNL A   1      44.337  26.182  34.933  1.00  0.00     0.131 A 
ATOM     92  C   UNL A   1      46.777  27.466  35.148  1.00  0.00     0.055 A 
ATOM     93  C   UNL A   1      45.338  25.632  35.737  1.00  0.00     0.041 A 
ATOM     94  F   UNL A   1      43.183  25.502  34.832  1.00  0.00    -0.206 F 
ATOM     95  C   UNL A   1      46.571  26.267  35.836  1.00  0.00     0.022 A 
BRANCH  92  96
ATOM     96  S   UNL A   1      48.425  28.222  35.125  1.00  0.00     0.124 S 
ATOM     97  O   UNL A   1      48.330  29.188  36.215  1.00  0.00    -0.237 OA
ATOM     98  O   UNL A   1      49.298  27.077  35.363  1.00  0.00    -0.237 OA
ATOM     99  O   UNL A   1      48.518  28.805  33.788  1.00  0.00    -0.744 OA
ENDBRANCH  92  96
ENDBRANCH  66  89
ENDBRANCH  40  41
ENDBRANCH  33  35
ENDBRANCH  32  33
ENDBRANCH  31  32
ENDBRANCH  30  31
ENDBRANCH  29  30
ENDBRANCH  28  29
ENDBRANCH   1  28
TORSDOF 24
ENDMDL
MODEL 3
REMARK VINA RESULT:     -10.1      2.925      4.475
REMARK SMILES COc1ccccc1NC(=O)N[C@@](C)(C(=O)OCCOCCOCCOC(=O)c1ccc(-c2c3nc(c(-c4cc(S(=O)(=O)[O-])ccc4F)c4ccc([nH]4)c(-c4cc(S(=O)(=O)[O-])ccc4F)c4nc(c(-c5cc(S(=O)(=O)[O-])ccc5F)c5ccc2[nH]5)C=C4)C=C3)cc1)C(F)(F)F
REMARK SMILES IDX 21 1 20 2 19 3 18 4 17 5 15 6 16 7 13 8 14 9 12 10 9 11
REMARK SMILES IDX 10 12 11 14 8 16 3 17 4 18 5 19 7 20 6 21 2 22 1 23 92 24
REMARK SMILES IDX 93 25 94 26 95 27 22 28 23 29 24 30 25 31 26 32 27 33 28 34
REMARK SMILES IDX 29 35 30 36 91 37 31 38 90 39 32 40 33 41 34 42 84 43 35 44
REMARK SMILES IDX 89 45 83 46 85 47 36 48 88 49 82 50 81 51 37 53 69 54 49 55
REMARK SMILES IDX 68 56 50 57 53 58 67 59 86 60 51 61 52 62 66 64 87 65 54 66
REMARK SMILES IDX 38 67 39 68 47 69 40 70 46 71 48 72 45 73 41 74 42 75 43 76
REMARK SMILES IDX 44 77 70 78 71 79 79 80 72 81 78 82 80 83 77 84 73 85 74 86
REMARK SMILES IDX 75 87 76 88 55 89 56 90 64 91 57 92 63 93 65 94 62 95 58 96
REMARK SMILES IDX 59 97 60 98 61 99
REMARK H PARENT 9 13 12 15 85 52 53 63
REMARK Flexibility Score: inf
ROOT
ATOM      1  C   UNL A   1      34.975  31.367  27.785  1.00  0.00     0.188 C 
ENDROOT
BRANCH   1   2
ATOM      2  O   UNL A   1      33.649  31.518  27.327  1.00  0.00    -0.376 OA
BRANCH   2   3
ATOM      3  C   UNL A   1      32.820  30.369  27.228  1.00  0.00     0.202 C 
BRANCH   3   4
ATOM      4  C   UNL A   1      32.427  29.693  25.895  1.00  0.00     0.261 C 
BRANCH   4   5
ATOM      5  O   UNL A   1      31.373  28.715  25.942  1.00  0.00    -0.461 OA
BRANCH   5   6
ATOM      6  C   UNL A   1      31.634  27.668  26.774  1.00  0.00     0.341 C 
ATOM      7  O   UNL A   1      31.572  27.778  27.997  1.00  0.00    -0.249 OA
BRANCH   6   8
ATOM      8  C   UNL A   1      31.687  26.292  26.048  1.00  0.00     0.232 C 
ATOM      9  C   UNL A   1      30.946  26.535  24.722  1.00  0.00     0.058 C 
BRANCH   8  10
ATOM     10  N   UNL A   1      30.930  25.172  26.710  1.00  0.00    -0.314 N 
ATOM     11  N   UNL A   1      31.122  22.972  25.721  1.00  0.00    -0.305 N 
ATOM     12  C   UNL A   1      30.580  23.897  26.516  1.00  0.00     0.320 C 
ATOM     13  H   UNL A   1      30.746  22.085  25.929  1.00  0.00     0.172 HD
ATOM     14  O   UNL A   1      29.699  23.490  27.290  1.00  0.00    -0.248 OA
ATOM     15  H   UNL A   1      30.573  25.482  27.574  1.00  0.00     0.166 HD
BRANCH  11  16
ATOM     16  C   UNL A   1      32.057  22.867  24.685  1.00  0.00     0.085 A 
ATOM     17  C   UNL A   1      33.232  22.139  24.944  1.00  0.00     0.142 A 
ATOM     18  C   UNL A   1      34.345  22.239  24.111  1.00  0.00     0.048 A 
ATOM     19  C   UNL A   1      34.244  22.962  22.929  1.00  0.00     0.004 A 
ATOM     20  C   UNL A   1      31.905  23.407  23.423  1.00  0.00     0.030 A 
ATOM     21  C   UNL A   1      33.005  23.478  22.553  1.00  0.00     0.002 A 
BRANCH  17  22
ATOM     22  O   UNL A   1      33.329  21.372  26.077  1.00  0.00    -0.495 OA
ATOM     23  C   UNL A   1      34.480  21.756  26.837  1.00  0.00     0.278 C 
ENDBRANCH  17  22
ENDBRANCH  11  16
ENDBRANCH   8  10
BRANCH   8  24
ATOM     24  C   UNL A   1      33.224  26.152  25.921  1.00  0.00     0.422 C 
ATOM     25  F   UNL A   1      33.875  27.190  26.490  1.00  0.00    -0.168 F 
ATOM     26  F   UNL A   1      33.656  24.992  26.459  1.00  0.00    -0.168 F 
ATOM     27  F   UNL A   1      33.685  26.121  24.645  1.00  0.00    -0.168 F 
ENDBRANCH   8  24
ENDBRANCH   6   8
ENDBRANCH   5   6
ENDBRANCH   4   5
ENDBRANCH   3   4
ENDBRANCH   2   3
ENDBRANCH   1   2
BRANCH   1  28
ATOM     28  C   UNL A   1      35.584  32.614  28.453  1.00  0.00     0.188 C 
BRANCH  28  29
ATOM     29  O   UNL A   1      34.790  33.473  29.255  1.00  0.00    -0.376 OA
BRANCH  29  30
ATOM     30  C   UNL A   1      34.348  34.699  28.693  1.00  0.00     0.202 C 
BRANCH  30  31
ATOM     31  C   UNL A   1      33.156  35.487  29.274  1.00  0.00     0.261 C 
BRANCH  31  32
ATOM     32  O   UNL A   1      32.571  34.985  30.486  1.00  0.00    -0.460 OA
BRANCH  32  33
ATOM     33  C   UNL A   1      32.908  35.663  31.613  1.00  0.00     0.338 C 
ATOM     34  O   UNL A   1      32.303  36.608  32.103  1.00  0.00    -0.246 OA
BRANCH  33  35
ATOM     35  C   UNL A   1      34.012  34.968  32.309  1.00  0.00     0.060 A 
ATOM     36  C   UNL A   1      35.308  35.496  32.211  1.00  0.00     0.016 A 
ATOM     37  C   UNL A   1      33.792  33.774  32.997  1.00  0.00     0.016 A 
ATOM     38  C   UNL A   1      36.384  34.825  32.787  1.00  0.00     0.010 A 
ATOM     39  C   UNL A   1      34.883  33.086  33.546  1.00  0.00     0.010 A 
ATOM     40  C   UNL A   1      36.189  33.596  33.423  1.00  0.00    -0.014 A 
BRANCH  40  41
ATOM     41  C   UNL A   1      37.370  32.761  33.766  1.00  0.00     0.031 A 
ATOM     42  C   UNL A   1      38.133  33.083  35.021  1.00  0.00     0.074 A 
ATOM     43  C   UNL A   1      37.749  31.721  33.001  1.00  0.00     0.049 A 
ATOM     44  N   UNL A   1      39.236  32.557  35.485  1.00  0.00    -0.248 NA
ATOM     45  C   UNL A   1      37.575  34.156  35.856  1.00  0.00     0.031 C 
ATOM     46  C   UNL A   1      37.059  31.270  31.796  1.00  0.00     0.029 A 
ATOM     47  N   UNL A   1      38.815  30.864  33.123  1.00  0.00    -0.354 N 
ATOM     48  C   UNL A   1      39.525  33.256  36.653  1.00  0.00     0.074 A 
ATOM     49  C   UNL A   1      38.487  34.254  36.809  1.00  0.00     0.031 C 
ATOM     50  C   UNL A   1      37.734  30.228  31.277  1.00  0.00     0.029 A 
ATOM     51  C   UNL A   1      38.922  29.966  32.088  1.00  0.00     0.049 A 
ATOM     52  H   UNL A   1      39.444  30.891  33.881  1.00  0.00     0.167 HD
ATOM     53  C   UNL A   1      40.563  33.085  37.509  1.00  0.00     0.034 A 
ATOM     54  C   UNL A   1      39.884  29.061  31.806  1.00  0.00     0.034 A 
ATOM     55  C   UNL A   1      41.598  32.095  37.330  1.00  0.00     0.049 A 
ATOM     56  C   UNL A   1      41.073  28.934  32.732  1.00  0.00     0.074 A 
ATOM     57  C   UNL A   1      42.680  31.822  38.149  1.00  0.00     0.029 A 
ATOM     58  N   UNL A   1      41.697  31.229  36.246  1.00  0.00    -0.354 N 
ATOM     59  N   UNL A   1      41.337  29.594  33.836  1.00  0.00    -0.248 NA
ATOM     60  C   UNL A   1      42.093  27.941  32.369  1.00  0.00     0.031 C 
ATOM     61  C   UNL A   1      43.480  30.864  37.517  1.00  0.00     0.029 A 
ATOM     62  C   UNL A   1      42.847  30.458  36.352  1.00  0.00     0.049 A 
ATOM     63  H   UNL A   1      41.046  31.170  35.511  1.00  0.00     0.167 HD
ATOM     64  C   UNL A   1      42.546  29.085  34.308  1.00  0.00     0.074 A 
ATOM     65  C   UNL A   1      42.945  28.046  33.380  1.00  0.00     0.031 C 
ATOM     66  C   UNL A   1      43.257  29.439  35.410  1.00  0.00     0.034 A 
BRANCH  53  67
ATOM     67  C   UNL A   1      40.668  34.054  38.665  1.00  0.00     0.023 A 
ATOM     68  C   UNL A   1      40.035  33.819  39.899  1.00  0.00     0.031 A 
ATOM     69  C   UNL A   1      41.362  35.267  38.506  1.00  0.00     0.131 A 
ATOM     70  C   UNL A   1      40.027  34.820  40.883  1.00  0.00     0.055 A 
ATOM     71  C   UNL A   1      41.433  36.218  39.525  1.00  0.00     0.041 A 
ATOM     72  F   UNL A   1      41.967  35.562  37.343  1.00  0.00    -0.206 F 
ATOM     73  C   UNL A   1      40.745  36.007  40.715  1.00  0.00     0.022 A 
BRANCH  70  74
ATOM     74  S   UNL A   1      38.913  34.628  42.303  1.00  0.00     0.124 S 
ATOM     75  O   UNL A   1      37.974  35.728  42.092  1.00  0.00    -0.237 OA
ATOM     76  O   UNL A   1      38.381  33.286  42.105  1.00  0.00    -0.237 OA
ATOM     77  O   UNL A   1      39.797  34.788  43.455  1.00  0.00    -0.744 OA
ENDBRANCH  70  74
ENDBRANCH  53  67
BRANCH  54  78
ATOM     78  C   UNL A   1      39.801  28.248  30.557  1.00  0.00     0.023 A 
ATOM     79  C   UNL A   1      40.464  28.634  29.380  1.00  0.00     0.031 A 
ATOM     80  C   UNL A   1      39.025  27.074  30.519  1.00  0.00     0.131 A 
ATOM     81  C   UNL A   1      40.317  27.869  28.211  1.00  0.00     0.055 A 
ATOM     82  C   UNL A   1      38.928  26.287  29.371  1.00  0.00     0.041 A 
ATOM     83  F   UNL A   1      38.362  26.664  31.611  1.00  0.00    -0.206 F 
ATOM     84  C   UNL A   1      39.570  26.688  28.204  1.00  0.00     0.022 A 
BRANCH  81  85
ATOM     85  S   UNL A   1      41.068  28.469  26.672  1.00  0.00     0.124 S 
ATOM     86  O   UNL A   1      41.264  27.229  25.933  1.00  0.00    -0.237 OA
ATOM     87  O   UNL A   1      40.034  29.365  26.161  1.00  0.00    -0.237 OA
ATOM     88  O   UNL A   1      42.290  29.130  27.124  1.00  0.00    -0.744 OA
ENDBRANCH  81  85
ENDBRANCH  54  78
BRANCH  66  89
ATOM     89  C   UNL A   1      44.529  28.669  35.697  1.00  0.00     0.023 A 
ATOM     90  C   UNL A   1      44.527  27.470  36.434  1.00  0.00     0.031 A 
ATOM     91  C   UNL A   1      45.766  29.147  35.226  1.00  0.00     0.131 A 
ATOM     92  C   UNL A   1      45.740  26.826  36.729  1.00  0.00     0.055 A 
ATOM     93  C   UNL A   1      46.961  28.464  35.461  1.00  0.00     0.041 A 
ATOM     94  F   UNL A   1      45.836  30.288  34.522  1.00  0.00    -0.206 F 
ATOM     95  C   UNL A   1      46.954  27.304  36.228  1.00  0.00     0.022 A 
BRANCH  92  96
ATOM     96  S   UNL A   1      45.726  25.415  37.868  1.00  0.00     0.124 S 
ATOM     97  O   UNL A   1      44.359  25.451  38.380  1.00  0.00    -0.237 OA
ATOM     98  O   UNL A   1      46.048  24.298  36.986  1.00  0.00    -0.237 OA
ATOM     99  O   UNL A   1      46.761  25.751  38.844  1.00  0.00    -0.744 OA
ENDBRANCH  92  96
ENDBRANCH  66  89
ENDBRANCH  40  41
ENDBRANCH  33  35
ENDBRANCH  32  33
ENDBRANCH  31  32
ENDBRANCH  30  31
ENDBRANCH  29  30
ENDBRANCH  28  29
ENDBRANCH   1  28
TORSDOF 24
ENDMDL
