MODEL 1
REMARK VINA RESULT:     -10.3      0.000      0.000
REMARK SMILES CC[C@]1(C(=O)OCCOCCOCCOC(=O)c2ccc(-c3c4nc(c(-c5cc(S(=O)(=O)[O-])ccc5F)c5ccc([nH]5)c(-c5cc(S(=O)(=O)[O-])ccc5F)c5nc(c(-c6cc(S(=O)(=O)[O-])ccc6F)c6ccc3[nH]6)C=C5)C=C4)cc2)CCC[N@@H+](Cc2cc(OC)ccc2F)C1
REMARK SMILES IDX 10 1 9 2 8 3 7 4 6 5 4 6 5 7 3 8 81 9 95 10 82 11 84 12
REMARK SMILES IDX 83 13 2 15 1 16 85 17 86 18 87 19 93 20 88 21 92 22 94 23
REMARK SMILES IDX 91 24 89 25 90 26 11 27 12 28 13 29 14 30 15 31 16 32 17 33
REMARK SMILES IDX 18 34 19 35 80 36 20 37 79 38 21 39 22 40 23 41 73 42 24 43
REMARK SMILES IDX 78 44 72 45 74 46 25 47 77 48 71 49 70 50 26 52 58 53 38 54
REMARK SMILES IDX 57 55 39 56 42 57 56 58 75 59 40 60 41 61 55 63 76 64 43 65
REMARK SMILES IDX 27 66 28 67 36 68 29 69 35 70 37 71 34 72 30 73 31 74 32 75
REMARK SMILES IDX 33 76 59 77 60 78 68 79 61 80 67 81 69 82 66 83 62 84 63 85
REMARK SMILES IDX 64 86 65 87 44 88 45 89 53 90 46 91 52 92 54 93 51 94 47 95
REMARK SMILES IDX 48 96 49 97 50 98
REMARK H PARENT 84 14 74 51 42 62
REMARK Flexibility Score: inf
ROOT
ATOM      1  C   UNL A   1      31.782  29.174  24.470  1.00  0.00     0.188 C 
ENDROOT
BRANCH   1   2
ATOM      2  O   UNL A   1      30.564  28.660  23.948  1.00  0.00    -0.376 OA
BRANCH   2   3
ATOM      3  C   UNL A   1      30.224  27.329  24.337  1.00  0.00     0.202 C 
BRANCH   3   4
ATOM      4  C   UNL A   1      31.000  26.187  23.661  1.00  0.00     0.261 C 
BRANCH   4   5
ATOM      5  O   UNL A   1      31.926  25.502  24.537  1.00  0.00    -0.463 OA
BRANCH   5   6
ATOM      6  C   UNL A   1      33.239  25.565  24.167  1.00  0.00     0.317 C 
ATOM      7  O   UNL A   1      33.758  26.575  23.699  1.00  0.00    -0.251 OA
BRANCH   6   8
ATOM      8  C   UNL A   1      34.041  24.274  24.452  1.00  0.00     0.117 C 
ATOM      9  C   UNL A   1      35.019  24.437  25.638  1.00  0.00     0.030 C 
ATOM     10  C   UNL A   1      32.947  23.276  24.873  1.00  0.00     0.281 C 
ATOM     11  C   UNL A   1      35.482  23.097  26.217  1.00  0.00     0.063 C 
ATOM     12  N   UNL A   1      33.439  21.994  25.390  1.00  0.00    -0.330 N 
ATOM     13  C   UNL A   1      34.307  22.168  26.550  1.00  0.00     0.262 C 
ATOM     14  H   UNL A   1      34.043  21.578  24.682  1.00  0.00     0.348 HD
BRANCH   8  15
ATOM     15  C   UNL A   1      34.773  23.867  23.134  1.00  0.00     0.021 C 
ATOM     16  C   UNL A   1      33.939  23.440  21.929  1.00  0.00     0.005 C 
ENDBRANCH   8  15
BRANCH  12  17
ATOM     17  C   UNL A   1      32.348  21.017  25.568  1.00  0.00     0.302 C 
BRANCH  17  18
ATOM     18  C   UNL A   1      32.549  19.673  24.904  1.00  0.00     0.046 A 
ATOM     19  C   UNL A   1      32.872  18.539  25.659  1.00  0.00     0.059 A 
ATOM     20  C   UNL A   1      32.374  19.518  23.523  1.00  0.00     0.132 A 
ATOM     21  C   UNL A   1      32.974  17.287  25.047  1.00  0.00     0.119 A 
ATOM     22  C   UNL A   1      32.378  18.265  22.925  1.00  0.00     0.043 A 
ATOM     23  F   UNL A   1      32.148  20.583  22.744  1.00  0.00    -0.206 F 
ATOM     24  C   UNL A   1      32.662  17.141  23.694  1.00  0.00     0.049 A 
BRANCH  21  25
ATOM     25  O   UNL A   1      33.366  16.257  25.857  1.00  0.00    -0.497 OA
ATOM     26  C   UNL A   1      32.973  14.969  25.387  1.00  0.00     0.278 C 
ENDBRANCH  21  25
ENDBRANCH  17  18
ENDBRANCH  12  17
ENDBRANCH   6   8
ENDBRANCH   5   6
ENDBRANCH   4   5
ENDBRANCH   3   4
ENDBRANCH   2   3
ENDBRANCH   1   2
BRANCH   1  27
ATOM     27  C   UNL A   1      32.136  28.761  25.900  1.00  0.00     0.188 C 
BRANCH  27  28
ATOM     28  O   UNL A   1      31.646  29.609  26.933  1.00  0.00    -0.376 OA
BRANCH  28  29
ATOM     29  C   UNL A   1      31.801  31.013  26.701  1.00  0.00     0.202 C 
BRANCH  29  30
ATOM     30  C   UNL A   1      33.087  31.639  27.277  1.00  0.00     0.261 C 
BRANCH  30  31
ATOM     31  O   UNL A   1      33.234  33.057  27.047  1.00  0.00    -0.460 OA
BRANCH  31  32
ATOM     32  C   UNL A   1      33.480  33.843  28.122  1.00  0.00     0.338 C 
ATOM     33  O   UNL A   1      32.753  34.729  28.543  1.00  0.00    -0.246 OA
BRANCH  32  34
ATOM     34  C   UNL A   1      34.638  33.279  28.869  1.00  0.00     0.060 A 
ATOM     35  C   UNL A   1      35.926  33.477  28.348  1.00  0.00     0.016 A 
ATOM     36  C   UNL A   1      34.482  32.628  30.097  1.00  0.00     0.016 A 
ATOM     37  C   UNL A   1      37.047  32.977  29.019  1.00  0.00     0.010 A 
ATOM     38  C   UNL A   1      35.604  32.119  30.763  1.00  0.00     0.010 A 
ATOM     39  C   UNL A   1      36.890  32.255  30.209  1.00  0.00    -0.014 A 
BRANCH  39  40
ATOM     40  C   UNL A   1      38.008  31.428  30.739  1.00  0.00     0.031 A 
ATOM     41  C   UNL A   1      38.500  31.733  32.132  1.00  0.00     0.074 A 
ATOM     42  C   UNL A   1      38.576  30.431  30.036  1.00  0.00     0.049 A 
ATOM     43  N   UNL A   1      39.515  31.236  32.789  1.00  0.00    -0.248 NA
ATOM     44  C   UNL A   1      37.735  32.746  32.878  1.00  0.00     0.031 C 
ATOM     45  C   UNL A   1      38.160  29.983  28.710  1.00  0.00     0.029 A 
ATOM     46  N   UNL A   1      39.639  29.616  30.346  1.00  0.00    -0.354 N 
ATOM     47  C   UNL A   1      39.515  31.877  34.025  1.00  0.00     0.074 A 
ATOM     48  C   UNL A   1      38.423  32.827  34.006  1.00  0.00     0.031 C 
ATOM     49  C   UNL A   1      38.968  28.982  28.314  1.00  0.00     0.029 A 
ATOM     50  C   UNL A   1      39.986  28.744  29.339  1.00  0.00     0.049 A 
ATOM     51  H   UNL A   1      40.109  29.651  31.211  1.00  0.00     0.167 HD
ATOM     52  C   UNL A   1      40.340  31.687  35.082  1.00  0.00     0.034 A 
ATOM     53  C   UNL A   1      41.021  27.881  29.244  1.00  0.00     0.034 A 
ATOM     54  C   UNL A   1      41.438  30.754  35.090  1.00  0.00     0.049 A 
ATOM     55  C   UNL A   1      42.006  27.772  30.392  1.00  0.00     0.074 A 
ATOM     56  C   UNL A   1      42.343  30.499  36.106  1.00  0.00     0.029 A 
ATOM     57  N   UNL A   1      41.789  29.930  34.030  1.00  0.00    -0.354 N 
ATOM     58  N   UNL A   1      42.006  28.396  31.548  1.00  0.00    -0.248 NA
ATOM     59  C   UNL A   1      43.130  26.840  30.219  1.00  0.00     0.031 C 
ATOM     60  C   UNL A   1      43.282  29.575  35.636  1.00  0.00     0.029 A 
ATOM     61  C   UNL A   1      42.914  29.189  34.357  1.00  0.00     0.049 A 
ATOM     62  H   UNL A   1      41.309  29.880  33.172  1.00  0.00     0.167 HD
ATOM     63  C   UNL A   1      43.101  27.895  32.252  1.00  0.00     0.074 A 
ATOM     64  C   UNL A   1      43.734  26.917  31.396  1.00  0.00     0.031 C 
ATOM     65  C   UNL A   1      43.537  28.209  33.499  1.00  0.00     0.034 A 
BRANCH  52  66
ATOM     66  C   UNL A   1      40.111  32.556  36.296  1.00  0.00     0.023 A 
ATOM     67  C   UNL A   1      39.219  32.179  37.315  1.00  0.00     0.031 A 
ATOM     68  C   UNL A   1      40.765  33.794  36.414  1.00  0.00     0.131 A 
ATOM     69  C   UNL A   1      38.951  33.064  38.370  1.00  0.00     0.055 A 
ATOM     70  C   UNL A   1      40.557  34.634  37.509  1.00  0.00     0.041 A 
ATOM     71  F   UNL A   1      41.606  34.217  35.458  1.00  0.00    -0.206 F 
ATOM     72  C   UNL A   1      39.634  34.277  38.488  1.00  0.00     0.022 A 
BRANCH  69  73
ATOM     73  S   UNL A   1      37.589  32.674  39.503  1.00  0.00     0.124 S 
ATOM     74  O   UNL A   1      36.456  32.596  38.586  1.00  0.00    -0.237 OA
ATOM     75  O   UNL A   1      38.022  31.413  40.094  1.00  0.00    -0.237 OA
ATOM     76  O   UNL A   1      37.565  33.816  40.414  1.00  0.00    -0.744 OA
ENDBRANCH  69  73
ENDBRANCH  52  66
BRANCH  53  77
ATOM     77  C   UNL A   1      41.239  27.076  28.002  1.00  0.00     0.023 A 
ATOM     78  C   UNL A   1      40.889  25.716  27.946  1.00  0.00     0.031 A 
ATOM     79  C   UNL A   1      41.892  27.632  26.888  1.00  0.00     0.131 A 
ATOM     80  C   UNL A   1      41.247  24.946  26.826  1.00  0.00     0.055 A 
ATOM     81  C   UNL A   1      42.190  26.876  25.752  1.00  0.00     0.041 A 
ATOM     82  F   UNL A   1      42.262  28.923  26.892  1.00  0.00    -0.206 F 
ATOM     83  C   UNL A   1      41.881  25.520  25.724  1.00  0.00     0.022 A 
BRANCH  80  84
ATOM     84  S   UNL A   1      40.974  23.153  26.881  1.00  0.00     0.124 S 
ATOM     85  O   UNL A   1      41.840  22.688  25.804  1.00  0.00    -0.237 OA
ATOM     86  O   UNL A   1      41.400  22.821  28.237  1.00  0.00    -0.237 OA
ATOM     87  O   UNL A   1      39.540  23.019  26.630  1.00  0.00    -0.744 OA
ENDBRANCH  80  84
ENDBRANCH  53  77
BRANCH  65  88
ATOM     88  C   UNL A   1      44.714  27.434  34.046  1.00  0.00     0.023 A 
ATOM     89  C   UNL A   1      44.554  26.245  34.781  1.00  0.00     0.031 A 
ATOM     90  C   UNL A   1      46.024  27.893  33.813  1.00  0.00     0.131 A 
ATOM     91  C   UNL A   1      45.681  25.583  35.295  1.00  0.00     0.055 A 
ATOM     92  C   UNL A   1      47.143  27.199  34.277  1.00  0.00     0.041 A 
ATOM     93  F   UNL A   1      46.239  29.021  33.118  1.00  0.00    -0.206 F 
ATOM     94  C   UNL A   1      46.974  26.043  35.033  1.00  0.00     0.022 A 
BRANCH  91  95
ATOM     95  S   UNL A   1      45.436  24.152  36.383  1.00  0.00     0.124 S 
ATOM     96  O   UNL A   1      44.450  23.371  35.641  1.00  0.00    -0.237 OA
ATOM     97  O   UNL A   1      46.777  23.581  36.456  1.00  0.00    -0.237 OA
ATOM     98  O   UNL A   1      44.948  24.745  37.627  1.00  0.00    -0.744 OA
ENDBRANCH  91  95
ENDBRANCH  65  88
ENDBRANCH  39  40
ENDBRANCH  32  34
ENDBRANCH  31  32
ENDBRANCH  30  31
ENDBRANCH  29  30
ENDBRANCH  28  29
ENDBRANCH  27  28
ENDBRANCH   1  27
TORSDOF 24
ENDMDL
MODEL 2
REMARK VINA RESULT:     -10.0      2.565      4.104
REMARK SMILES CC[C@]1(C(=O)OCCOCCOCCOC(=O)c2ccc(-c3c4nc(c(-c5cc(S(=O)(=O)[O-])ccc5F)c5ccc([nH]5)c(-c5cc(S(=O)(=O)[O-])ccc5F)c5nc(c(-c6cc(S(=O)(=O)[O-])ccc6F)c6ccc3[nH]6)C=C5)C=C4)cc2)CCC[N@@H+](Cc2cc(OC)ccc2F)C1
REMARK SMILES IDX 10 1 9 2 8 3 7 4 6 5 4 6 5 7 3 8 81 9 95 10 82 11 84 12
REMARK SMILES IDX 83 13 2 15 1 16 85 17 86 18 87 19 93 20 88 21 92 22 94 23
REMARK SMILES IDX 91 24 89 25 90 26 11 27 12 28 13 29 14 30 15 31 16 32 17 33
REMARK SMILES IDX 18 34 19 35 80 36 20 37 79 38 21 39 22 40 23 41 73 42 24 43
REMARK SMILES IDX 78 44 72 45 74 46 25 47 77 48 71 49 70 50 26 52 58 53 38 54
REMARK SMILES IDX 57 55 39 56 42 57 56 58 75 59 40 60 41 61 55 63 76 64 43 65
REMARK SMILES IDX 27 66 28 67 36 68 29 69 35 70 37 71 34 72 30 73 31 74 32 75
REMARK SMILES IDX 33 76 59 77 60 78 68 79 61 80 67 81 69 82 66 83 62 84 63 85
REMARK SMILES IDX 64 86 65 87 44 88 45 89 53 90 46 91 52 92 54 93 51 94 47 95
REMARK SMILES IDX 48 96 49 97 50 98
REMARK H PARENT 84 14 74 51 42 62
REMARK Flexibility Score: inf
ROOT
ATOM      1  C   UNL A   1      34.753  31.664  28.081  1.00  0.00     0.188 C 
ENDROOT
BRANCH   1   2
ATOM      2  O   UNL A   1      33.423  31.481  27.615  1.00  0.00    -0.376 OA
BRANCH   2   3
ATOM      3  C   UNL A   1      33.073  30.155  27.217  1.00  0.00     0.202 C 
BRANCH   3   4
ATOM      4  C   UNL A   1      32.396  29.996  25.845  1.00  0.00     0.261 C 
BRANCH   4   5
ATOM      5  O   UNL A   1      31.686  28.747  25.677  1.00  0.00    -0.463 OA
BRANCH   5   6
ATOM      6  C   UNL A   1      31.049  28.590  24.480  1.00  0.00     0.317 C 
ATOM      7  O   UNL A   1      30.438  29.496  23.919  1.00  0.00    -0.251 OA
BRANCH   6   8
ATOM      8  C   UNL A   1      31.219  27.188  23.849  1.00  0.00     0.117 C 
ATOM      9  C   UNL A   1      31.300  27.242  22.306  1.00  0.00     0.030 C 
ATOM     10  C   UNL A   1      32.592  26.737  24.380  1.00  0.00     0.281 C 
ATOM     11  C   UNL A   1      31.900  25.973  21.696  1.00  0.00     0.063 C 
ATOM     12  N   UNL A   1      33.112  25.499  23.790  1.00  0.00    -0.330 N 
ATOM     13  C   UNL A   1      33.241  25.594  22.340  1.00  0.00     0.262 C 
ATOM     14  H   UNL A   1      32.418  24.764  23.934  1.00  0.00     0.348 HD
BRANCH   8  15
ATOM     15  C   UNL A   1      30.041  26.294  24.350  1.00  0.00     0.021 C 
ATOM     16  C   UNL A   1      28.625  26.608  23.877  1.00  0.00     0.005 C 
ENDBRANCH   8  15
BRANCH  12  17
ATOM     17  C   UNL A   1      34.315  25.015  24.494  1.00  0.00     0.302 C 
BRANCH  17  18
ATOM     18  C   UNL A   1      34.340  23.541  24.826  1.00  0.00     0.046 A 
ATOM     19  C   UNL A   1      33.341  22.680  24.356  1.00  0.00     0.059 A 
ATOM     20  C   UNL A   1      35.386  22.989  25.576  1.00  0.00     0.132 A 
ATOM     21  C   UNL A   1      33.418  21.306  24.599  1.00  0.00     0.119 A 
ATOM     22  C   UNL A   1      35.520  21.616  25.738  1.00  0.00     0.043 A 
ATOM     23  F   UNL A   1      36.321  23.778  26.120  1.00  0.00    -0.206 F 
ATOM     24  C   UNL A   1      34.541  20.768  25.232  1.00  0.00     0.049 A 
BRANCH  21  25
ATOM     25  O   UNL A   1      32.357  20.562  24.162  1.00  0.00    -0.497 OA
ATOM     26  C   UNL A   1      32.153  20.619  22.752  1.00  0.00     0.278 C 
ENDBRANCH  21  25
ENDBRANCH  17  18
ENDBRANCH  12  17
ENDBRANCH   6   8
ENDBRANCH   5   6
ENDBRANCH   4   5
ENDBRANCH   3   4
ENDBRANCH   2   3
ENDBRANCH   1   2
BRANCH   1  27
ATOM     27  C   UNL A   1      35.042  32.979  28.808  1.00  0.00     0.188 C 
BRANCH  27  28
ATOM     28  O   UNL A   1      33.904  33.739  29.198  1.00  0.00    -0.376 OA
BRANCH  28  29
ATOM     29  C   UNL A   1      33.907  35.109  28.781  1.00  0.00     0.202 C 
BRANCH  29  30
ATOM     30  C   UNL A   1      32.902  36.024  29.512  1.00  0.00     0.261 C 
BRANCH  30  31
ATOM     31  O   UNL A   1      33.290  36.420  30.844  1.00  0.00    -0.460 OA
BRANCH  31  32
ATOM     32  C   UNL A   1      32.811  35.689  31.879  1.00  0.00     0.338 C 
ATOM     33  O   UNL A   1      31.633  35.479  32.123  1.00  0.00    -0.246 OA
BRANCH  32  34
ATOM     34  C   UNL A   1      33.943  34.957  32.510  1.00  0.00     0.060 A 
ATOM     35  C   UNL A   1      35.218  35.545  32.473  1.00  0.00     0.016 A 
ATOM     36  C   UNL A   1      33.759  33.749  33.190  1.00  0.00     0.016 A 
ATOM     37  C   UNL A   1      36.312  34.902  33.063  1.00  0.00     0.010 A 
ATOM     38  C   UNL A   1      34.857  33.102  33.772  1.00  0.00     0.010 A 
ATOM     39  C   UNL A   1      36.147  33.654  33.677  1.00  0.00    -0.014 A 
BRANCH  39  40
ATOM     40  C   UNL A   1      37.332  32.807  33.988  1.00  0.00     0.031 A 
ATOM     41  C   UNL A   1      38.108  33.130  35.240  1.00  0.00     0.074 A 
ATOM     42  C   UNL A   1      37.717  31.778  33.212  1.00  0.00     0.049 A 
ATOM     43  N   UNL A   1      39.225  32.619  35.687  1.00  0.00    -0.248 NA
ATOM     44  C   UNL A   1      37.539  34.181  36.099  1.00  0.00     0.031 C 
ATOM     45  C   UNL A   1      37.024  31.312  32.013  1.00  0.00     0.029 A 
ATOM     46  N   UNL A   1      38.802  30.939  33.319  1.00  0.00    -0.354 N 
ATOM     47  C   UNL A   1      39.496  33.288  36.877  1.00  0.00     0.074 A 
ATOM     48  C   UNL A   1      38.447  34.269  37.057  1.00  0.00     0.031 C 
ATOM     49  C   UNL A   1      37.709  30.278  31.489  1.00  0.00     0.029 A 
ATOM     50  C   UNL A   1      38.912  30.035  32.287  1.00  0.00     0.049 A 
ATOM     51  H   UNL A   1      39.442  30.981  34.066  1.00  0.00     0.167 HD
ATOM     52  C   UNL A   1      40.518  33.100  37.746  1.00  0.00     0.034 A 
ATOM     53  C   UNL A   1      39.884  29.140  32.005  1.00  0.00     0.034 A 
ATOM     54  C   UNL A   1      41.572  32.135  37.554  1.00  0.00     0.049 A 
ATOM     55  C   UNL A   1      41.083  29.030  32.927  1.00  0.00     0.074 A 
ATOM     56  C   UNL A   1      42.661  31.877  38.367  1.00  0.00     0.029 A 
ATOM     57  N   UNL A   1      41.676  31.277  36.468  1.00  0.00    -0.354 N 
ATOM     58  N   UNL A   1      41.337  29.680  34.040  1.00  0.00    -0.248 NA
ATOM     59  C   UNL A   1      42.124  28.061  32.553  1.00  0.00     0.031 C 
ATOM     60  C   UNL A   1      43.460  30.916  37.740  1.00  0.00     0.029 A 
ATOM     61  C   UNL A   1      42.826  30.511  36.577  1.00  0.00     0.049 A 
ATOM     62  H   UNL A   1      41.028  31.221  35.730  1.00  0.00     0.167 HD
ATOM     63  C   UNL A   1      42.542  29.164  34.517  1.00  0.00     0.074 A 
ATOM     64  C   UNL A   1      42.961  28.148  33.576  1.00  0.00     0.031 C 
ATOM     65  C   UNL A   1      43.235  29.494  35.637  1.00  0.00     0.034 A 
BRANCH  52  66
ATOM     66  C   UNL A   1      40.567  34.002  38.956  1.00  0.00     0.023 A 
ATOM     67  C   UNL A   1      39.870  33.692  40.136  1.00  0.00     0.031 A 
ATOM     68  C   UNL A   1      41.289  35.207  38.911  1.00  0.00     0.131 A 
ATOM     69  C   UNL A   1      39.850  34.610  41.197  1.00  0.00     0.055 A 
ATOM     70  C   UNL A   1      41.333  36.078  40.001  1.00  0.00     0.041 A 
ATOM     71  F   UNL A   1      41.950  35.568  37.800  1.00  0.00    -0.206 F 
ATOM     72  C   UNL A   1      40.598  35.788  41.147  1.00  0.00     0.022 A 
BRANCH  69  73
ATOM     73  S   UNL A   1      38.713  34.313  42.579  1.00  0.00     0.124 S 
ATOM     74  O   UNL A   1      39.588  34.527  43.729  1.00  0.00    -0.237 OA
ATOM     75  O   UNL A   1      37.683  35.322  42.362  1.00  0.00    -0.237 OA
ATOM     76  O   UNL A   1      38.286  32.930  42.379  1.00  0.00    -0.744 OA
ENDBRANCH  69  73
ENDBRANCH  52  66
BRANCH  53  77
ATOM     77  C   UNL A   1      39.821  28.300  30.769  1.00  0.00     0.023 A 
ATOM     78  C   UNL A   1      40.504  28.675  29.599  1.00  0.00     0.031 A 
ATOM     79  C   UNL A   1      38.995  27.164  30.711  1.00  0.00     0.131 A 
ATOM     80  C   UNL A   1      40.302  27.956  28.409  1.00  0.00     0.055 A 
ATOM     81  C   UNL A   1      38.847  26.417  29.541  1.00  0.00     0.041 A 
ATOM     82  F   UNL A   1      38.307  26.768  31.794  1.00  0.00    -0.206 F 
ATOM     83  C   UNL A   1      39.490  26.821  28.376  1.00  0.00     0.022 A 
BRANCH  80  84
ATOM     84  S   UNL A   1      41.027  28.595  26.873  1.00  0.00     0.124 S 
ATOM     85  O   UNL A   1      39.906  29.332  26.300  1.00  0.00    -0.237 OA
ATOM     86  O   UNL A   1      42.137  29.401  27.373  1.00  0.00    -0.237 OA
ATOM     87  O   UNL A   1      41.414  27.385  26.149  1.00  0.00    -0.744 OA
ENDBRANCH  80  84
ENDBRANCH  53  77
BRANCH  65  88
ATOM     88  C   UNL A   1      44.481  28.697  35.951  1.00  0.00     0.023 A 
ATOM     89  C   UNL A   1      44.437  27.484  36.662  1.00  0.00     0.031 A 
ATOM     90  C   UNL A   1      45.736  29.161  35.516  1.00  0.00     0.131 A 
ATOM     91  C   UNL A   1      45.630  26.803  36.956  1.00  0.00     0.055 A 
ATOM     92  C   UNL A   1      46.912  28.450  35.761  1.00  0.00     0.041 A 
ATOM     93  F   UNL A   1      45.840  30.312  34.832  1.00  0.00    -0.206 F 
ATOM     94  C   UNL A   1      46.864  27.269  36.495  1.00  0.00     0.022 A 
BRANCH  91  95
ATOM     95  S   UNL A   1      45.560  25.336  38.021  1.00  0.00     0.124 S 
ATOM     96  O   UNL A   1      44.193  24.869  37.807  1.00  0.00    -0.237 OA
ATOM     97  O   UNL A   1      46.614  24.495  37.464  1.00  0.00    -0.237 OA
ATOM     98  O   UNL A   1      45.833  25.866  39.356  1.00  0.00    -0.744 OA
ENDBRANCH  91  95
ENDBRANCH  65  88
ENDBRANCH  39  40
ENDBRANCH  32  34
ENDBRANCH  31  32
ENDBRANCH  30  31
ENDBRANCH  29  30
ENDBRANCH  28  29
ENDBRANCH  27  28
ENDBRANCH   1  27
TORSDOF 24
ENDMDL
MODEL 3
REMARK VINA RESULT:     -10.0      2.141      3.375
REMARK SMILES CC[C@]1(C(=O)OCCOCCOCCOC(=O)c2ccc(-c3c4nc(c(-c5cc(S(=O)(=O)[O-])ccc5F)c5ccc([nH]5)c(-c5cc(S(=O)(=O)[O-])ccc5F)c5nc(c(-c6cc(S(=O)(=O)[O-])ccc6F)c6ccc3[nH]6)C=C5)C=C4)cc2)CCC[N@@H+](Cc2cc(OC)ccc2F)C1
REMARK SMILES IDX 10 1 9 2 8 3 7 4 6 5 4 6 5 7 3 8 81 9 95 10 82 11 84 12
REMARK SMILES IDX 83 13 2 15 1 16 85 17 86 18 87 19 93 20 88 21 92 22 94 23
REMARK SMILES IDX 91 24 89 25 90 26 11 27 12 28 13 29 14 30 15 31 16 32 17 33
REMARK SMILES IDX 18 34 19 35 80 36 20 37 79 38 21 39 22 40 23 41 73 42 24 43
REMARK SMILES IDX 78 44 72 45 74 46 25 47 77 48 71 49 70 50 26 52 58 53 38 54
REMARK SMILES IDX 57 55 39 56 42 57 56 58 75 59 40 60 41 61 55 63 76 64 43 65
REMARK SMILES IDX 27 66 28 67 36 68 29 69 35 70 37 71 34 72 30 73 31 74 32 75
REMARK SMILES IDX 33 76 59 77 60 78 68 79 61 80 67 81 69 82 66 83 62 84 63 85
REMARK SMILES IDX 64 86 65 87 44 88 45 89 53 90 46 91 52 92 54 93 51 94 47 95
REMARK SMILES IDX 48 96 49 97 50 98
REMARK H PARENT 84 14 74 51 42 62
REMARK Flexibility Score: inf
ROOT
ATOM      1  C   UNL A   1      34.935  32.009  28.006  1.00  0.00     0.188 C 
ENDROOT
BRANCH   1   2
ATOM      2  O   UNL A   1      33.625  31.518  27.757  1.00  0.00    -0.376 OA
BRANCH   2   3
ATOM      3  C   UNL A   1      33.538  30.187  27.246  1.00  0.00     0.202 C 
BRANCH   3   4
ATOM      4  C   UNL A   1      33.060  30.030  25.793  1.00  0.00     0.261 C 
BRANCH   4   5
ATOM      5  O   UNL A   1      33.532  28.827  25.142  1.00  0.00    -0.463 OA
BRANCH   5   6
ATOM      6  C   UNL A   1      32.731  28.346  24.147  1.00  0.00     0.317 C 
ATOM      7  O   UNL A   1      32.608  28.896  23.057  1.00  0.00    -0.251 OA
BRANCH   6   8
ATOM      8  C   UNL A   1      32.037  27.005  24.484  1.00  0.00     0.117 C 
ATOM      9  C   UNL A   1      30.518  27.040  24.200  1.00  0.00     0.030 C 
ATOM     10  C   UNL A   1      32.683  26.025  23.488  1.00  0.00     0.281 C 
ATOM     11  C   UNL A   1      29.899  25.643  24.095  1.00  0.00     0.063 C 
ATOM     12  N   UNL A   1      32.077  24.689  23.445  1.00  0.00    -0.330 N 
ATOM     13  C   UNL A   1      30.657  24.742  23.112  1.00  0.00     0.262 C 
ATOM     14  H   UNL A   1      32.101  24.302  24.388  1.00  0.00     0.348 HD
BRANCH   8  15
ATOM     15  C   UNL A   1      32.353  26.665  25.975  1.00  0.00     0.021 C 
ATOM     16  C   UNL A   1      33.207  25.440  26.287  1.00  0.00     0.005 C 
ENDBRANCH   8  15
BRANCH  12  17
ATOM     17  C   UNL A   1      32.874  23.748  22.637  1.00  0.00     0.302 C 
BRANCH  17  18
ATOM     18  C   UNL A   1      33.186  22.418  23.285  1.00  0.00     0.046 A 
ATOM     19  C   UNL A   1      34.248  22.289  24.188  1.00  0.00     0.059 A 
ATOM     20  C   UNL A   1      32.393  21.291  23.034  1.00  0.00     0.132 A 
ATOM     21  C   UNL A   1      34.476  21.076  24.843  1.00  0.00     0.119 A 
ATOM     22  C   UNL A   1      32.553  20.114  23.754  1.00  0.00     0.043 A 
ATOM     23  F   UNL A   1      31.418  21.338  22.118  1.00  0.00    -0.206 F 
ATOM     24  C   UNL A   1      33.588  20.011  24.676  1.00  0.00     0.049 A 
BRANCH  21  25
ATOM     25  O   UNL A   1      35.581  21.032  25.648  1.00  0.00    -0.497 OA
ATOM     26  C   UNL A   1      36.815  20.975  24.934  1.00  0.00     0.278 C 
ENDBRANCH  21  25
ENDBRANCH  17  18
ENDBRANCH  12  17
ENDBRANCH   6   8
ENDBRANCH   5   6
ENDBRANCH   4   5
ENDBRANCH   3   4
ENDBRANCH   2   3
ENDBRANCH   1   2
BRANCH   1  27
ATOM     27  C   UNL A   1      35.059  33.511  28.271  1.00  0.00     0.188 C 
BRANCH  27  28
ATOM     28  O   UNL A   1      33.896  34.288  28.008  1.00  0.00    -0.376 OA
BRANCH  28  29
ATOM     29  C   UNL A   1      33.962  35.655  28.427  1.00  0.00     0.202 C 
BRANCH  29  30
ATOM     30  C   UNL A   1      32.830  36.112  29.370  1.00  0.00     0.261 C 
BRANCH  30  31
ATOM     31  O   UNL A   1      33.245  36.435  30.714  1.00  0.00    -0.460 OA
BRANCH  31  32
ATOM     32  C   UNL A   1      33.047  35.499  31.672  1.00  0.00     0.338 C 
ATOM     33  O   UNL A   1      31.980  35.233  32.205  1.00  0.00    -0.246 OA
BRANCH  32  34
ATOM     34  C   UNL A   1      34.271  34.658  31.778  1.00  0.00     0.060 A 
ATOM     35  C   UNL A   1      34.114  33.278  31.982  1.00  0.00     0.016 A 
ATOM     36  C   UNL A   1      35.554  35.191  31.612  1.00  0.00     0.016 A 
ATOM     37  C   UNL A   1      35.234  32.443  32.076  1.00  0.00     0.010 A 
ATOM     38  C   UNL A   1      36.674  34.357  31.716  1.00  0.00     0.010 A 
ATOM     39  C   UNL A   1      36.522  32.985  31.989  1.00  0.00    -0.014 A 
BRANCH  39  40
ATOM     40  C   UNL A   1      37.702  32.191  32.432  1.00  0.00     0.031 A 
ATOM     41  C   UNL A   1      38.280  32.502  33.790  1.00  0.00     0.074 A 
ATOM     42  C   UNL A   1      38.250  31.218  31.681  1.00  0.00     0.049 A 
ATOM     43  N   UNL A   1      39.354  32.034  34.370  1.00  0.00    -0.248 NA
ATOM     44  C   UNL A   1      37.538  33.484  34.597  1.00  0.00     0.031 C 
ATOM     45  C   UNL A   1      37.757  30.766  30.383  1.00  0.00     0.029 A 
ATOM     46  N   UNL A   1      39.359  30.436  31.909  1.00  0.00    -0.354 N 
ATOM     47  C   UNL A   1      39.420  32.666  35.608  1.00  0.00     0.074 A 
ATOM     48  C   UNL A   1      38.300  33.580  35.675  1.00  0.00     0.031 C 
ATOM     49  C   UNL A   1      38.567  29.795  29.923  1.00  0.00     0.029 A 
ATOM     50  C   UNL A   1      39.662  29.583  30.871  1.00  0.00     0.049 A 
ATOM     51  H   UNL A   1      39.887  30.481  32.739  1.00  0.00     0.167 HD
ATOM     52  C   UNL A   1      40.323  32.497  36.603  1.00  0.00     0.034 A 
ATOM     53  C   UNL A   1      40.715  28.756  30.696  1.00  0.00     0.034 A 
ATOM     54  C   UNL A   1      41.449  31.600  36.526  1.00  0.00     0.049 A 
ATOM     55  C   UNL A   1      41.781  28.672  31.771  1.00  0.00     0.074 A 
ATOM     56  C   UNL A   1      42.431  31.367  37.473  1.00  0.00     0.029 A 
ATOM     57  N   UNL A   1      41.751  30.796  35.436  1.00  0.00    -0.354 N 
ATOM     58  N   UNL A   1      41.842  29.287  32.930  1.00  0.00    -0.248 NA
ATOM     59  C   UNL A   1      42.920  27.778  31.512  1.00  0.00     0.031 C 
ATOM     60  C   UNL A   1      43.364  30.479  36.929  1.00  0.00     0.029 A 
ATOM     61  C   UNL A   1      42.920  30.089  35.676  1.00  0.00     0.049 A 
ATOM     62  H   UNL A   1      41.215  30.736  34.613  1.00  0.00     0.167 HD
ATOM     63  C   UNL A   1      43.001  28.818  33.551  1.00  0.00     0.074 A 
ATOM     64  C   UNL A   1      43.603  27.867  32.643  1.00  0.00     0.031 C 
ATOM     65  C   UNL A   1      43.513  29.137  34.768  1.00  0.00     0.034 A 
BRANCH  52  66
ATOM     66  C   UNL A   1      40.153  33.348  37.838  1.00  0.00     0.023 A 
ATOM     67  C   UNL A   1      39.257  32.993  38.862  1.00  0.00     0.031 A 
ATOM     68  C   UNL A   1      40.867  34.551  37.973  1.00  0.00     0.131 A 
ATOM     69  C   UNL A   1      39.046  33.866  39.939  1.00  0.00     0.055 A 
ATOM     70  C   UNL A   1      40.714  35.376  39.089  1.00  0.00     0.041 A 
ATOM     71  F   UNL A   1      41.715  34.954  37.014  1.00  0.00    -0.206 F 
ATOM     72  C   UNL A   1      39.787  35.042  40.073  1.00  0.00     0.022 A 
BRANCH  69  73
ATOM     73  S   UNL A   1      37.682  33.518  41.083  1.00  0.00     0.124 S 
ATOM     74  O   UNL A   1      36.667  32.985  40.177  1.00  0.00    -0.237 OA
ATOM     75  O   UNL A   1      38.282  32.560  42.005  1.00  0.00    -0.237 OA
ATOM     76  O   UNL A   1      37.372  34.826  41.654  1.00  0.00    -0.744 OA
ENDBRANCH  69  73
ENDBRANCH  52  66
BRANCH  53  77
ATOM     77  C   UNL A   1      40.871  27.967  29.435  1.00  0.00     0.023 A 
ATOM     78  C   UNL A   1      41.832  28.319  28.471  1.00  0.00     0.031 A 
ATOM     79  C   UNL A   1      39.994  26.911  29.132  1.00  0.00     0.131 A 
ATOM     80  C   UNL A   1      41.852  27.661  27.230  1.00  0.00     0.055 A 
ATOM     81  C   UNL A   1      40.060  26.220  27.921  1.00  0.00     0.041 A 
ATOM     82  F   UNL A   1      39.048  26.541  30.010  1.00  0.00    -0.206 F 
ATOM     83  C   UNL A   1      40.983  26.605  26.954  1.00  0.00     0.022 A 
BRANCH  80  84
ATOM     84  S   UNL A   1      42.958  28.285  25.933  1.00  0.00     0.124 S 
ATOM     85  O   UNL A   1      42.252  27.882  24.722  1.00  0.00    -0.237 OA
ATOM     86  O   UNL A   1      42.982  29.717  26.216  1.00  0.00    -0.237 OA
ATOM     87  O   UNL A   1      44.213  27.580  26.187  1.00  0.00    -0.744 OA
ENDBRANCH  80  84
ENDBRANCH  53  77
BRANCH  65  88
ATOM     88  C   UNL A   1      44.750  28.397  35.223  1.00  0.00     0.023 A 
ATOM     89  C   UNL A   1      44.681  27.168  35.904  1.00  0.00     0.031 A 
ATOM     90  C   UNL A   1      46.024  28.932  34.956  1.00  0.00     0.131 A 
ATOM     91  C   UNL A   1      45.862  26.541  36.336  1.00  0.00     0.055 A 
ATOM     92  C   UNL A   1      47.195  28.275  35.336  1.00  0.00     0.041 A 
ATOM     93  F   UNL A   1      46.152  30.101  34.309  1.00  0.00    -0.206 F 
ATOM     94  C   UNL A   1      47.118  27.078  36.040  1.00  0.00     0.022 A 
BRANCH  91  95
ATOM     95  S   UNL A   1      45.736  25.049  37.361  1.00  0.00     0.124 S 
ATOM     96  O   UNL A   1      44.533  25.318  38.144  1.00  0.00    -0.237 OA
ATOM     97  O   UNL A   1      45.623  23.992  36.362  1.00  0.00    -0.237 OA
ATOM     98  O   UNL A   1      46.984  25.048  38.123  1.00  0.00    -0.744 OA
ENDBRANCH  91  95
ENDBRANCH  65  88
ENDBRANCH  39  40
ENDBRANCH  32  34
ENDBRANCH  31  32
ENDBRANCH  30  31
ENDBRANCH  29  30
ENDBRANCH  28  29
ENDBRANCH  27  28
ENDBRANCH   1  27
TORSDOF 24
ENDMDL
