MODEL 1
REMARK VINA RESULT:      -8.6      0.000      0.000
REMARK SMILES O=C(OCCOCCOCCOC(=O)c1coc(-c2csc(-c3ccc(Cl)cn3)n2)c1)c1ccc(-c2c3nc(c(-c4cc(S(=O)(=O)[O-])ccc4F)c4ccc([nH]4)c(-c4cc(S(=O)(=O)[O-])ccc4F)c4nc(c(-c5cc(S(=O)(=O)[O-])ccc5F)c5ccc2[nH]5)C=C4)C=C3)cc1
REMARK SMILES IDX 7 1 6 2 5 3 4 4 3 5 2 6 1 7 32 8 33 9 94 10 34 11 93 12
REMARK SMILES IDX 35 13 36 14 37 15 87 16 38 17 92 18 86 19 88 20 39 21 91 22
REMARK SMILES IDX 85 23 84 24 40 26 72 27 52 28 71 29 53 30 56 31 70 32 89 33
REMARK SMILES IDX 54 34 55 35 69 37 90 38 57 39 41 40 42 41 50 42 43 43 49 44
REMARK SMILES IDX 51 45 48 46 44 47 45 48 46 49 47 50 73 51 74 52 82 53 75 54
REMARK SMILES IDX 81 55 83 56 80 57 76 58 77 59 78 60 79 61 58 62 59 63 67 64
REMARK SMILES IDX 60 65 66 66 68 67 65 68 61 69 62 70 63 71 64 72 8 73 9 74
REMARK SMILES IDX 10 75 11 76 12 77 13 78 14 79 15 80 16 81 31 82 17 83 18 84
REMARK SMILES IDX 19 85 20 86 30 87 21 88 22 89 23 90 24 91 29 92 25 93 28 94
REMARK SMILES IDX 26 95 27 96
REMARK H PARENT 88 25 56 36
REMARK Flexibility Score: inf
ROOT
ATOM      1  C   UNL A   1      44.508  22.495  23.767  1.00  0.00     0.188 C 
ENDROOT
BRANCH   1   2
ATOM      2  O   UNL A   1      45.616  23.400  23.878  1.00  0.00    -0.376 OA
BRANCH   2   3
ATOM      3  C   UNL A   1      46.415  23.199  25.047  1.00  0.00     0.202 C 
BRANCH   3   4
ATOM      4  C   UNL A   1      47.165  24.450  25.519  1.00  0.00     0.261 C 
BRANCH   4   5
ATOM      5  O   UNL A   1      47.195  25.462  24.501  1.00  0.00    -0.460 OA
BRANCH   5   6
ATOM      6  C   UNL A   1      46.847  26.768  24.624  1.00  0.00     0.338 C 
ATOM      7  O   UNL A   1      47.128  27.538  23.707  1.00  0.00    -0.246 OA
BRANCH   6   8
ATOM      8  C   UNL A   1      46.096  27.312  25.797  1.00  0.00     0.060 A 
ATOM      9  C   UNL A   1      44.714  27.215  25.975  1.00  0.00     0.016 A 
ATOM     10  C   UNL A   1      46.852  27.899  26.826  1.00  0.00     0.016 A 
ATOM     11  C   UNL A   1      44.085  27.782  27.081  1.00  0.00     0.010 A 
ATOM     12  C   UNL A   1      46.233  28.410  27.974  1.00  0.00     0.010 A 
ATOM     13  C   UNL A   1      44.839  28.376  28.093  1.00  0.00    -0.014 A 
BRANCH  13  14
ATOM     14  C   UNL A   1      44.149  28.976  29.257  1.00  0.00     0.031 A 
ATOM     15  C   UNL A   1      43.710  30.407  29.191  1.00  0.00     0.074 A 
ATOM     16  C   UNL A   1      43.876  28.215  30.334  1.00  0.00     0.049 A 
ATOM     17  N   UNL A   1      43.165  31.147  30.120  1.00  0.00    -0.248 NA
ATOM     18  C   UNL A   1      43.904  31.095  27.905  1.00  0.00     0.031 C 
ATOM     19  C   UNL A   1      44.194  26.791  30.453  1.00  0.00     0.029 A 
ATOM     20  N   UNL A   1      43.273  28.519  31.527  1.00  0.00    -0.354 N 
ATOM     21  C   UNL A   1      42.968  32.394  29.539  1.00  0.00     0.074 A 
ATOM     22  C   UNL A   1      43.462  32.313  28.181  1.00  0.00     0.031 C 
ATOM     23  C   UNL A   1      43.786  26.345  31.650  1.00  0.00     0.029 A 
ATOM     24  C   UNL A   1      43.245  27.464  32.411  1.00  0.00     0.049 A 
ATOM     25  H   UNL A   1      42.898  29.406  31.731  1.00  0.00     0.167 HD
ATOM     26  C   UNL A   1      42.429  33.503  30.099  1.00  0.00     0.034 A 
ATOM     27  C   UNL A   1      42.872  27.423  33.707  1.00  0.00     0.034 A 
ATOM     28  C   UNL A   1      41.950  33.553  31.457  1.00  0.00     0.049 A 
ATOM     29  C   UNL A   1      42.374  28.700  34.336  1.00  0.00     0.074 A 
ATOM     30  C   UNL A   1      41.387  34.617  32.138  1.00  0.00     0.029 A 
ATOM     31  N   UNL A   1      41.996  32.487  32.348  1.00  0.00    -0.354 N 
ATOM     32  N   UNL A   1      42.205  29.879  33.781  1.00  0.00    -0.248 NA
ATOM     33  C   UNL A   1      42.034  28.649  35.763  1.00  0.00     0.031 C 
ATOM     34  C   UNL A   1      41.149  34.211  33.458  1.00  0.00     0.029 A 
ATOM     35  C   UNL A   1      41.514  32.879  33.586  1.00  0.00     0.049 A 
ATOM     36  H   UNL A   1      42.322  31.584  32.131  1.00  0.00     0.167 HD
ATOM     37  C   UNL A   1      41.737  30.711  34.792  1.00  0.00     0.074 A 
ATOM     38  C   UNL A   1      41.622  29.889  35.982  1.00  0.00     0.031 C 
ATOM     39  C   UNL A   1      41.436  32.033  34.753  1.00  0.00     0.034 A 
BRANCH  26  40
ATOM     40  C   UNL A   1      42.418  34.755  29.263  1.00  0.00     0.023 A 
ATOM     41  C   UNL A   1      43.579  35.517  29.046  1.00  0.00     0.031 A 
ATOM     42  C   UNL A   1      41.206  35.225  28.726  1.00  0.00     0.131 A 
ATOM     43  C   UNL A   1      43.492  36.740  28.362  1.00  0.00     0.055 A 
ATOM     44  C   UNL A   1      41.139  36.411  27.994  1.00  0.00     0.041 A 
ATOM     45  F   UNL A   1      40.064  34.551  28.929  1.00  0.00    -0.206 F 
ATOM     46  C   UNL A   1      42.283  37.182  27.819  1.00  0.00     0.022 A 
BRANCH  43  47
ATOM     47  S   UNL A   1      44.958  37.806  28.294  1.00  0.00     0.124 S 
ATOM     48  O   UNL A   1      46.009  36.893  28.738  1.00  0.00    -0.237 OA
ATOM     49  O   UNL A   1      45.003  38.195  26.890  1.00  0.00    -0.237 OA
ATOM     50  O   UNL A   1      44.643  38.885  29.230  1.00  0.00    -0.744 OA
ENDBRANCH  43  47
ENDBRANCH  26  40
BRANCH  27  51
ATOM     51  C   UNL A   1      43.047  26.178  34.511  1.00  0.00     0.023 A 
ATOM     52  C   UNL A   1      44.320  25.670  34.811  1.00  0.00     0.031 A 
ATOM     53  C   UNL A   1      41.928  25.444  34.952  1.00  0.00     0.131 A 
ATOM     54  C   UNL A   1      44.444  24.446  35.492  1.00  0.00     0.055 A 
ATOM     55  C   UNL A   1      42.056  24.259  35.678  1.00  0.00     0.041 A 
ATOM     56  F   UNL A   1      40.684  25.874  34.685  1.00  0.00    -0.206 F 
ATOM     57  C   UNL A   1      43.322  23.746  35.939  1.00  0.00     0.022 A 
BRANCH  54  58
ATOM     58  S   UNL A   1      46.097  23.723  35.694  1.00  0.00     0.124 S 
ATOM     59  O   UNL A   1      45.874  22.753  36.760  1.00  0.00    -0.237 OA
ATOM     60  O   UNL A   1      46.346  23.171  34.366  1.00  0.00    -0.237 OA
ATOM     61  O   UNL A   1      46.927  24.869  36.058  1.00  0.00    -0.744 OA
ENDBRANCH  54  58
ENDBRANCH  27  51
BRANCH  39  62
ATOM     62  C   UNL A   1      40.956  32.648  36.039  1.00  0.00     0.023 A 
ATOM     63  C   UNL A   1      39.686  32.343  36.558  1.00  0.00     0.031 A 
ATOM     64  C   UNL A   1      41.769  33.551  36.745  1.00  0.00     0.131 A 
ATOM     65  C   UNL A   1      39.244  32.973  37.728  1.00  0.00     0.055 A 
ATOM     66  C   UNL A   1      41.342  34.138  37.936  1.00  0.00     0.041 A 
ATOM     67  F   UNL A   1      42.989  33.873  36.287  1.00  0.00    -0.206 F 
ATOM     68  C   UNL A   1      40.070  33.856  38.429  1.00  0.00     0.022 A 
BRANCH  65  69
ATOM     69  S   UNL A   1      37.550  32.665  38.295  1.00  0.00     0.124 S 
ATOM     70  O   UNL A   1      36.768  33.458  37.352  1.00  0.00    -0.237 OA
ATOM     71  O   UNL A   1      37.432  31.216  38.161  1.00  0.00    -0.237 OA
ATOM     72  O   UNL A   1      37.554  33.159  39.670  1.00  0.00    -0.744 OA
ENDBRANCH  65  69
ENDBRANCH  39  62
ENDBRANCH  13  14
ENDBRANCH   6   8
ENDBRANCH   5   6
ENDBRANCH   4   5
ENDBRANCH   3   4
ENDBRANCH   2   3
ENDBRANCH   1   2
BRANCH   1  73
ATOM     73  C   UNL A   1      43.923  22.189  25.152  1.00  0.00     0.188 C 
BRANCH  73  74
ATOM     74  O   UNL A   1      42.525  21.868  25.169  1.00  0.00    -0.376 OA
BRANCH  74  75
ATOM     75  C   UNL A   1      41.753  22.446  26.218  1.00  0.00     0.202 C 
BRANCH  75  76
ATOM     76  C   UNL A   1      41.991  23.929  26.527  1.00  0.00     0.261 C 
BRANCH  76  77
ATOM     77  O   UNL A   1      40.810  24.747  26.531  1.00  0.00    -0.460 OA
BRANCH  77  78
ATOM     78  C   UNL A   1      41.010  26.019  26.083  1.00  0.00     0.341 C 
ATOM     79  O   UNL A   1      41.530  26.292  25.001  1.00  0.00    -0.246 OA
BRANCH  78  80
ATOM     80  C   UNL A   1      40.607  27.065  27.001  1.00  0.00     0.098 A 
ATOM     81  C   UNL A   1      40.674  28.390  26.627  1.00  0.00     0.211 A 
ATOM     82  C   UNL A   1      40.054  27.080  28.329  1.00  0.00     0.068 A 
ATOM     83  O   UNL A   1      40.137  29.189  27.565  1.00  0.00    -0.462 OA
ATOM     84  C   UNL A   1      39.728  28.401  28.606  1.00  0.00     0.154 A 
BRANCH  84  85
ATOM     85  C   UNL A   1      39.009  28.997  29.775  1.00  0.00     0.117 A 
ATOM     86  C   UNL A   1      38.575  28.151  30.779  1.00  0.00     0.099 A 
ATOM     87  N   UNL A   1      38.734  30.342  29.973  1.00  0.00    -0.231 NA
ATOM     88  S   UNL A   1      37.853  29.037  32.037  1.00  0.00    -0.120 S 
ATOM     89  C   UNL A   1      38.073  30.483  31.114  1.00  0.00     0.142 A 
BRANCH  89  90
ATOM     90  C   UNL A   1      37.408  31.682  31.635  1.00  0.00     0.099 A 
ATOM     91  C   UNL A   1      38.051  32.919  31.585  1.00  0.00     0.033 A 
ATOM     92  N   UNL A   1      36.096  31.545  31.973  1.00  0.00    -0.252 NA
ATOM     93  C   UNL A   1      37.315  34.071  31.870  1.00  0.00     0.024 A 
ATOM     94  C   UNL A   1      35.416  32.684  32.257  1.00  0.00     0.132 A 
ATOM     95  C   UNL A   1      35.973  33.953  32.207  1.00  0.00     0.059 A 
ATOM     96  Cl  UNL A   1      35.020  35.345  32.530  1.00  0.00    -0.083 Cl
ENDBRANCH  89  90
ENDBRANCH  84  85
ENDBRANCH  78  80
ENDBRANCH  77  78
ENDBRANCH  76  77
ENDBRANCH  75  76
ENDBRANCH  74  75
ENDBRANCH  73  74
ENDBRANCH   1  73
TORSDOF 22
ENDMDL
MODEL 2
REMARK VINA RESULT:      -8.2      4.071      5.642
REMARK SMILES O=C(OCCOCCOCCOC(=O)c1coc(-c2csc(-c3ccc(Cl)cn3)n2)c1)c1ccc(-c2c3nc(c(-c4cc(S(=O)(=O)[O-])ccc4F)c4ccc([nH]4)c(-c4cc(S(=O)(=O)[O-])ccc4F)c4nc(c(-c5cc(S(=O)(=O)[O-])ccc5F)c5ccc2[nH]5)C=C4)C=C3)cc1
REMARK SMILES IDX 7 1 6 2 5 3 4 4 3 5 2 6 1 7 32 8 33 9 94 10 34 11 93 12
REMARK SMILES IDX 35 13 36 14 37 15 87 16 38 17 92 18 86 19 88 20 39 21 91 22
REMARK SMILES IDX 85 23 84 24 40 26 72 27 52 28 71 29 53 30 56 31 70 32 89 33
REMARK SMILES IDX 54 34 55 35 69 37 90 38 57 39 41 40 42 41 50 42 43 43 49 44
REMARK SMILES IDX 51 45 48 46 44 47 45 48 46 49 47 50 73 51 74 52 82 53 75 54
REMARK SMILES IDX 81 55 83 56 80 57 76 58 77 59 78 60 79 61 58 62 59 63 67 64
REMARK SMILES IDX 60 65 66 66 68 67 65 68 61 69 62 70 63 71 64 72 8 73 9 74
REMARK SMILES IDX 10 75 11 76 12 77 13 78 14 79 15 80 16 81 31 82 17 83 18 84
REMARK SMILES IDX 19 85 20 86 30 87 21 88 22 89 23 90 24 91 29 92 25 93 28 94
REMARK SMILES IDX 26 95 27 96
REMARK H PARENT 88 25 56 36
REMARK Flexibility Score: inf
ROOT
ATOM      1  C   UNL A   1      44.702  22.110  23.502  1.00  0.00     0.188 C 
ENDROOT
BRANCH   1   2
ATOM      2  O   UNL A   1      45.353  23.340  23.853  1.00  0.00    -0.376 OA
BRANCH   2   3
ATOM      3  C   UNL A   1      46.434  23.181  24.776  1.00  0.00     0.202 C 
BRANCH   3   4
ATOM      4  C   UNL A   1      46.963  24.498  25.358  1.00  0.00     0.261 C 
BRANCH   4   5
ATOM      5  O   UNL A   1      47.035  25.524  24.357  1.00  0.00    -0.460 OA
BRANCH   5   6
ATOM      6  C   UNL A   1      46.718  26.837  24.496  1.00  0.00     0.338 C 
ATOM      7  O   UNL A   1      46.968  27.602  23.566  1.00  0.00    -0.246 OA
BRANCH   6   8
ATOM      8  C   UNL A   1      46.035  27.394  25.704  1.00  0.00     0.060 A 
ATOM      9  C   UNL A   1      44.658  27.358  25.931  1.00  0.00     0.016 A 
ATOM     10  C   UNL A   1      46.854  27.928  26.713  1.00  0.00     0.016 A 
ATOM     11  C   UNL A   1      44.095  27.933  27.068  1.00  0.00     0.010 A 
ATOM     12  C   UNL A   1      46.301  28.447  27.892  1.00  0.00     0.010 A 
ATOM     13  C   UNL A   1      44.912  28.475  28.061  1.00  0.00    -0.014 A 
BRANCH  13  14
ATOM     14  C   UNL A   1      44.293  29.086  29.258  1.00  0.00     0.031 A 
ATOM     15  C   UNL A   1      43.891  30.529  29.221  1.00  0.00     0.074 A 
ATOM     16  C   UNL A   1      44.047  28.325  30.342  1.00  0.00     0.049 A 
ATOM     17  N   UNL A   1      43.410  31.277  30.178  1.00  0.00    -0.248 NA
ATOM     18  C   UNL A   1      44.046  31.220  27.931  1.00  0.00     0.031 C 
ATOM     19  C   UNL A   1      44.331  26.893  30.438  1.00  0.00     0.029 A 
ATOM     20  N   UNL A   1      43.509  28.637  31.563  1.00  0.00    -0.354 N 
ATOM     21  C   UNL A   1      43.222  32.533  29.613  1.00  0.00     0.074 A 
ATOM     22  C   UNL A   1      43.651  32.448  28.234  1.00  0.00     0.031 C 
ATOM     23  C   UNL A   1      43.966  26.449  31.651  1.00  0.00     0.029 A 
ATOM     24  C   UNL A   1      43.491  27.578  32.442  1.00  0.00     0.049 A 
ATOM     25  H   UNL A   1      43.168  29.533  31.789  1.00  0.00     0.167 HD
ATOM     26  C   UNL A   1      42.740  33.652  30.203  1.00  0.00     0.034 A 
ATOM     27  C   UNL A   1      43.177  27.539  33.753  1.00  0.00     0.034 A 
ATOM     28  C   UNL A   1      42.325  33.707  31.583  1.00  0.00     0.049 A 
ATOM     29  C   UNL A   1      42.744  28.824  34.412  1.00  0.00     0.074 A 
ATOM     30  C   UNL A   1      41.823  34.781  32.295  1.00  0.00     0.029 A 
ATOM     31  N   UNL A   1      42.381  32.634  32.464  1.00  0.00    -0.354 N 
ATOM     32  N   UNL A   1      42.582  30.011  33.872  1.00  0.00    -0.248 NA
ATOM     33  C   UNL A   1      42.468  28.773  35.853  1.00  0.00     0.031 C 
ATOM     34  C   UNL A   1      41.635  34.373  33.622  1.00  0.00     0.029 A 
ATOM     35  C   UNL A   1      41.967  33.030  33.725  1.00  0.00     0.049 A 
ATOM     36  H   UNL A   1      42.673  31.724  32.227  1.00  0.00     0.167 HD
ATOM     37  C   UNL A   1      42.184  30.849  34.908  1.00  0.00     0.074 A 
ATOM     38  C   UNL A   1      42.101  30.022  36.097  1.00  0.00     0.031 C 
ATOM     39  C   UNL A   1      41.919  32.179  34.890  1.00  0.00     0.034 A 
BRANCH  26  40
ATOM     40  C   UNL A   1      42.726  34.911  29.376  1.00  0.00     0.023 A 
ATOM     41  C   UNL A   1      43.880  35.691  29.186  1.00  0.00     0.031 A 
ATOM     42  C   UNL A   1      41.518  35.367  28.820  1.00  0.00     0.131 A 
ATOM     43  C   UNL A   1      43.788  36.917  28.509  1.00  0.00     0.055 A 
ATOM     44  C   UNL A   1      41.446  36.557  28.095  1.00  0.00     0.041 A 
ATOM     45  F   UNL A   1      40.382  34.674  28.998  1.00  0.00    -0.206 F 
ATOM     46  C   UNL A   1      42.583  37.345  27.946  1.00  0.00     0.022 A 
BRANCH  43  47
ATOM     47  S   UNL A   1      45.239  38.004  28.475  1.00  0.00     0.124 S 
ATOM     48  O   UNL A   1      45.506  38.096  27.041  1.00  0.00    -0.237 OA
ATOM     49  O   UNL A   1      44.741  39.219  29.110  1.00  0.00    -0.237 OA
ATOM     50  O   UNL A   1      46.241  37.266  29.242  1.00  0.00    -0.744 OA
ENDBRANCH  43  47
ENDBRANCH  26  40
BRANCH  27  51
ATOM     51  C   UNL A   1      43.353  26.283  34.542  1.00  0.00     0.023 A 
ATOM     52  C   UNL A   1      44.627  25.765  34.822  1.00  0.00     0.031 A 
ATOM     53  C   UNL A   1      42.235  25.550  34.986  1.00  0.00     0.131 A 
ATOM     54  C   UNL A   1      44.751  24.533  35.489  1.00  0.00     0.055 A 
ATOM     55  C   UNL A   1      42.364  24.357  35.697  1.00  0.00     0.041 A 
ATOM     56  F   UNL A   1      40.990  25.990  34.737  1.00  0.00    -0.206 F 
ATOM     57  C   UNL A   1      43.629  23.834  35.939  1.00  0.00     0.022 A 
BRANCH  54  58
ATOM     58  S   UNL A   1      46.402  23.799  35.665  1.00  0.00     0.124 S 
ATOM     59  O   UNL A   1      46.907  23.863  34.299  1.00  0.00    -0.237 OA
ATOM     60  O   UNL A   1      47.029  24.702  36.625  1.00  0.00    -0.237 OA
ATOM     61  O   UNL A   1      46.124  22.455  36.165  1.00  0.00    -0.744 OA
ENDBRANCH  54  58
ENDBRANCH  27  51
BRANCH  39  62
ATOM     62  C   UNL A   1      41.516  32.799  36.200  1.00  0.00     0.023 A 
ATOM     63  C   UNL A   1      40.259  32.532  36.770  1.00  0.00     0.031 A 
ATOM     64  C   UNL A   1      42.388  33.666  36.877  1.00  0.00     0.131 A 
ATOM     65  C   UNL A   1      39.889  33.165  37.963  1.00  0.00     0.055 A 
ATOM     66  C   UNL A   1      42.033  34.256  38.090  1.00  0.00     0.041 A 
ATOM     67  F   UNL A   1      43.598  33.950  36.371  1.00  0.00    -0.206 F 
ATOM     68  C   UNL A   1      40.774  34.014  38.634  1.00  0.00     0.022 A 
BRANCH  65  69
ATOM     69  S   UNL A   1      38.211  32.911  38.599  1.00  0.00     0.124 S 
ATOM     70  O   UNL A   1      38.389  33.158  40.026  1.00  0.00    -0.237 OA
ATOM     71  O   UNL A   1      37.442  33.914  37.869  1.00  0.00    -0.237 OA
ATOM     72  O   UNL A   1      37.915  31.526  38.240  1.00  0.00    -0.744 OA
ENDBRANCH  65  69
ENDBRANCH  39  62
ENDBRANCH  13  14
ENDBRANCH   6   8
ENDBRANCH   5   6
ENDBRANCH   4   5
ENDBRANCH   3   4
ENDBRANCH   2   3
ENDBRANCH   1   2
BRANCH   1  73
ATOM     73  C   UNL A   1      44.742  21.125  24.678  1.00  0.00     0.188 C 
BRANCH  73  74
ATOM     74  O   UNL A   1      43.537  20.379  24.895  1.00  0.00    -0.376 OA
BRANCH  74  75
ATOM     75  C   UNL A   1      42.783  20.713  26.056  1.00  0.00     0.202 C 
BRANCH  75  76
ATOM     76  C   UNL A   1      42.827  22.174  26.523  1.00  0.00     0.261 C 
BRANCH  76  77
ATOM     77  O   UNL A   1      41.869  23.043  25.898  1.00  0.00    -0.460 OA
BRANCH  77  78
ATOM     78  C   UNL A   1      41.024  23.661  26.771  1.00  0.00     0.341 C 
ATOM     79  O   UNL A   1      41.400  24.343  27.725  1.00  0.00    -0.246 OA
BRANCH  78  80
ATOM     80  C   UNL A   1      39.614  23.426  26.532  1.00  0.00     0.098 A 
ATOM     81  C   UNL A   1      38.723  24.477  26.507  1.00  0.00     0.211 A 
ATOM     82  C   UNL A   1      38.825  22.259  26.242  1.00  0.00     0.068 A 
ATOM     83  O   UNL A   1      37.496  24.066  26.145  1.00  0.00    -0.462 OA
ATOM     84  C   UNL A   1      37.544  22.712  25.954  1.00  0.00     0.154 A 
BRANCH  84  85
ATOM     85  C   UNL A   1      36.341  21.970  25.460  1.00  0.00     0.117 A 
ATOM     86  C   UNL A   1      35.248  22.702  25.035  1.00  0.00     0.099 A 
ATOM     87  N   UNL A   1      36.205  20.592  25.369  1.00  0.00    -0.231 NA
ATOM     88  S   UNL A   1      34.030  21.671  24.450  1.00  0.00    -0.120 S 
ATOM     89  C   UNL A   1      34.998  20.310  24.898  1.00  0.00     0.142 A 
BRANCH  89  90
ATOM     90  C   UNL A   1      34.340  19.002  24.817  1.00  0.00     0.099 A 
ATOM     91  C   UNL A   1      35.067  17.871  24.447  1.00  0.00     0.033 A 
ATOM     92  N   UNL A   1      33.068  18.936  25.301  1.00  0.00    -0.252 NA
ATOM     93  C   UNL A   1      34.481  16.614  24.601  1.00  0.00     0.024 A 
ATOM     94  C   UNL A   1      32.525  17.699  25.425  1.00  0.00     0.132 A 
ATOM     95  C   UNL A   1      33.188  16.524  25.103  1.00  0.00     0.059 A 
ATOM     96  Cl  UNL A   1      32.440  14.997  25.343  1.00  0.00    -0.083 Cl
ENDBRANCH  89  90
ENDBRANCH  84  85
ENDBRANCH  78  80
ENDBRANCH  77  78
ENDBRANCH  76  77
ENDBRANCH  75  76
ENDBRANCH  74  75
ENDBRANCH  73  74
ENDBRANCH   1  73
TORSDOF 22
ENDMDL
MODEL 3
REMARK VINA RESULT:      -8.0      5.751     12.259
REMARK SMILES O=C(OCCOCCOCCOC(=O)c1coc(-c2csc(-c3ccc(Cl)cn3)n2)c1)c1ccc(-c2c3nc(c(-c4cc(S(=O)(=O)[O-])ccc4F)c4ccc([nH]4)c(-c4cc(S(=O)(=O)[O-])ccc4F)c4nc(c(-c5cc(S(=O)(=O)[O-])ccc5F)c5ccc2[nH]5)C=C4)C=C3)cc1
REMARK SMILES IDX 7 1 6 2 5 3 4 4 3 5 2 6 1 7 32 8 33 9 94 10 34 11 93 12
REMARK SMILES IDX 35 13 36 14 37 15 87 16 38 17 92 18 86 19 88 20 39 21 91 22
REMARK SMILES IDX 85 23 84 24 40 26 72 27 52 28 71 29 53 30 56 31 70 32 89 33
REMARK SMILES IDX 54 34 55 35 69 37 90 38 57 39 41 40 42 41 50 42 43 43 49 44
REMARK SMILES IDX 51 45 48 46 44 47 45 48 46 49 47 50 73 51 74 52 82 53 75 54
REMARK SMILES IDX 81 55 83 56 80 57 76 58 77 59 78 60 79 61 58 62 59 63 67 64
REMARK SMILES IDX 60 65 66 66 68 67 65 68 61 69 62 70 63 71 64 72 8 73 9 74
REMARK SMILES IDX 10 75 11 76 12 77 13 78 14 79 15 80 16 81 31 82 17 83 18 84
REMARK SMILES IDX 19 85 20 86 30 87 21 88 22 89 23 90 24 91 29 92 25 93 28 94
REMARK SMILES IDX 26 95 27 96
REMARK H PARENT 88 25 56 36
REMARK Flexibility Score: inf
ROOT
ATOM      1  C   UNL A   1      48.236  24.584  39.667  1.00  0.00     0.188 C 
ENDROOT
BRANCH   1   2
ATOM      2  O   UNL A   1      47.246  25.373  38.990  1.00  0.00    -0.376 OA
BRANCH   2   3
ATOM      3  C   UNL A   1      47.230  26.748  39.385  1.00  0.00     0.202 C 
BRANCH   3   4
ATOM      4  C   UNL A   1      47.604  27.728  38.266  1.00  0.00     0.261 C 
BRANCH   4   5
ATOM      5  O   UNL A   1      48.556  27.153  37.359  1.00  0.00    -0.460 OA
BRANCH   5   6
ATOM      6  C   UNL A   1      48.429  26.999  36.016  1.00  0.00     0.338 C 
ATOM      7  O   UNL A   1      49.350  26.468  35.397  1.00  0.00    -0.246 OA
BRANCH   6   8
ATOM      8  C   UNL A   1      47.204  27.395  35.255  1.00  0.00     0.060 A 
ATOM      9  C   UNL A   1      47.113  28.502  34.409  1.00  0.00     0.016 A 
ATOM     10  C   UNL A   1      46.090  26.544  35.347  1.00  0.00     0.016 A 
ATOM     11  C   UNL A   1      45.922  28.824  33.763  1.00  0.00     0.010 A 
ATOM     12  C   UNL A   1      44.910  26.823  34.644  1.00  0.00     0.010 A 
ATOM     13  C   UNL A   1      44.814  27.983  33.868  1.00  0.00    -0.014 A 
BRANCH  13  14
ATOM     14  C   UNL A   1      43.557  28.347  33.177  1.00  0.00     0.031 A 
ATOM     15  C   UNL A   1      43.306  27.832  31.792  1.00  0.00     0.074 A 
ATOM     16  C   UNL A   1      42.634  29.089  33.818  1.00  0.00     0.049 A 
ATOM     17  N   UNL A   1      42.317  28.093  30.980  1.00  0.00    -0.248 NA
ATOM     18  C   UNL A   1      44.301  26.891  31.252  1.00  0.00     0.031 C 
ATOM     19  C   UNL A   1      42.758  29.567  35.196  1.00  0.00     0.029 A 
ATOM     20  N   UNL A   1      41.417  29.570  33.411  1.00  0.00    -0.354 N 
ATOM     21  C   UNL A   1      42.576  27.365  29.825  1.00  0.00     0.074 A 
ATOM     22  C   UNL A   1      43.822  26.660  30.038  1.00  0.00     0.031 C 
ATOM     23  C   UNL A   1      41.665  30.273  35.520  1.00  0.00     0.029 A 
ATOM     24  C   UNL A   1      40.796  30.359  34.353  1.00  0.00     0.049 A 
ATOM     25  H   UNL A   1      41.026  29.370  32.530  1.00  0.00     0.167 HD
ATOM     26  C   UNL A   1      41.838  27.302  28.692  1.00  0.00     0.034 A 
ATOM     27  C   UNL A   1      39.680  31.110  34.261  1.00  0.00     0.034 A 
ATOM     28  C   UNL A   1      40.602  28.021  28.508  1.00  0.00     0.049 A 
ATOM     29  C   UNL A   1      38.934  31.104  32.950  1.00  0.00     0.074 A 
ATOM     30  C   UNL A   1      39.767  28.040  27.407  1.00  0.00     0.029 A 
ATOM     31  N   UNL A   1      40.034  28.864  29.456  1.00  0.00    -0.354 N 
ATOM     32  N   UNL A   1      39.196  30.422  31.858  1.00  0.00    -0.248 NA
ATOM     33  C   UNL A   1      37.758  31.977  32.851  1.00  0.00     0.031 C 
ATOM     34  C   UNL A   1      38.727  28.943  27.666  1.00  0.00     0.029 A 
ATOM     35  C   UNL A   1      38.883  29.445  28.949  1.00  0.00     0.049 A 
ATOM     36  H   UNL A   1      40.396  29.025  30.358  1.00  0.00     0.167 HD
ATOM     37  C   UNL A   1      38.215  30.783  30.941  1.00  0.00     0.074 A 
ATOM     38  C   UNL A   1      37.339  31.719  31.620  1.00  0.00     0.031 C 
ATOM     39  C   UNL A   1      38.050  30.390  29.652  1.00  0.00     0.034 A 
BRANCH  26  40
ATOM     40  C   UNL A   1      42.403  26.499  27.551  1.00  0.00     0.023 A 
ATOM     41  C   UNL A   1      42.291  25.099  27.497  1.00  0.00     0.031 A 
ATOM     42  C   UNL A   1      43.120  27.146  26.529  1.00  0.00     0.131 A 
ATOM     43  C   UNL A   1      42.939  24.386  26.476  1.00  0.00     0.055 A 
ATOM     44  C   UNL A   1      43.710  26.436  25.482  1.00  0.00     0.041 A 
ATOM     45  F   UNL A   1      43.282  28.478  26.549  1.00  0.00    -0.206 F 
ATOM     46  C   UNL A   1      43.632  25.047  25.458  1.00  0.00     0.022 A 
BRANCH  43  47
ATOM     47  S   UNL A   1      42.967  22.574  26.560  1.00  0.00     0.124 S 
ATOM     48  O   UNL A   1      44.392  22.293  26.407  1.00  0.00    -0.237 OA
ATOM     49  O   UNL A   1      42.401  22.308  27.877  1.00  0.00    -0.237 OA
ATOM     50  O   UNL A   1      42.133  22.165  25.430  1.00  0.00    -0.744 OA
ENDBRANCH  43  47
ENDBRANCH  26  40
BRANCH  27  51
ATOM     51  C   UNL A   1      39.260  31.994  35.389  1.00  0.00     0.023 A 
ATOM     52  C   UNL A   1      39.756  33.300  35.522  1.00  0.00     0.031 A 
ATOM     53  C   UNL A   1      38.387  31.518  36.387  1.00  0.00     0.131 A 
ATOM     54  C   UNL A   1      39.409  34.069  36.646  1.00  0.00     0.055 A 
ATOM     55  C   UNL A   1      38.001  32.307  37.472  1.00  0.00     0.041 A 
ATOM     56  F   UNL A   1      37.890  30.272  36.320  1.00  0.00    -0.206 F 
ATOM     57  C   UNL A   1      38.525  33.587  37.614  1.00  0.00     0.022 A 
BRANCH  54  58
ATOM     58  S   UNL A   1      40.216  35.677  36.886  1.00  0.00     0.124 S 
ATOM     59  O   UNL A   1      39.572  36.493  35.864  1.00  0.00    -0.237 OA
ATOM     60  O   UNL A   1      39.865  35.985  38.269  1.00  0.00    -0.237 OA
ATOM     61  O   UNL A   1      41.629  35.386  36.653  1.00  0.00    -0.744 OA
ENDBRANCH  54  58
ENDBRANCH  27  51
BRANCH  39  62
ATOM     62  C   UNL A   1      36.877  30.980  28.918  1.00  0.00     0.023 A 
ATOM     63  C   UNL A   1      35.838  30.164  28.440  1.00  0.00     0.031 A 
ATOM     64  C   UNL A   1      36.803  32.364  28.688  1.00  0.00     0.131 A 
ATOM     65  C   UNL A   1      34.786  30.734  27.712  1.00  0.00     0.055 A 
ATOM     66  C   UNL A   1      35.728  32.932  28.005  1.00  0.00     0.041 A 
ATOM     67  F   UNL A   1      37.772  33.182  29.126  1.00  0.00    -0.206 F 
ATOM     68  C   UNL A   1      34.717  32.115  27.504  1.00  0.00     0.022 A 
BRANCH  65  69
ATOM     69  S   UNL A   1      33.535  29.640  26.989  1.00  0.00     0.124 S 
ATOM     70  O   UNL A   1      33.613  29.987  25.573  1.00  0.00    -0.237 OA
ATOM     71  O   UNL A   1      34.030  28.315  27.348  1.00  0.00    -0.237 OA
ATOM     72  O   UNL A   1      32.301  30.040  27.659  1.00  0.00    -0.744 OA
ENDBRANCH  65  69
ENDBRANCH  39  62
ENDBRANCH  13  14
ENDBRANCH   6   8
ENDBRANCH   5   6
ENDBRANCH   4   5
ENDBRANCH   3   4
ENDBRANCH   2   3
ENDBRANCH   1   2
BRANCH   1  73
ATOM     73  C   UNL A   1      49.170  23.909  38.655  1.00  0.00     0.188 C 
BRANCH  73  74
ATOM     74  O   UNL A   1      50.061  22.928  39.203  1.00  0.00    -0.376 OA
BRANCH  74  75
ATOM     75  C   UNL A   1      50.745  22.097  38.269  1.00  0.00     0.202 C 
BRANCH  75  76
ATOM     76  C   UNL A   1      50.276  22.153  36.809  1.00  0.00     0.261 C 
BRANCH  76  77
ATOM     77  O   UNL A   1      49.639  20.958  36.329  1.00  0.00    -0.460 OA
BRANCH  77  78
ATOM     78  C   UNL A   1      48.325  21.120  36.003  1.00  0.00     0.341 C 
ATOM     79  O   UNL A   1      47.920  21.905  35.146  1.00  0.00    -0.246 OA
BRANCH  78  80
ATOM     80  C   UNL A   1      47.397  20.323  36.781  1.00  0.00     0.098 A 
ATOM     81  C   UNL A   1      46.156  20.000  36.275  1.00  0.00     0.211 A 
ATOM     82  C   UNL A   1      47.457  19.676  38.064  1.00  0.00     0.068 A 
ATOM     83  O   UNL A   1      45.503  19.154  37.090  1.00  0.00    -0.462 OA
ATOM     84  C   UNL A   1      46.296  18.923  38.181  1.00  0.00     0.154 A 
BRANCH  84  85
ATOM     85  C   UNL A   1      45.875  17.948  39.236  1.00  0.00     0.117 A 
ATOM     86  C   UNL A   1      46.841  17.444  40.086  1.00  0.00     0.099 A 
ATOM     87  N   UNL A   1      44.585  17.493  39.466  1.00  0.00    -0.231 NA
ATOM     88  S   UNL A   1      46.140  16.418  41.245  1.00  0.00    -0.120 S 
ATOM     89  C   UNL A   1      44.607  16.632  40.475  1.00  0.00     0.142 A 
BRANCH  89  90
ATOM     90  C   UNL A   1      43.528  15.755  40.942  1.00  0.00     0.099 A 
ATOM     91  C   UNL A   1      42.763  15.034  40.027  1.00  0.00     0.033 A 
ATOM     92  N   UNL A   1      43.458  15.550  42.287  1.00  0.00    -0.252 NA
ATOM     93  C   UNL A   1      41.905  14.040  40.502  1.00  0.00     0.024 A 
ATOM     94  C   UNL A   1      42.604  14.586  42.715  1.00  0.00     0.132 A 
ATOM     95  C   UNL A   1      41.827  13.808  41.870  1.00  0.00     0.059 A 
ATOM     96  Cl  UNL A   1      40.813  12.573  42.497  1.00  0.00    -0.083 Cl
ENDBRANCH  89  90
ENDBRANCH  84  85
ENDBRANCH  78  80
ENDBRANCH  77  78
ENDBRANCH  76  77
ENDBRANCH  75  76
ENDBRANCH  74  75
ENDBRANCH  73  74
ENDBRANCH   1  73
TORSDOF 22
ENDMDL
