MODEL 1
REMARK VINA RESULT:      -9.3      0.000      0.000
REMARK SMILES CC1=C(C(=O)OCCOCCOCCOC(=O)c2ccc(-c3c4nc(c(-c5cc(S(=O)(=O)[O-])ccc5F)c5ccc([nH]5)c(-c5cc(S(=O)(=O)[O-])ccc5F)c5nc(c(-c6cc(S(=O)(=O)[O-])ccc6F)c6ccc3[nH]6)C=C5)C=C4)cc2)N2C(=O)[C@H](NC(=O)c3c(Cl)c(C(F)(F)F)nn3C)[C@@H]2SC1
REMARK SMILES IDX 10 1 9 2 8 3 7 4 6 5 4 6 5 7 3 8 1 9 2 10 101 11 81 12
REMARK SMILES IDX 100 13 82 14 99 15 83 16 84 17 85 18 86 19 87 21 88 22 89 23
REMARK SMILES IDX 97 24 90 25 91 26 96 27 98 28 92 29 93 30 94 31 95 32 11 33
REMARK SMILES IDX 12 34 13 35 14 36 15 37 16 38 17 39 18 40 19 41 80 42 20 43
REMARK SMILES IDX 79 44 21 45 22 46 23 47 73 48 24 49 78 50 72 51 74 52 25 53
REMARK SMILES IDX 77 54 71 55 70 56 26 58 58 59 38 60 57 61 39 62 42 63 56 64
REMARK SMILES IDX 75 65 40 66 41 67 55 69 76 70 43 71 27 72 28 73 36 74 29 75
REMARK SMILES IDX 35 76 37 77 34 78 30 79 31 80 32 81 33 82 59 83 60 84 68 85
REMARK SMILES IDX 61 86 67 87 69 88 66 89 62 90 63 91 64 92 65 93 44 94 45 95
REMARK SMILES IDX 53 96 46 97 52 98 54 99 51 100 47 101 48 102 49 103 50 104
REMARK H PARENT 85 20 74 57 42 68
REMARK Flexibility Score: inf
ROOT
ATOM      1  C   UNL A   1      38.847  28.326  28.492  1.00  0.00     0.188 C 
ENDROOT
BRANCH   1   2
ATOM      2  O   UNL A   1      37.966  29.120  29.273  1.00  0.00    -0.376 OA
BRANCH   2   3
ATOM      3  C   UNL A   1      37.663  30.440  28.833  1.00  0.00     0.202 C 
BRANCH   3   4
ATOM      4  C   UNL A   1      36.735  31.311  29.686  1.00  0.00     0.261 C 
BRANCH   4   5
ATOM      5  O   UNL A   1      35.385  31.245  29.208  1.00  0.00    -0.459 OA
BRANCH   5   6
ATOM      6  C   UNL A   1      35.147  31.880  28.033  1.00  0.00     0.355 C 
ATOM      7  O   UNL A   1      35.923  32.597  27.426  1.00  0.00    -0.244 OA
BRANCH   6   8
ATOM      8  C   UNL A   1      33.776  31.517  27.549  1.00  0.00     0.131 C 
ATOM      9  C   UNL A   1      32.891  33.831  28.039  1.00  0.00     0.043 C 
ATOM     10  C   UNL A   1      32.776  32.429  27.490  1.00  0.00    -0.032 C 
ATOM     11  C   UNL A   1      31.417  32.149  26.870  1.00  0.00     0.105 C 
ATOM     12  N   UNL A   1      33.567  30.229  27.160  1.00  0.00    -0.289 N 
ATOM     13  S   UNL A   1      31.402  30.719  25.744  1.00  0.00    -0.129 SA
ATOM     14  C   UNL A   1      34.261  29.079  27.068  1.00  0.00     0.253 C 
ATOM     15  C   UNL A   1      32.262  29.653  26.923  1.00  0.00     0.181 C 
ATOM     16  O   UNL A   1      35.391  28.783  27.386  1.00  0.00    -0.272 OA
ATOM     17  C   UNL A   1      33.006  28.380  26.400  1.00  0.00     0.206 C 
BRANCH  17  18
ATOM     18  N   UNL A   1      33.100  28.212  24.932  1.00  0.00    -0.336 N 
ATOM     19  C   UNL A   1      32.988  27.083  24.161  1.00  0.00     0.271 C 
ATOM     20  H   UNL A   1      33.269  29.043  24.430  1.00  0.00     0.164 HD
ATOM     21  O   UNL A   1      33.120  27.216  22.947  1.00  0.00    -0.267 OA
BRANCH  19  22
ATOM     22  C   UNL A   1      32.698  25.825  24.787  1.00  0.00     0.145 A 
ATOM     23  C   UNL A   1      31.469  25.326  25.177  1.00  0.00     0.104 A 
ATOM     24  N   UNL A   1      33.604  24.940  25.301  1.00  0.00    -0.261 N 
ATOM     25  Cl  UNL A   1      29.955  26.042  24.929  1.00  0.00    -0.079 Cl
ATOM     26  C   UNL A   1      31.724  24.108  25.857  1.00  0.00     0.185 A 
ATOM     27  N   UNL A   1      33.052  23.853  25.866  1.00  0.00    -0.166 NA
ATOM     28  C   UNL A   1      35.039  25.077  25.375  1.00  0.00     0.174 C 
BRANCH  26  29
ATOM     29  C   UNL A   1      30.717  23.232  26.557  1.00  0.00     0.436 C 
ATOM     30  F   UNL A   1      30.276  22.245  25.729  1.00  0.00    -0.164 F 
ATOM     31  F   UNL A   1      31.224  22.625  27.656  1.00  0.00    -0.164 F 
ATOM     32  F   UNL A   1      29.613  23.919  26.955  1.00  0.00    -0.164 F 
ENDBRANCH  26  29
ENDBRANCH  19  22
ENDBRANCH  17  18
ENDBRANCH   6   8
ENDBRANCH   5   6
ENDBRANCH   4   5
ENDBRANCH   3   4
ENDBRANCH   2   3
ENDBRANCH   1   2
BRANCH   1  33
ATOM     33  C   UNL A   1      39.674  27.222  29.183  1.00  0.00     0.188 C 
BRANCH  33  34
ATOM     34  O   UNL A   1      39.300  25.876  29.004  1.00  0.00    -0.376 OA
BRANCH  34  35
ATOM     35  C   UNL A   1      39.281  25.283  27.718  1.00  0.00     0.202 C 
BRANCH  35  36
ATOM     36  C   UNL A   1      40.215  25.613  26.537  1.00  0.00     0.261 C 
BRANCH  36  37
ATOM     37  O   UNL A   1      41.614  25.387  26.686  1.00  0.00    -0.460 OA
BRANCH  37  38
ATOM     38  C   UNL A   1      42.403  26.055  25.808  1.00  0.00     0.338 C 
ATOM     39  O   UNL A   1      42.649  25.735  24.659  1.00  0.00    -0.246 OA
BRANCH  38  40
ATOM     40  C   UNL A   1      42.748  27.366  26.393  1.00  0.00     0.060 A 
ATOM     41  C   UNL A   1      43.631  27.391  27.480  1.00  0.00     0.016 A 
ATOM     42  C   UNL A   1      42.194  28.547  25.894  1.00  0.00     0.016 A 
ATOM     43  C   UNL A   1      43.935  28.602  28.100  1.00  0.00     0.010 A 
ATOM     44  C   UNL A   1      42.486  29.758  26.530  1.00  0.00     0.010 A 
ATOM     45  C   UNL A   1      43.330  29.786  27.655  1.00  0.00    -0.014 A 
BRANCH  45  46
ATOM     46  C   UNL A   1      43.415  31.002  28.500  1.00  0.00     0.031 A 
ATOM     47  C   UNL A   1      44.490  32.010  28.186  1.00  0.00     0.074 A 
ATOM     48  C   UNL A   1      42.539  31.224  29.495  1.00  0.00     0.049 A 
ATOM     49  N   UNL A   1      44.767  33.142  28.776  1.00  0.00    -0.248 NA
ATOM     50  C   UNL A   1      45.369  31.688  27.051  1.00  0.00     0.031 C 
ATOM     51  C   UNL A   1      41.436  30.339  29.866  1.00  0.00     0.029 A 
ATOM     52  N   UNL A   1      42.445  32.266  30.383  1.00  0.00    -0.354 N 
ATOM     53  C   UNL A   1      45.848  33.675  28.080  1.00  0.00     0.074 A 
ATOM     54  C   UNL A   1      46.204  32.717  27.056  1.00  0.00     0.031 C 
ATOM     55  C   UNL A   1      40.786  30.869  30.917  1.00  0.00     0.029 A 
ATOM     56  C   UNL A   1      41.445  32.113  31.315  1.00  0.00     0.049 A 
ATOM     57  H   UNL A   1      43.040  33.051  30.357  1.00  0.00     0.167 HD
ATOM     58  C   UNL A   1      46.480  34.859  28.270  1.00  0.00     0.034 A 
ATOM     59  C   UNL A   1      41.115  32.882  32.373  1.00  0.00     0.034 A 
ATOM     60  C   UNL A   1      46.130  35.793  29.313  1.00  0.00     0.049 A 
ATOM     61  C   UNL A   1      41.889  34.160  32.617  1.00  0.00     0.074 A 
ATOM     62  C   UNL A   1      46.699  37.021  29.597  1.00  0.00     0.029 A 
ATOM     63  N   UNL A   1      45.126  35.595  30.252  1.00  0.00    -0.354 N 
ATOM     64  N   UNL A   1      42.896  34.664  31.938  1.00  0.00    -0.248 NA
ATOM     65  C   UNL A   1      41.469  34.981  33.760  1.00  0.00     0.031 C 
ATOM     66  C   UNL A   1      46.093  37.529  30.752  1.00  0.00     0.029 A 
ATOM     67  C   UNL A   1      45.088  36.658  31.141  1.00  0.00     0.049 A 
ATOM     68  H   UNL A   1      44.530  34.812  30.283  1.00  0.00     0.167 HD
ATOM     69  C   UNL A   1      43.196  35.881  32.548  1.00  0.00     0.074 A 
ATOM     70  C   UNL A   1      42.258  36.037  33.641  1.00  0.00     0.031 C 
ATOM     71  C   UNL A   1      44.152  36.793  32.233  1.00  0.00     0.034 A 
BRANCH  58  72
ATOM     72  C   UNL A   1      47.647  35.172  27.364  1.00  0.00     0.023 A 
ATOM     73  C   UNL A   1      48.965  34.817  27.703  1.00  0.00     0.031 A 
ATOM     74  C   UNL A   1      47.444  35.877  26.164  1.00  0.00     0.131 A 
ATOM     75  C   UNL A   1      50.033  35.231  26.892  1.00  0.00     0.055 A 
ATOM     76  C   UNL A   1      48.504  36.215  25.321  1.00  0.00     0.041 A 
ATOM     77  F   UNL A   1      46.213  36.267  25.801  1.00  0.00    -0.206 F 
ATOM     78  C   UNL A   1      49.809  35.905  25.690  1.00  0.00     0.022 A 
BRANCH  75  79
ATOM     79  S   UNL A   1      51.726  35.010  27.507  1.00  0.00     0.124 S 
ATOM     80  O   UNL A   1      51.585  33.821  28.344  1.00  0.00    -0.237 OA
ATOM     81  O   UNL A   1      52.491  34.839  26.278  1.00  0.00    -0.237 OA
ATOM     82  O   UNL A   1      51.988  36.249  28.239  1.00  0.00    -0.744 OA
ENDBRANCH  75  79
ENDBRANCH  58  72
BRANCH  59  83
ATOM     83  C   UNL A   1      40.008  32.480  33.291  1.00  0.00     0.023 A 
ATOM     84  C   UNL A   1      38.741  33.084  33.219  1.00  0.00     0.031 A 
ATOM     85  C   UNL A   1      40.221  31.523  34.298  1.00  0.00     0.131 A 
ATOM     86  C   UNL A   1      37.749  32.753  34.155  1.00  0.00     0.055 A 
ATOM     87  C   UNL A   1      39.215  31.159  35.197  1.00  0.00     0.041 A 
ATOM     88  F   UNL A   1      41.415  30.922  34.425  1.00  0.00    -0.206 F 
ATOM     89  C   UNL A   1      37.974  31.784  35.135  1.00  0.00     0.022 A 
BRANCH  86  90
ATOM     90  S   UNL A   1      36.193  33.688  34.150  1.00  0.00     0.124 S 
ATOM     91  O   UNL A   1      35.869  33.737  35.571  1.00  0.00    -0.237 OA
ATOM     92  O   UNL A   1      36.593  34.951  33.540  1.00  0.00    -0.237 OA
ATOM     93  O   UNL A   1      35.303  32.862  33.336  1.00  0.00    -0.744 OA
ENDBRANCH  86  90
ENDBRANCH  59  83
BRANCH  71  94
ATOM     94  C   UNL A   1      44.197  38.059  33.058  1.00  0.00     0.023 A 
ATOM     95  C   UNL A   1      43.406  39.179  32.748  1.00  0.00     0.031 A 
ATOM     96  C   UNL A   1      45.057  38.146  34.168  1.00  0.00     0.131 A 
ATOM     97  C   UNL A   1      43.534  40.357  33.499  1.00  0.00     0.055 A 
ATOM     98  C   UNL A   1      45.135  39.300  34.951  1.00  0.00     0.041 A 
ATOM     99  F   UNL A   1      45.836  37.109  34.514  1.00  0.00    -0.206 F 
ATOM    100  C   UNL A   1      44.382  40.419  34.608  1.00  0.00     0.022 A 
BRANCH  97 101
ATOM    101  S   UNL A   1      42.649  41.843  32.952  1.00  0.00     0.124 S 
ATOM    102  O   UNL A   1      41.823  41.323  31.867  1.00  0.00    -0.237 OA
ATOM    103  O   UNL A   1      41.936  42.245  34.160  1.00  0.00    -0.237 OA
ATOM    104  O   UNL A   1      43.720  42.748  32.536  1.00  0.00    -0.744 OA
ENDBRANCH  97 101
ENDBRANCH  71  94
ENDBRANCH  45  46
ENDBRANCH  38  40
ENDBRANCH  37  38
ENDBRANCH  36  37
ENDBRANCH  35  36
ENDBRANCH  34  35
ENDBRANCH  33  34
ENDBRANCH   1  33
TORSDOF 23
ENDMDL
MODEL 2
REMARK VINA RESULT:      -9.1      3.698      5.946
REMARK SMILES CC1=C(C(=O)OCCOCCOCCOC(=O)c2ccc(-c3c4nc(c(-c5cc(S(=O)(=O)[O-])ccc5F)c5ccc([nH]5)c(-c5cc(S(=O)(=O)[O-])ccc5F)c5nc(c(-c6cc(S(=O)(=O)[O-])ccc6F)c6ccc3[nH]6)C=C5)C=C4)cc2)N2C(=O)[C@H](NC(=O)c3c(Cl)c(C(F)(F)F)nn3C)[C@@H]2SC1
REMARK SMILES IDX 10 1 9 2 8 3 7 4 6 5 4 6 5 7 3 8 1 9 2 10 101 11 81 12
REMARK SMILES IDX 100 13 82 14 99 15 83 16 84 17 85 18 86 19 87 21 88 22 89 23
REMARK SMILES IDX 97 24 90 25 91 26 96 27 98 28 92 29 93 30 94 31 95 32 11 33
REMARK SMILES IDX 12 34 13 35 14 36 15 37 16 38 17 39 18 40 19 41 80 42 20 43
REMARK SMILES IDX 79 44 21 45 22 46 23 47 73 48 24 49 78 50 72 51 74 52 25 53
REMARK SMILES IDX 77 54 71 55 70 56 26 58 58 59 38 60 57 61 39 62 42 63 56 64
REMARK SMILES IDX 75 65 40 66 41 67 55 69 76 70 43 71 27 72 28 73 36 74 29 75
REMARK SMILES IDX 35 76 37 77 34 78 30 79 31 80 32 81 33 82 59 83 60 84 68 85
REMARK SMILES IDX 61 86 67 87 69 88 66 89 62 90 63 91 64 92 65 93 44 94 45 95
REMARK SMILES IDX 53 96 46 97 52 98 54 99 51 100 47 101 48 102 49 103 50 104
REMARK H PARENT 85 20 74 57 42 68
REMARK Flexibility Score: inf
ROOT
ATOM      1  C   UNL A   1      40.000  22.428  26.977  1.00  0.00     0.188 C 
ENDROOT
BRANCH   1   2
ATOM      2  O   UNL A   1      38.794  22.505  26.232  1.00  0.00    -0.376 OA
BRANCH   2   3
ATOM      3  C   UNL A   1      38.452  21.422  25.371  1.00  0.00     0.202 C 
BRANCH   3   4
ATOM      4  C   UNL A   1      37.015  20.892  25.381  1.00  0.00     0.261 C 
BRANCH   4   5
ATOM      5  O   UNL A   1      36.070  21.970  25.430  1.00  0.00    -0.459 OA
BRANCH   5   6
ATOM      6  C   UNL A   1      35.445  22.255  24.260  1.00  0.00     0.355 C 
ATOM      7  O   UNL A   1      35.979  22.446  23.181  1.00  0.00    -0.244 OA
BRANCH   6   8
ATOM      8  C   UNL A   1      33.964  22.244  24.480  1.00  0.00     0.131 C 
ATOM      9  C   UNL A   1      33.903  19.719  24.556  1.00  0.00     0.043 C 
ATOM     10  C   UNL A   1      33.282  21.090  24.683  1.00  0.00    -0.032 C 
ATOM     11  C   UNL A   1      31.811  21.037  25.058  1.00  0.00     0.105 C 
ATOM     12  N   UNL A   1      33.318  23.442  24.477  1.00  0.00    -0.289 N 
ATOM     13  S   UNL A   1      31.168  22.599  25.740  1.00  0.00    -0.129 SA
ATOM     14  C   UNL A   1      33.615  24.746  24.321  1.00  0.00     0.253 C 
ATOM     15  C   UNL A   1      31.881  23.591  24.410  1.00  0.00     0.181 C 
ATOM     16  O   UNL A   1      34.647  25.319  24.053  1.00  0.00    -0.272 OA
ATOM     17  C   UNL A   1      32.109  25.123  24.637  1.00  0.00     0.206 C 
BRANCH  17  18
ATOM     18  N   UNL A   1      31.875  25.641  26.004  1.00  0.00    -0.336 N 
ATOM     19  C   UNL A   1      31.517  26.896  26.426  1.00  0.00     0.271 C 
ATOM     20  H   UNL A   1      31.995  24.979  26.725  1.00  0.00     0.164 HD
ATOM     21  O   UNL A   1      31.397  27.070  27.636  1.00  0.00    -0.267 OA
BRANCH  19  22
ATOM     22  C   UNL A   1      31.273  27.925  25.456  1.00  0.00     0.145 A 
ATOM     23  C   UNL A   1      30.284  27.976  24.491  1.00  0.00     0.104 A 
ATOM     24  N   UNL A   1      32.089  28.981  25.163  1.00  0.00    -0.261 N 
ATOM     25  Cl  UNL A   1      29.029  26.863  24.262  1.00  0.00    -0.079 Cl
ATOM     26  C   UNL A   1      30.543  29.128  23.706  1.00  0.00     0.185 A 
ATOM     27  N   UNL A   1      31.632  29.775  24.181  1.00  0.00    -0.166 NA
ATOM     28  C   UNL A   1      33.388  29.283  25.717  1.00  0.00     0.174 C 
BRANCH  26  29
ATOM     29  C   UNL A   1      29.803  29.568  22.470  1.00  0.00     0.436 C 
ATOM     30  F   UNL A   1      29.137  28.522  21.906  1.00  0.00    -0.164 F 
ATOM     31  F   UNL A   1      28.882  30.528  22.723  1.00  0.00    -0.164 F 
ATOM     32  F   UNL A   1      30.633  30.055  21.509  1.00  0.00    -0.164 F 
ENDBRANCH  26  29
ENDBRANCH  19  22
ENDBRANCH  17  18
ENDBRANCH   6   8
ENDBRANCH   5   6
ENDBRANCH   4   5
ENDBRANCH   3   4
ENDBRANCH   2   3
ENDBRANCH   1   2
BRANCH   1  33
ATOM     33  C   UNL A   1      40.791  23.723  27.258  1.00  0.00     0.188 C 
BRANCH  33  34
ATOM     34  O   UNL A   1      42.188  23.721  27.078  1.00  0.00    -0.376 OA
BRANCH  34  35
ATOM     35  C   UNL A   1      42.933  22.517  27.121  1.00  0.00     0.202 C 
BRANCH  35  36
ATOM     36  C   UNL A   1      43.735  21.888  25.965  1.00  0.00     0.261 C 
BRANCH  36  37
ATOM     37  O   UNL A   1      45.097  21.533  26.191  1.00  0.00    -0.460 OA
BRANCH  37  38
ATOM     38  C   UNL A   1      45.998  22.181  25.411  1.00  0.00     0.338 C 
ATOM     39  O   UNL A   1      46.550  21.745  24.416  1.00  0.00    -0.246 OA
BRANCH  38  40
ATOM     40  C   UNL A   1      46.047  23.596  25.829  1.00  0.00     0.060 A 
ATOM     41  C   UNL A   1      46.332  23.879  27.171  1.00  0.00     0.016 A 
ATOM     42  C   UNL A   1      45.791  24.627  24.920  1.00  0.00     0.016 A 
ATOM     43  C   UNL A   1      46.327  25.198  27.620  1.00  0.00     0.010 A 
ATOM     44  C   UNL A   1      45.768  25.948  25.377  1.00  0.00     0.010 A 
ATOM     45  C   UNL A   1      46.002  26.236  26.734  1.00  0.00    -0.014 A 
BRANCH  45  46
ATOM     46  C   UNL A   1      45.699  27.582  27.279  1.00  0.00     0.031 A 
ATOM     47  C   UNL A   1      46.812  28.595  27.328  1.00  0.00     0.074 A 
ATOM     48  C   UNL A   1      44.459  27.909  27.685  1.00  0.00     0.049 A 
ATOM     49  N   UNL A   1      46.797  29.828  27.759  1.00  0.00    -0.248 NA
ATOM     50  C   UNL A   1      48.119  28.147  26.821  1.00  0.00     0.031 C 
ATOM     51  C   UNL A   1      43.295  27.023  27.649  1.00  0.00     0.029 A 
ATOM     52  N   UNL A   1      43.974  29.078  28.215  1.00  0.00    -0.354 N 
ATOM     53  C   UNL A   1      48.089  30.309  27.569  1.00  0.00     0.074 A 
ATOM     54  C   UNL A   1      48.870  29.217  27.028  1.00  0.00     0.031 C 
ATOM     55  C   UNL A   1      42.235  27.678  28.153  1.00  0.00     0.029 A 
ATOM     56  C   UNL A   1      42.649  29.016  28.577  1.00  0.00     0.049 A 
ATOM     57  H   UNL A   1      44.525  29.886  28.327  1.00  0.00     0.167 HD
ATOM     58  C   UNL A   1      48.578  31.550  27.811  1.00  0.00     0.034 A 
ATOM     59  C   UNL A   1      41.870  29.929  29.193  1.00  0.00     0.034 A 
ATOM     60  C   UNL A   1      47.792  32.622  28.374  1.00  0.00     0.049 A 
ATOM     61  C   UNL A   1      42.459  31.281  29.532  1.00  0.00     0.074 A 
ATOM     62  C   UNL A   1      48.181  33.918  28.661  1.00  0.00     0.029 A 
ATOM     63  N   UNL A   1      46.459  32.516  28.749  1.00  0.00    -0.354 N 
ATOM     64  N   UNL A   1      43.678  31.732  29.326  1.00  0.00    -0.248 NA
ATOM     65  C   UNL A   1      41.563  32.254  30.169  1.00  0.00     0.031 C 
ATOM     66  C   UNL A   1      47.109  34.571  29.279  1.00  0.00     0.029 A 
ATOM     67  C   UNL A   1      46.023  33.710  29.302  1.00  0.00     0.049 A 
ATOM     68  H   UNL A   1      45.904  31.710  28.640  1.00  0.00     0.167 HD
ATOM     69  C   UNL A   1      43.675  33.054  29.770  1.00  0.00     0.074 A 
ATOM     70  C   UNL A   1      42.334  33.328  30.244  1.00  0.00     0.031 C 
ATOM     71  C   UNL A   1      44.683  33.964  29.780  1.00  0.00     0.034 A 
BRANCH  58  72
ATOM     72  C   UNL A   1      50.041  31.786  27.521  1.00  0.00     0.023 A 
ATOM     73  C   UNL A   1      50.484  32.229  26.262  1.00  0.00     0.031 A 
ATOM     74  C   UNL A   1      51.011  31.519  28.503  1.00  0.00     0.131 A 
ATOM     75  C   UNL A   1      51.859  32.321  25.997  1.00  0.00     0.055 A 
ATOM     76  C   UNL A   1      52.374  31.692  28.258  1.00  0.00     0.041 A 
ATOM     77  F   UNL A   1      50.650  31.068  29.715  1.00  0.00    -0.206 F 
ATOM     78  C   UNL A   1      52.806  32.080  26.994  1.00  0.00     0.022 A 
BRANCH  75  79
ATOM     79  S   UNL A   1      52.396  32.611  24.287  1.00  0.00     0.124 S 
ATOM     80  O   UNL A   1      53.847  32.490  24.407  1.00  0.00    -0.237 OA
ATOM     81  O   UNL A   1      51.724  31.542  23.558  1.00  0.00    -0.237 OA
ATOM     82  O   UNL A   1      51.913  33.961  24.001  1.00  0.00    -0.744 OA
ENDBRANCH  75  79
ENDBRANCH  58  72
BRANCH  59  83
ATOM     83  C   UNL A   1      40.452  29.612  29.539  1.00  0.00     0.023 A 
ATOM     84  C   UNL A   1      40.057  29.378  30.867  1.00  0.00     0.031 A 
ATOM     85  C   UNL A   1      39.480  29.479  28.533  1.00  0.00     0.131 A 
ATOM     86  C   UNL A   1      38.738  28.991  31.151  1.00  0.00     0.055 A 
ATOM     87  C   UNL A   1      38.156  29.142  28.825  1.00  0.00     0.041 A 
ATOM     88  F   UNL A   1      39.802  29.677  27.245  1.00  0.00    -0.206 F 
ATOM     89  C   UNL A   1      37.782  28.885  30.140  1.00  0.00     0.022 A 
BRANCH  86  90
ATOM     90  S   UNL A   1      38.312  28.513  32.851  1.00  0.00     0.124 S 
ATOM     91  O   UNL A   1      36.934  28.976  32.954  1.00  0.00    -0.237 OA
ATOM     92  O   UNL A   1      38.502  27.068  32.822  1.00  0.00    -0.237 OA
ATOM     93  O   UNL A   1      39.280  29.250  33.662  1.00  0.00    -0.744 OA
ENDBRANCH  86  90
ENDBRANCH  59  83
BRANCH  71  94
ATOM     94  C   UNL A   1      44.355  35.352  30.279  1.00  0.00     0.023 A 
ATOM     95  C   UNL A   1      44.408  35.685  31.644  1.00  0.00     0.031 A 
ATOM     96  C   UNL A   1      43.974  36.356  29.370  1.00  0.00     0.131 A 
ATOM     97  C   UNL A   1      44.027  36.967  32.068  1.00  0.00     0.055 A 
ATOM     98  C   UNL A   1      43.656  37.648  29.791  1.00  0.00     0.041 A 
ATOM     99  F   UNL A   1      43.906  36.099  28.055  1.00  0.00    -0.206 F 
ATOM    100  C   UNL A   1      43.666  37.955  31.149  1.00  0.00     0.022 A 
BRANCH  97 101
ATOM    101  S   UNL A   1      43.915  37.301  33.848  1.00  0.00     0.124 S 
ATOM    102  O   UNL A   1      45.043  38.203  34.061  1.00  0.00    -0.237 OA
ATOM    103  O   UNL A   1      42.589  37.898  33.971  1.00  0.00    -0.237 OA
ATOM    104  O   UNL A   1      44.057  35.978  34.455  1.00  0.00    -0.744 OA
ENDBRANCH  97 101
ENDBRANCH  71  94
ENDBRANCH  45  46
ENDBRANCH  38  40
ENDBRANCH  37  38
ENDBRANCH  36  37
ENDBRANCH  35  36
ENDBRANCH  34  35
ENDBRANCH  33  34
ENDBRANCH   1  33
TORSDOF 23
ENDMDL
MODEL 3
REMARK VINA RESULT:      -8.8      4.305     10.284
REMARK SMILES CC1=C(C(=O)OCCOCCOCCOC(=O)c2ccc(-c3c4nc(c(-c5cc(S(=O)(=O)[O-])ccc5F)c5ccc([nH]5)c(-c5cc(S(=O)(=O)[O-])ccc5F)c5nc(c(-c6cc(S(=O)(=O)[O-])ccc6F)c6ccc3[nH]6)C=C5)C=C4)cc2)N2C(=O)[C@H](NC(=O)c3c(Cl)c(C(F)(F)F)nn3C)[C@@H]2SC1
REMARK SMILES IDX 10 1 9 2 8 3 7 4 6 5 4 6 5 7 3 8 1 9 2 10 101 11 81 12
REMARK SMILES IDX 100 13 82 14 99 15 83 16 84 17 85 18 86 19 87 21 88 22 89 23
REMARK SMILES IDX 97 24 90 25 91 26 96 27 98 28 92 29 93 30 94 31 95 32 11 33
REMARK SMILES IDX 12 34 13 35 14 36 15 37 16 38 17 39 18 40 19 41 80 42 20 43
REMARK SMILES IDX 79 44 21 45 22 46 23 47 73 48 24 49 78 50 72 51 74 52 25 53
REMARK SMILES IDX 77 54 71 55 70 56 26 58 58 59 38 60 57 61 39 62 42 63 56 64
REMARK SMILES IDX 75 65 40 66 41 67 55 69 76 70 43 71 27 72 28 73 36 74 29 75
REMARK SMILES IDX 35 76 37 77 34 78 30 79 31 80 32 81 33 82 59 83 60 84 68 85
REMARK SMILES IDX 61 86 67 87 69 88 66 89 62 90 63 91 64 92 65 93 44 94 45 95
REMARK SMILES IDX 53 96 46 97 52 98 54 99 51 100 47 101 48 102 49 103 50 104
REMARK H PARENT 85 20 74 57 42 68
REMARK Flexibility Score: inf
ROOT
ATOM      1  C   UNL A   1      35.136  32.154  28.094  1.00  0.00     0.188 C 
ENDROOT
BRANCH   1   2
ATOM      2  O   UNL A   1      35.733  30.956  27.619  1.00  0.00    -0.376 OA
BRANCH   2   3
ATOM      3  C   UNL A   1      34.934  29.780  27.534  1.00  0.00     0.202 C 
BRANCH   3   4
ATOM      4  C   UNL A   1      33.810  29.720  26.495  1.00  0.00     0.261 C 
BRANCH   4   5
ATOM      5  O   UNL A   1      33.505  28.363  26.146  1.00  0.00    -0.459 OA
BRANCH   5   6
ATOM      6  C   UNL A   1      33.303  28.128  24.825  1.00  0.00     0.355 C 
ATOM      7  O   UNL A   1      34.064  28.405  23.914  1.00  0.00    -0.244 OA
BRANCH   6   8
ATOM      8  C   UNL A   1      32.000  27.410  24.649  1.00  0.00     0.131 C 
ATOM      9  C   UNL A   1      30.739  29.579  24.354  1.00  0.00     0.043 C 
ATOM     10  C   UNL A   1      30.852  28.072  24.367  1.00  0.00    -0.032 C 
ATOM     11  C   UNL A   1      29.541  27.381  24.033  1.00  0.00     0.105 C 
ATOM     12  N   UNL A   1      32.006  26.054  24.778  1.00  0.00    -0.289 N 
ATOM     13  S   UNL A   1      29.735  25.647  23.511  1.00  0.00    -0.129 SA
ATOM     14  C   UNL A   1      32.889  25.071  25.040  1.00  0.00     0.253 C 
ATOM     15  C   UNL A   1      30.815  25.244  24.902  1.00  0.00     0.181 C 
ATOM     16  O   UNL A   1      34.065  25.089  25.326  1.00  0.00    -0.272 OA
ATOM     17  C   UNL A   1      31.752  23.994  24.804  1.00  0.00     0.206 C 
BRANCH  17  18
ATOM     18  N   UNL A   1      31.815  23.303  23.495  1.00  0.00    -0.336 N 
ATOM     19  C   UNL A   1      32.699  22.362  23.034  1.00  0.00     0.271 C 
ATOM     20  H   UNL A   1      31.112  23.561  22.856  1.00  0.00     0.164 HD
ATOM     21  O   UNL A   1      32.536  21.952  21.887  1.00  0.00    -0.267 OA
BRANCH  19  22
ATOM     22  C   UNL A   1      33.739  21.883  23.899  1.00  0.00     0.145 A 
ATOM     23  C   UNL A   1      35.084  22.202  23.879  1.00  0.00     0.104 A 
ATOM     24  N   UNL A   1      33.645  20.862  24.803  1.00  0.00    -0.261 N 
ATOM     25  Cl  UNL A   1      35.847  23.329  22.872  1.00  0.00    -0.079 Cl
ATOM     26  C   UNL A   1      35.710  21.376  24.846  1.00  0.00     0.185 A 
ATOM     27  N   UNL A   1      34.788  20.598  25.456  1.00  0.00    -0.166 NA
ATOM     28  C   UNL A   1      32.510  20.010  25.068  1.00  0.00     0.174 C 
BRANCH  26  29
ATOM     29  C   UNL A   1      37.186  21.278  25.136  1.00  0.00     0.436 C 
ATOM     30  F   UNL A   1      37.712  20.144  24.595  1.00  0.00    -0.164 F 
ATOM     31  F   UNL A   1      37.891  22.317  24.629  1.00  0.00    -0.164 F 
ATOM     32  F   UNL A   1      37.455  21.227  26.468  1.00  0.00    -0.164 F 
ENDBRANCH  26  29
ENDBRANCH  19  22
ENDBRANCH  17  18
ENDBRANCH   6   8
ENDBRANCH   5   6
ENDBRANCH   4   5
ENDBRANCH   3   4
ENDBRANCH   2   3
ENDBRANCH   1   2
BRANCH   1  33
ATOM     33  C   UNL A   1      35.577  32.721  29.460  1.00  0.00     0.188 C 
BRANCH  33  34
ATOM     34  O   UNL A   1      34.882  32.325  30.618  1.00  0.00    -0.376 OA
BRANCH  34  35
ATOM     35  C   UNL A   1      35.526  31.596  31.649  1.00  0.00     0.202 C 
BRANCH  35  36
ATOM     36  C   UNL A   1      36.074  32.161  32.974  1.00  0.00     0.261 C 
BRANCH  36  37
ATOM     37  O   UNL A   1      37.484  32.301  33.127  1.00  0.00    -0.460 OA
BRANCH  37  38
ATOM     38  C   UNL A   1      38.086  33.100  32.211  1.00  0.00     0.338 C 
ATOM     39  O   UNL A   1      37.874  34.285  32.024  1.00  0.00    -0.246 OA
BRANCH  38  40
ATOM     40  C   UNL A   1      39.214  32.359  31.612  1.00  0.00     0.060 A 
ATOM     41  C   UNL A   1      40.277  31.988  32.446  1.00  0.00     0.016 A 
ATOM     42  C   UNL A   1      39.236  32.055  30.249  1.00  0.00     0.016 A 
ATOM     43  C   UNL A   1      41.388  31.341  31.909  1.00  0.00     0.010 A 
ATOM     44  C   UNL A   1      40.361  31.424  29.710  1.00  0.00     0.010 A 
ATOM     45  C   UNL A   1      41.454  31.095  30.531  1.00  0.00    -0.014 A 
BRANCH  45  46
ATOM     46  C   UNL A   1      42.751  30.695  29.930  1.00  0.00     0.031 A 
ATOM     47  C   UNL A   1      42.971  29.237  29.625  1.00  0.00     0.074 A 
ATOM     48  C   UNL A   1      43.692  31.607  29.629  1.00  0.00     0.049 A 
ATOM     49  N   UNL A   1      44.012  28.643  29.106  1.00  0.00    -0.248 NA
ATOM     50  C   UNL A   1      41.861  28.329  29.957  1.00  0.00     0.031 C 
ATOM     51  C   UNL A   1      43.575  33.048  29.844  1.00  0.00     0.029 A 
ATOM     52  N   UNL A   1      44.941  31.450  29.081  1.00  0.00    -0.354 N 
ATOM     53  C   UNL A   1      43.683  27.293  29.039  1.00  0.00     0.074 A 
ATOM     54  C   UNL A   1      42.363  27.153  29.617  1.00  0.00     0.031 C 
ATOM     55  C   UNL A   1      44.714  33.642  29.446  1.00  0.00     0.029 A 
ATOM     56  C   UNL A   1      45.653  32.622  28.980  1.00  0.00     0.049 A 
ATOM     57  H   UNL A   1      45.294  30.579  28.788  1.00  0.00     0.167 HD
ATOM     58  C   UNL A   1      44.407  26.265  28.533  1.00  0.00     0.034 A 
ATOM     59  C   UNL A   1      46.922  32.838  28.574  1.00  0.00     0.034 A 
ATOM     60  C   UNL A   1      45.733  26.417  27.983  1.00  0.00     0.049 A 
ATOM     61  C   UNL A   1      47.744  31.663  28.090  1.00  0.00     0.074 A 
ATOM     62  C   UNL A   1      46.559  25.448  27.442  1.00  0.00     0.029 A 
ATOM     63  N   UNL A   1      46.432  27.615  27.918  1.00  0.00    -0.354 N 
ATOM     64  N   UNL A   1      47.412  30.392  28.012  1.00  0.00    -0.248 NA
ATOM     65  C   UNL A   1      49.106  31.954  27.624  1.00  0.00     0.031 C 
ATOM     66  C   UNL A   1      47.783  26.044  27.121  1.00  0.00     0.029 A 
ATOM     67  C   UNL A   1      47.694  27.402  27.384  1.00  0.00     0.049 A 
ATOM     68  H   UNL A   1      46.084  28.489  28.210  1.00  0.00     0.167 HD
ATOM     69  C   UNL A   1      48.510  29.746  27.446  1.00  0.00     0.074 A 
ATOM     70  C   UNL A   1      49.507  30.767  27.196  1.00  0.00     0.031 C 
ATOM     71  C   UNL A   1      48.681  28.431  27.151  1.00  0.00     0.034 A 
BRANCH  58  72
ATOM     72  C   UNL A   1      43.797  24.886  28.610  1.00  0.00     0.023 A 
ATOM     73  C   UNL A   1      42.994  24.372  27.576  1.00  0.00     0.031 A 
ATOM     74  C   UNL A   1      43.984  24.090  29.754  1.00  0.00     0.131 A 
ATOM     75  C   UNL A   1      42.349  23.136  27.738  1.00  0.00     0.055 A 
ATOM     76  C   UNL A   1      43.406  22.825  29.873  1.00  0.00     0.041 A 
ATOM     77  F   UNL A   1      44.718  24.537  30.785  1.00  0.00    -0.206 F 
ATOM     78  C   UNL A   1      42.570  22.348  28.869  1.00  0.00     0.022 A 
BRANCH  75  79
ATOM     79  S   UNL A   1      41.098  22.644  26.519  1.00  0.00     0.124 S 
ATOM     80  O   UNL A   1      40.356  23.889  26.335  1.00  0.00    -0.237 OA
ATOM     81  O   UNL A   1      41.910  22.211  25.388  1.00  0.00    -0.237 OA
ATOM     82  O   UNL A   1      40.357  21.582  27.199  1.00  0.00    -0.744 OA
ENDBRANCH  75  79
ENDBRANCH  58  72
BRANCH  59  83
ATOM     83  C   UNL A   1      47.507  34.212  28.602  1.00  0.00     0.023 A 
ATOM     84  C   UNL A   1      47.487  35.040  27.466  1.00  0.00     0.031 A 
ATOM     85  C   UNL A   1      48.151  34.695  29.753  1.00  0.00     0.131 A 
ATOM     86  C   UNL A   1      48.127  36.289  27.494  1.00  0.00     0.055 A 
ATOM     87  C   UNL A   1      48.744  35.959  29.793  1.00  0.00     0.041 A 
ATOM     88  F   UNL A   1      48.214  33.943  30.864  1.00  0.00    -0.206 F 
ATOM     89  C   UNL A   1      48.743  36.759  28.655  1.00  0.00     0.022 A 
BRANCH  86  90
ATOM     90  S   UNL A   1      48.245  37.247  25.956  1.00  0.00     0.124 S 
ATOM     91  O   UNL A   1      48.764  36.253  25.024  1.00  0.00    -0.237 OA
ATOM     92  O   UNL A   1      46.863  37.662  25.745  1.00  0.00    -0.237 OA
ATOM     93  O   UNL A   1      49.171  38.325  26.299  1.00  0.00    -0.744 OA
ENDBRANCH  86  90
ENDBRANCH  59  83
BRANCH  71  94
ATOM     94  C   UNL A   1      49.978  28.036  26.484  1.00  0.00     0.023 A 
ATOM     95  C   UNL A   1      50.182  28.188  25.101  1.00  0.00     0.031 A 
ATOM     96  C   UNL A   1      51.025  27.488  27.248  1.00  0.00     0.131 A 
ATOM     97  C   UNL A   1      51.376  27.741  24.515  1.00  0.00     0.055 A 
ATOM     98  C   UNL A   1      52.235  27.103  26.669  1.00  0.00     0.041 A 
ATOM     99  F   UNL A   1      50.890  27.320  28.572  1.00  0.00    -0.206 F 
ATOM    100  C   UNL A   1      52.410  27.214  25.293  1.00  0.00     0.022 A 
BRANCH  97 101
ATOM    101  S   UNL A   1      51.526  27.769  22.707  1.00  0.00     0.124 S 
ATOM    102  O   UNL A   1      50.263  27.171  22.287  1.00  0.00    -0.237 OA
ATOM    103  O   UNL A   1      51.682  29.193  22.428  1.00  0.00    -0.237 OA
ATOM    104  O   UNL A   1      52.713  26.955  22.448  1.00  0.00    -0.744 OA
ENDBRANCH  97 101
ENDBRANCH  71  94
ENDBRANCH  45  46
ENDBRANCH  38  40
ENDBRANCH  37  38
ENDBRANCH  36  37
ENDBRANCH  35  36
ENDBRANCH  34  35
ENDBRANCH  33  34
ENDBRANCH   1  33
TORSDOF 23
ENDMDL
