MODEL 1
REMARK VINA RESULT:     -10.2      0.000      0.000
REMARK SMILES CCOc1cccc(-c2ccc([C@@H](C)C(=O)OCCOCCOCCOC(=O)c3ccc(-c4c5nc(c(-c6cc(S(=O)(=O)[O-])ccc6F)c6ccc([nH]6)c(-c6cc(S(=O)(=O)[O-])ccc6F)c6nc(c(-c7cc(S(=O)(=O)[O-])ccc7F)c7ccc4[nH]7)C=C6)C=C5)cc3)cc2F)c1
REMARK SMILES IDX 21 1 20 2 19 3 18 4 17 5 15 6 16 7 13 8 14 9 12 10 9 11
REMARK SMILES IDX 10 12 93 13 11 14 92 15 94 16 8 17 4 18 5 19 95 20 6 21 7 22
REMARK SMILES IDX 3 23 2 24 1 25 22 26 23 27 24 28 25 29 26 30 27 31 28 32
REMARK SMILES IDX 29 33 30 34 91 35 31 36 90 37 32 38 33 39 34 40 84 41 35 42
REMARK SMILES IDX 89 43 83 44 85 45 36 46 88 47 82 48 81 49 37 51 69 52 49 53
REMARK SMILES IDX 68 54 50 55 53 56 67 57 86 58 51 59 52 60 66 62 87 63 54 64
REMARK SMILES IDX 38 65 39 66 47 67 40 68 46 69 48 70 45 71 41 72 42 73 43 74
REMARK SMILES IDX 44 75 70 76 71 77 79 78 72 79 78 80 80 81 77 82 73 83 74 84
REMARK SMILES IDX 75 85 76 86 55 87 56 88 64 89 57 90 63 91 65 92 62 93 58 94
REMARK SMILES IDX 59 95 60 96 61 97
REMARK H PARENT 85 50 53 61
REMARK Flexibility Score: inf
ROOT
ATOM      1  C   UNL A   1      36.498  23.225  26.057  1.00  0.00     0.188 C 
ENDROOT
BRANCH   1   2
ATOM      2  O   UNL A   1      35.197  23.215  26.634  1.00  0.00    -0.376 OA
BRANCH   2   3
ATOM      3  C   UNL A   1      34.694  22.006  27.188  1.00  0.00     0.202 C 
BRANCH   3   4
ATOM      4  C   UNL A   1      33.198  21.685  27.025  1.00  0.00     0.261 C 
BRANCH   4   5
ATOM      5  O   UNL A   1      32.844  20.891  25.868  1.00  0.00    -0.463 OA
BRANCH   5   6
ATOM      6  C   UNL A   1      33.040  21.469  24.656  1.00  0.00     0.313 C 
ATOM      7  O   UNL A   1      33.935  21.121  23.887  1.00  0.00    -0.252 OA
BRANCH   6   8
ATOM      8  C   UNL A   1      32.062  22.581  24.260  1.00  0.00     0.126 C 
ATOM      9  C   UNL A   1      31.842  22.513  22.749  1.00  0.00     0.025 C 
BRANCH   8  10
ATOM     10  C   UNL A   1      32.272  24.035  24.686  1.00  0.00    -0.031 A 
ATOM     11  C   UNL A   1      32.533  26.768  25.547  1.00  0.00     0.018 A 
ATOM     12  C   UNL A   1      33.542  26.121  24.808  1.00  0.00     0.012 A 
ATOM     13  C   UNL A   1      31.391  26.013  25.836  1.00  0.00     0.131 A 
ATOM     14  C   UNL A   1      33.414  24.782  24.378  1.00  0.00     0.005 A 
ATOM     15  C   UNL A   1      31.253  24.685  25.412  1.00  0.00     0.044 A 
ATOM     16  F   UNL A   1      30.377  26.554  26.529  1.00  0.00    -0.206 F 
BRANCH  11  17
ATOM     17  C   UNL A   1      32.670  28.181  25.971  1.00  0.00    -0.012 A 
ATOM     18  C   UNL A   1      33.871  29.962  27.142  1.00  0.00     0.119 A 
ATOM     19  C   UNL A   1      32.868  30.873  26.827  1.00  0.00     0.046 A 
ATOM     20  C   UNL A   1      33.766  28.627  26.735  1.00  0.00     0.055 A 
ATOM     21  C   UNL A   1      31.769  30.456  26.082  1.00  0.00     0.004 A 
ATOM     22  C   UNL A   1      31.673  29.125  25.657  1.00  0.00     0.009 A 
BRANCH  18  23
ATOM     23  O   UNL A   1      34.850  30.384  28.000  1.00  0.00    -0.494 OA
BRANCH  23  24
ATOM     24  C   UNL A   1      35.918  29.449  28.188  1.00  0.00     0.226 C 
ATOM     25  C   UNL A   1      37.190  29.916  27.510  1.00  0.00     0.049 C 
ENDBRANCH  23  24
ENDBRANCH  18  23
ENDBRANCH  11  17
ENDBRANCH   8  10
ENDBRANCH   6   8
ENDBRANCH   5   6
ENDBRANCH   4   5
ENDBRANCH   3   4
ENDBRANCH   2   3
ENDBRANCH   1   2
BRANCH   1  26
ATOM     26  C   UNL A   1      36.651  23.026  24.541  1.00  0.00     0.188 C 
BRANCH  26  27
ATOM     27  O   UNL A   1      37.403  21.892  24.160  1.00  0.00    -0.376 OA
BRANCH  27  28
ATOM     28  C   UNL A   1      37.317  20.763  25.006  1.00  0.00     0.202 C 
BRANCH  28  29
ATOM     29  C   UNL A   1      38.606  19.937  25.159  1.00  0.00     0.261 C 
BRANCH  29  30
ATOM     30  O   UNL A   1      39.315  20.087  26.404  1.00  0.00    -0.460 OA
BRANCH  30  31
ATOM     31  C   UNL A   1      40.593  20.516  26.304  1.00  0.00     0.338 C 
ATOM     32  O   UNL A   1      41.477  19.969  25.660  1.00  0.00    -0.246 OA
BRANCH  31  33
ATOM     33  C   UNL A   1      40.714  21.865  26.894  1.00  0.00     0.060 A 
ATOM     34  C   UNL A   1      39.998  22.927  26.321  1.00  0.00     0.016 A 
ATOM     35  C   UNL A   1      41.566  22.092  27.976  1.00  0.00     0.016 A 
ATOM     36  C   UNL A   1      40.173  24.228  26.795  1.00  0.00     0.010 A 
ATOM     37  C   UNL A   1      41.756  23.399  28.435  1.00  0.00     0.010 A 
ATOM     38  C   UNL A   1      41.097  24.479  27.817  1.00  0.00    -0.014 A 
BRANCH  38  39
ATOM     39  C   UNL A   1      41.570  25.869  28.052  1.00  0.00     0.031 A 
ATOM     40  C   UNL A   1      42.924  26.251  27.510  1.00  0.00     0.074 A 
ATOM     41  C   UNL A   1      40.819  26.781  28.696  1.00  0.00     0.049 A 
ATOM     42  N   UNL A   1      43.592  27.368  27.637  1.00  0.00    -0.248 NA
ATOM     43  C   UNL A   1      43.619  25.222  26.720  1.00  0.00     0.031 C 
ATOM     44  C   UNL A   1      39.472  26.554  29.214  1.00  0.00     0.029 A 
ATOM     45  N   UNL A   1      41.091  28.086  29.026  1.00  0.00    -0.354 N 
ATOM     46  C   UNL A   1      44.788  27.173  26.954  1.00  0.00     0.074 A 
ATOM     47  C   UNL A   1      44.772  25.815  26.454  1.00  0.00     0.031 C 
ATOM     48  C   UNL A   1      39.037  27.683  29.803  1.00  0.00     0.029 A 
ATOM     49  C   UNL A   1      40.089  28.697  29.744  1.00  0.00     0.049 A 
ATOM     50  H   UNL A   1      41.925  28.543  28.772  1.00  0.00     0.167 HD
ATOM     51  C   UNL A   1      45.804  28.048  26.751  1.00  0.00     0.034 A 
ATOM     52  C   UNL A   1      40.041  29.922  30.309  1.00  0.00     0.034 A 
ATOM     53  C   UNL A   1      45.810  29.397  27.263  1.00  0.00     0.049 A 
ATOM     54  C   UNL A   1      41.225  30.851  30.150  1.00  0.00     0.074 A 
ATOM     55  C   UNL A   1      46.786  30.367  27.120  1.00  0.00     0.029 A 
ATOM     56  N   UNL A   1      44.795  29.966  28.022  1.00  0.00    -0.354 N 
ATOM     57  N   UNL A   1      42.357  30.653  29.512  1.00  0.00    -0.248 NA
ATOM     58  C   UNL A   1      41.118  32.176  30.777  1.00  0.00     0.031 C 
ATOM     59  C   UNL A   1      46.401  31.490  27.858  1.00  0.00     0.029 A 
ATOM     60  C   UNL A   1      45.136  31.261  28.378  1.00  0.00     0.049 A 
ATOM     61  H   UNL A   1      43.956  29.515  28.271  1.00  0.00     0.167 HD
ATOM     62  C   UNL A   1      43.070  31.847  29.621  1.00  0.00     0.074 A 
ATOM     63  C   UNL A   1      42.238  32.757  30.378  1.00  0.00     0.031 C 
ATOM     64  C   UNL A   1      44.296  32.165  29.129  1.00  0.00     0.034 A 
BRANCH  51  65
ATOM     65  C   UNL A   1      47.010  27.548  25.991  1.00  0.00     0.023 A 
ATOM     66  C   UNL A   1      47.256  27.920  24.658  1.00  0.00     0.031 A 
ATOM     67  C   UNL A   1      47.911  26.659  26.602  1.00  0.00     0.131 A 
ATOM     68  C   UNL A   1      48.330  27.347  23.958  1.00  0.00     0.055 A 
ATOM     69  C   UNL A   1      49.029  26.163  25.930  1.00  0.00     0.041 A 
ATOM     70  F   UNL A   1      47.715  26.244  27.865  1.00  0.00    -0.206 F 
ATOM     71  C   UNL A   1      49.235  26.495  24.594  1.00  0.00     0.022 A 
BRANCH  68  72
ATOM     72  S   UNL A   1      48.438  27.610  22.167  1.00  0.00     0.124 S 
ATOM     73  O   UNL A   1      48.652  26.248  21.683  1.00  0.00    -0.237 OA
ATOM     74  O   UNL A   1      47.143  28.204  21.856  1.00  0.00    -0.237 OA
ATOM     75  O   UNL A   1      49.586  28.502  22.021  1.00  0.00    -0.744 OA
ENDBRANCH  68  72
ENDBRANCH  51  65
BRANCH  52  76
ATOM     76  C   UNL A   1      38.854  30.347  31.109  1.00  0.00     0.023 A 
ATOM     77  C   UNL A   1      37.897  31.231  30.581  1.00  0.00     0.031 A 
ATOM     78  C   UNL A   1      38.702  29.940  32.447  1.00  0.00     0.131 A 
ATOM     79  C   UNL A   1      36.868  31.723  31.401  1.00  0.00     0.055 A 
ATOM     80  C   UNL A   1      37.640  30.383  33.239  1.00  0.00     0.041 A 
ATOM     81  F   UNL A   1      39.590  29.105  33.008  1.00  0.00    -0.206 F 
ATOM     82  C   UNL A   1      36.724  31.293  32.722  1.00  0.00     0.022 A 
BRANCH  79  83
ATOM     83  S   UNL A   1      35.786  33.026  30.750  1.00  0.00     0.124 S 
ATOM     84  O   UNL A   1      36.172  33.055  29.343  1.00  0.00    -0.237 OA
ATOM     85  O   UNL A   1      34.460  32.492  31.041  1.00  0.00    -0.237 OA
ATOM     86  O   UNL A   1      36.167  34.204  31.527  1.00  0.00    -0.744 OA
ENDBRANCH  79  83
ENDBRANCH  52  76
BRANCH  64  87
ATOM     87  C   UNL A   1      44.776  33.587  29.323  1.00  0.00     0.023 A 
ATOM     88  C   UNL A   1      44.599  34.582  28.345  1.00  0.00     0.031 A 
ATOM     89  C   UNL A   1      45.440  33.945  30.512  1.00  0.00     0.131 A 
ATOM     90  C   UNL A   1      45.138  35.863  28.545  1.00  0.00     0.055 A 
ATOM     91  C   UNL A   1      45.908  35.241  30.735  1.00  0.00     0.041 A 
ATOM     92  F   UNL A   1      45.643  33.039  31.482  1.00  0.00    -0.206 F 
ATOM     93  C   UNL A   1      45.774  36.204  29.741  1.00  0.00     0.022 A 
BRANCH  90  94
ATOM     94  S   UNL A   1      45.106  37.046  27.169  1.00  0.00     0.124 S 
ATOM     95  O   UNL A   1      45.743  38.217  27.761  1.00  0.00    -0.237 OA
ATOM     96  O   UNL A   1      45.876  36.352  26.142  1.00  0.00    -0.237 OA
ATOM     97  O   UNL A   1      43.681  37.196  26.879  1.00  0.00    -0.744 OA
ENDBRANCH  90  94
ENDBRANCH  64  87
ENDBRANCH  38  39
ENDBRANCH  31  33
ENDBRANCH  30  31
ENDBRANCH  29  30
ENDBRANCH  28  29
ENDBRANCH  27  28
ENDBRANCH  26  27
ENDBRANCH   1  26
TORSDOF 24
ENDMDL
MODEL 2
REMARK VINA RESULT:     -10.1      5.352      8.903
REMARK SMILES CCOc1cccc(-c2ccc([C@@H](C)C(=O)OCCOCCOCCOC(=O)c3ccc(-c4c5nc(c(-c6cc(S(=O)(=O)[O-])ccc6F)c6ccc([nH]6)c(-c6cc(S(=O)(=O)[O-])ccc6F)c6nc(c(-c7cc(S(=O)(=O)[O-])ccc7F)c7ccc4[nH]7)C=C6)C=C5)cc3)cc2F)c1
REMARK SMILES IDX 21 1 20 2 19 3 18 4 17 5 15 6 16 7 13 8 14 9 12 10 9 11
REMARK SMILES IDX 10 12 93 13 11 14 92 15 94 16 8 17 4 18 5 19 95 20 6 21 7 22
REMARK SMILES IDX 3 23 2 24 1 25 22 26 23 27 24 28 25 29 26 30 27 31 28 32
REMARK SMILES IDX 29 33 30 34 91 35 31 36 90 37 32 38 33 39 34 40 84 41 35 42
REMARK SMILES IDX 89 43 83 44 85 45 36 46 88 47 82 48 81 49 37 51 69 52 49 53
REMARK SMILES IDX 68 54 50 55 53 56 67 57 86 58 51 59 52 60 66 62 87 63 54 64
REMARK SMILES IDX 38 65 39 66 47 67 40 68 46 69 48 70 45 71 41 72 42 73 43 74
REMARK SMILES IDX 44 75 70 76 71 77 79 78 72 79 78 80 80 81 77 82 73 83 74 84
REMARK SMILES IDX 75 85 76 86 55 87 56 88 64 89 57 90 63 91 65 92 62 93 58 94
REMARK SMILES IDX 59 95 60 96 61 97
REMARK H PARENT 85 50 53 61
REMARK Flexibility Score: inf
ROOT
ATOM      1  C   UNL A   1      33.628  27.962  26.480  1.00  0.00     0.188 C 
ENDROOT
BRANCH   1   2
ATOM      2  O   UNL A   1      34.221  28.452  25.282  1.00  0.00    -0.376 OA
BRANCH   2   3
ATOM      3  C   UNL A   1      33.650  28.098  24.030  1.00  0.00     0.202 C 
BRANCH   3   4
ATOM      4  C   UNL A   1      32.515  28.969  23.462  1.00  0.00     0.261 C 
BRANCH   4   5
ATOM      5  O   UNL A   1      31.175  28.602  23.865  1.00  0.00    -0.463 OA
BRANCH   5   6
ATOM      6  C   UNL A   1      30.396  28.021  22.917  1.00  0.00     0.313 C 
ATOM      7  O   UNL A   1      29.969  28.632  21.938  1.00  0.00    -0.252 OA
BRANCH   6   8
ATOM      8  C   UNL A   1      30.086  26.531  23.102  1.00  0.00     0.126 C 
ATOM      9  C   UNL A   1      28.954  26.397  24.119  1.00  0.00     0.025 C 
BRANCH   8  10
ATOM     10  C   UNL A   1      31.181  25.508  23.410  1.00  0.00    -0.031 A 
ATOM     11  C   UNL A   1      33.199  23.588  24.131  1.00  0.00     0.018 A 
ATOM     12  C   UNL A   1      33.067  24.071  22.815  1.00  0.00     0.012 A 
ATOM     13  C   UNL A   1      32.300  24.098  25.075  1.00  0.00     0.131 A 
ATOM     14  C   UNL A   1      32.083  25.018  22.460  1.00  0.00     0.005 A 
ATOM     15  C   UNL A   1      31.321  25.039  24.733  1.00  0.00     0.044 A 
ATOM     16  F   UNL A   1      32.361  23.699  26.355  1.00  0.00    -0.206 F 
BRANCH  11  17
ATOM     17  C   UNL A   1      34.253  22.613  24.496  1.00  0.00    -0.012 A 
ATOM     18  C   UNL A   1      36.573  22.071  25.054  1.00  0.00     0.119 A 
ATOM     19  C   UNL A   1      36.261  20.717  25.123  1.00  0.00     0.046 A 
ATOM     20  C   UNL A   1      35.585  23.007  24.727  1.00  0.00     0.055 A 
ATOM     21  C   UNL A   1      34.954  20.300  24.890  1.00  0.00     0.004 A 
ATOM     22  C   UNL A   1      33.962  21.238  24.582  1.00  0.00     0.009 A 
BRANCH  18  23
ATOM     23  O   UNL A   1      37.895  22.412  25.142  1.00  0.00    -0.494 OA
BRANCH  23  24
ATOM     24  C   UNL A   1      38.725  21.419  25.756  1.00  0.00     0.226 C 
ATOM     25  C   UNL A   1      39.803  22.050  26.614  1.00  0.00     0.049 C 
ENDBRANCH  23  24
ENDBRANCH  18  23
ENDBRANCH  11  17
ENDBRANCH   8  10
ENDBRANCH   6   8
ENDBRANCH   5   6
ENDBRANCH   4   5
ENDBRANCH   3   4
ENDBRANCH   2   3
ENDBRANCH   1   2
BRANCH   1  26
ATOM     26  C   UNL A   1      32.958  28.950  27.447  1.00  0.00     0.188 C 
BRANCH  26  27
ATOM     27  O   UNL A   1      31.929  29.734  26.881  1.00  0.00    -0.376 OA
BRANCH  27  28
ATOM     28  C   UNL A   1      32.176  31.122  26.775  1.00  0.00     0.202 C 
BRANCH  28  29
ATOM     29  C   UNL A   1      33.439  31.636  27.489  1.00  0.00     0.261 C 
BRANCH  29  30
ATOM     30  O   UNL A   1      33.772  33.022  27.275  1.00  0.00    -0.460 OA
BRANCH  30  31
ATOM     31  C   UNL A   1      33.590  33.840  28.336  1.00  0.00     0.338 C 
ATOM     32  O   UNL A   1      32.590  34.510  28.552  1.00  0.00    -0.246 OA
BRANCH  31  33
ATOM     33  C   UNL A   1      34.674  33.632  29.317  1.00  0.00     0.060 A 
ATOM     34  C   UNL A   1      35.968  34.082  29.011  1.00  0.00     0.016 A 
ATOM     35  C   UNL A   1      34.428  32.955  30.513  1.00  0.00     0.016 A 
ATOM     36  C   UNL A   1      37.029  33.809  29.875  1.00  0.00     0.010 A 
ATOM     37  C   UNL A   1      35.497  32.664  31.367  1.00  0.00     0.010 A 
ATOM     38  C   UNL A   1      36.809  33.048  31.030  1.00  0.00    -0.014 A 
BRANCH  38  39
ATOM     39  C   UNL A   1      37.965  32.430  31.732  1.00  0.00     0.031 A 
ATOM     40  C   UNL A   1      38.671  31.286  31.050  1.00  0.00     0.074 A 
ATOM     41  C   UNL A   1      38.404  32.882  32.921  1.00  0.00     0.049 A 
ATOM     42  N   UNL A   1      39.654  30.536  31.476  1.00  0.00    -0.248 NA
ATOM     43  C   UNL A   1      38.192  30.940  29.703  1.00  0.00     0.031 C 
ATOM     44  C   UNL A   1      37.847  34.017  33.653  1.00  0.00     0.029 A 
ATOM     45  N   UNL A   1      39.425  32.432  33.723  1.00  0.00    -0.354 N 
ATOM     46  C   UNL A   1      39.903  29.624  30.456  1.00  0.00     0.074 A 
ATOM     47  C   UNL A   1      38.938  29.887  29.410  1.00  0.00     0.031 C 
ATOM     48  C   UNL A   1      38.530  34.171  34.802  1.00  0.00     0.029 A 
ATOM     49  C   UNL A   1      39.542  33.120  34.909  1.00  0.00     0.049 A 
ATOM     50  H   UNL A   1      40.017  31.687  33.473  1.00  0.00     0.167 HD
ATOM     51  C   UNL A   1      40.857  28.662  30.388  1.00  0.00     0.034 A 
ATOM     52  C   UNL A   1      40.355  32.908  35.965  1.00  0.00     0.034 A 
ATOM     53  C   UNL A   1      41.807  28.405  31.442  1.00  0.00     0.049 A 
ATOM     54  C   UNL A   1      41.350  31.768  35.910  1.00  0.00     0.074 A 
ATOM     55  C   UNL A   1      42.813  27.456  31.482  1.00  0.00     0.029 A 
ATOM     56  N   UNL A   1      41.868  29.096  32.647  1.00  0.00    -0.354 N 
ATOM     57  N   UNL A   1      41.570  30.904  34.944  1.00  0.00    -0.248 NA
ATOM     58  C   UNL A   1      42.216  31.586  37.082  1.00  0.00     0.031 C 
ATOM     59  C   UNL A   1      43.426  27.517  32.737  1.00  0.00     0.029 A 
ATOM     60  C   UNL A   1      42.873  28.573  33.445  1.00  0.00     0.049 A 
ATOM     61  H   UNL A   1      41.282  29.846  32.897  1.00  0.00     0.167 HD
ATOM     62  C   UNL A   1      42.633  30.111  35.377  1.00  0.00     0.074 A 
ATOM     63  C   UNL A   1      43.011  30.605  36.684  1.00  0.00     0.031 C 
ATOM     64  C   UNL A   1      43.248  29.078  34.746  1.00  0.00     0.034 A 
BRANCH  51  65
ATOM     65  C   UNL A   1      40.873  27.786  29.159  1.00  0.00     0.023 A 
ATOM     66  C   UNL A   1      41.791  27.989  28.112  1.00  0.00     0.031 A 
ATOM     67  C   UNL A   1      39.934  26.749  29.016  1.00  0.00     0.131 A 
ATOM     68  C   UNL A   1      41.700  27.218  26.943  1.00  0.00     0.055 A 
ATOM     69  C   UNL A   1      39.908  25.926  27.889  1.00  0.00     0.041 A 
ATOM     70  F   UNL A   1      39.014  26.523  29.968  1.00  0.00    -0.206 F 
ATOM     71  C   UNL A   1      40.785  26.169  26.836  1.00  0.00     0.022 A 
BRANCH  68  72
ATOM     72  S   UNL A   1      42.691  27.706  25.503  1.00  0.00     0.124 S 
ATOM     73  O   UNL A   1      42.605  26.510  24.668  1.00  0.00    -0.237 OA
ATOM     74  O   UNL A   1      41.980  28.881  25.015  1.00  0.00    -0.237 OA
ATOM     75  O   UNL A   1      44.013  27.966  26.071  1.00  0.00    -0.744 OA
ENDBRANCH  68  72
ENDBRANCH  51  65
BRANCH  52  76
ATOM     76  C   UNL A   1      40.255  33.759  37.189  1.00  0.00     0.023 A 
ATOM     77  C   UNL A   1      39.529  33.335  38.315  1.00  0.00     0.031 A 
ATOM     78  C   UNL A   1      40.816  35.049  37.219  1.00  0.00     0.131 A 
ATOM     79  C   UNL A   1      39.335  34.210  39.396  1.00  0.00     0.055 A 
ATOM     80  C   UNL A   1      40.674  35.892  38.323  1.00  0.00     0.041 A 
ATOM     81  F   UNL A   1      41.511  35.512  36.168  1.00  0.00    -0.206 F 
ATOM     82  C   UNL A   1      39.915  35.480  39.414  1.00  0.00     0.022 A 
BRANCH  79  83
ATOM     83  S   UNL A   1      38.213  33.707  40.730  1.00  0.00     0.124 S 
ATOM     84  O   UNL A   1      38.075  34.949  41.484  1.00  0.00    -0.237 OA
ATOM     85  O   UNL A   1      37.034  33.273  39.988  1.00  0.00    -0.237 OA
ATOM     86  O   UNL A   1      38.948  32.642  41.408  1.00  0.00    -0.744 OA
ENDBRANCH  79  83
ENDBRANCH  52  76
BRANCH  64  87
ATOM     87  C   UNL A   1      44.452  28.464  35.426  1.00  0.00     0.023 A 
ATOM     88  C   UNL A   1      44.355  27.325  36.245  1.00  0.00     0.031 A 
ATOM     89  C   UNL A   1      45.723  29.046  35.258  1.00  0.00     0.131 A 
ATOM     90  C   UNL A   1      45.492  26.847  36.916  1.00  0.00     0.055 A 
ATOM     91  C   UNL A   1      46.862  28.521  35.869  1.00  0.00     0.041 A 
ATOM     92  F   UNL A   1      45.880  30.137  34.491  1.00  0.00    -0.206 F 
ATOM     93  C   UNL A   1      46.749  27.426  36.718  1.00  0.00     0.022 A 
BRANCH  90  94
ATOM     94  S   UNL A   1      45.288  25.531  38.150  1.00  0.00     0.124 S 
ATOM     95  O   UNL A   1      45.361  26.275  39.403  1.00  0.00    -0.237 OA
ATOM     96  O   UNL A   1      43.978  24.985  37.808  1.00  0.00    -0.237 OA
ATOM     97  O   UNL A   1      46.417  24.640  37.891  1.00  0.00    -0.744 OA
ENDBRANCH  90  94
ENDBRANCH  64  87
ENDBRANCH  38  39
ENDBRANCH  31  33
ENDBRANCH  30  31
ENDBRANCH  29  30
ENDBRANCH  28  29
ENDBRANCH  27  28
ENDBRANCH  26  27
ENDBRANCH   1  26
TORSDOF 24
ENDMDL
MODEL 3
REMARK VINA RESULT:     -10.1      1.732      2.223
REMARK SMILES CCOc1cccc(-c2ccc([C@@H](C)C(=O)OCCOCCOCCOC(=O)c3ccc(-c4c5nc(c(-c6cc(S(=O)(=O)[O-])ccc6F)c6ccc([nH]6)c(-c6cc(S(=O)(=O)[O-])ccc6F)c6nc(c(-c7cc(S(=O)(=O)[O-])ccc7F)c7ccc4[nH]7)C=C6)C=C5)cc3)cc2F)c1
REMARK SMILES IDX 21 1 20 2 19 3 18 4 17 5 15 6 16 7 13 8 14 9 12 10 9 11
REMARK SMILES IDX 10 12 93 13 11 14 92 15 94 16 8 17 4 18 5 19 95 20 6 21 7 22
REMARK SMILES IDX 3 23 2 24 1 25 22 26 23 27 24 28 25 29 26 30 27 31 28 32
REMARK SMILES IDX 29 33 30 34 91 35 31 36 90 37 32 38 33 39 34 40 84 41 35 42
REMARK SMILES IDX 89 43 83 44 85 45 36 46 88 47 82 48 81 49 37 51 69 52 49 53
REMARK SMILES IDX 68 54 50 55 53 56 67 57 86 58 51 59 52 60 66 62 87 63 54 64
REMARK SMILES IDX 38 65 39 66 47 67 40 68 46 69 48 70 45 71 41 72 42 73 43 74
REMARK SMILES IDX 44 75 70 76 71 77 79 78 72 79 78 80 80 81 77 82 73 83 74 84
REMARK SMILES IDX 75 85 76 86 55 87 56 88 64 89 57 90 63 91 65 92 62 93 58 94
REMARK SMILES IDX 59 95 60 96 61 97
REMARK H PARENT 85 50 53 61
REMARK Flexibility Score: inf
ROOT
ATOM      1  C   UNL A   1      36.540  23.086  25.603  1.00  0.00     0.188 C 
ENDROOT
BRANCH   1   2
ATOM      2  O   UNL A   1      35.253  23.333  26.160  1.00  0.00    -0.376 OA
BRANCH   2   3
ATOM      3  C   UNL A   1      34.870  22.653  27.347  1.00  0.00     0.202 C 
BRANCH   3   4
ATOM      4  C   UNL A   1      33.443  22.084  27.446  1.00  0.00     0.261 C 
BRANCH   4   5
ATOM      5  O   UNL A   1      33.269  20.730  26.966  1.00  0.00    -0.463 OA
BRANCH   5   6
ATOM      6  C   UNL A   1      33.383  20.544  25.627  1.00  0.00     0.313 C 
ATOM      7  O   UNL A   1      34.362  20.009  25.107  1.00  0.00    -0.252 OA
BRANCH   6   8
ATOM      8  C   UNL A   1      32.204  21.011  24.766  1.00  0.00     0.126 C 
ATOM      9  C   UNL A   1      32.333  20.372  23.384  1.00  0.00     0.025 C 
BRANCH   8  10
ATOM     10  C   UNL A   1      31.844  22.491  24.619  1.00  0.00    -0.031 A 
ATOM     11  C   UNL A   1      31.286  25.290  24.255  1.00  0.00     0.018 A 
ATOM     12  C   UNL A   1      30.502  24.478  25.097  1.00  0.00     0.012 A 
ATOM     13  C   UNL A   1      32.358  24.665  23.609  1.00  0.00     0.131 A 
ATOM     14  C   UNL A   1      30.778  23.106  25.283  1.00  0.00     0.005 A 
ATOM     15  C   UNL A   1      32.641  23.305  23.788  1.00  0.00     0.044 A 
ATOM     16  F   UNL A   1      33.163  25.367  22.795  1.00  0.00    -0.206 F 
BRANCH  11  17
ATOM     17  C   UNL A   1      31.001  26.734  24.088  1.00  0.00    -0.012 A 
ATOM     18  C   UNL A   1      31.313  29.071  24.743  1.00  0.00     0.119 A 
ATOM     19  C   UNL A   1      30.383  29.482  23.793  1.00  0.00     0.046 A 
ATOM     20  C   UNL A   1      31.606  27.711  24.902  1.00  0.00     0.055 A 
ATOM     21  C   UNL A   1      29.764  28.536  22.983  1.00  0.00     0.004 A 
ATOM     22  C   UNL A   1      30.071  27.177  23.128  1.00  0.00     0.009 A 
BRANCH  18  23
ATOM     23  O   UNL A   1      31.779  30.020  25.612  1.00  0.00    -0.494 OA
BRANCH  23  24
ATOM     24  C   UNL A   1      33.194  29.983  25.830  1.00  0.00     0.226 C 
ATOM     25  C   UNL A   1      33.526  29.829  27.300  1.00  0.00     0.049 C 
ENDBRANCH  23  24
ENDBRANCH  18  23
ENDBRANCH  11  17
ENDBRANCH   8  10
ENDBRANCH   6   8
ENDBRANCH   5   6
ENDBRANCH   4   5
ENDBRANCH   3   4
ENDBRANCH   2   3
ENDBRANCH   1   2
BRANCH   1  26
ATOM     26  C   UNL A   1      36.652  22.646  24.135  1.00  0.00     0.188 C 
BRANCH  26  27
ATOM     27  O   UNL A   1      37.290  21.402  23.932  1.00  0.00    -0.376 OA
BRANCH  27  28
ATOM     28  C   UNL A   1      37.490  20.599  25.079  1.00  0.00     0.202 C 
BRANCH  28  29
ATOM     29  C   UNL A   1      38.723  19.679  25.049  1.00  0.00     0.261 C 
BRANCH  29  30
ATOM     30  O   UNL A   1      39.496  19.612  26.263  1.00  0.00    -0.460 OA
BRANCH  30  31
ATOM     31  C   UNL A   1      40.767  20.065  26.177  1.00  0.00     0.338 C 
ATOM     32  O   UNL A   1      41.671  19.529  25.551  1.00  0.00    -0.246 OA
BRANCH  31  33
ATOM     33  C   UNL A   1      40.852  21.422  26.755  1.00  0.00     0.060 A 
ATOM     34  C   UNL A   1      40.183  22.478  26.118  1.00  0.00     0.016 A 
ATOM     35  C   UNL A   1      41.626  21.661  27.891  1.00  0.00     0.016 A 
ATOM     36  C   UNL A   1      40.330  23.785  26.585  1.00  0.00     0.010 A 
ATOM     37  C   UNL A   1      41.789  22.974  28.345  1.00  0.00     0.010 A 
ATOM     38  C   UNL A   1      41.181  24.047  27.666  1.00  0.00    -0.014 A 
BRANCH  38  39
ATOM     39  C   UNL A   1      41.643  25.438  27.915  1.00  0.00     0.031 A 
ATOM     40  C   UNL A   1      43.025  25.814  27.444  1.00  0.00     0.074 A 
ATOM     41  C   UNL A   1      40.859  26.357  28.508  1.00  0.00     0.049 A 
ATOM     42  N   UNL A   1      43.687  26.932  27.598  1.00  0.00    -0.248 NA
ATOM     43  C   UNL A   1      43.761  24.778  26.703  1.00  0.00     0.031 C 
ATOM     44  C   UNL A   1      39.485  26.137  28.953  1.00  0.00     0.029 A 
ATOM     45  N   UNL A   1      41.115  27.665  28.842  1.00  0.00    -0.354 N 
ATOM     46  C   UNL A   1      44.918  26.729  26.984  1.00  0.00     0.074 A 
ATOM     47  C   UNL A   1      44.927  25.367  26.496  1.00  0.00     0.031 C 
ATOM     48  C   UNL A   1      39.021  27.271  29.509  1.00  0.00     0.029 A 
ATOM     49  C   UNL A   1      40.076  28.283  29.498  1.00  0.00     0.049 A 
ATOM     50  H   UNL A   1      41.963  28.118  28.630  1.00  0.00     0.167 HD
ATOM     51  C   UNL A   1      45.945  27.601  26.829  1.00  0.00     0.034 A 
ATOM     52  C   UNL A   1      39.999  29.513  30.048  1.00  0.00     0.034 A 
ATOM     53  C   UNL A   1      45.926  28.954  27.328  1.00  0.00     0.049 A 
ATOM     54  C   UNL A   1      41.192  30.440  29.947  1.00  0.00     0.074 A 
ATOM     55  C   UNL A   1      46.910  29.922  27.231  1.00  0.00     0.029 A 
ATOM     56  N   UNL A   1      44.872  29.531  28.026  1.00  0.00    -0.354 N 
ATOM     57  N   UNL A   1      42.357  30.235  29.374  1.00  0.00    -0.248 NA
ATOM     58  C   UNL A   1      41.053  31.770  30.556  1.00  0.00     0.031 C 
ATOM     59  C   UNL A   1      46.487  31.052  27.937  1.00  0.00     0.029 A 
ATOM     60  C   UNL A   1      45.195  30.829  28.389  1.00  0.00     0.049 A 
ATOM     61  H   UNL A   1      44.020  29.083  28.233  1.00  0.00     0.167 HD
ATOM     62  C   UNL A   1      43.065  31.429  29.511  1.00  0.00     0.074 A 
ATOM     63  C   UNL A   1      42.195  32.347  30.214  1.00  0.00     0.031 C 
ATOM     64  C   UNL A   1      44.316  31.741  29.085  1.00  0.00     0.034 A 
BRANCH  51  65
ATOM     65  C   UNL A   1      47.190  27.093  26.141  1.00  0.00     0.023 A 
ATOM     66  C   UNL A   1      48.176  26.364  26.830  1.00  0.00     0.031 A 
ATOM     67  C   UNL A   1      47.409  27.369  24.780  1.00  0.00     0.131 A 
ATOM     68  C   UNL A   1      49.365  26.004  26.177  1.00  0.00     0.055 A 
ATOM     69  C   UNL A   1      48.554  26.929  24.112  1.00  0.00     0.041 A 
ATOM     70  F   UNL A   1      46.518  28.084  24.075  1.00  0.00    -0.206 F 
ATOM     71  C   UNL A   1      49.548  26.255  24.816  1.00  0.00     0.022 A 
BRANCH  68  72
ATOM     72  S   UNL A   1      50.733  25.341  27.168  1.00  0.00     0.124 S 
ATOM     73  O   UNL A   1      50.060  24.295  27.934  1.00  0.00    -0.237 OA
ATOM     74  O   UNL A   1      51.670  24.887  26.148  1.00  0.00    -0.237 OA
ATOM     75  O   UNL A   1      51.174  26.492  27.954  1.00  0.00    -0.744 OA
ENDBRANCH  68  72
ENDBRANCH  51  65
BRANCH  52  76
ATOM     76  C   UNL A   1      38.771  29.947  30.779  1.00  0.00     0.023 A 
ATOM     77  C   UNL A   1      37.833  30.808  30.182  1.00  0.00     0.031 A 
ATOM     78  C   UNL A   1      38.557  29.573  32.118  1.00  0.00     0.131 A 
ATOM     79  C   UNL A   1      36.761  31.310  30.938  1.00  0.00     0.055 A 
ATOM     80  C   UNL A   1      37.454  30.025  32.846  1.00  0.00     0.041 A 
ATOM     81  F   UNL A   1      39.424  28.762  32.744  1.00  0.00    -0.206 F 
ATOM     82  C   UNL A   1      36.557  30.913  32.261  1.00  0.00     0.022 A 
BRANCH  79  83
ATOM     83  S   UNL A   1      35.701  32.585  30.201  1.00  0.00     0.124 S 
ATOM     84  O   UNL A   1      34.473  32.431  30.972  1.00  0.00    -0.237 OA
ATOM     85  O   UNL A   1      36.469  33.800  30.453  1.00  0.00    -0.237 OA
ATOM     86  O   UNL A   1      35.614  32.185  28.798  1.00  0.00    -0.744 OA
ENDBRANCH  79  83
ENDBRANCH  52  76
BRANCH  64  87
ATOM     87  C   UNL A   1      44.788  33.163  29.292  1.00  0.00     0.023 A 
ATOM     88  C   UNL A   1      44.734  34.131  28.273  1.00  0.00     0.031 A 
ATOM     89  C   UNL A   1      45.316  33.551  30.538  1.00  0.00     0.131 A 
ATOM     90  C   UNL A   1      45.262  35.413  28.497  1.00  0.00     0.055 A 
ATOM     91  C   UNL A   1      45.770  34.848  30.777  1.00  0.00     0.041 A 
ATOM     92  F   UNL A   1      45.397  32.672  31.550  1.00  0.00    -0.206 F 
ATOM     93  C   UNL A   1      45.761  35.784  29.748  1.00  0.00     0.022 A 
BRANCH  90  94
ATOM     94  S   UNL A   1      45.399  36.556  27.094  1.00  0.00     0.124 S 
ATOM     95  O   UNL A   1      44.096  37.212  27.107  1.00  0.00    -0.237 OA
ATOM     96  O   UNL A   1      46.535  37.387  27.479  1.00  0.00    -0.237 OA
ATOM     97  O   UNL A   1      45.637  35.673  25.954  1.00  0.00    -0.744 OA
ENDBRANCH  90  94
ENDBRANCH  64  87
ENDBRANCH  38  39
ENDBRANCH  31  33
ENDBRANCH  30  31
ENDBRANCH  29  30
ENDBRANCH  28  29
ENDBRANCH  27  28
ENDBRANCH  26  27
ENDBRANCH   1  26
TORSDOF 24
ENDMDL
