MODEL 1
REMARK VINA RESULT:      -9.7      0.000      0.000
REMARK SMILES Cc1c(CC(=O)OCCOCCOCCOC(=O)c2ccc(-c3c4nc(c(-c5cc(S(=O)(=O)[O-])ccc5F)c5ccc([nH]5)c(-c5cc(S(=O)(=O)[O-])ccc5F)c5nc(c(-c6cc(S(=O)(=O)[O-])ccc6F)c6ccc3[nH]6)C=C5)C=C4)cc2)cc(-c2ccc(S(C)(=O)=O)cc2)n1-c1ccccc1
REMARK SMILES IDX 11 1 10 2 9 3 8 4 7 5 5 6 6 7 4 8 3 9 1 10 2 11 94 12 82 13
REMARK SMILES IDX 83 14 95 15 96 16 100 17 97 18 99 19 98 20 84 21 85 22 93 23
REMARK SMILES IDX 86 24 92 25 87 26 88 27 89 28 90 29 91 30 12 31 13 32 14 33
REMARK SMILES IDX 15 34 16 35 17 36 18 37 19 38 20 39 81 40 21 41 80 42 22 43
REMARK SMILES IDX 23 44 24 45 74 46 25 47 79 48 73 49 75 50 26 51 78 52 72 53
REMARK SMILES IDX 71 54 27 56 59 57 39 58 58 59 40 60 43 61 57 62 76 63 41 64
REMARK SMILES IDX 42 65 56 67 77 68 44 69 28 70 29 71 37 72 30 73 36 74 38 75
REMARK SMILES IDX 35 76 31 77 32 78 33 79 34 80 60 81 61 82 69 83 62 84 68 85
REMARK SMILES IDX 70 86 67 87 63 88 64 89 65 90 66 91 45 92 46 93 54 94 47 95
REMARK SMILES IDX 53 96 55 97 52 98 48 99 49 100 50 101 51 102
REMARK H PARENT 75 55 43 66
REMARK Flexibility Score: inf
ROOT
ATOM      1  C   UNL A   1      34.790  35.140  33.752  1.00  0.00     0.188 C 
ENDROOT
BRANCH   1   2
ATOM      2  O   UNL A   1      34.138  36.395  33.627  1.00  0.00    -0.376 OA
BRANCH   2   3
ATOM      3  C   UNL A   1      33.045  36.528  32.730  1.00  0.00     0.202 C 
BRANCH   3   4
ATOM      4  C   UNL A   1      33.349  36.809  31.255  1.00  0.00     0.261 C 
BRANCH   4   5
ATOM      5  O   UNL A   1      33.559  35.617  30.472  1.00  0.00    -0.463 OA
BRANCH   5   6
ATOM      6  C   UNL A   1      33.290  35.731  29.146  1.00  0.00     0.310 C 
ATOM      7  O   UNL A   1      32.313  36.329  28.697  1.00  0.00    -0.252 OA
BRANCH   6   8
ATOM      8  C   UNL A   1      34.314  35.128  28.207  1.00  0.00     0.160 C 
BRANCH   8   9
ATOM      9  C   UNL A   1      34.525  33.640  28.186  1.00  0.00    -0.015 A 
ATOM     10  C   UNL A   1      37.138  33.443  28.343  1.00  0.00     0.065 C 
ATOM     11  C   UNL A   1      35.728  32.943  28.275  1.00  0.00     0.024 A 
ATOM     12  N   UNL A   1      35.447  31.586  28.214  1.00  0.00    -0.314 N 
ATOM     13  C   UNL A   1      33.543  32.667  27.830  1.00  0.00     0.033 A 
ATOM     14  C   UNL A   1      34.155  31.428  27.733  1.00  0.00     0.053 A 
BRANCH  12  15
ATOM     15  C   UNL A   1      36.322  30.540  28.585  1.00  0.00     0.046 A 
ATOM     16  C   UNL A   1      36.281  30.005  29.874  1.00  0.00     0.026 A 
ATOM     17  C   UNL A   1      37.275  30.110  27.654  1.00  0.00     0.026 A 
ATOM     18  C   UNL A   1      37.199  29.016  30.227  1.00  0.00     0.002 A 
ATOM     19  C   UNL A   1      38.202  29.138  28.025  1.00  0.00     0.002 A 
ATOM     20  C   UNL A   1      38.161  28.589  29.307  1.00  0.00     0.000 A 
ENDBRANCH  12  15
BRANCH  14  21
ATOM     21  C   UNL A   1      33.616  30.166  27.230  1.00  0.00    -0.001 A 
ATOM     22  C   UNL A   1      32.247  29.877  27.295  1.00  0.00     0.011 A 
ATOM     23  C   UNL A   1      34.501  29.202  26.727  1.00  0.00     0.011 A 
ATOM     24  C   UNL A   1      31.769  28.633  26.875  1.00  0.00     0.021 A 
ATOM     25  C   UNL A   1      34.032  27.955  26.309  1.00  0.00     0.021 A 
ATOM     26  C   UNL A   1      32.666  27.676  26.393  1.00  0.00     0.067 A 
BRANCH  26  27
ATOM     27  S   UNL A   1      32.054  26.102  25.846  1.00  0.00     0.175 S 
ATOM     28  C   UNL A   1      30.623  26.496  24.877  1.00  0.00     0.163 C 
ATOM     29  O   UNL A   1      33.066  25.542  24.959  1.00  0.00    -0.224 OA
ATOM     30  O   UNL A   1      31.608  25.364  27.008  1.00  0.00    -0.224 OA
ENDBRANCH  26  27
ENDBRANCH  14  21
ENDBRANCH   8   9
ENDBRANCH   6   8
ENDBRANCH   5   6
ENDBRANCH   4   5
ENDBRANCH   3   4
ENDBRANCH   2   3
ENDBRANCH   1   2
BRANCH   1  31
ATOM     31  C   UNL A   1      36.096  34.848  32.996  1.00  0.00     0.188 C 
BRANCH  31  32
ATOM     32  O   UNL A   1      36.082  34.099  31.802  1.00  0.00    -0.376 OA
BRANCH  32  33
ATOM     33  C   UNL A   1      36.939  32.969  31.688  1.00  0.00     0.202 C 
BRANCH  33  34
ATOM     34  C   UNL A   1      38.254  32.944  32.509  1.00  0.00     0.261 C 
BRANCH  34  35
ATOM     35  O   UNL A   1      39.470  33.518  31.910  1.00  0.00    -0.460 OA
BRANCH  35  36
ATOM     36  C   UNL A   1      40.101  32.728  30.975  1.00  0.00     0.338 C 
ATOM     37  O   UNL A   1      39.768  31.566  30.772  1.00  0.00    -0.246 OA
BRANCH  36  38
ATOM     38  C   UNL A   1      41.220  33.378  30.142  1.00  0.00     0.060 A 
ATOM     39  C   UNL A   1      42.460  32.761  30.129  1.00  0.00     0.016 A 
ATOM     40  C   UNL A   1      41.214  34.668  29.566  1.00  0.00     0.016 A 
ATOM     41  C   UNL A   1      43.607  33.390  29.527  1.00  0.00     0.010 A 
ATOM     42  C   UNL A   1      42.428  35.342  29.020  1.00  0.00     0.010 A 
ATOM     43  C   UNL A   1      43.698  34.735  28.986  1.00  0.00    -0.014 A 
BRANCH  43  44
ATOM     44  C   UNL A   1      45.234  35.383  28.752  1.00  0.00     0.031 A 
ATOM     45  C   UNL A   1      45.408  36.212  29.983  1.00  0.00     0.074 A 
ATOM     46  C   UNL A   1      46.310  35.563  27.846  1.00  0.00     0.049 A 
ATOM     47  N   UNL A   1      44.519  37.126  30.252  1.00  0.00    -0.248 NA
ATOM     48  C   UNL A   1      46.235  35.822  31.128  1.00  0.00     0.031 C 
ATOM     49  C   UNL A   1      46.390  35.146  26.433  1.00  0.00     0.029 A 
ATOM     50  N   UNL A   1      47.622  36.195  27.951  1.00  0.00    -0.354 N 
ATOM     51  C   UNL A   1      44.844  37.654  31.473  1.00  0.00     0.074 A 
ATOM     52  C   UNL A   1      45.766  36.678  32.046  1.00  0.00     0.031 C 
ATOM     53  C   UNL A   1      47.629  35.363  25.886  1.00  0.00     0.029 A 
ATOM     54  C   UNL A   1      48.547  36.014  26.827  1.00  0.00     0.049 A 
ATOM     55  H   UNL A   1      47.876  36.721  28.744  1.00  0.00     0.167 HD
ATOM     56  C   UNL A   1      44.905  39.017  31.515  1.00  0.00     0.034 A 
ATOM     57  C   UNL A   1      49.887  36.415  26.607  1.00  0.00     0.034 A 
ATOM     58  C   UNL A   1      46.264  39.470  31.381  1.00  0.00     0.049 A 
ATOM     59  C   UNL A   1      50.085  37.638  27.382  1.00  0.00     0.074 A 
ATOM     60  C   UNL A   1      47.443  39.069  31.978  1.00  0.00     0.029 A 
ATOM     61  N   UNL A   1      46.606  40.091  30.199  1.00  0.00    -0.354 N 
ATOM     62  N   UNL A   1      49.614  38.777  26.985  1.00  0.00    -0.248 NA
ATOM     63  C   UNL A   1      50.878  37.668  28.603  1.00  0.00     0.031 C 
ATOM     64  C   UNL A   1      48.368  38.995  30.915  1.00  0.00     0.029 A 
ATOM     65  C   UNL A   1      47.887  39.729  29.836  1.00  0.00     0.049 A 
ATOM     66  H   UNL A   1      46.025  40.701  29.689  1.00  0.00     0.167 HD
ATOM     67  C   UNL A   1      49.553  39.486  28.143  1.00  0.00     0.074 A 
ATOM     68  C   UNL A   1      50.573  38.905  29.000  1.00  0.00     0.031 C 
ATOM     69  C   UNL A   1      48.336  39.980  28.480  1.00  0.00     0.034 A 
BRANCH  56  70
ATOM     70  C   UNL A   1      43.711  39.689  30.883  1.00  0.00     0.023 A 
ATOM     71  C   UNL A   1      43.341  39.331  29.581  1.00  0.00     0.031 A 
ATOM     72  C   UNL A   1      43.037  40.778  31.479  1.00  0.00     0.131 A 
ATOM     73  C   UNL A   1      42.387  40.100  28.891  1.00  0.00     0.055 A 
ATOM     74  C   UNL A   1      42.144  41.579  30.769  1.00  0.00     0.041 A 
ATOM     75  F   UNL A   1      43.242  41.092  32.769  1.00  0.00    -0.206 F 
ATOM     76  C   UNL A   1      41.823  41.247  29.459  1.00  0.00     0.022 A 
BRANCH  73  77
ATOM     77  S   UNL A   1      41.876  39.568  27.235  1.00  0.00     0.124 S 
ATOM     78  O   UNL A   1      41.521  38.169  27.448  1.00  0.00    -0.237 OA
ATOM     79  O   UNL A   1      40.758  40.465  26.954  1.00  0.00    -0.237 OA
ATOM     80  O   UNL A   1      43.065  39.790  26.413  1.00  0.00    -0.744 OA
ENDBRANCH  73  77
ENDBRANCH  56  70
BRANCH  57  81
ATOM     81  C   UNL A   1      51.192  36.200  25.724  1.00  0.00     0.023 A 
ATOM     82  C   UNL A   1      52.391  35.503  26.206  1.00  0.00     0.031 A 
ATOM     83  C   UNL A   1      51.132  36.297  24.328  1.00  0.00     0.131 A 
ATOM     84  C   UNL A   1      53.379  34.937  25.332  1.00  0.00     0.055 A 
ATOM     85  C   UNL A   1      52.117  35.738  23.469  1.00  0.00     0.041 A 
ATOM     86  F   UNL A   1      50.059  36.844  23.739  1.00  0.00    -0.206 F 
ATOM     87  C   UNL A   1      53.225  35.047  23.958  1.00  0.00     0.022 A 
BRANCH  84  88
ATOM     88  S   UNL A   1      54.792  33.882  25.924  1.00  0.00     0.124 S 
ATOM     89  O   UNL A   1      54.404  33.544  27.288  1.00  0.00    -0.237 OA
ATOM     90  O   UNL A   1      54.812  32.787  24.959  1.00  0.00    -0.237 OA
ATOM     91  O   UNL A   1      55.952  34.775  25.831  1.00  0.00    -0.744 OA
ENDBRANCH  84  88
ENDBRANCH  57  81
BRANCH  69  92
ATOM     92  C   UNL A   1      47.495  40.600  27.361  1.00  0.00     0.023 A 
ATOM     93  C   UNL A   1      47.537  41.951  26.914  1.00  0.00     0.031 A 
ATOM     94  C   UNL A   1      46.521  39.783  26.765  1.00  0.00     0.131 A 
ATOM     95  C   UNL A   1      46.621  42.430  25.952  1.00  0.00     0.055 A 
ATOM     96  C   UNL A   1      45.644  40.244  25.780  1.00  0.00     0.041 A 
ATOM     97  F   UNL A   1      46.393  38.500  27.142  1.00  0.00    -0.206 F 
ATOM     98  C   UNL A   1      45.680  41.574  25.381  1.00  0.00     0.022 A 
BRANCH  95  99
ATOM     99  S   UNL A   1      46.582  44.199  25.497  1.00  0.00     0.124 S 
ATOM    100  O   UNL A   1      46.451  44.173  24.045  1.00  0.00    -0.237 OA
ATOM    101  O   UNL A   1      45.423  44.693  26.233  1.00  0.00    -0.237 OA
ATOM    102  O   UNL A   1      47.870  44.702  25.979  1.00  0.00    -0.744 OA
ENDBRANCH  95  99
ENDBRANCH  69  92
ENDBRANCH  43  44
ENDBRANCH  36  38
ENDBRANCH  35  36
ENDBRANCH  34  35
ENDBRANCH  33  34
ENDBRANCH  32  33
ENDBRANCH  31  32
ENDBRANCH   1  31
TORSDOF 24
ENDMDL
MODEL 2
REMARK VINA RESULT:      -9.7      5.817     11.232
REMARK SMILES Cc1c(CC(=O)OCCOCCOCCOC(=O)c2ccc(-c3c4nc(c(-c5cc(S(=O)(=O)[O-])ccc5F)c5ccc([nH]5)c(-c5cc(S(=O)(=O)[O-])ccc5F)c5nc(c(-c6cc(S(=O)(=O)[O-])ccc6F)c6ccc3[nH]6)C=C5)C=C4)cc2)cc(-c2ccc(S(C)(=O)=O)cc2)n1-c1ccccc1
REMARK SMILES IDX 11 1 10 2 9 3 8 4 7 5 5 6 6 7 4 8 3 9 1 10 2 11 94 12 82 13
REMARK SMILES IDX 83 14 95 15 96 16 100 17 97 18 99 19 98 20 84 21 85 22 93 23
REMARK SMILES IDX 86 24 92 25 87 26 88 27 89 28 90 29 91 30 12 31 13 32 14 33
REMARK SMILES IDX 15 34 16 35 17 36 18 37 19 38 20 39 81 40 21 41 80 42 22 43
REMARK SMILES IDX 23 44 24 45 74 46 25 47 79 48 73 49 75 50 26 51 78 52 72 53
REMARK SMILES IDX 71 54 27 56 59 57 39 58 58 59 40 60 43 61 57 62 76 63 41 64
REMARK SMILES IDX 42 65 56 67 77 68 44 69 28 70 29 71 37 72 30 73 36 74 38 75
REMARK SMILES IDX 35 76 31 77 32 78 33 79 34 80 60 81 61 82 69 83 62 84 68 85
REMARK SMILES IDX 70 86 67 87 63 88 64 89 65 90 66 91 45 92 46 93 54 94 47 95
REMARK SMILES IDX 53 96 55 97 52 98 48 99 49 100 50 101 51 102
REMARK H PARENT 75 55 43 66
REMARK Flexibility Score: inf
ROOT
ATOM      1  C   UNL A   1      44.751  22.351  24.388  1.00  0.00     0.188 C 
ENDROOT
BRANCH   1   2
ATOM      2  O   UNL A   1      44.418  21.044  23.944  1.00  0.00    -0.376 OA
BRANCH   2   3
ATOM      3  C   UNL A   1      44.384  19.977  24.880  1.00  0.00     0.202 C 
BRANCH   3   4
ATOM      4  C   UNL A   1      43.269  19.971  25.931  1.00  0.00     0.261 C 
BRANCH   4   5
ATOM      5  O   UNL A   1      41.997  20.426  25.425  1.00  0.00    -0.463 OA
BRANCH   5   6
ATOM      6  C   UNL A   1      41.146  20.933  26.353  1.00  0.00     0.310 C 
ATOM      7  O   UNL A   1      39.929  21.016  26.190  1.00  0.00    -0.252 OA
BRANCH   6   8
ATOM      8  C   UNL A   1      41.769  21.346  27.670  1.00  0.00     0.160 C 
BRANCH   8   9
ATOM      9  C   UNL A   1      41.872  22.803  28.025  1.00  0.00    -0.015 A 
ATOM     10  C   UNL A   1      43.846  22.820  29.755  1.00  0.00     0.065 C 
ATOM     11  C   UNL A   1      42.779  23.413  28.888  1.00  0.00     0.024 A 
ATOM     12  N   UNL A   1      42.505  24.773  28.912  1.00  0.00    -0.314 N 
ATOM     13  C   UNL A   1      40.899  23.803  27.720  1.00  0.00     0.033 A 
ATOM     14  C   UNL A   1      41.241  24.974  28.375  1.00  0.00     0.053 A 
BRANCH  12  15
ATOM     15  C   UNL A   1      43.366  25.785  29.394  1.00  0.00     0.046 A 
ATOM     16  C   UNL A   1      44.584  26.039  28.760  1.00  0.00     0.026 A 
ATOM     17  C   UNL A   1      43.001  26.468  30.560  1.00  0.00     0.026 A 
ATOM     18  C   UNL A   1      45.439  27.002  29.297  1.00  0.00     0.002 A 
ATOM     19  C   UNL A   1      43.873  27.411  31.100  1.00  0.00     0.002 A 
ATOM     20  C   UNL A   1      45.087  27.680  30.467  1.00  0.00     0.000 A 
ENDBRANCH  12  15
BRANCH  14  21
ATOM     21  C   UNL A   1      40.476  26.211  28.520  1.00  0.00    -0.001 A 
ATOM     22  C   UNL A   1      39.756  26.495  29.687  1.00  0.00     0.011 A 
ATOM     23  C   UNL A   1      40.414  27.101  27.438  1.00  0.00     0.011 A 
ATOM     24  C   UNL A   1      38.973  27.649  29.769  1.00  0.00     0.021 A 
ATOM     25  C   UNL A   1      39.631  28.254  27.510  1.00  0.00     0.021 A 
ATOM     26  C   UNL A   1      38.908  28.517  28.676  1.00  0.00     0.067 A 
BRANCH  26  27
ATOM     27  S   UNL A   1      37.924  29.991  28.788  1.00  0.00     0.175 S 
ATOM     28  C   UNL A   1      36.655  29.588  29.957  1.00  0.00     0.163 C 
ATOM     29  O   UNL A   1      38.774  31.021  29.375  1.00  0.00    -0.224 OA
ATOM     30  O   UNL A   1      37.289  30.207  27.507  1.00  0.00    -0.224 OA
ENDBRANCH  26  27
ENDBRANCH  14  21
ENDBRANCH   8   9
ENDBRANCH   6   8
ENDBRANCH   5   6
ENDBRANCH   4   5
ENDBRANCH   3   4
ENDBRANCH   2   3
ENDBRANCH   1   2
BRANCH   1  31
ATOM     31  C   UNL A   1      46.141  22.949  24.117  1.00  0.00     0.188 C 
BRANCH  31  32
ATOM     32  O   UNL A   1      46.384  24.323  24.321  1.00  0.00    -0.376 OA
BRANCH  32  33
ATOM     33  C   UNL A   1      45.838  24.955  25.473  1.00  0.00     0.202 C 
BRANCH  33  34
ATOM     34  C   UNL A   1      44.599  25.872  25.305  1.00  0.00     0.261 C 
BRANCH  34  35
ATOM     35  O   UNL A   1      44.673  27.256  25.800  1.00  0.00    -0.460 OA
BRANCH  35  36
ATOM     36  C   UNL A   1      43.564  28.034  25.555  1.00  0.00     0.338 C 
ATOM     37  O   UNL A   1      42.796  27.801  24.629  1.00  0.00    -0.246 OA
BRANCH  36  38
ATOM     38  C   UNL A   1      43.285  29.192  26.529  1.00  0.00     0.060 A 
ATOM     39  C   UNL A   1      43.596  30.477  26.116  1.00  0.00     0.016 A 
ATOM     40  C   UNL A   1      42.965  29.092  27.902  1.00  0.00     0.016 A 
ATOM     41  C   UNL A   1      43.537  31.594  27.022  1.00  0.00     0.010 A 
ATOM     42  C   UNL A   1      42.988  30.245  28.849  1.00  0.00     0.010 A 
ATOM     43  C   UNL A   1      43.291  31.561  28.454  1.00  0.00    -0.014 A 
BRANCH  43  44
ATOM     44  C   UNL A   1      43.708  32.923  29.352  1.00  0.00     0.031 A 
ATOM     45  C   UNL A   1      44.554  32.330  30.432  1.00  0.00     0.074 A 
ATOM     46  C   UNL A   1      43.481  34.306  29.567  1.00  0.00     0.049 A 
ATOM     47  N   UNL A   1      44.049  31.383  31.172  1.00  0.00    -0.248 NA
ATOM     48  C   UNL A   1      46.016  32.409  30.468  1.00  0.00     0.031 C 
ATOM     49  C   UNL A   1      42.501  35.183  28.897  1.00  0.00     0.029 A 
ATOM     50  N   UNL A   1      44.061  35.295  30.471  1.00  0.00    -0.354 N 
ATOM     51  C   UNL A   1      45.051  30.942  31.994  1.00  0.00     0.074 A 
ATOM     52  C   UNL A   1      46.269  31.454  31.374  1.00  0.00     0.031 C 
ATOM     53  C   UNL A   1      42.637  36.500  29.256  1.00  0.00     0.029 A 
ATOM     54  C   UNL A   1      43.683  36.697  30.266  1.00  0.00     0.049 A 
ATOM     55  H   UNL A   1      44.681  35.032  31.190  1.00  0.00     0.167 HD
ATOM     56  C   UNL A   1      44.726  30.879  33.318  1.00  0.00     0.034 A 
ATOM     57  C   UNL A   1      44.081  37.905  30.888  1.00  0.00     0.034 A 
ATOM     58  C   UNL A   1      45.189  32.051  34.013  1.00  0.00     0.049 A 
ATOM     59  C   UNL A   1      44.458  37.558  32.257  1.00  0.00     0.074 A 
ATOM     60  C   UNL A   1      46.394  32.725  34.002  1.00  0.00     0.029 A 
ATOM     61  N   UNL A   1      44.233  32.949  34.438  1.00  0.00    -0.354 N 
ATOM     62  N   UNL A   1      43.568  37.312  33.165  1.00  0.00    -0.248 NA
ATOM     63  C   UNL A   1      45.844  37.538  32.704  1.00  0.00     0.031 C 
ATOM     64  C   UNL A   1      46.034  34.087  33.911  1.00  0.00     0.029 A 
ATOM     65  C   UNL A   1      44.705  34.237  34.290  1.00  0.00     0.049 A 
ATOM     66  H   UNL A   1      43.346  32.709  34.793  1.00  0.00     0.167 HD
ATOM     67  C   UNL A   1      44.268  36.573  34.065  1.00  0.00     0.074 A 
ATOM     68  C   UNL A   1      45.652  36.983  33.902  1.00  0.00     0.031 C 
ATOM     69  C   UNL A   1      43.770  35.344  34.348  1.00  0.00     0.034 A 
BRANCH  56  70
ATOM     70  C   UNL A   1      43.407  30.194  33.578  1.00  0.00     0.023 A 
ATOM     71  C   UNL A   1      43.401  28.957  34.233  1.00  0.00     0.031 A 
ATOM     72  C   UNL A   1      42.180  30.664  33.055  1.00  0.00     0.131 A 
ATOM     73  C   UNL A   1      42.218  28.198  34.279  1.00  0.00     0.055 A 
ATOM     74  C   UNL A   1      41.030  29.879  33.040  1.00  0.00     0.041 A 
ATOM     75  F   UNL A   1      42.082  31.899  32.535  1.00  0.00    -0.206 F 
ATOM     76  C   UNL A   1      41.048  28.629  33.646  1.00  0.00     0.022 A 
BRANCH  73  77
ATOM     77  S   UNL A   1      42.225  26.634  35.196  1.00  0.00     0.124 S 
ATOM     78  O   UNL A   1      40.839  26.193  35.079  1.00  0.00    -0.237 OA
ATOM     79  O   UNL A   1      43.202  25.845  34.452  1.00  0.00    -0.237 OA
ATOM     80  O   UNL A   1      42.642  27.021  36.543  1.00  0.00    -0.744 OA
ENDBRANCH  73  77
ENDBRANCH  56  70
BRANCH  57  81
ATOM     81  C   UNL A   1      44.104  39.491  30.779  1.00  0.00     0.023 A 
ATOM     82  C   UNL A   1      43.465  40.380  31.758  1.00  0.00     0.031 A 
ATOM     83  C   UNL A   1      45.060  40.137  29.986  1.00  0.00     0.131 A 
ATOM     84  C   UNL A   1      43.819  41.762  31.916  1.00  0.00     0.055 A 
ATOM     85  C   UNL A   1      45.401  41.508  30.145  1.00  0.00     0.041 A 
ATOM     86  F   UNL A   1      45.777  39.437  29.096  1.00  0.00    -0.206 F 
ATOM     87  C   UNL A   1      44.804  42.316  31.112  1.00  0.00     0.022 A 
BRANCH  84  88
ATOM     88  S   UNL A   1      43.164  42.841  33.283  1.00  0.00     0.124 S 
ATOM     89  O   UNL A   1      42.627  41.878  34.236  1.00  0.00    -0.237 OA
ATOM     90  O   UNL A   1      44.342  43.592  33.703  1.00  0.00    -0.237 OA
ATOM     91  O   UNL A   1      42.145  43.659  32.616  1.00  0.00    -0.744 OA
ENDBRANCH  84  88
ENDBRANCH  57  81
BRANCH  69  92
ATOM     92  C   UNL A   1      42.255  35.225  34.534  1.00  0.00     0.023 A 
ATOM     93  C   UNL A   1      41.318  34.723  33.587  1.00  0.00     0.031 A 
ATOM     94  C   UNL A   1      41.714  35.737  35.724  1.00  0.00     0.131 A 
ATOM     95  C   UNL A   1      39.929  34.779  33.834  1.00  0.00     0.055 A 
ATOM     96  C   UNL A   1      40.343  35.751  35.990  1.00  0.00     0.041 A 
ATOM     97  F   UNL A   1      42.522  36.253  36.665  1.00  0.00    -0.206 F 
ATOM     98  C   UNL A   1      39.443  35.287  35.039  1.00  0.00     0.022 A 
BRANCH  95  99
ATOM     99  S   UNL A   1      38.729  34.274  32.552  1.00  0.00     0.124 S 
ATOM    100  O   UNL A   1      39.317  34.780  31.318  1.00  0.00    -0.237 OA
ATOM    101  O   UNL A   1      38.700  32.822  32.696  1.00  0.00    -0.237 OA
ATOM    102  O   UNL A   1      37.495  34.951  32.957  1.00  0.00    -0.744 OA
ENDBRANCH  95  99
ENDBRANCH  69  92
ENDBRANCH  43  44
ENDBRANCH  36  38
ENDBRANCH  35  36
ENDBRANCH  34  35
ENDBRANCH  33  34
ENDBRANCH  32  33
ENDBRANCH  31  32
ENDBRANCH   1  31
TORSDOF 24
ENDMDL
MODEL 3
REMARK VINA RESULT:      -9.5      7.177     12.708
REMARK SMILES Cc1c(CC(=O)OCCOCCOCCOC(=O)c2ccc(-c3c4nc(c(-c5cc(S(=O)(=O)[O-])ccc5F)c5ccc([nH]5)c(-c5cc(S(=O)(=O)[O-])ccc5F)c5nc(c(-c6cc(S(=O)(=O)[O-])ccc6F)c6ccc3[nH]6)C=C5)C=C4)cc2)cc(-c2ccc(S(C)(=O)=O)cc2)n1-c1ccccc1
REMARK SMILES IDX 11 1 10 2 9 3 8 4 7 5 5 6 6 7 4 8 3 9 1 10 2 11 94 12 82 13
REMARK SMILES IDX 83 14 95 15 96 16 100 17 97 18 99 19 98 20 84 21 85 22 93 23
REMARK SMILES IDX 86 24 92 25 87 26 88 27 89 28 90 29 91 30 12 31 13 32 14 33
REMARK SMILES IDX 15 34 16 35 17 36 18 37 19 38 20 39 81 40 21 41 80 42 22 43
REMARK SMILES IDX 23 44 24 45 74 46 25 47 79 48 73 49 75 50 26 51 78 52 72 53
REMARK SMILES IDX 71 54 27 56 59 57 39 58 58 59 40 60 43 61 57 62 76 63 41 64
REMARK SMILES IDX 42 65 56 67 77 68 44 69 28 70 29 71 37 72 30 73 36 74 38 75
REMARK SMILES IDX 35 76 31 77 32 78 33 79 34 80 60 81 61 82 69 83 62 84 68 85
REMARK SMILES IDX 70 86 67 87 63 88 64 89 65 90 66 91 45 92 46 93 54 94 47 95
REMARK SMILES IDX 53 96 55 97 52 98 48 99 49 100 50 101 51 102
REMARK H PARENT 75 55 43 66
REMARK Flexibility Score: inf
ROOT
ATOM      1  C   UNL A   1      44.839  23.909  25.476  1.00  0.00     0.188 C 
ENDROOT
BRANCH   1   2
ATOM      2  O   UNL A   1      43.460  24.250  25.499  1.00  0.00    -0.376 OA
BRANCH   2   3
ATOM      3  C   UNL A   1      42.734  24.135  26.714  1.00  0.00     0.202 C 
BRANCH   3   4
ATOM      4  C   UNL A   1      42.512  22.736  27.296  1.00  0.00     0.261 C 
BRANCH   4   5
ATOM      5  O   UNL A   1      41.212  22.559  27.895  1.00  0.00    -0.463 OA
BRANCH   5   6
ATOM      6  C   UNL A   1      40.165  23.034  27.173  1.00  0.00     0.310 C 
ATOM      7  O   UNL A   1      39.739  24.185  27.263  1.00  0.00    -0.252 OA
BRANCH   6   8
ATOM      8  C   UNL A   1      39.563  22.074  26.167  1.00  0.00     0.160 C 
BRANCH   8   9
ATOM      9  C   UNL A   1      38.104  22.169  25.823  1.00  0.00    -0.015 A 
ATOM     10  C   UNL A   1      37.645  19.848  24.685  1.00  0.00     0.065 C 
ATOM     11  C   UNL A   1      37.300  21.202  25.222  1.00  0.00     0.024 A 
ATOM     12  N   UNL A   1      36.019  21.722  25.097  1.00  0.00    -0.314 N 
ATOM     13  C   UNL A   1      37.324  23.365  25.835  1.00  0.00     0.033 A 
ATOM     14  C   UNL A   1      36.087  23.097  25.270  1.00  0.00     0.053 A 
BRANCH  12  15
ATOM     15  C   UNL A   1      34.844  20.980  24.842  1.00  0.00     0.046 A 
ATOM     16  C   UNL A   1      34.852  19.587  24.938  1.00  0.00     0.026 A 
ATOM     17  C   UNL A   1      33.701  21.670  24.421  1.00  0.00     0.026 A 
ATOM     18  C   UNL A   1      33.692  18.880  24.620  1.00  0.00     0.002 A 
ATOM     19  C   UNL A   1      32.556  20.951  24.085  1.00  0.00     0.002 A 
ATOM     20  C   UNL A   1      32.550  19.560  24.189  1.00  0.00     0.000 A 
ENDBRANCH  12  15
BRANCH  14  21
ATOM     21  C   UNL A   1      35.019  24.024  24.900  1.00  0.00    -0.001 A 
ATOM     22  C   UNL A   1      34.112  24.513  25.848  1.00  0.00     0.011 A 
ATOM     23  C   UNL A   1      34.867  24.381  23.552  1.00  0.00     0.011 A 
ATOM     24  C   UNL A   1      33.056  25.339  25.454  1.00  0.00     0.021 A 
ATOM     25  C   UNL A   1      33.813  25.202  23.149  1.00  0.00     0.021 A 
ATOM     26  C   UNL A   1      32.908  25.670  24.104  1.00  0.00     0.067 A 
BRANCH  26  27
ATOM     27  S   UNL A   1      31.575  26.732  23.607  1.00  0.00     0.175 S 
ATOM     28  C   UNL A   1      30.913  27.354  25.129  1.00  0.00     0.163 C 
ATOM     29  O   UNL A   1      32.171  27.847  22.880  1.00  0.00    -0.224 OA
ATOM     30  O   UNL A   1      30.555  25.915  22.986  1.00  0.00    -0.224 OA
ENDBRANCH  26  27
ENDBRANCH  14  21
ENDBRANCH   8   9
ENDBRANCH   6   8
ENDBRANCH   5   6
ENDBRANCH   4   5
ENDBRANCH   3   4
ENDBRANCH   2   3
ENDBRANCH   1   2
BRANCH   1  31
ATOM     31  C   UNL A   1      45.854  24.655  26.355  1.00  0.00     0.188 C 
BRANCH  31  32
ATOM     32  O   UNL A   1      46.815  25.509  25.775  1.00  0.00    -0.376 OA
BRANCH  32  33
ATOM     33  C   UNL A   1      46.373  26.614  24.995  1.00  0.00     0.202 C 
BRANCH  33  34
ATOM     34  C   UNL A   1      45.388  27.629  25.629  1.00  0.00     0.261 C 
BRANCH  34  35
ATOM     35  O   UNL A   1      45.888  28.540  26.672  1.00  0.00    -0.460 OA
BRANCH  35  36
ATOM     36  C   UNL A   1      45.531  29.862  26.526  1.00  0.00     0.338 C 
ATOM     37  O   UNL A   1      46.062  30.592  25.697  1.00  0.00    -0.246 OA
BRANCH  36  38
ATOM     38  C   UNL A   1      44.389  30.386  27.413  1.00  0.00     0.060 A 
ATOM     39  C   UNL A   1      44.645  31.485  28.217  1.00  0.00     0.016 A 
ATOM     40  C   UNL A   1      43.163  29.742  27.694  1.00  0.00     0.016 A 
ATOM     41  C   UNL A   1      43.698  31.930  29.206  1.00  0.00     0.010 A 
ATOM     42  C   UNL A   1      42.229  30.165  28.778  1.00  0.00     0.010 A 
ATOM     43  C   UNL A   1      42.459  31.282  29.602  1.00  0.00    -0.014 A 
BRANCH  43  44
ATOM     44  C   UNL A   1      41.764  31.747  31.064  1.00  0.00     0.031 A 
ATOM     45  C   UNL A   1      40.903  30.568  31.382  1.00  0.00     0.074 A 
ATOM     46  C   UNL A   1      41.568  32.802  31.990  1.00  0.00     0.049 A 
ATOM     47  N   UNL A   1      40.014  30.189  30.508  1.00  0.00    -0.248 NA
ATOM     48  C   UNL A   1      41.239  29.550  32.380  1.00  0.00     0.031 C 
ATOM     49  C   UNL A   1      42.013  34.205  31.881  1.00  0.00     0.029 A 
ATOM     50  N   UNL A   1      40.889  32.899  33.279  1.00  0.00    -0.354 N 
ATOM     51  C   UNL A   1      39.449  29.037  30.986  1.00  0.00     0.074 A 
ATOM     52  C   UNL A   1      40.380  28.588  32.017  1.00  0.00     0.031 C 
ATOM     53  C   UNL A   1      41.765  34.930  33.019  1.00  0.00     0.029 A 
ATOM     54  C   UNL A   1      41.062  34.143  34.038  1.00  0.00     0.049 A 
ATOM     55  H   UNL A   1      40.337  32.161  33.625  1.00  0.00     0.167 HD
ATOM     56  C   UNL A   1      38.084  29.027  31.002  1.00  0.00     0.034 A 
ATOM     57  C   UNL A   1      40.620  34.562  35.317  1.00  0.00     0.034 A 
ATOM     58  C   UNL A   1      37.587  29.364  32.310  1.00  0.00     0.049 A 
ATOM     59  C   UNL A   1      39.375  33.844  35.578  1.00  0.00     0.074 A 
ATOM     60  C   UNL A   1      37.934  28.938  33.576  1.00  0.00     0.029 A 
ATOM     61  N   UNL A   1      36.981  30.594  32.454  1.00  0.00    -0.354 N 
ATOM     62  N   UNL A   1      38.261  34.188  35.013  1.00  0.00    -0.248 NA
ATOM     63  C   UNL A   1      39.290  32.751  36.538  1.00  0.00     0.031 C 
ATOM     64  C   UNL A   1      38.000  30.123  34.341  1.00  0.00     0.029 A 
ATOM     65  C   UNL A   1      37.307  31.133  33.682  1.00  0.00     0.049 A 
ATOM     66  H   UNL A   1      36.403  31.024  31.783  1.00  0.00     0.167 HD
ATOM     67  C   UNL A   1      37.530  33.045  35.094  1.00  0.00     0.074 A 
ATOM     68  C   UNL A   1      38.056  32.335  36.248  1.00  0.00     0.031 C 
ATOM     69  C   UNL A   1      37.070  32.543  33.920  1.00  0.00     0.034 A 
BRANCH  56  70
ATOM     70  C   UNL A   1      37.467  29.491  29.705  1.00  0.00     0.023 A 
ATOM     71  C   UNL A   1      36.503  30.505  29.737  1.00  0.00     0.031 A 
ATOM     72  C   UNL A   1      37.700  28.846  28.469  1.00  0.00     0.131 A 
ATOM     73  C   UNL A   1      35.752  30.789  28.581  1.00  0.00     0.055 A 
ATOM     74  C   UNL A   1      36.908  29.082  27.348  1.00  0.00     0.041 A 
ATOM     75  F   UNL A   1      38.701  27.961  28.333  1.00  0.00    -0.206 F 
ATOM     76  C   UNL A   1      35.916  30.053  27.404  1.00  0.00     0.022 A 
BRANCH  73  77
ATOM     77  S   UNL A   1      34.562  32.156  28.634  1.00  0.00     0.124 S 
ATOM     78  O   UNL A   1      35.323  33.260  28.059  1.00  0.00    -0.237 OA
ATOM     79  O   UNL A   1      33.471  31.646  27.808  1.00  0.00    -0.237 OA
ATOM     80  O   UNL A   1      34.247  32.292  30.055  1.00  0.00    -0.744 OA
ENDBRANCH  73  77
ENDBRANCH  56  70
BRANCH  57  81
ATOM     81  C   UNL A   1      40.810  35.621  36.488  1.00  0.00     0.023 A 
ATOM     82  C   UNL A   1      40.006  35.624  37.716  1.00  0.00     0.031 A 
ATOM     83  C   UNL A   1      42.000  36.349  36.603  1.00  0.00     0.131 A 
ATOM     84  C   UNL A   1      40.421  36.270  38.929  1.00  0.00     0.055 A 
ATOM     85  C   UNL A   1      42.403  36.991  37.806  1.00  0.00     0.041 A 
ATOM     86  F   UNL A   1      42.872  36.377  35.585  1.00  0.00    -0.206 F 
ATOM     87  C   UNL A   1      41.635  36.942  38.969  1.00  0.00     0.022 A 
BRANCH  84  88
ATOM     88  S   UNL A   1      39.511  36.111  40.543  1.00  0.00     0.124 S 
ATOM     89  O   UNL A   1      38.597  35.002  40.299  1.00  0.00    -0.237 OA
ATOM     90  O   UNL A   1      40.583  35.876  41.504  1.00  0.00    -0.237 OA
ATOM     91  O   UNL A   1      38.851  37.412  40.696  1.00  0.00    -0.744 OA
ENDBRANCH  84  88
ENDBRANCH  57  81
BRANCH  69  92
ATOM     92  C   UNL A   1      36.504  33.539  32.904  1.00  0.00     0.023 A 
ATOM     93  C   UNL A   1      35.307  34.297  33.033  1.00  0.00     0.031 A 
ATOM     94  C   UNL A   1      37.184  33.662  31.682  1.00  0.00     0.131 A 
ATOM     95  C   UNL A   1      34.829  35.092  31.968  1.00  0.00     0.055 A 
ATOM     96  C   UNL A   1      36.737  34.483  30.645  1.00  0.00     0.041 A 
ATOM     97  F   UNL A   1      38.311  32.964  31.463  1.00  0.00    -0.206 F 
ATOM     98  C   UNL A   1      35.548  35.190  30.778  1.00  0.00     0.022 A 
BRANCH  95  99
ATOM     99  S   UNL A   1      33.215  35.941  32.085  1.00  0.00     0.124 S 
ATOM    100  O   UNL A   1      33.416  36.908  33.157  1.00  0.00    -0.237 OA
ATOM    101  O   UNL A   1      33.050  36.498  30.746  1.00  0.00    -0.237 OA
ATOM    102  O   UNL A   1      32.285  34.858  32.413  1.00  0.00    -0.744 OA
ENDBRANCH  95  99
ENDBRANCH  69  92
ENDBRANCH  43  44
ENDBRANCH  36  38
ENDBRANCH  35  36
ENDBRANCH  34  35
ENDBRANCH  33  34
ENDBRANCH  32  33
ENDBRANCH  31  32
ENDBRANCH   1  31
TORSDOF 24
ENDMDL
