MODEL 1
REMARK VINA RESULT:      -8.1      0.000      0.000
REMARK SMILES CCCCS[C@@H]1CC[C@@]([NH2+]CC)(C(=O)OCCOCCOCCOC(=O)c2ccc(-c3c4nc(c(-c5cc(S(=O)(=O)[O-])ccc5F)c5ccc([nH]5)c(-c5cc(S(=O)(=O)[O-])ccc5F)c5nc(c(-c6cc(S(=O)(=O)[O-])ccc6F)c6ccc3[nH]6)C=C5)C=C4)cc2)C1
REMARK SMILES IDX 19 1 18 2 17 3 16 4 15 5 13 6 14 7 9 8 6 9 7 10 90 11 8 12
REMARK SMILES IDX 5 13 4 14 3 15 2 16 1 17 10 18 11 21 12 22 20 23 21 24 22 25
REMARK SMILES IDX 23 26 24 27 25 28 26 29 27 30 28 31 89 32 29 33 88 34 30 35
REMARK SMILES IDX 31 36 32 37 82 38 33 39 87 40 81 41 83 42 34 43 86 44 80 45
REMARK SMILES IDX 79 46 35 48 67 49 47 50 66 51 48 52 51 53 65 54 84 55 49 56
REMARK SMILES IDX 50 57 64 59 85 60 52 61 36 62 37 63 45 64 38 65 44 66 46 67
REMARK SMILES IDX 43 68 39 69 40 70 41 71 42 72 68 73 69 74 77 75 70 76 76 77
REMARK SMILES IDX 78 78 75 79 71 80 72 81 73 82 74 83 53 84 54 85 62 86 55 87
REMARK SMILES IDX 61 88 63 89 60 90 56 91 57 92 58 93 59 94
REMARK H PARENT 10 19 10 20 83 47 51 58
REMARK Flexibility Score: inf
ROOT
ATOM      1  C   UNL A   1      39.484  22.979  26.749  1.00  0.00     0.188 C 
ENDROOT
BRANCH   1   2
ATOM      2  O   UNL A   1      38.578  23.920  26.232  1.00  0.00    -0.376 OA
BRANCH   2   3
ATOM      3  C   UNL A   1      37.447  23.495  25.509  1.00  0.00     0.202 C 
BRANCH   3   4
ATOM      4  C   UNL A   1      36.067  23.221  26.132  1.00  0.00     0.261 C 
BRANCH   4   5
ATOM      5  O   UNL A   1      35.278  22.112  25.664  1.00  0.00    -0.459 OA
BRANCH   5   6
ATOM      6  C   UNL A   1      34.165  21.851  26.408  1.00  0.00     0.368 C 
ATOM      7  O   UNL A   1      34.231  21.531  27.594  1.00  0.00    -0.245 OA
BRANCH   6   8
ATOM      8  C   UNL A   1      32.805  21.921  25.628  1.00  0.00     0.195 C 
ATOM      9  C   UNL A   1      31.964  24.221  25.534  1.00  0.00     0.053 C 
ATOM     10  C   UNL A   1      32.016  23.716  24.103  1.00  0.00     0.022 C 
ATOM     11  C   UNL A   1      31.856  22.936  26.343  1.00  0.00     0.095 C 
ATOM     12  C   UNL A   1      32.861  22.443  24.165  1.00  0.00     0.082 C 
BRANCH   9  13
ATOM     13  S   UNL A   1      30.573  25.376  25.674  1.00  0.00    -0.158 SA
BRANCH  13  14
ATOM     14  C   UNL A   1      31.349  26.857  26.395  1.00  0.00     0.070 C 
BRANCH  14  15
ATOM     15  C   UNL A   1      32.661  27.426  25.813  1.00  0.00     0.011 C 
BRANCH  15  16
ATOM     16  C   UNL A   1      33.653  27.046  24.380  1.00  0.00    -0.003 C 
ATOM     17  C   UNL A   1      33.468  27.260  22.230  1.00  0.00     0.004 C 
ENDBRANCH  15  16
ENDBRANCH  14  15
ENDBRANCH  13  14
ENDBRANCH   9  13
BRANCH   8  18
ATOM     18  N   UNL A   1      32.214  20.557  25.536  1.00  0.00    -0.332 N 
ATOM     19  H   UNL A   1      31.201  20.660  25.590  1.00  0.00     0.347 HD
ATOM     20  H   UNL A   1      32.643  20.037  26.301  1.00  0.00     0.347 HD
BRANCH  18  21
ATOM     21  C   UNL A   1      32.511  19.771  24.341  1.00  0.00     0.257 C 
ATOM     22  C   UNL A   1      32.462  18.262  24.522  1.00  0.00     0.071 C 
ENDBRANCH  18  21
ENDBRANCH   8  18
ENDBRANCH   6   8
ENDBRANCH   5   6
ENDBRANCH   4   5
ENDBRANCH   3   4
ENDBRANCH   2   3
ENDBRANCH   1   2
BRANCH   1  23
ATOM     23  C   UNL A   1      39.560  21.571  26.132  1.00  0.00     0.188 C 
BRANCH  23  24
ATOM     24  O   UNL A   1      40.792  20.889  26.073  1.00  0.00    -0.376 OA
BRANCH  24  25
ATOM     25  C   UNL A   1      41.963  21.550  26.523  1.00  0.00     0.202 C 
BRANCH  25  26
ATOM     26  C   UNL A   1      43.046  22.091  25.571  1.00  0.00     0.261 C 
BRANCH  26  27
ATOM     27  O   UNL A   1      42.999  23.499  25.299  1.00  0.00    -0.460 OA
BRANCH  27  28
ATOM     28  C   UNL A   1      43.999  24.214  25.868  1.00  0.00     0.338 C 
ATOM     29  O   UNL A   1      45.184  24.171  25.587  1.00  0.00    -0.246 OA
BRANCH  28  30
ATOM     30  C   UNL A   1      43.454  25.245  26.771  1.00  0.00     0.060 A 
ATOM     31  C   UNL A   1      44.236  26.891  26.808  1.00  0.00     0.016 A 
ATOM     32  C   UNL A   1      42.374  24.729  28.091  1.00  0.00     0.016 A 
ATOM     33  C   UNL A   1      43.986  27.957  28.256  1.00  0.00     0.010 A 
ATOM     34  C   UNL A   1      42.118  25.791  29.520  1.00  0.00     0.010 A 
ATOM     35  C   UNL A   1      42.882  27.414  29.611  1.00  0.00    -0.014 A 
BRANCH  35  36
ATOM     36  C   UNL A   1      42.597  28.139  30.878  1.00  0.00     0.031 A 
ATOM     37  C   UNL A   1      41.578  29.233  30.900  1.00  0.00     0.074 A 
ATOM     38  C   UNL A   1      43.430  27.966  31.932  1.00  0.00     0.049 A 
ATOM     39  N   UNL A   1      41.391  30.145  31.818  1.00  0.00    -0.248 NA
ATOM     40  C   UNL A   1      40.751  29.414  29.702  1.00  0.00     0.031 C 
ATOM     41  C   UNL A   1      44.590  27.075  31.959  1.00  0.00     0.029 A 
ATOM     42  N   UNL A   1      43.452  28.515  33.191  1.00  0.00    -0.354 N 
ATOM     43  C   UNL A   1      40.471  31.033  31.278  1.00  0.00     0.074 A 
ATOM     44  C   UNL A   1      40.191  30.588  29.935  1.00  0.00     0.031 C 
ATOM     45  C   UNL A   1      45.086  26.988  33.197  1.00  0.00     0.029 A 
ATOM     46  C   UNL A   1      44.423  27.979  34.019  1.00  0.00     0.049 A 
ATOM     47  H   UNL A   1      42.833  29.223  33.480  1.00  0.00     0.167 HD
ATOM     48  C   UNL A   1      39.905  32.119  31.853  1.00  0.00     0.034 A 
ATOM     49  C   UNL A   1      44.797  28.289  35.276  1.00  0.00     0.034 A 
ATOM     50  C   UNL A   1      40.245  32.574  33.172  1.00  0.00     0.049 A 
ATOM     51  C   UNL A   1      44.149  29.497  35.893  1.00  0.00     0.074 A 
ATOM     52  C   UNL A   1      39.751  33.662  33.863  1.00  0.00     0.029 A 
ATOM     53  N   UNL A   1      41.191  31.970  33.992  1.00  0.00    -0.354 N 
ATOM     54  N   UNL A   1      43.238  30.288  35.377  1.00  0.00    -0.248 NA
ATOM     55  C   UNL A   1      44.604  29.884  37.232  1.00  0.00     0.031 C 
ATOM     56  C   UNL A   1      40.450  33.760  35.069  1.00  0.00     0.029 A 
ATOM     57  C   UNL A   1      41.307  32.675  35.176  1.00  0.00     0.049 A 
ATOM     58  H   UNL A   1      41.703  31.160  33.764  1.00  0.00     0.167 HD
ATOM     59  C   UNL A   1      42.992  31.256  36.341  1.00  0.00     0.074 A 
ATOM     60  C   UNL A   1      43.837  30.937  37.475  1.00  0.00     0.031 C 
ATOM     61  C   UNL A   1      42.149  32.315  36.292  1.00  0.00     0.034 A 
BRANCH  48  62
ATOM     62  C   UNL A   1      38.911  32.883  31.015  1.00  0.00     0.023 A 
ATOM     63  C   UNL A   1      37.543  32.552  31.037  1.00  0.00     0.031 A 
ATOM     64  C   UNL A   1      39.336  33.866  30.109  1.00  0.00     0.131 A 
ATOM     65  C   UNL A   1      36.674  33.112  30.092  1.00  0.00     0.055 A 
ATOM     66  C   UNL A   1      38.443  34.499  29.242  1.00  0.00     0.041 A 
ATOM     67  F   UNL A   1      40.634  34.199  30.019  1.00  0.00    -0.206 F 
ATOM     68  C   UNL A   1      37.107  34.107  29.215  1.00  0.00     0.022 A 
BRANCH  65  69
ATOM     69  S   UNL A   1      35.027  32.377  29.901  1.00  0.00     0.124 S 
ATOM     70  O   UNL A   1      34.547  32.373  31.281  1.00  0.00    -0.237 OA
ATOM     71  O   UNL A   1      34.365  33.312  28.998  1.00  0.00    -0.237 OA
ATOM     72  O   UNL A   1      35.305  31.056  29.340  1.00  0.00    -0.744 OA
ENDBRANCH  65  69
ENDBRANCH  48  62
BRANCH  49  73
ATOM     73  C   UNL A   1      45.847  27.512  36.010  1.00  0.00     0.023 A 
ATOM     74  C   UNL A   1      45.476  26.585  37.000  1.00  0.00     0.031 A 
ATOM     75  C   UNL A   1      47.225  27.708  35.793  1.00  0.00     0.131 A 
ATOM     76  C   UNL A   1      46.459  25.940  37.770  1.00  0.00     0.055 A 
ATOM     77  C   UNL A   1      48.199  26.998  36.501  1.00  0.00     0.041 A 
ATOM     78  F   UNL A   1      47.653  28.590  34.877  1.00  0.00    -0.206 F 
ATOM     79  C   UNL A   1      47.818  26.122  37.511  1.00  0.00     0.022 A 
BRANCH  76  80
ATOM     80  S   UNL A   1      45.933  24.970  39.210  1.00  0.00     0.124 S 
ATOM     81  O   UNL A   1      44.822  24.204  38.658  1.00  0.00    -0.237 OA
ATOM     82  O   UNL A   1      47.141  24.215  39.526  1.00  0.00    -0.237 OA
ATOM     83  O   UNL A   1      45.562  25.990  40.189  1.00  0.00    -0.744 OA
ENDBRANCH  76  80
ENDBRANCH  49  73
BRANCH  61  84
ATOM     84  C   UNL A   1      42.034  33.150  37.535  1.00  0.00     0.023 A 
ATOM     85  C   UNL A   1      41.085  32.879  38.532  1.00  0.00     0.031 A 
ATOM     86  C   UNL A   1      42.931  34.214  37.732  1.00  0.00     0.131 A 
ATOM     87  C   UNL A   1      41.033  33.689  39.673  1.00  0.00     0.055 A 
ATOM     88  C   UNL A   1      42.919  34.973  38.899  1.00  0.00     0.041 A 
ATOM     89  F   UNL A   1      43.850  34.516  36.800  1.00  0.00    -0.206 F 
ATOM     90  C   UNL A   1      41.960  34.715  39.875  1.00  0.00     0.022 A 
BRANCH  87  91
ATOM     91  S   UNL A   1      39.691  33.429  40.863  1.00  0.00     0.124 S 
ATOM     92  O   UNL A   1      39.158  32.138  40.441  1.00  0.00    -0.237 OA
ATOM     93  O   UNL A   1      40.396  33.442  42.140  1.00  0.00    -0.237 OA
ATOM     94  O   UNL A   1      38.806  34.571  40.634  1.00  0.00    -0.744 OA
ENDBRANCH  87  91
ENDBRANCH  61  84
ENDBRANCH  35  36
ENDBRANCH  28  30
ENDBRANCH  27  28
ENDBRANCH  26  27
ENDBRANCH  25  26
ENDBRANCH  24  25
ENDBRANCH  23  24
ENDBRANCH   1  23
TORSDOF 26
ENDMDL
MODEL 2
REMARK VINA RESULT:      -7.8      4.493      7.930
REMARK SMILES CCCCS[C@@H]1CC[C@@]([NH2+]CC)(C(=O)OCCOCCOCCOC(=O)c2ccc(-c3c4nc(c(-c5cc(S(=O)(=O)[O-])ccc5F)c5ccc([nH]5)c(-c5cc(S(=O)(=O)[O-])ccc5F)c5nc(c(-c6cc(S(=O)(=O)[O-])ccc6F)c6ccc3[nH]6)C=C5)C=C4)cc2)C1
REMARK SMILES IDX 19 1 18 2 17 3 16 4 15 5 13 6 14 7 9 8 6 9 7 10 90 11 8 12
REMARK SMILES IDX 5 13 4 14 3 15 2 16 1 17 10 18 11 21 12 22 20 23 21 24 22 25
REMARK SMILES IDX 23 26 24 27 25 28 26 29 27 30 28 31 89 32 29 33 88 34 30 35
REMARK SMILES IDX 31 36 32 37 82 38 33 39 87 40 81 41 83 42 34 43 86 44 80 45
REMARK SMILES IDX 79 46 35 48 67 49 47 50 66 51 48 52 51 53 65 54 84 55 49 56
REMARK SMILES IDX 50 57 64 59 85 60 52 61 36 62 37 63 45 64 38 65 44 66 46 67
REMARK SMILES IDX 43 68 39 69 40 70 41 71 42 72 68 73 69 74 77 75 70 76 76 77
REMARK SMILES IDX 78 78 75 79 71 80 72 81 73 82 74 83 53 84 54 85 62 86 55 87
REMARK SMILES IDX 61 88 63 89 60 90 56 91 57 92 58 93 59 94
REMARK H PARENT 10 19 10 20 83 47 51 58
REMARK Flexibility Score: inf
ROOT
ATOM      1  C   UNL A   1      39.635  22.629  26.524  1.00  0.00     0.188 C 
ENDROOT
BRANCH   1   2
ATOM      2  O   UNL A   1      38.270  22.895  26.323  1.00  0.00    -0.376 OA
BRANCH   2   3
ATOM      3  C   UNL A   1      37.579  22.292  25.255  1.00  0.00     0.202 C 
BRANCH   3   4
ATOM      4  C   UNL A   1      36.701  21.035  25.385  1.00  0.00     0.261 C 
BRANCH   4   5
ATOM      5  O   UNL A   1      35.314  21.087  25.005  1.00  0.00    -0.459 OA
BRANCH   5   6
ATOM      6  C   UNL A   1      34.595  22.075  25.610  1.00  0.00     0.368 C 
ATOM      7  O   UNL A   1      34.384  22.081  26.823  1.00  0.00    -0.245 OA
BRANCH   6   8
ATOM      8  C   UNL A   1      34.000  23.161  24.646  1.00  0.00     0.195 C 
ATOM      9  C   UNL A   1      32.974  24.992  25.911  1.00  0.00     0.053 C 
ATOM     10  C   UNL A   1      33.974  25.625  24.960  1.00  0.00     0.022 C 
ATOM     11  C   UNL A   1      32.642  23.673  25.225  1.00  0.00     0.095 C 
ATOM     12  C   UNL A   1      34.830  24.462  24.457  1.00  0.00     0.082 C 
BRANCH   9  13
ATOM     13  S   UNL A   1      31.595  26.149  26.132  1.00  0.00    -0.158 SA
BRANCH  13  14
ATOM     14  C   UNL A   1      32.316  27.437  27.198  1.00  0.00     0.070 C 
BRANCH  14  15
ATOM     15  C   UNL A   1      31.683  28.843  27.278  1.00  0.00     0.011 C 
BRANCH  15  16
ATOM     16  C   UNL A   1      31.865  30.344  26.331  1.00  0.00    -0.003 C 
ATOM     17  C   UNL A   1      31.362  32.438  26.578  1.00  0.00     0.004 C 
ENDBRANCH  15  16
ENDBRANCH  14  15
ENDBRANCH  13  14
ENDBRANCH   9  13
BRANCH   8  18
ATOM     18  N   UNL A   1      33.855  22.586  23.280  1.00  0.00    -0.332 N 
ATOM     19  H   UNL A   1      34.431  21.745  23.241  1.00  0.00     0.347 HD
ATOM     20  H   UNL A   1      34.135  23.338  22.651  1.00  0.00     0.347 HD
BRANCH  18  21
ATOM     21  C   UNL A   1      32.511  22.216  22.841  1.00  0.00     0.257 C 
ATOM     22  C   UNL A   1      32.179  20.735  22.930  1.00  0.00     0.071 C 
ENDBRANCH  18  21
ENDBRANCH   8  18
ENDBRANCH   6   8
ENDBRANCH   5   6
ENDBRANCH   4   5
ENDBRANCH   3   4
ENDBRANCH   2   3
ENDBRANCH   1   2
BRANCH   1  23
ATOM     23  C   UNL A   1      40.222  21.271  26.096  1.00  0.00     0.188 C 
BRANCH  23  24
ATOM     24  O   UNL A   1      41.121  20.590  26.940  1.00  0.00    -0.376 OA
BRANCH  24  25
ATOM     25  C   UNL A   1      42.272  21.273  27.409  1.00  0.00     0.202 C 
BRANCH  25  26
ATOM     26  C   UNL A   1      43.373  21.809  26.475  1.00  0.00     0.261 C 
BRANCH  26  27
ATOM     27  O   UNL A   1      43.088  21.760  25.070  1.00  0.00    -0.460 OA
BRANCH  27  28
ATOM     28  C   UNL A   1      44.001  22.387  24.289  1.00  0.00     0.338 C 
ATOM     29  O   UNL A   1      44.307  22.102  23.145  1.00  0.00    -0.246 OA
BRANCH  28  30
ATOM     30  C   UNL A   1      44.466  23.631  24.930  1.00  0.00     0.060 A 
ATOM     31  C   UNL A   1      46.146  23.688  25.634  1.00  0.00     0.016 A 
ATOM     32  C   UNL A   1      43.252  24.850  25.393  1.00  0.00     0.016 A 
ATOM     33  C   UNL A   1      46.537  24.937  26.891  1.00  0.00     0.010 A 
ATOM     34  C   UNL A   1      43.644  26.094  26.631  1.00  0.00     0.010 A 
ATOM     35  C   UNL A   1      45.280  26.180  27.367  1.00  0.00    -0.014 A 
BRANCH  35  36
ATOM     36  C   UNL A   1      45.417  27.241  28.400  1.00  0.00     0.031 A 
ATOM     37  C   UNL A   1      45.160  26.922  29.838  1.00  0.00     0.074 A 
ATOM     38  C   UNL A   1      45.535  28.530  28.001  1.00  0.00     0.049 A 
ATOM     39  N   UNL A   1      44.963  27.754  30.827  1.00  0.00    -0.248 NA
ATOM     40  C   UNL A   1      44.973  25.512  30.198  1.00  0.00     0.031 C 
ATOM     41  C   UNL A   1      45.587  28.987  26.612  1.00  0.00     0.029 A 
ATOM     42  N   UNL A   1      45.636  29.708  28.701  1.00  0.00    -0.354 N 
ATOM     43  C   UNL A   1      44.574  26.968  31.903  1.00  0.00     0.074 A 
ATOM     44  C   UNL A   1      44.500  25.608  31.428  1.00  0.00     0.031 C 
ATOM     45  C   UNL A   1      45.897  30.285  26.557  1.00  0.00     0.029 A 
ATOM     46  C   UNL A   1      45.857  30.816  27.903  1.00  0.00     0.049 A 
ATOM     47  H   UNL A   1      45.561  29.759  29.681  1.00  0.00     0.167 HD
ATOM     48  C   UNL A   1      44.310  27.344  33.175  1.00  0.00     0.034 A 
ATOM     49  C   UNL A   1      45.946  32.128  28.200  1.00  0.00     0.034 A 
ATOM     50  C   UNL A   1      44.336  28.713  33.608  1.00  0.00     0.049 A 
ATOM     51  C   UNL A   1      45.652  32.519  29.621  1.00  0.00     0.074 A 
ATOM     52  C   UNL A   1      44.078  29.225  34.864  1.00  0.00     0.029 A 
ATOM     53  N   UNL A   1      44.616  29.794  32.780  1.00  0.00    -0.354 N 
ATOM     54  N   UNL A   1      45.339  31.744  30.634  1.00  0.00    -0.248 NA
ATOM     55  C   UNL A   1      45.674  33.951  29.936  1.00  0.00     0.031 C 
ATOM     56  C   UNL A   1      44.130  30.619  34.780  1.00  0.00     0.029 A 
ATOM     57  C   UNL A   1      44.520  30.973  33.497  1.00  0.00     0.049 A 
ATOM     58  H   UNL A   1      44.848  29.730  31.825  1.00  0.00     0.167 HD
ATOM     59  C   UNL A   1      45.152  32.595  31.714  1.00  0.00     0.074 A 
ATOM     60  C   UNL A   1      45.404  33.939  31.232  1.00  0.00     0.031 C 
ATOM     61  C   UNL A   1      44.797  32.294  32.986  1.00  0.00     0.034 A 
BRANCH  48  62
ATOM     62  C   UNL A   1      43.930  26.246  34.136  1.00  0.00     0.023 A 
ATOM     63  C   UNL A   1      44.876  25.291  34.553  1.00  0.00     0.031 A 
ATOM     64  C   UNL A   1      42.599  26.081  34.552  1.00  0.00     0.131 A 
ATOM     65  C   UNL A   1      44.458  24.156  35.259  1.00  0.00     0.055 A 
ATOM     66  C   UNL A   1      42.209  25.001  35.347  1.00  0.00     0.041 A 
ATOM     67  F   UNL A   1      41.646  26.941  34.158  1.00  0.00    -0.206 F 
ATOM     68  C   UNL A   1      43.137  24.019  35.686  1.00  0.00     0.022 A 
BRANCH  65  69
ATOM     69  S   UNL A   1      45.623  22.778  35.432  1.00  0.00     0.124 S 
ATOM     70  O   UNL A   1      45.350  22.334  36.797  1.00  0.00    -0.237 OA
ATOM     71  O   UNL A   1      45.203  21.871  34.370  1.00  0.00    -0.237 OA
ATOM     72  O   UNL A   1      46.928  23.407  35.237  1.00  0.00    -0.744 OA
ENDBRANCH  65  69
ENDBRANCH  48  62
BRANCH  49  73
ATOM     73  C   UNL A   1      46.263  33.161  27.161  1.00  0.00     0.023 A 
ATOM     74  C   UNL A   1      47.595  33.385  26.773  1.00  0.00     0.031 A 
ATOM     75  C   UNL A   1      45.275  33.979  26.580  1.00  0.00     0.131 A 
ATOM     76  C   UNL A   1      47.909  34.429  25.886  1.00  0.00     0.055 A 
ATOM     77  C   UNL A   1      45.583  34.958  25.631  1.00  0.00     0.041 A 
ATOM     78  F   UNL A   1      43.984  33.835  26.916  1.00  0.00    -0.206 F 
ATOM     79  C   UNL A   1      46.909  35.202  25.294  1.00  0.00     0.022 A 
BRANCH  76  80
ATOM     80  S   UNL A   1      49.654  34.856  25.631  1.00  0.00     0.124 S 
ATOM     81  O   UNL A   1      49.575  35.726  24.464  1.00  0.00    -0.237 OA
ATOM     82  O   UNL A   1      49.996  35.502  26.894  1.00  0.00    -0.237 OA
ATOM     83  O   UNL A   1      50.290  33.560  25.402  1.00  0.00    -0.744 OA
ENDBRANCH  76  80
ENDBRANCH  49  73
BRANCH  61  84
ATOM     84  C   UNL A   1      44.754  33.432  33.966  1.00  0.00     0.023 A 
ATOM     85  C   UNL A   1      43.599  34.204  34.163  1.00  0.00     0.031 A 
ATOM     86  C   UNL A   1      45.891  33.711  34.744  1.00  0.00     0.131 A 
ATOM     87  C   UNL A   1      43.619  35.246  35.098  1.00  0.00     0.055 A 
ATOM     88  C   UNL A   1      45.882  34.703  35.720  1.00  0.00     0.041 A 
ATOM     89  F   UNL A   1      47.021  33.003  34.583  1.00  0.00    -0.206 F 
ATOM     90  C   UNL A   1      44.742  35.483  35.896  1.00  0.00     0.022 A 
BRANCH  87  91
ATOM     91  S   UNL A   1      42.177  36.338  35.212  1.00  0.00     0.124 S 
ATOM     92  O   UNL A   1      42.633  37.519  34.485  1.00  0.00    -0.237 OA
ATOM     93  O   UNL A   1      41.134  35.551  34.560  1.00  0.00    -0.237 OA
ATOM     94  O   UNL A   1      42.002  36.525  36.652  1.00  0.00    -0.744 OA
ENDBRANCH  87  91
ENDBRANCH  61  84
ENDBRANCH  35  36
ENDBRANCH  28  30
ENDBRANCH  27  28
ENDBRANCH  26  27
ENDBRANCH  25  26
ENDBRANCH  24  25
ENDBRANCH  23  24
ENDBRANCH   1  23
TORSDOF 26
ENDMDL
MODEL 3
REMARK VINA RESULT:      -7.7      4.718      8.362
REMARK SMILES CCCCS[C@@H]1CC[C@@]([NH2+]CC)(C(=O)OCCOCCOCCOC(=O)c2ccc(-c3c4nc(c(-c5cc(S(=O)(=O)[O-])ccc5F)c5ccc([nH]5)c(-c5cc(S(=O)(=O)[O-])ccc5F)c5nc(c(-c6cc(S(=O)(=O)[O-])ccc6F)c6ccc3[nH]6)C=C5)C=C4)cc2)C1
REMARK SMILES IDX 19 1 18 2 17 3 16 4 15 5 13 6 14 7 9 8 6 9 7 10 90 11 8 12
REMARK SMILES IDX 5 13 4 14 3 15 2 16 1 17 10 18 11 21 12 22 20 23 21 24 22 25
REMARK SMILES IDX 23 26 24 27 25 28 26 29 27 30 28 31 89 32 29 33 88 34 30 35
REMARK SMILES IDX 31 36 32 37 82 38 33 39 87 40 81 41 83 42 34 43 86 44 80 45
REMARK SMILES IDX 79 46 35 48 67 49 47 50 66 51 48 52 51 53 65 54 84 55 49 56
REMARK SMILES IDX 50 57 64 59 85 60 52 61 36 62 37 63 45 64 38 65 44 66 46 67
REMARK SMILES IDX 43 68 39 69 40 70 41 71 42 72 68 73 69 74 77 75 70 76 76 77
REMARK SMILES IDX 78 78 75 79 71 80 72 81 73 82 74 83 53 84 54 85 62 86 55 87
REMARK SMILES IDX 61 88 63 89 60 90 56 91 57 92 58 93 59 94
REMARK H PARENT 10 19 10 20 83 47 51 58
REMARK Flexibility Score: inf
ROOT
ATOM      1  C   UNL A   1      31.571  24.953  26.609  1.00  0.00     0.188 C 
ENDROOT
BRANCH   1   2
ATOM      2  O   UNL A   1      32.289  24.212  25.657  1.00  0.00    -0.376 OA
BRANCH   2   3
ATOM      3  C   UNL A   1      33.268  24.837  24.861  1.00  0.00     0.202 C 
BRANCH   3   4
ATOM      4  C   UNL A   1      34.696  25.162  25.333  1.00  0.00     0.261 C 
BRANCH   4   5
ATOM      5  O   UNL A   1      35.297  24.384  26.384  1.00  0.00    -0.459 OA
BRANCH   5   6
ATOM      6  C   UNL A   1      35.709  23.140  26.007  1.00  0.00     0.368 C 
ATOM      7  O   UNL A   1      35.061  22.128  26.272  1.00  0.00    -0.245 OA
BRANCH   6   8
ATOM      8  C   UNL A   1      37.097  23.084  25.277  1.00  0.00     0.195 C 
ATOM      9  C   UNL A   1      38.929  22.844  26.888  1.00  0.00     0.053 C 
ATOM     10  C   UNL A   1      39.081  21.717  25.882  1.00  0.00     0.022 C 
ATOM     11  C   UNL A   1      38.146  23.892  26.107  1.00  0.00     0.095 C 
ATOM     12  C   UNL A   1      37.754  21.683  25.124  1.00  0.00     0.082 C 
BRANCH   9  13
ATOM     13  S   UNL A   1      40.584  23.331  27.445  1.00  0.00    -0.158 SA
BRANCH  13  14
ATOM     14  C   UNL A   1      40.792  24.981  26.703  1.00  0.00     0.070 C 
BRANCH  14  15
ATOM     15  C   UNL A   1      40.839  26.246  27.587  1.00  0.00     0.011 C 
BRANCH  15  16
ATOM     16  C   UNL A   1      39.642  27.106  28.592  1.00  0.00    -0.003 C 
ATOM     17  C   UNL A   1      38.264  28.760  28.336  1.00  0.00     0.004 C 
ENDBRANCH  15  16
ENDBRANCH  14  15
ENDBRANCH  13  14
ENDBRANCH   9  13
BRANCH   8  18
ATOM     18  N   UNL A   1      36.949  23.602  23.889  1.00  0.00    -0.332 N 
ATOM     19  H   UNL A   1      37.877  23.876  23.565  1.00  0.00     0.347 HD
ATOM     20  H   UNL A   1      36.271  24.359  23.966  1.00  0.00     0.347 HD
BRANCH  18  21
ATOM     21  C   UNL A   1      36.387  22.699  22.886  1.00  0.00     0.257 C 
ATOM     22  C   UNL A   1      34.880  22.783  22.704  1.00  0.00     0.071 C 
ENDBRANCH  18  21
ENDBRANCH   8  18
ENDBRANCH   6   8
ENDBRANCH   5   6
ENDBRANCH   4   5
ENDBRANCH   3   4
ENDBRANCH   2   3
ENDBRANCH   1   2
BRANCH   1  23
ATOM     23  C   UNL A   1      31.127  26.391  26.285  1.00  0.00     0.188 C 
BRANCH  23  24
ATOM     24  O   UNL A   1      31.428  27.443  27.172  1.00  0.00    -0.376 OA
BRANCH  24  25
ATOM     25  C   UNL A   1      32.500  28.316  26.861  1.00  0.00     0.202 C 
BRANCH  25  26
ATOM     26  C   UNL A   1      32.452  29.835  27.113  1.00  0.00     0.261 C 
BRANCH  26  27
ATOM     27  O   UNL A   1      33.630  30.416  27.689  1.00  0.00    -0.460 OA
BRANCH  27  28
ATOM     28  C   UNL A   1      33.551  31.753  27.901  1.00  0.00     0.338 C 
ATOM     29  O   UNL A   1      32.776  32.534  27.378  1.00  0.00    -0.246 OA
BRANCH  28  30
ATOM     30  C   UNL A   1      34.409  32.152  29.033  1.00  0.00     0.060 A 
ATOM     31  C   UNL A   1      34.151  33.782  29.804  1.00  0.00     0.016 A 
ATOM     32  C   UNL A   1      35.923  31.254  29.304  1.00  0.00     0.016 A 
ATOM     33  C   UNL A   1      35.496  34.528  30.768  1.00  0.00     0.010 A 
ATOM     34  C   UNL A   1      37.251  31.989  30.269  1.00  0.00     0.010 A 
ATOM     35  C   UNL A   1      37.052  33.601  31.035  1.00  0.00    -0.014 A 
BRANCH  35  36
ATOM     36  C   UNL A   1      38.261  34.073  31.760  1.00  0.00     0.031 A 
ATOM     37  C   UNL A   1      39.485  34.466  30.995  1.00  0.00     0.074 A 
ATOM     38  C   UNL A   1      38.323  33.914  33.103  1.00  0.00     0.049 A 
ATOM     39  N   UNL A   1      40.701  34.635  31.447  1.00  0.00    -0.248 NA
ATOM     40  C   UNL A   1      39.374  34.556  29.535  1.00  0.00     0.031 C 
ATOM     41  C   UNL A   1      37.264  33.346  33.939  1.00  0.00     0.029 A 
ATOM     42  N   UNL A   1      39.299  34.206  34.025  1.00  0.00    -0.354 N 
ATOM     43  C   UNL A   1      41.497  34.792  30.321  1.00  0.00     0.074 A 
ATOM     44  C   UNL A   1      40.642  34.632  29.171  1.00  0.00     0.031 C 
ATOM     45  C   UNL A   1      37.555  33.503  35.234  1.00  0.00     0.029 A 
ATOM     46  C   UNL A   1      38.916  33.986  35.336  1.00  0.00     0.049 A 
ATOM     47  H   UNL A   1      40.190  34.542  33.776  1.00  0.00     0.167 HD
ATOM     48  C   UNL A   1      42.823  35.054  30.253  1.00  0.00     0.034 A 
ATOM     49  C   UNL A   1      39.595  34.088  36.495  1.00  0.00     0.034 A 
ATOM     50  C   UNL A   1      43.663  35.151  31.413  1.00  0.00     0.049 A 
ATOM     51  C   UNL A   1      41.065  34.384  36.390  1.00  0.00     0.074 A 
ATOM     52  C   UNL A   1      45.019  35.402  31.476  1.00  0.00     0.029 A 
ATOM     53  N   UNL A   1      43.222  34.976  32.720  1.00  0.00    -0.354 N 
ATOM     54  N   UNL A   1      41.784  34.584  35.310  1.00  0.00    -0.248 NA
ATOM     55  C   UNL A   1      41.826  34.425  37.643  1.00  0.00     0.031 C 
ATOM     56  C   UNL A   1      45.413  35.306  32.814  1.00  0.00     0.029 A 
ATOM     57  C   UNL A   1      44.286  35.096  33.595  1.00  0.00     0.049 A 
ATOM     58  H   UNL A   1      42.291  34.793  32.983  1.00  0.00     0.167 HD
ATOM     59  C   UNL A   1      43.080  34.798  35.756  1.00  0.00     0.074 A 
ATOM     60  C   UNL A   1      43.040  34.722  37.203  1.00  0.00     0.031 C 
ATOM     61  C   UNL A   1      44.204  35.032  35.035  1.00  0.00     0.034 A 
BRANCH  48  62
ATOM     62  C   UNL A   1      43.410  35.196  28.871  1.00  0.00     0.023 A 
ATOM     63  C   UNL A   1      43.793  34.062  28.129  1.00  0.00     0.031 A 
ATOM     64  C   UNL A   1      43.694  36.461  28.335  1.00  0.00     0.131 A 
ATOM     65  C   UNL A   1      44.540  34.217  26.954  1.00  0.00     0.055 A 
ATOM     66  C   UNL A   1      44.346  36.607  27.108  1.00  0.00     0.041 A 
ATOM     67  F   UNL A   1      43.383  37.578  29.012  1.00  0.00    -0.206 F 
ATOM     68  C   UNL A   1      44.792  35.481  26.421  1.00  0.00     0.022 A 
BRANCH  65  69
ATOM     69  S   UNL A   1      45.339  32.750  26.249  1.00  0.00     0.124 S 
ATOM     70  O   UNL A   1      45.018  31.733  27.248  1.00  0.00    -0.237 OA
ATOM     71  O   UNL A   1      44.670  32.612  24.961  1.00  0.00    -0.237 OA
ATOM     72  O   UNL A   1      46.750  33.128  26.184  1.00  0.00    -0.744 OA
ENDBRANCH  65  69
ENDBRANCH  48  62
BRANCH  49  73
ATOM     73  C   UNL A   1      38.943  33.862  37.825  1.00  0.00     0.023 A 
ATOM     74  C   UNL A   1      38.389  32.608  38.135  1.00  0.00     0.031 A 
ATOM     75  C   UNL A   1      38.803  34.884  38.784  1.00  0.00     0.131 A 
ATOM     76  C   UNL A   1      37.676  32.425  39.332  1.00  0.00     0.055 A 
ATOM     77  C   UNL A   1      38.170  34.672  40.012  1.00  0.00     0.041 A 
ATOM     78  F   UNL A   1      39.291  36.112  38.549  1.00  0.00    -0.206 F 
ATOM     79  C   UNL A   1      37.584  33.441  40.283  1.00  0.00     0.022 A 
BRANCH  76  80
ATOM     80  S   UNL A   1      36.748  30.883  39.562  1.00  0.00     0.124 S 
ATOM     81  O   UNL A   1      37.381  30.334  40.756  1.00  0.00    -0.237 OA
ATOM     82  O   UNL A   1      35.383  31.371  39.724  1.00  0.00    -0.237 OA
ATOM     83  O   UNL A   1      37.003  30.146  38.326  1.00  0.00    -0.744 OA
ENDBRANCH  76  80
ENDBRANCH  49  73
BRANCH  61  84
ATOM     84  C   UNL A   1      45.461  35.312  35.807  1.00  0.00     0.023 A 
ATOM     85  C   UNL A   1      45.812  36.606  36.219  1.00  0.00     0.031 A 
ATOM     86  C   UNL A   1      46.297  34.241  36.169  1.00  0.00     0.131 A 
ATOM     87  C   UNL A   1      46.993  36.802  36.945  1.00  0.00     0.055 A 
ATOM     88  C   UNL A   1      47.433  34.433  36.950  1.00  0.00     0.041 A 
ATOM     89  F   UNL A   1      46.004  32.986  35.789  1.00  0.00    -0.206 F 
ATOM     90  C   UNL A   1      47.791  35.722  37.335  1.00  0.00     0.022 A 
BRANCH  87  91
ATOM     91  S   UNL A   1      47.515  38.497  37.315  1.00  0.00     0.124 S 
ATOM     92  O   UNL A   1      48.864  38.527  36.761  1.00  0.00    -0.237 OA
ATOM     93  O   UNL A   1      46.517  39.295  36.607  1.00  0.00    -0.237 OA
ATOM     94  O   UNL A   1      47.441  38.567  38.774  1.00  0.00    -0.744 OA
ENDBRANCH  87  91
ENDBRANCH  61  84
ENDBRANCH  35  36
ENDBRANCH  28  30
ENDBRANCH  27  28
ENDBRANCH  26  27
ENDBRANCH  25  26
ENDBRANCH  24  25
ENDBRANCH  23  24
ENDBRANCH   1  23
TORSDOF 26
ENDMDL
