MODEL 1
REMARK VINA RESULT:      -9.6      0.000      0.000
REMARK SMILES CC1(C)C(C(=O)Nc2ccc(CC(=O)OCCOCCOCCOC(=O)c3ccc(-c4c5nc(c(-c6cc(S(=O)(=O)[O-])ccc6F)c6ccc([nH]6)c(-c6cc(S(=O)(=O)[O-])ccc6F)c6nc(c(-c7cc(S(=O)(=O)[O-])ccc7F)c7ccc4[nH]7)C=C6)C=C5)cc3)cc2)C1(C)C
REMARK SMILES IDX 19 1 18 2 17 3 16 4 15 5 13 6 14 7 12 8 11 9 8 10 9 11 91 12
REMARK SMILES IDX 10 13 90 14 7 15 5 16 6 17 4 19 1 20 2 21 3 22 92 23 93 24
REMARK SMILES IDX 94 25 20 26 21 27 22 28 23 29 24 30 25 31 26 32 27 33 28 34
REMARK SMILES IDX 89 35 29 36 88 37 30 38 31 39 32 40 82 41 33 42 87 43 81 44
REMARK SMILES IDX 83 45 34 46 86 47 80 48 79 49 35 51 67 52 47 53 66 54 48 55
REMARK SMILES IDX 51 56 65 57 84 58 49 59 50 60 64 62 85 63 52 64 36 65 37 66
REMARK SMILES IDX 45 67 38 68 44 69 46 70 43 71 39 72 40 73 41 74 42 75 68 76
REMARK SMILES IDX 69 77 77 78 70 79 76 80 78 81 75 82 71 83 72 84 73 85 74 86
REMARK SMILES IDX 53 87 54 88 62 89 55 90 61 91 63 92 60 93 56 94 57 95 58 96
REMARK SMILES IDX 59 97
REMARK H PARENT 7 18 83 50 51 61
REMARK Flexibility Score: inf
ROOT
ATOM      1  C   UNL A   1      32.983  26.523  24.511  1.00  0.00     0.188 C 
ENDROOT
BRANCH   1   2
ATOM      2  O   UNL A   1      32.292  25.274  24.585  1.00  0.00    -0.376 OA
BRANCH   2   3
ATOM      3  C   UNL A   1      32.763  24.198  23.784  1.00  0.00     0.202 C 
BRANCH   3   4
ATOM      4  C   UNL A   1      32.011  22.882  23.976  1.00  0.00     0.261 C 
BRANCH   4   5
ATOM      5  O   UNL A   1      32.810  21.754  23.580  1.00  0.00    -0.463 OA
BRANCH   5   6
ATOM      6  C   UNL A   1      32.842  20.721  24.456  1.00  0.00     0.310 C 
ATOM      7  O   UNL A   1      31.872  20.323  25.094  1.00  0.00    -0.252 OA
BRANCH   6   8
ATOM      8  C   UNL A   1      34.193  20.079  24.613  1.00  0.00     0.158 C 
BRANCH   8   9
ATOM      9  C   UNL A   1      35.346  20.843  25.230  1.00  0.00    -0.037 A 
ATOM     10  C   UNL A   1      37.407  22.674  25.688  1.00  0.00     0.041 A 
ATOM     11  C   UNL A   1      36.139  22.932  26.198  1.00  0.00     0.026 A 
ATOM     12  C   UNL A   1      37.701  21.413  25.172  1.00  0.00     0.026 A 
ATOM     13  C   UNL A   1      35.100  22.038  25.923  1.00  0.00     0.006 A 
ATOM     14  C   UNL A   1      36.673  20.491  24.952  1.00  0.00     0.006 A 
BRANCH  10  15
ATOM     15  N   UNL A   1      38.304  23.752  25.601  1.00  0.00    -0.326 N 
ATOM     16  C   UNL A   1      39.124  24.170  26.622  1.00  0.00     0.228 C 
ATOM     17  O   UNL A   1      38.945  25.266  27.151  1.00  0.00    -0.274 OA
ATOM     18  H   UNL A   1      38.350  24.242  24.749  1.00  0.00     0.169 HD
BRANCH  16  19
ATOM     19  C   UNL A   1      40.432  23.471  26.893  1.00  0.00     0.091 C 
ATOM     20  C   UNL A   1      42.502  22.841  25.493  1.00  0.00     0.012 C 
ATOM     21  C   UNL A   1      41.772  23.902  26.294  1.00  0.00    -0.017 C 
ATOM     22  C   UNL A   1      41.996  25.259  25.678  1.00  0.00     0.012 C 
ATOM     23  C   UNL A   1      41.602  23.755  27.829  1.00  0.00    -0.017 C 
ATOM     24  C   UNL A   1      42.277  22.570  28.502  1.00  0.00     0.012 C 
ATOM     25  C   UNL A   1      41.568  24.920  28.786  1.00  0.00     0.012 C 
ENDBRANCH  16  19
ENDBRANCH  10  15
ENDBRANCH   8   9
ENDBRANCH   6   8
ENDBRANCH   5   6
ENDBRANCH   4   5
ENDBRANCH   3   4
ENDBRANCH   2   3
ENDBRANCH   1   2
BRANCH   1  26
ATOM     26  C   UNL A   1      33.484  27.165  25.809  1.00  0.00     0.188 C 
BRANCH  26  27
ATOM     27  O   UNL A   1      32.419  27.818  26.500  1.00  0.00    -0.376 OA
BRANCH  27  28
ATOM     28  C   UNL A   1      31.836  28.876  25.747  1.00  0.00     0.202 C 
BRANCH  28  29
ATOM     29  C   UNL A   1      32.269  30.211  26.357  1.00  0.00     0.261 C 
BRANCH  29  30
ATOM     30  O   UNL A   1      33.417  30.109  27.223  1.00  0.00    -0.460 OA
BRANCH  30  31
ATOM     31  C   UNL A   1      33.987  31.277  27.596  1.00  0.00     0.338 C 
ATOM     32  O   UNL A   1      33.437  32.361  27.671  1.00  0.00    -0.246 OA
BRANCH  31  33
ATOM     33  C   UNL A   1      35.369  31.016  28.058  1.00  0.00     0.060 A 
ATOM     34  C   UNL A   1      35.694  29.722  28.481  1.00  0.00     0.016 A 
ATOM     35  C   UNL A   1      36.325  32.031  28.120  1.00  0.00     0.016 A 
ATOM     36  C   UNL A   1      36.963  29.442  28.994  1.00  0.00     0.010 A 
ATOM     37  C   UNL A   1      37.592  31.754  28.647  1.00  0.00     0.010 A 
ATOM     38  C   UNL A   1      37.912  30.464  29.111  1.00  0.00    -0.014 A 
BRANCH  38  39
ATOM     39  C   UNL A   1      39.180  30.233  29.850  1.00  0.00     0.031 A 
ATOM     40  C   UNL A   1      39.323  30.803  31.237  1.00  0.00     0.074 A 
ATOM     41  C   UNL A   1      40.191  29.532  29.305  1.00  0.00     0.049 A 
ATOM     42  N   UNL A   1      40.369  30.837  32.020  1.00  0.00    -0.248 NA
ATOM     43  C   UNL A   1      38.118  31.420  31.812  1.00  0.00     0.031 C 
ATOM     44  C   UNL A   1      40.160  28.881  27.998  1.00  0.00     0.029 A 
ATOM     45  N   UNL A   1      41.452  29.266  29.784  1.00  0.00    -0.354 N 
ATOM     46  C   UNL A   1      39.958  31.496  33.173  1.00  0.00     0.074 A 
ATOM     47  C   UNL A   1      38.571  31.861  32.976  1.00  0.00     0.031 C 
ATOM     48  C   UNL A   1      41.353  28.305  27.769  1.00  0.00     0.029 A 
ATOM     49  C   UNL A   1      42.250  28.588  28.890  1.00  0.00     0.049 A 
ATOM     50  H   UNL A   1      41.756  29.533  30.681  1.00  0.00     0.167 HD
ATOM     51  C   UNL A   1      40.672  31.770  34.293  1.00  0.00     0.034 A 
ATOM     52  C   UNL A   1      43.560  28.272  28.950  1.00  0.00     0.034 A 
ATOM     53  C   UNL A   1      42.055  31.406  34.478  1.00  0.00     0.049 A 
ATOM     54  C   UNL A   1      44.359  28.669  30.170  1.00  0.00     0.074 A 
ATOM     55  C   UNL A   1      42.864  31.624  35.581  1.00  0.00     0.029 A 
ATOM     56  N   UNL A   1      42.840  30.756  33.535  1.00  0.00    -0.354 N 
ATOM     57  N   UNL A   1      43.962  29.299  31.252  1.00  0.00    -0.248 NA
ATOM     58  C   UNL A   1      45.785  28.309  30.176  1.00  0.00     0.031 C 
ATOM     59  C   UNL A   1      44.153  31.171  35.278  1.00  0.00     0.029 A 
ATOM     60  C   UNL A   1      44.132  30.598  34.017  1.00  0.00     0.049 A 
ATOM     61  H   UNL A   1      42.526  30.453  32.653  1.00  0.00     0.167 HD
ATOM     62  C   UNL A   1      45.083  29.385  32.076  1.00  0.00     0.074 A 
ATOM     63  C   UNL A   1      46.167  28.729  31.374  1.00  0.00     0.031 C 
ATOM     64  C   UNL A   1      45.207  29.951  33.304  1.00  0.00     0.034 A 
BRANCH  51  65
ATOM     65  C   UNL A   1      39.980  32.557  35.380  1.00  0.00     0.023 A 
ATOM     66  C   UNL A   1      39.261  31.928  36.411  1.00  0.00     0.031 A 
ATOM     67  C   UNL A   1      40.021  33.963  35.368  1.00  0.00     0.131 A 
ATOM     68  C   UNL A   1      38.562  32.702  37.349  1.00  0.00     0.055 A 
ATOM     69  C   UNL A   1      39.386  34.727  36.347  1.00  0.00     0.041 A 
ATOM     70  F   UNL A   1      40.673  34.618  34.393  1.00  0.00    -0.206 F 
ATOM     71  C   UNL A   1      38.640  34.097  37.338  1.00  0.00     0.022 A 
BRANCH  68  72
ATOM     72  S   UNL A   1      37.441  31.864  38.502  1.00  0.00     0.124 S 
ATOM     73  O   UNL A   1      36.261  32.724  38.445  1.00  0.00    -0.237 OA
ATOM     74  O   UNL A   1      37.299  30.544  37.900  1.00  0.00    -0.237 OA
ATOM     75  O   UNL A   1      38.166  31.897  39.771  1.00  0.00    -0.744 OA
ENDBRANCH  68  72
ENDBRANCH  51  65
BRANCH  52  76
ATOM     76  C   UNL A   1      44.233  27.602  27.798  1.00  0.00     0.023 A 
ATOM     77  C   UNL A   1      44.690  26.277  27.890  1.00  0.00     0.031 A 
ATOM     78  C   UNL A   1      44.496  28.307  26.610  1.00  0.00     0.131 A 
ATOM     79  C   UNL A   1      45.428  25.716  26.835  1.00  0.00     0.055 A 
ATOM     80  C   UNL A   1      45.181  27.727  25.542  1.00  0.00     0.041 A 
ATOM     81  F   UNL A   1      44.090  29.579  26.471  1.00  0.00    -0.206 F 
ATOM     82  C   UNL A   1      45.665  26.427  25.657  1.00  0.00     0.022 A 
BRANCH  79  83
ATOM     83  S   UNL A   1      46.161  24.073  27.066  1.00  0.00     0.124 S 
ATOM     84  O   UNL A   1      46.051  23.508  25.726  1.00  0.00    -0.237 OA
ATOM     85  O   UNL A   1      47.510  24.404  27.513  1.00  0.00    -0.237 OA
ATOM     86  O   UNL A   1      45.305  23.457  28.077  1.00  0.00    -0.744 OA
ENDBRANCH  79  83
ENDBRANCH  52  76
BRANCH  64  87
ATOM     87  C   UNL A   1      46.551  29.838  33.985  1.00  0.00     0.023 A 
ATOM     88  C   UNL A   1      47.553  30.810  33.818  1.00  0.00     0.031 A 
ATOM     89  C   UNL A   1      46.833  28.734  34.810  1.00  0.00     0.131 A 
ATOM     90  C   UNL A   1      48.807  30.633  34.423  1.00  0.00     0.055 A 
ATOM     91  C   UNL A   1      48.061  28.592  35.456  1.00  0.00     0.041 A 
ATOM     92  F   UNL A   1      45.914  27.775  35.005  1.00  0.00    -0.206 F 
ATOM     93  C   UNL A   1      49.062  29.538  35.254  1.00  0.00     0.022 A 
BRANCH  90  94
ATOM     94  S   UNL A   1      50.135  31.810  34.044  1.00  0.00     0.124 S 
ATOM     95  O   UNL A   1      49.603  33.054  34.592  1.00  0.00    -0.237 OA
ATOM     96  O   UNL A   1      51.274  31.236  34.752  1.00  0.00    -0.237 OA
ATOM     97  O   UNL A   1      50.227  31.764  32.586  1.00  0.00    -0.744 OA
ENDBRANCH  90  94
ENDBRANCH  64  87
ENDBRANCH  38  39
ENDBRANCH  31  33
ENDBRANCH  30  31
ENDBRANCH  29  30
ENDBRANCH  28  29
ENDBRANCH  27  28
ENDBRANCH  26  27
ENDBRANCH   1  26
TORSDOF 23
ENDMDL
MODEL 2
REMARK VINA RESULT:      -9.1      3.173      5.611
REMARK SMILES CC1(C)C(C(=O)Nc2ccc(CC(=O)OCCOCCOCCOC(=O)c3ccc(-c4c5nc(c(-c6cc(S(=O)(=O)[O-])ccc6F)c6ccc([nH]6)c(-c6cc(S(=O)(=O)[O-])ccc6F)c6nc(c(-c7cc(S(=O)(=O)[O-])ccc7F)c7ccc4[nH]7)C=C6)C=C5)cc3)cc2)C1(C)C
REMARK SMILES IDX 19 1 18 2 17 3 16 4 15 5 13 6 14 7 12 8 11 9 8 10 9 11 91 12
REMARK SMILES IDX 10 13 90 14 7 15 5 16 6 17 4 19 1 20 2 21 3 22 92 23 93 24
REMARK SMILES IDX 94 25 20 26 21 27 22 28 23 29 24 30 25 31 26 32 27 33 28 34
REMARK SMILES IDX 89 35 29 36 88 37 30 38 31 39 32 40 82 41 33 42 87 43 81 44
REMARK SMILES IDX 83 45 34 46 86 47 80 48 79 49 35 51 67 52 47 53 66 54 48 55
REMARK SMILES IDX 51 56 65 57 84 58 49 59 50 60 64 62 85 63 52 64 36 65 37 66
REMARK SMILES IDX 45 67 38 68 44 69 46 70 43 71 39 72 40 73 41 74 42 75 68 76
REMARK SMILES IDX 69 77 77 78 70 79 76 80 78 81 75 82 71 83 72 84 73 85 74 86
REMARK SMILES IDX 53 87 54 88 62 89 55 90 61 91 63 92 60 93 56 94 57 95 58 96
REMARK SMILES IDX 59 97
REMARK H PARENT 7 18 83 50 51 61
REMARK Flexibility Score: inf
ROOT
ATOM      1  C   UNL A   1      33.008  31.677  27.105  1.00  0.00     0.188 C 
ENDROOT
BRANCH   1   2
ATOM      2  O   UNL A   1      33.230  30.268  27.015  1.00  0.00    -0.376 OA
BRANCH   2   3
ATOM      3  C   UNL A   1      32.930  29.619  25.786  1.00  0.00     0.202 C 
BRANCH   3   4
ATOM      4  C   UNL A   1      31.455  29.649  25.392  1.00  0.00     0.261 C 
BRANCH   4   5
ATOM      5  O   UNL A   1      31.289  29.882  23.983  1.00  0.00    -0.463 OA
BRANCH   5   6
ATOM      6  C   UNL A   1      30.010  29.901  23.537  1.00  0.00     0.310 C 
ATOM      7  O   UNL A   1      29.202  30.791  23.785  1.00  0.00    -0.252 OA
BRANCH   6   8
ATOM      8  C   UNL A   1      29.625  28.713  22.699  1.00  0.00     0.158 C 
BRANCH   8   9
ATOM      9  C   UNL A   1      30.144  27.329  23.033  1.00  0.00    -0.037 A 
ATOM     10  C   UNL A   1      31.570  25.199  24.145  1.00  0.00     0.041 A 
ATOM     11  C   UNL A   1      30.343  25.558  24.692  1.00  0.00     0.026 A 
ATOM     12  C   UNL A   1      31.962  25.731  22.918  1.00  0.00     0.026 A 
ATOM     13  C   UNL A   1      29.658  26.656  24.165  1.00  0.00     0.006 A 
ATOM     14  C   UNL A   1      31.243  26.790  22.354  1.00  0.00     0.006 A 
BRANCH  10  15
ATOM     15  N   UNL A   1      32.424  24.404  24.928  1.00  0.00    -0.326 N 
ATOM     16  C   UNL A   1      32.065  23.210  25.509  1.00  0.00     0.228 C 
ATOM     17  O   UNL A   1      31.994  23.115  26.733  1.00  0.00    -0.274 OA
ATOM     18  H   UNL A   1      33.344  24.722  25.070  1.00  0.00     0.169 HD
BRANCH  16  19
ATOM     19  C   UNL A   1      32.073  21.933  24.709  1.00  0.00     0.091 C 
ATOM     20  C   UNL A   1      31.974  21.334  22.204  1.00  0.00     0.012 C 
ATOM     21  C   UNL A   1      32.824  21.756  23.388  1.00  0.00    -0.017 C 
ATOM     22  C   UNL A   1      33.914  22.691  22.933  1.00  0.00     0.012 C 
ATOM     23  C   UNL A   1      33.066  20.784  24.573  1.00  0.00    -0.017 C 
ATOM     24  C   UNL A   1      32.509  19.374  24.451  1.00  0.00     0.012 C 
ATOM     25  C   UNL A   1      34.335  20.752  25.386  1.00  0.00     0.012 C 
ENDBRANCH  16  19
ENDBRANCH  10  15
ENDBRANCH   8   9
ENDBRANCH   6   8
ENDBRANCH   5   6
ENDBRANCH   4   5
ENDBRANCH   3   4
ENDBRANCH   2   3
ENDBRANCH   1   2
BRANCH   1  26
ATOM     26  C   UNL A   1      33.709  32.463  28.219  1.00  0.00     0.188 C 
BRANCH  26  27
ATOM     27  O   UNL A   1      34.687  33.352  27.679  1.00  0.00    -0.376 OA
BRANCH  27  28
ATOM     28  C   UNL A   1      34.289  34.717  27.739  1.00  0.00     0.202 C 
BRANCH  28  29
ATOM     29  C   UNL A   1      33.266  34.882  28.865  1.00  0.00     0.261 C 
BRANCH  29  30
ATOM     30  O   UNL A   1      33.761  35.627  29.996  1.00  0.00    -0.460 OA
BRANCH  30  31
ATOM     31  C   UNL A   1      33.706  34.999  31.193  1.00  0.00     0.338 C 
ATOM     32  O   UNL A   1      32.785  35.036  31.989  1.00  0.00    -0.246 OA
BRANCH  31  33
ATOM     33  C   UNL A   1      34.886  34.117  31.332  1.00  0.00     0.060 A 
ATOM     34  C   UNL A   1      34.686  32.803  31.767  1.00  0.00     0.016 A 
ATOM     35  C   UNL A   1      36.180  34.579  31.083  1.00  0.00     0.016 A 
ATOM     36  C   UNL A   1      35.773  31.953  31.984  1.00  0.00     0.010 A 
ATOM     37  C   UNL A   1      37.271  33.733  31.313  1.00  0.00     0.010 A 
ATOM     38  C   UNL A   1      37.077  32.423  31.789  1.00  0.00    -0.014 A 
BRANCH  38  39
ATOM     39  C   UNL A   1      38.243  31.609  32.221  1.00  0.00     0.031 A 
ATOM     40  C   UNL A   1      38.880  31.908  33.552  1.00  0.00     0.074 A 
ATOM     41  C   UNL A   1      38.732  30.621  31.449  1.00  0.00     0.049 A 
ATOM     42  N   UNL A   1      39.972  31.421  34.081  1.00  0.00    -0.248 NA
ATOM     43  C   UNL A   1      38.191  32.897  34.394  1.00  0.00     0.031 C 
ATOM     44  C   UNL A   1      38.173  30.193  30.169  1.00  0.00     0.029 A 
ATOM     45  N   UNL A   1      39.825  29.807  31.628  1.00  0.00    -0.354 N 
ATOM     46  C   UNL A   1      40.113  32.054  35.310  1.00  0.00     0.074 A 
ATOM     47  C   UNL A   1      39.005  32.977  35.436  1.00  0.00     0.031 C 
ATOM     48  C   UNL A   1      38.938  29.207  29.667  1.00  0.00     0.029 A 
ATOM     49  C   UNL A   1      40.068  28.968  30.565  1.00  0.00     0.049 A 
ATOM     50  H   UNL A   1      40.382  29.822  32.440  1.00  0.00     0.167 HD
ATOM     51  C   UNL A   1      41.078  31.883  36.248  1.00  0.00     0.034 A 
ATOM     52  C   UNL A   1      41.103  28.136  30.323  1.00  0.00     0.034 A 
ATOM     53  C   UNL A   1      42.181  30.963  36.111  1.00  0.00     0.049 A 
ATOM     54  C   UNL A   1      42.215  28.028  31.342  1.00  0.00     0.074 A 
ATOM     55  C   UNL A   1      43.202  30.703  37.009  1.00  0.00     0.029 A 
ATOM     56  N   UNL A   1      42.415  30.159  35.003  1.00  0.00    -0.354 N 
ATOM     57  N   UNL A   1      42.343  28.639  32.498  1.00  0.00    -0.248 NA
ATOM     58  C   UNL A   1      43.323  27.115  31.021  1.00  0.00     0.031 C 
ATOM     59  C   UNL A   1      44.090  29.797  36.416  1.00  0.00     0.029 A 
ATOM     60  C   UNL A   1      43.582  29.431  35.180  1.00  0.00     0.049 A 
ATOM     61  H   UNL A   1      41.837  30.114  34.207  1.00  0.00     0.167 HD
ATOM     62  C   UNL A   1      43.530  28.162  33.051  1.00  0.00     0.074 A 
ATOM     63  C   UNL A   1      44.072  27.203  32.111  1.00  0.00     0.031 C 
ATOM     64  C   UNL A   1      44.119  28.484  34.232  1.00  0.00     0.034 A 
BRANCH  51  65
ATOM     65  C   UNL A   1      41.013  32.756  37.477  1.00  0.00     0.023 A 
ATOM     66  C   UNL A   1      40.232  32.410  38.594  1.00  0.00     0.031 A 
ATOM     67  C   UNL A   1      41.726  33.967  37.521  1.00  0.00     0.131 A 
ATOM     68  C   UNL A   1      40.134  33.294  39.679  1.00  0.00     0.055 A 
ATOM     69  C   UNL A   1      41.683  34.807  38.634  1.00  0.00     0.041 A 
ATOM     70  F   UNL A   1      42.468  34.360  36.473  1.00  0.00    -0.206 F 
ATOM     71  C   UNL A   1      40.873  34.479  39.716  1.00  0.00     0.022 A 
BRANCH  68  72
ATOM     72  S   UNL A   1      38.922  32.939  40.980  1.00  0.00     0.124 S 
ATOM     73  O   UNL A   1      39.069  34.106  41.848  1.00  0.00    -0.237 OA
ATOM     74  O   UNL A   1      37.673  32.852  40.233  1.00  0.00    -0.237 OA
ATOM     75  O   UNL A   1      39.394  31.681  41.555  1.00  0.00    -0.744 OA
ENDBRANCH  68  72
ENDBRANCH  51  65
BRANCH  52  76
ATOM     76  C   UNL A   1      41.189  27.384  29.037  1.00  0.00     0.023 A 
ATOM     77  C   UNL A   1      42.155  27.702  28.069  1.00  0.00     0.031 A 
ATOM     78  C   UNL A   1      40.254  26.379  28.728  1.00  0.00     0.131 A 
ATOM     79  C   UNL A   1      42.132  27.060  26.820  1.00  0.00     0.055 A 
ATOM     80  C   UNL A   1      40.271  25.704  27.507  1.00  0.00     0.041 A 
ATOM     81  F   UNL A   1      39.304  26.041  29.614  1.00  0.00    -0.206 F 
ATOM     82  C   UNL A   1      41.206  26.054  26.538  1.00  0.00     0.022 A 
BRANCH  79  83
ATOM     83  S   UNL A   1      43.273  27.629  25.530  1.00  0.00     0.124 S 
ATOM     84  O   UNL A   1      44.108  26.450  25.330  1.00  0.00    -0.237 OA
ATOM     85  O   UNL A   1      42.359  27.959  24.442  1.00  0.00    -0.237 OA
ATOM     86  O   UNL A   1      43.943  28.772  26.147  1.00  0.00    -0.744 OA
ENDBRANCH  79  83
ENDBRANCH  52  76
BRANCH  64  87
ATOM     87  C   UNL A   1      45.390  27.752  34.592  1.00  0.00     0.023 A 
ATOM     88  C   UNL A   1      45.374  26.516  35.261  1.00  0.00     0.031 A 
ATOM     89  C   UNL A   1      46.640  28.310  34.265  1.00  0.00     0.131 A 
ATOM     90  C   UNL A   1      46.582  25.902  35.627  1.00  0.00     0.055 A 
ATOM     91  C   UNL A   1      47.837  27.667  34.579  1.00  0.00     0.041 A 
ATOM     92  F   UNL A   1      46.717  29.488  33.627  1.00  0.00    -0.206 F 
ATOM     93  C   UNL A   1      47.813  26.462  35.276  1.00  0.00     0.022 A 
BRANCH  90  94
ATOM     94  S   UNL A   1      46.527  24.401  36.644  1.00  0.00     0.124 S 
ATOM     95  O   UNL A   1      46.882  23.366  35.678  1.00  0.00    -0.237 OA
ATOM     96  O   UNL A   1      47.523  24.683  37.672  1.00  0.00    -0.237 OA
ATOM     97  O   UNL A   1      45.144  24.358  37.117  1.00  0.00    -0.744 OA
ENDBRANCH  90  94
ENDBRANCH  64  87
ENDBRANCH  38  39
ENDBRANCH  31  33
ENDBRANCH  30  31
ENDBRANCH  29  30
ENDBRANCH  28  29
ENDBRANCH  27  28
ENDBRANCH  26  27
ENDBRANCH   1  26
TORSDOF 23
ENDMDL
MODEL 3
REMARK VINA RESULT:      -9.0      2.487      8.457
REMARK SMILES CC1(C)C(C(=O)Nc2ccc(CC(=O)OCCOCCOCCOC(=O)c3ccc(-c4c5nc(c(-c6cc(S(=O)(=O)[O-])ccc6F)c6ccc([nH]6)c(-c6cc(S(=O)(=O)[O-])ccc6F)c6nc(c(-c7cc(S(=O)(=O)[O-])ccc7F)c7ccc4[nH]7)C=C6)C=C5)cc3)cc2)C1(C)C
REMARK SMILES IDX 19 1 18 2 17 3 16 4 15 5 13 6 14 7 12 8 11 9 8 10 9 11 91 12
REMARK SMILES IDX 10 13 90 14 7 15 5 16 6 17 4 19 1 20 2 21 3 22 92 23 93 24
REMARK SMILES IDX 94 25 20 26 21 27 22 28 23 29 24 30 25 31 26 32 27 33 28 34
REMARK SMILES IDX 89 35 29 36 88 37 30 38 31 39 32 40 82 41 33 42 87 43 81 44
REMARK SMILES IDX 83 45 34 46 86 47 80 48 79 49 35 51 67 52 47 53 66 54 48 55
REMARK SMILES IDX 51 56 65 57 84 58 49 59 50 60 64 62 85 63 52 64 36 65 37 66
REMARK SMILES IDX 45 67 38 68 44 69 46 70 43 71 39 72 40 73 41 74 42 75 68 76
REMARK SMILES IDX 69 77 77 78 70 79 76 80 78 81 75 82 71 83 72 84 73 85 74 86
REMARK SMILES IDX 53 87 54 88 62 89 55 90 61 91 63 92 60 93 56 94 57 95 58 96
REMARK SMILES IDX 59 97
REMARK H PARENT 7 18 83 50 51 61
REMARK Flexibility Score: inf
ROOT
ATOM      1  C   UNL A   1      32.585  28.554  25.770  1.00  0.00     0.188 C 
ENDROOT
BRANCH   1   2
ATOM      2  O   UNL A   1      33.655  28.951  24.911  1.00  0.00    -0.376 OA
BRANCH   2   3
ATOM      3  C   UNL A   1      33.410  28.999  23.511  1.00  0.00     0.202 C 
BRANCH   3   4
ATOM      4  C   UNL A   1      31.951  29.231  23.126  1.00  0.00     0.261 C 
BRANCH   4   5
ATOM      5  O   UNL A   1      31.405  28.106  22.417  1.00  0.00    -0.463 OA
BRANCH   5   6
ATOM      6  C   UNL A   1      30.438  27.415  23.066  1.00  0.00     0.310 C 
ATOM      7  O   UNL A   1      29.440  27.925  23.568  1.00  0.00    -0.252 OA
BRANCH   6   8
ATOM      8  C   UNL A   1      30.678  25.933  23.148  1.00  0.00     0.158 C 
BRANCH   8   9
ATOM      9  C   UNL A   1      32.062  25.360  22.925  1.00  0.00    -0.037 A 
ATOM     10  C   UNL A   1      34.336  23.738  23.014  1.00  0.00     0.041 A 
ATOM     11  C   UNL A   1      33.412  23.560  21.991  1.00  0.00     0.026 A 
ATOM     12  C   UNL A   1      34.253  24.862  23.833  1.00  0.00     0.026 A 
ATOM     13  C   UNL A   1      32.251  24.339  21.980  1.00  0.00     0.006 A 
ATOM     14  C   UNL A   1      33.121  25.682  23.783  1.00  0.00     0.006 A 
BRANCH  10  15
ATOM     15  N   UNL A   1      35.246  22.695  23.256  1.00  0.00    -0.326 N 
ATOM     16  C   UNL A   1      35.635  22.272  24.505  1.00  0.00     0.228 C 
ATOM     17  O   UNL A   1      36.795  22.437  24.880  1.00  0.00    -0.274 OA
ATOM     18  H   UNL A   1      35.632  22.233  22.477  1.00  0.00     0.169 HD
BRANCH  16  19
ATOM     19  C   UNL A   1      34.774  21.323  25.298  1.00  0.00     0.091 C 
ATOM     20  C   UNL A   1      33.754  21.312  27.665  1.00  0.00     0.012 C 
ATOM     21  C   UNL A   1      33.639  21.769  26.223  1.00  0.00    -0.017 C 
ATOM     22  C   UNL A   1      33.025  23.143  26.165  1.00  0.00     0.012 C 
ATOM     23  C   UNL A   1      33.380  20.743  25.088  1.00  0.00    -0.017 C 
ATOM     24  C   UNL A   1      33.145  19.295  25.489  1.00  0.00     0.012 C 
ATOM     25  C   UNL A   1      32.588  21.051  23.843  1.00  0.00     0.012 C 
ENDBRANCH  16  19
ENDBRANCH  10  15
ENDBRANCH   8   9
ENDBRANCH   6   8
ENDBRANCH   5   6
ENDBRANCH   4   5
ENDBRANCH   3   4
ENDBRANCH   2   3
ENDBRANCH   1   2
BRANCH   1  26
ATOM     26  C   UNL A   1      32.232  29.445  26.967  1.00  0.00     0.188 C 
BRANCH  26  27
ATOM     27  O   UNL A   1      32.538  30.812  26.694  1.00  0.00    -0.376 OA
BRANCH  27  28
ATOM     28  C   UNL A   1      31.377  31.607  26.475  1.00  0.00     0.202 C 
BRANCH  28  29
ATOM     29  C   UNL A   1      31.689  33.052  26.872  1.00  0.00     0.261 C 
BRANCH  29  30
ATOM     30  O   UNL A   1      33.094  33.310  27.068  1.00  0.00    -0.460 OA
BRANCH  30  31
ATOM     31  C   UNL A   1      33.429  33.925  28.225  1.00  0.00     0.338 C 
ATOM     32  O   UNL A   1      32.777  34.768  28.815  1.00  0.00    -0.246 OA
BRANCH  31  33
ATOM     33  C   UNL A   1      34.659  33.302  28.765  1.00  0.00     0.060 A 
ATOM     34  C   UNL A   1      34.544  32.081  29.439  1.00  0.00     0.016 A 
ATOM     35  C   UNL A   1      35.904  33.923  28.655  1.00  0.00     0.016 A 
ATOM     36  C   UNL A   1      35.663  31.489  30.030  1.00  0.00     0.010 A 
ATOM     37  C   UNL A   1      37.024  33.337  29.258  1.00  0.00     0.010 A 
ATOM     38  C   UNL A   1      36.906  32.130  29.971  1.00  0.00    -0.014 A 
BRANCH  38  39
ATOM     39  C   UNL A   1      38.051  31.626  30.773  1.00  0.00     0.031 A 
ATOM     40  C   UNL A   1      38.931  30.556  30.185  1.00  0.00     0.074 A 
ATOM     41  C   UNL A   1      38.309  32.106  32.004  1.00  0.00     0.049 A 
ATOM     42  N   UNL A   1      39.904  29.879  30.738  1.00  0.00    -0.248 NA
ATOM     43  C   UNL A   1      38.672  30.200  28.781  1.00  0.00     0.031 C 
ATOM     44  C   UNL A   1      37.571  33.179  32.665  1.00  0.00     0.029 A 
ATOM     45  N   UNL A   1      39.260  31.735  32.925  1.00  0.00    -0.354 N 
ATOM     46  C   UNL A   1      40.363  29.005  29.759  1.00  0.00     0.074 A 
ATOM     47  C   UNL A   1      39.545  29.224  28.585  1.00  0.00     0.031 C 
ATOM     48  C   UNL A   1      38.084  33.369  33.893  1.00  0.00     0.029 A 
ATOM     49  C   UNL A   1      39.153  32.399  34.126  1.00  0.00     0.049 A 
ATOM     50  H   UNL A   1      39.953  31.060  32.742  1.00  0.00     0.167 HD
ATOM     51  C   UNL A   1      41.372  28.102  29.833  1.00  0.00     0.034 A 
ATOM     52  C   UNL A   1      39.811  32.215  35.290  1.00  0.00     0.034 A 
ATOM     53  C   UNL A   1      42.179  27.889  31.009  1.00  0.00     0.049 A 
ATOM     54  C   UNL A   1      40.871  31.141  35.377  1.00  0.00     0.074 A 
ATOM     55  C   UNL A   1      43.235  27.010  31.182  1.00  0.00     0.029 A 
ATOM     56  N   UNL A   1      42.015  28.551  32.218  1.00  0.00    -0.354 N 
ATOM     57  N   UNL A   1      41.290  30.313  34.447  1.00  0.00    -0.248 NA
ATOM     58  C   UNL A   1      41.547  30.978  36.673  1.00  0.00     0.031 C 
ATOM     59  C   UNL A   1      43.662  27.091  32.513  1.00  0.00     0.029 A 
ATOM     60  C   UNL A   1      42.925  28.076  33.150  1.00  0.00     0.049 A 
ATOM     61  H   UNL A   1      41.348  29.256  32.389  1.00  0.00     0.167 HD
ATOM     62  C   UNL A   1      42.297  29.553  35.040  1.00  0.00     0.074 A 
ATOM     63  C   UNL A   1      42.432  30.029  36.400  1.00  0.00     0.031 C 
ATOM     64  C   UNL A   1      43.046  28.552  34.508  1.00  0.00     0.034 A 
BRANCH  51  65
ATOM     65  C   UNL A   1      41.616  27.235  28.621  1.00  0.00     0.023 A 
ATOM     66  C   UNL A   1      42.625  27.530  27.688  1.00  0.00     0.031 A 
ATOM     67  C   UNL A   1      40.808  26.109  28.386  1.00  0.00     0.131 A 
ATOM     68  C   UNL A   1      42.758  26.745  26.532  1.00  0.00     0.055 A 
ATOM     69  C   UNL A   1      40.994  25.288  27.273  1.00  0.00     0.041 A 
ATOM     70  F   UNL A   1      39.814  25.794  29.232  1.00  0.00    -0.206 F 
ATOM     71  C   UNL A   1      41.966  25.612  26.331  1.00  0.00     0.022 A 
BRANCH  68  72
ATOM     72  S   UNL A   1      43.891  27.303  25.231  1.00  0.00     0.124 S 
ATOM     73  O   UNL A   1      42.959  27.704  24.179  1.00  0.00    -0.237 OA
ATOM     74  O   UNL A   1      44.617  28.384  25.887  1.00  0.00    -0.237 OA
ATOM     75  O   UNL A   1      44.682  26.112  24.931  1.00  0.00    -0.744 OA
ENDBRANCH  68  72
ENDBRANCH  51  65
BRANCH  52  76
ATOM     76  C   UNL A   1      39.451  33.012  36.499  1.00  0.00     0.023 A 
ATOM     77  C   UNL A   1      38.613  32.487  37.497  1.00  0.00     0.031 A 
ATOM     78  C   UNL A   1      39.884  34.344  36.637  1.00  0.00     0.131 A 
ATOM     79  C   UNL A   1      38.194  33.304  38.560  1.00  0.00     0.055 A 
ATOM     80  C   UNL A   1      39.510  35.134  37.726  1.00  0.00     0.041 A 
ATOM     81  F   UNL A   1      40.679  34.898  35.709  1.00  0.00    -0.206 F 
ATOM     82  C   UNL A   1      38.648  34.618  38.688  1.00  0.00     0.022 A 
BRANCH  79  83
ATOM     83  S   UNL A   1      36.965  32.651  39.724  1.00  0.00     0.124 S 
ATOM     84  O   UNL A   1      37.394  31.265  39.863  1.00  0.00    -0.237 OA
ATOM     85  O   UNL A   1      37.168  33.505  40.889  1.00  0.00    -0.237 OA
ATOM     86  O   UNL A   1      35.697  32.845  39.024  1.00  0.00    -0.744 OA
ENDBRANCH  79  83
ENDBRANCH  52  76
BRANCH  64  87
ATOM     87  C   UNL A   1      44.112  27.944  35.388  1.00  0.00     0.023 A 
ATOM     88  C   UNL A   1      45.413  28.471  35.453  1.00  0.00     0.031 A 
ATOM     89  C   UNL A   1      43.818  26.812  36.170  1.00  0.00     0.131 A 
ATOM     90  C   UNL A   1      46.387  27.836  36.241  1.00  0.00     0.055 A 
ATOM     91  C   UNL A   1      44.773  26.220  36.996  1.00  0.00     0.041 A 
ATOM     92  F   UNL A   1      42.592  26.265  36.148  1.00  0.00    -0.206 F 
ATOM     93  C   UNL A   1      46.070  26.724  37.025  1.00  0.00     0.022 A 
BRANCH  90  94
ATOM     94  S   UNL A   1      48.098  28.433  36.164  1.00  0.00     0.124 S 
ATOM     95  O   UNL A   1      48.343  28.468  34.725  1.00  0.00    -0.237 OA
ATOM     96  O   UNL A   1      48.008  29.730  36.828  1.00  0.00    -0.237 OA
ATOM     97  O   UNL A   1      48.850  27.415  36.896  1.00  0.00    -0.744 OA
ENDBRANCH  90  94
ENDBRANCH  64  87
ENDBRANCH  38  39
ENDBRANCH  31  33
ENDBRANCH  30  31
ENDBRANCH  29  30
ENDBRANCH  28  29
ENDBRANCH  27  28
ENDBRANCH  26  27
ENDBRANCH   1  26
TORSDOF 23
ENDMDL
