MODEL 1
REMARK VINA RESULT:      -8.9      0.000      0.000
REMARK SMILES CC(C)CC[C@@H](C(=O)OCCOCCOCCOC(=O)c1ccc(-c2c3nc(c(-c4cc(S(=O)(=O)[O-])ccc4F)c4ccc([nH]4)c(-c4cc(S(=O)(=O)[O-])ccc4F)c4nc(c(-c5cc(S(=O)(=O)[O-])ccc5F)c5ccc2[nH]5)C=C4)C=C3)cc1)c1ccc(Br)cc1
REMARK SMILES IDX 13 1 12 2 11 3 10 4 9 5 7 6 8 7 6 8 5 9 4 10 2 11 1 12 3 13
REMARK SMILES IDX 84 14 85 15 90 16 86 17 89 18 87 19 88 20 14 21 15 22 16 23
REMARK SMILES IDX 17 24 18 25 19 26 20 27 21 28 22 29 83 30 23 31 82 32 24 33
REMARK SMILES IDX 25 34 26 35 76 36 27 37 81 38 75 39 77 40 28 41 80 42 74 43
REMARK SMILES IDX 73 44 29 46 61 47 41 48 60 49 42 50 45 51 59 52 78 53 43 54
REMARK SMILES IDX 44 55 58 57 79 58 46 59 30 60 31 61 39 62 32 63 38 64 40 65
REMARK SMILES IDX 37 66 33 67 34 68 35 69 36 70 62 71 63 72 71 73 64 74 70 75
REMARK SMILES IDX 72 76 69 77 65 78 66 79 67 80 68 81 47 82 48 83 56 84 49 85
REMARK SMILES IDX 55 86 57 87 54 88 50 89 51 90 52 91 53 92
REMARK H PARENT 77 45 45 56
REMARK Flexibility Score: inf
ROOT
ATOM      1  C   UNL A   1      34.237  33.877  28.171  1.00  0.00     0.188 C 
ENDROOT
BRANCH   1   2
ATOM      2  O   UNL A   1      33.972  32.812  27.262  1.00  0.00    -0.376 OA
BRANCH   2   3
ATOM      3  C   UNL A   1      33.738  31.529  27.844  1.00  0.00     0.202 C 
BRANCH   3   4
ATOM      4  C   UNL A   1      32.738  30.621  27.108  1.00  0.00     0.261 C 
BRANCH   4   5
ATOM      5  O   UNL A   1      33.312  29.921  25.980  1.00  0.00    -0.463 OA
BRANCH   5   6
ATOM      6  C   UNL A   1      33.388  28.565  26.081  1.00  0.00     0.313 C 
ATOM      7  O   UNL A   1      34.360  27.973  26.543  1.00  0.00    -0.252 OA
BRANCH   6   8
ATOM      8  C   UNL A   1      32.124  27.826  25.591  1.00  0.00     0.129 C 
BRANCH   8   9
ATOM      9  C   UNL A   1      31.546  26.773  26.570  1.00  0.00     0.020 C 
BRANCH   9  10
ATOM     10  C   UNL A   1      32.136  25.361  26.552  1.00  0.00     0.004 C 
BRANCH  10  11
ATOM     11  C   UNL A   1      31.139  24.214  26.339  1.00  0.00    -0.017 C 
ATOM     12  C   UNL A   1      30.861  23.963  24.856  1.00  0.00     0.007 C 
ATOM     13  C   UNL A   1      31.685  22.946  26.995  1.00  0.00     0.007 C 
ENDBRANCH  10  11
ENDBRANCH   9  10
ENDBRANCH   8   9
BRANCH   8  14
ATOM     14  C   UNL A   1      32.249  27.297  24.142  1.00  0.00    -0.034 A 
ATOM     15  C   UNL A   1      33.463  26.824  23.604  1.00  0.00     0.006 A 
ATOM     16  C   UNL A   1      31.105  27.188  23.328  1.00  0.00     0.006 A 
ATOM     17  C   UNL A   1      33.530  26.273  22.318  1.00  0.00     0.016 A 
ATOM     18  C   UNL A   1      31.173  26.653  22.035  1.00  0.00     0.016 A 
ATOM     19  C   UNL A   1      32.386  26.195  21.536  1.00  0.00     0.017 A 
ATOM     20  Br  UNL A   1      32.478  25.444  19.806  1.00  0.00    -0.051 Br
ENDBRANCH   8  14
ENDBRANCH   6   8
ENDBRANCH   5   6
ENDBRANCH   4   5
ENDBRANCH   3   4
ENDBRANCH   2   3
ENDBRANCH   1   2
BRANCH   1  21
ATOM     21  C   UNL A   1      34.895  33.471  29.492  1.00  0.00     0.188 C 
BRANCH  21  22
ATOM     22  O   UNL A   1      34.036  33.410  30.622  1.00  0.00    -0.376 OA
BRANCH  22  23
ATOM     23  C   UNL A   1      34.477  34.059  31.816  1.00  0.00     0.202 C 
BRANCH  23  24
ATOM     24  C   UNL A   1      34.857  33.182  33.030  1.00  0.00     0.261 C 
BRANCH  24  25
ATOM     25  O   UNL A   1      35.624  31.988  32.768  1.00  0.00    -0.460 OA
BRANCH  25  26
ATOM     26  C   UNL A   1      36.785  31.808  33.444  1.00  0.00     0.338 C 
ATOM     27  O   UNL A   1      36.923  31.860  34.655  1.00  0.00    -0.246 OA
BRANCH  26  28
ATOM     28  C   UNL A   1      37.793  31.244  32.500  1.00  0.00     0.060 A 
ATOM     29  C   UNL A   1      38.875  30.528  33.037  1.00  0.00     0.016 A 
ATOM     30  C   UNL A   1      37.647  31.329  31.112  1.00  0.00     0.016 A 
ATOM     31  C   UNL A   1      39.821  29.928  32.198  1.00  0.00     0.010 A 
ATOM     32  C   UNL A   1      38.609  30.749  30.271  1.00  0.00     0.010 A 
ATOM     33  C   UNL A   1      39.719  30.071  30.809  1.00  0.00    -0.014 A 
BRANCH  33  34
ATOM     34  C   UNL A   1      40.889  29.766  29.938  1.00  0.00     0.031 A 
ATOM     35  C   UNL A   1      40.933  28.401  29.302  1.00  0.00     0.074 A 
ATOM     36  C   UNL A   1      41.870  30.652  29.680  1.00  0.00     0.049 A 
ATOM     37  N   UNL A   1      41.898  27.813  28.645  1.00  0.00    -0.248 NA
ATOM     38  C   UNL A   1      39.712  27.590  29.435  1.00  0.00     0.031 C 
ATOM     39  C   UNL A   1      41.901  32.042  30.127  1.00  0.00     0.029 A 
ATOM     40  N   UNL A   1      43.042  30.501  28.975  1.00  0.00    -0.354 N 
ATOM     41  C   UNL A   1      41.406  26.558  28.297  1.00  0.00     0.074 A 
ATOM     42  C   UNL A   1      40.070  26.462  28.844  1.00  0.00     0.031 C 
ATOM     43  C   UNL A   1      43.044  32.612  29.700  1.00  0.00     0.029 A 
ATOM     44  C   UNL A   1      43.855  31.614  29.000  1.00  0.00     0.049 A 
ATOM     45  H   UNL A   1      43.278  29.674  28.496  1.00  0.00     0.167 HD
ATOM     46  C   UNL A   1      42.009  25.577  27.584  1.00  0.00     0.034 A 
ATOM     47  C   UNL A   1      45.117  31.787  28.550  1.00  0.00     0.034 A 
ATOM     48  C   UNL A   1      43.344  25.675  27.055  1.00  0.00     0.049 A 
ATOM     49  C   UNL A   1      45.832  30.623  27.888  1.00  0.00     0.074 A 
ATOM     50  C   UNL A   1      44.068  24.724  26.359  1.00  0.00     0.029 A 
ATOM     51  N   UNL A   1      44.161  26.794  27.164  1.00  0.00    -0.354 N 
ATOM     52  N   UNL A   1      45.385  29.416  27.624  1.00  0.00    -0.248 NA
ATOM     53  C   UNL A   1      47.225  30.843  27.468  1.00  0.00     0.031 C 
ATOM     54  C   UNL A   1      45.344  25.238  26.111  1.00  0.00     0.029 A 
ATOM     55  C   UNL A   1      45.386  26.545  26.568  1.00  0.00     0.049 A 
ATOM     56  H   UNL A   1      43.906  27.638  27.601  1.00  0.00     0.167 HD
ATOM     57  C   UNL A   1      46.423  28.761  26.958  1.00  0.00     0.074 A 
ATOM     58  C   UNL A   1      47.517  29.702  26.864  1.00  0.00     0.031 C 
ATOM     59  C   UNL A   1      46.463  27.499  26.459  1.00  0.00     0.034 A 
BRANCH  46  60
ATOM     60  C   UNL A   1      41.244  24.290  27.398  1.00  0.00     0.023 A 
ATOM     61  C   UNL A   1      40.083  24.227  26.609  1.00  0.00     0.031 A 
ATOM     62  C   UNL A   1      41.664  23.116  28.049  1.00  0.00     0.131 A 
ATOM     63  C   UNL A   1      39.344  23.037  26.548  1.00  0.00     0.055 A 
ATOM     64  C   UNL A   1      40.973  21.912  27.913  1.00  0.00     0.041 A 
ATOM     65  F   UNL A   1      42.749  23.124  28.839  1.00  0.00    -0.206 F 
ATOM     66  C   UNL A   1      39.797  21.870  27.169  1.00  0.00     0.022 A 
BRANCH  63  67
ATOM     67  S   UNL A   1      37.709  23.072  25.765  1.00  0.00     0.124 S 
ATOM     68  O   UNL A   1      37.878  22.099  24.687  1.00  0.00    -0.237 OA
ATOM     69  O   UNL A   1      36.827  22.672  26.854  1.00  0.00    -0.237 OA
ATOM     70  O   UNL A   1      37.569  24.459  25.325  1.00  0.00    -0.744 OA
ENDBRANCH  63  67
ENDBRANCH  46  60
BRANCH  47  71
ATOM     71  C   UNL A   1      45.844  33.078  28.758  1.00  0.00     0.023 A 
ATOM     72  C   UNL A   1      45.879  34.065  27.757  1.00  0.00     0.031 A 
ATOM     73  C   UNL A   1      46.614  33.298  29.916  1.00  0.00     0.131 A 
ATOM     74  C   UNL A   1      46.717  35.183  27.900  1.00  0.00     0.055 A 
ATOM     75  C   UNL A   1      47.390  34.448  30.084  1.00  0.00     0.041 A 
ATOM     76  F   UNL A   1      46.638  32.385  30.900  1.00  0.00    -0.206 F 
ATOM     77  C   UNL A   1      47.459  35.390  29.063  1.00  0.00     0.022 A 
BRANCH  74  78
ATOM     78  S   UNL A   1      46.933  36.296  26.481  1.00  0.00     0.124 S 
ATOM     79  O   UNL A   1      46.906  35.358  25.365  1.00  0.00    -0.237 OA
ATOM     80  O   UNL A   1      45.779  37.179  26.607  1.00  0.00    -0.237 OA
ATOM     81  O   UNL A   1      48.228  36.925  26.736  1.00  0.00    -0.744 OA
ENDBRANCH  74  78
ENDBRANCH  47  71
BRANCH  59  82
ATOM     82  C   UNL A   1      47.690  27.087  25.678  1.00  0.00     0.023 A 
ATOM     83  C   UNL A   1      47.884  27.441  24.333  1.00  0.00     0.031 A 
ATOM     84  C   UNL A   1      48.700  26.342  26.317  1.00  0.00     0.131 A 
ATOM     85  C   UNL A   1      49.042  27.017  23.659  1.00  0.00     0.055 A 
ATOM     86  C   UNL A   1      49.874  25.974  25.659  1.00  0.00     0.041 A 
ATOM     87  F   UNL A   1      48.569  25.973  27.602  1.00  0.00    -0.206 F 
ATOM     88  C   UNL A   1      50.046  26.304  24.319  1.00  0.00     0.022 A 
BRANCH  85  89
ATOM     89  S   UNL A   1      49.192  27.348  21.881  1.00  0.00     0.124 S 
ATOM     90  O   UNL A   1      50.634  27.267  21.677  1.00  0.00    -0.237 OA
ATOM     91  O   UNL A   1      48.404  26.268  21.295  1.00  0.00    -0.237 OA
ATOM     92  O   UNL A   1      48.618  28.684  21.731  1.00  0.00    -0.744 OA
ENDBRANCH  85  89
ENDBRANCH  59  82
ENDBRANCH  33  34
ENDBRANCH  26  28
ENDBRANCH  25  26
ENDBRANCH  24  25
ENDBRANCH  23  24
ENDBRANCH  22  23
ENDBRANCH  21  22
ENDBRANCH   1  21
TORSDOF 24
ENDMDL
MODEL 2
REMARK VINA RESULT:      -8.5      2.108      2.928
REMARK SMILES CC(C)CC[C@@H](C(=O)OCCOCCOCCOC(=O)c1ccc(-c2c3nc(c(-c4cc(S(=O)(=O)[O-])ccc4F)c4ccc([nH]4)c(-c4cc(S(=O)(=O)[O-])ccc4F)c4nc(c(-c5cc(S(=O)(=O)[O-])ccc5F)c5ccc2[nH]5)C=C4)C=C3)cc1)c1ccc(Br)cc1
REMARK SMILES IDX 13 1 12 2 11 3 10 4 9 5 7 6 8 7 6 8 5 9 4 10 2 11 1 12 3 13
REMARK SMILES IDX 84 14 85 15 90 16 86 17 89 18 87 19 88 20 14 21 15 22 16 23
REMARK SMILES IDX 17 24 18 25 19 26 20 27 21 28 22 29 83 30 23 31 82 32 24 33
REMARK SMILES IDX 25 34 26 35 76 36 27 37 81 38 75 39 77 40 28 41 80 42 74 43
REMARK SMILES IDX 73 44 29 46 61 47 41 48 60 49 42 50 45 51 59 52 78 53 43 54
REMARK SMILES IDX 44 55 58 57 79 58 46 59 30 60 31 61 39 62 32 63 38 64 40 65
REMARK SMILES IDX 37 66 33 67 34 68 35 69 36 70 62 71 63 72 71 73 64 74 70 75
REMARK SMILES IDX 72 76 69 77 65 78 66 79 67 80 68 81 47 82 48 83 56 84 49 85
REMARK SMILES IDX 55 86 57 87 54 88 50 89 51 90 52 91 53 92
REMARK H PARENT 77 45 45 56
REMARK Flexibility Score: inf
ROOT
ATOM      1  C   UNL A   1      33.939  34.585  28.947  1.00  0.00     0.188 C 
ENDROOT
BRANCH   1   2
ATOM      2  O   UNL A   1      33.529  33.487  28.136  1.00  0.00    -0.376 OA
BRANCH   2   3
ATOM      3  C   UNL A   1      32.232  33.588  27.548  1.00  0.00     0.202 C 
BRANCH   3   4
ATOM      4  C   UNL A   1      31.762  32.374  26.727  1.00  0.00     0.261 C 
BRANCH   4   5
ATOM      5  O   UNL A   1      32.183  31.105  27.276  1.00  0.00    -0.463 OA
BRANCH   5   6
ATOM      6  C   UNL A   1      31.988  30.008  26.492  1.00  0.00     0.313 C 
ATOM      7  O   UNL A   1      31.451  30.053  25.387  1.00  0.00    -0.252 OA
BRANCH   6   8
ATOM      8  C   UNL A   1      32.532  28.696  27.097  1.00  0.00     0.129 C 
BRANCH   8   9
ATOM      9  C   UNL A   1      34.032  28.710  27.480  1.00  0.00     0.020 C 
BRANCH   9  10
ATOM     10  C   UNL A   1      34.971  29.647  26.716  1.00  0.00     0.004 C 
BRANCH  10  11
ATOM     11  C   UNL A   1      36.071  30.324  27.543  1.00  0.00    -0.017 C 
ATOM     12  C   UNL A   1      35.514  31.007  28.793  1.00  0.00     0.007 C 
ATOM     13  C   UNL A   1      37.119  29.281  27.935  1.00  0.00     0.007 C 
ENDBRANCH  10  11
ENDBRANCH   9  10
ENDBRANCH   8   9
BRANCH   8  14
ATOM     14  C   UNL A   1      32.127  27.439  26.289  1.00  0.00    -0.034 A 
ATOM     15  C   UNL A   1      30.803  26.960  26.236  1.00  0.00     0.006 A 
ATOM     16  C   UNL A   1      33.079  26.775  25.492  1.00  0.00     0.006 A 
ATOM     17  C   UNL A   1      30.450  25.870  25.429  1.00  0.00     0.016 A 
ATOM     18  C   UNL A   1      32.732  25.674  24.699  1.00  0.00     0.016 A 
ATOM     19  C   UNL A   1      31.417  25.227  24.669  1.00  0.00     0.017 A 
ATOM     20  Br  UNL A   1      30.936  23.764  23.577  1.00  0.00    -0.051 Br
ENDBRANCH   8  14
ENDBRANCH   6   8
ENDBRANCH   5   6
ENDBRANCH   4   5
ENDBRANCH   3   4
ENDBRANCH   2   3
ENDBRANCH   1   2
BRANCH   1  21
ATOM     21  C   UNL A   1      34.687  34.216  30.231  1.00  0.00     0.188 C 
BRANCH  21  22
ATOM     22  O   UNL A   1      33.877  33.855  31.340  1.00  0.00    -0.376 OA
BRANCH  22  23
ATOM     23  C   UNL A   1      34.321  34.263  32.636  1.00  0.00     0.202 C 
BRANCH  23  24
ATOM     24  C   UNL A   1      34.981  33.207  33.551  1.00  0.00     0.261 C 
BRANCH  24  25
ATOM     25  O   UNL A   1      35.879  32.263  32.929  1.00  0.00    -0.460 OA
BRANCH  25  26
ATOM     26  C   UNL A   1      37.010  31.919  33.591  1.00  0.00     0.338 C 
ATOM     27  O   UNL A   1      37.130  31.828  34.802  1.00  0.00    -0.246 OA
BRANCH  26  28
ATOM     28  C   UNL A   1      37.987  31.380  32.601  1.00  0.00     0.060 A 
ATOM     29  C   UNL A   1      38.975  30.494  33.059  1.00  0.00     0.016 A 
ATOM     30  C   UNL A   1      37.895  31.659  31.233  1.00  0.00     0.016 A 
ATOM     31  C   UNL A   1      39.884  29.914  32.166  1.00  0.00     0.010 A 
ATOM     32  C   UNL A   1      38.821  31.097  30.342  1.00  0.00     0.010 A 
ATOM     33  C   UNL A   1      39.841  30.245  30.807  1.00  0.00    -0.014 A 
BRANCH  33  34
ATOM     34  C   UNL A   1      41.002  29.937  29.926  1.00  0.00     0.031 A 
ATOM     35  C   UNL A   1      41.061  28.556  29.327  1.00  0.00     0.074 A 
ATOM     36  C   UNL A   1      41.962  30.833  29.627  1.00  0.00     0.049 A 
ATOM     37  N   UNL A   1      42.026  27.967  28.670  1.00  0.00    -0.248 NA
ATOM     38  C   UNL A   1      39.857  27.727  29.501  1.00  0.00     0.031 C 
ATOM     39  C   UNL A   1      41.975  32.235  30.035  1.00  0.00     0.029 A 
ATOM     40  N   UNL A   1      43.126  30.683  28.908  1.00  0.00    -0.354 N 
ATOM     41  C   UNL A   1      41.552  26.695  28.365  1.00  0.00     0.074 A 
ATOM     42  C   UNL A   1      40.227  26.590  28.936  1.00  0.00     0.031 C 
ATOM     43  C   UNL A   1      43.100  32.813  29.574  1.00  0.00     0.029 A 
ATOM     44  C   UNL A   1      43.918  31.811  28.888  1.00  0.00     0.049 A 
ATOM     45  H   UNL A   1      43.370  29.848  28.447  1.00  0.00     0.167 HD
ATOM     46  C   UNL A   1      42.161  25.705  27.670  1.00  0.00     0.034 A 
ATOM     47  C   UNL A   1      45.170  31.994  28.413  1.00  0.00     0.034 A 
ATOM     48  C   UNL A   1      43.486  25.812  27.116  1.00  0.00     0.049 A 
ATOM     49  C   UNL A   1      45.896  30.825  27.772  1.00  0.00     0.074 A 
ATOM     50  C   UNL A   1      44.216  24.855  26.434  1.00  0.00     0.029 A 
ATOM     51  N   UNL A   1      44.283  26.948  27.181  1.00  0.00    -0.354 N 
ATOM     52  N   UNL A   1      45.467  29.603  27.548  1.00  0.00    -0.248 NA
ATOM     53  C   UNL A   1      47.277  31.059  27.323  1.00  0.00     0.031 C 
ATOM     54  C   UNL A   1      45.478  25.385  26.151  1.00  0.00     0.029 A 
ATOM     55  C   UNL A   1      45.504  26.704  26.572  1.00  0.00     0.049 A 
ATOM     56  H   UNL A   1      44.020  27.799  27.599  1.00  0.00     0.167 HD
ATOM     57  C   UNL A   1      46.506  28.949  26.884  1.00  0.00     0.074 A 
ATOM     58  C   UNL A   1      47.581  29.906  26.746  1.00  0.00     0.031 C 
ATOM     59  C   UNL A   1      46.561  27.675  26.419  1.00  0.00     0.034 A 
BRANCH  46  60
ATOM     60  C   UNL A   1      41.417  24.400  27.532  1.00  0.00     0.023 A 
ATOM     61  C   UNL A   1      40.289  24.276  26.703  1.00  0.00     0.031 A 
ATOM     62  C   UNL A   1      41.823  23.272  28.268  1.00  0.00     0.131 A 
ATOM     63  C   UNL A   1      39.565  23.075  26.685  1.00  0.00     0.055 A 
ATOM     64  C   UNL A   1      41.149  22.053  28.178  1.00  0.00     0.041 A 
ATOM     65  F   UNL A   1      42.875  23.341  29.097  1.00  0.00    -0.206 F 
ATOM     66  C   UNL A   1      40.005  21.953  27.393  1.00  0.00     0.022 A 
BRANCH  63  67
ATOM     67  S   UNL A   1      37.962  23.043  25.837  1.00  0.00     0.124 S 
ATOM     68  O   UNL A   1      38.131  21.908  24.932  1.00  0.00    -0.237 OA
ATOM     69  O   UNL A   1      37.026  22.849  26.938  1.00  0.00    -0.237 OA
ATOM     70  O   UNL A   1      37.895  24.348  25.182  1.00  0.00    -0.744 OA
ENDBRANCH  63  67
ENDBRANCH  46  60
BRANCH  47  71
ATOM     71  C   UNL A   1      45.876  33.304  28.574  1.00  0.00     0.023 A 
ATOM     72  C   UNL A   1      46.605  33.601  29.739  1.00  0.00     0.031 A 
ATOM     73  C   UNL A   1      45.736  34.325  27.615  1.00  0.00     0.131 A 
ATOM     74  C   UNL A   1      47.101  34.898  29.947  1.00  0.00     0.055 A 
ATOM     75  C   UNL A   1      46.294  35.593  27.795  1.00  0.00     0.041 A 
ATOM     76  F   UNL A   1      45.036  34.110  26.490  1.00  0.00    -0.206 F 
ATOM     77  C   UNL A   1      46.966  35.891  28.976  1.00  0.00     0.022 A 
BRANCH  74  78
ATOM     78  S   UNL A   1      47.805  35.311  31.569  1.00  0.00     0.124 S 
ATOM     79  O   UNL A   1      46.898  36.359  32.025  1.00  0.00    -0.237 OA
ATOM     80  O   UNL A   1      47.720  34.036  32.272  1.00  0.00    -0.237 OA
ATOM     81  O   UNL A   1      49.161  35.755  31.249  1.00  0.00    -0.744 OA
ENDBRANCH  74  78
ENDBRANCH  47  71
BRANCH  59  82
ATOM     82  C   UNL A   1      47.783  27.262  25.630  1.00  0.00     0.023 A 
ATOM     83  C   UNL A   1      48.911  26.681  26.232  1.00  0.00     0.031 A 
ATOM     84  C   UNL A   1      47.795  27.434  24.232  1.00  0.00     0.131 A 
ATOM     85  C   UNL A   1      50.020  26.330  25.444  1.00  0.00     0.055 A 
ATOM     86  C   UNL A   1      48.876  27.029  23.448  1.00  0.00     0.041 A 
ATOM     87  F   UNL A   1      46.745  27.986  23.602  1.00  0.00    -0.206 F 
ATOM     88  C   UNL A   1      50.001  26.482  24.055  1.00  0.00     0.022 A 
BRANCH  85  89
ATOM     89  S   UNL A   1      51.525  25.733  26.265  1.00  0.00     0.124 S 
ATOM     90  O   UNL A   1      52.261  25.138  25.156  1.00  0.00    -0.237 OA
ATOM     91  O   UNL A   1      52.087  26.963  26.817  1.00  0.00    -0.237 OA
ATOM     92  O   UNL A   1      51.022  24.785  27.257  1.00  0.00    -0.744 OA
ENDBRANCH  85  89
ENDBRANCH  59  82
ENDBRANCH  33  34
ENDBRANCH  26  28
ENDBRANCH  25  26
ENDBRANCH  24  25
ENDBRANCH  23  24
ENDBRANCH  22  23
ENDBRANCH  21  22
ENDBRANCH   1  21
TORSDOF 24
ENDMDL
MODEL 3
REMARK VINA RESULT:      -8.5      1.689      2.368
REMARK SMILES CC(C)CC[C@@H](C(=O)OCCOCCOCCOC(=O)c1ccc(-c2c3nc(c(-c4cc(S(=O)(=O)[O-])ccc4F)c4ccc([nH]4)c(-c4cc(S(=O)(=O)[O-])ccc4F)c4nc(c(-c5cc(S(=O)(=O)[O-])ccc5F)c5ccc2[nH]5)C=C4)C=C3)cc1)c1ccc(Br)cc1
REMARK SMILES IDX 13 1 12 2 11 3 10 4 9 5 7 6 8 7 6 8 5 9 4 10 2 11 1 12 3 13
REMARK SMILES IDX 84 14 85 15 90 16 86 17 89 18 87 19 88 20 14 21 15 22 16 23
REMARK SMILES IDX 17 24 18 25 19 26 20 27 21 28 22 29 83 30 23 31 82 32 24 33
REMARK SMILES IDX 25 34 26 35 76 36 27 37 81 38 75 39 77 40 28 41 80 42 74 43
REMARK SMILES IDX 73 44 29 46 61 47 41 48 60 49 42 50 45 51 59 52 78 53 43 54
REMARK SMILES IDX 44 55 58 57 79 58 46 59 30 60 31 61 39 62 32 63 38 64 40 65
REMARK SMILES IDX 37 66 33 67 34 68 35 69 36 70 62 71 63 72 71 73 64 74 70 75
REMARK SMILES IDX 72 76 69 77 65 78 66 79 67 80 68 81 47 82 48 83 56 84 49 85
REMARK SMILES IDX 55 86 57 87 54 88 50 89 51 90 52 91 53 92
REMARK H PARENT 77 45 45 56
REMARK Flexibility Score: inf
ROOT
ATOM      1  C   UNL A   1      33.947  33.904  28.627  1.00  0.00     0.188 C 
ENDROOT
BRANCH   1   2
ATOM      2  O   UNL A   1      33.750  32.680  27.924  1.00  0.00    -0.376 OA
BRANCH   2   3
ATOM      3  C   UNL A   1      32.399  32.350  27.600  1.00  0.00     0.202 C 
BRANCH   3   4
ATOM      4  C   UNL A   1      32.199  31.128  26.687  1.00  0.00     0.261 C 
BRANCH   4   5
ATOM      5  O   UNL A   1      33.241  30.134  26.811  1.00  0.00    -0.463 OA
BRANCH   5   6
ATOM      6  C   UNL A   1      32.861  28.834  26.673  1.00  0.00     0.313 C 
ATOM      7  O   UNL A   1      31.995  28.304  27.366  1.00  0.00    -0.252 OA
BRANCH   6   8
ATOM      8  C   UNL A   1      33.592  28.080  25.541  1.00  0.00     0.129 C 
BRANCH   8   9
ATOM      9  C   UNL A   1      33.348  28.624  24.112  1.00  0.00     0.020 C 
BRANCH   9  10
ATOM     10  C   UNL A   1      31.964  29.183  23.771  1.00  0.00     0.004 C 
BRANCH  10  11
ATOM     11  C   UNL A   1      31.034  28.252  22.984  1.00  0.00    -0.017 C 
ATOM     12  C   UNL A   1      30.440  27.152  23.866  1.00  0.00     0.007 C 
ATOM     13  C   UNL A   1      29.915  29.079  22.349  1.00  0.00     0.007 C 
ENDBRANCH  10  11
ENDBRANCH   9  10
ENDBRANCH   8   9
BRANCH   8  14
ATOM     14  C   UNL A   1      33.442  26.543  25.636  1.00  0.00    -0.034 A 
ATOM     15  C   UNL A   1      34.306  25.649  24.972  1.00  0.00     0.006 A 
ATOM     16  C   UNL A   1      32.467  25.979  26.482  1.00  0.00     0.006 A 
ATOM     17  C   UNL A   1      34.199  24.263  25.143  1.00  0.00     0.016 A 
ATOM     18  C   UNL A   1      32.347  24.592  26.640  1.00  0.00     0.016 A 
ATOM     19  C   UNL A   1      33.216  23.739  25.972  1.00  0.00     0.017 A 
ATOM     20  Br  UNL A   1      33.080  21.871  26.206  1.00  0.00    -0.051 Br
ENDBRANCH   8  14
ENDBRANCH   6   8
ENDBRANCH   5   6
ENDBRANCH   4   5
ENDBRANCH   3   4
ENDBRANCH   2   3
ENDBRANCH   1   2
BRANCH   1  21
ATOM     21  C   UNL A   1      34.753  33.801  29.924  1.00  0.00     0.188 C 
BRANCH  21  22
ATOM     22  O   UNL A   1      34.021  33.427  31.083  1.00  0.00    -0.376 OA
BRANCH  22  23
ATOM     23  C   UNL A   1      34.430  33.996  32.328  1.00  0.00     0.202 C 
BRANCH  23  24
ATOM     24  C   UNL A   1      35.013  33.055  33.407  1.00  0.00     0.261 C 
BRANCH  24  25
ATOM     25  O   UNL A   1      35.807  31.939  32.953  1.00  0.00    -0.460 OA
BRANCH  25  26
ATOM     26  C   UNL A   1      36.984  31.691  33.576  1.00  0.00     0.338 C 
ATOM     27  O   UNL A   1      37.163  31.667  34.783  1.00  0.00    -0.246 OA
BRANCH  26  28
ATOM     28  C   UNL A   1      37.945  31.158  32.567  1.00  0.00     0.060 A 
ATOM     29  C   UNL A   1      39.018  30.375  33.022  1.00  0.00     0.016 A 
ATOM     30  C   UNL A   1      37.761  31.339  31.192  1.00  0.00     0.016 A 
ATOM     31  C   UNL A   1      39.919  29.803  32.117  1.00  0.00     0.010 A 
ATOM     32  C   UNL A   1      38.679  30.786  30.287  1.00  0.00     0.010 A 
ATOM     33  C   UNL A   1      39.781  30.040  30.744  1.00  0.00    -0.014 A 
BRANCH  33  34
ATOM     34  C   UNL A   1      40.914  29.756  29.819  1.00  0.00     0.031 A 
ATOM     35  C   UNL A   1      40.967  28.384  29.199  1.00  0.00     0.074 A 
ATOM     36  C   UNL A   1      41.855  30.667  29.501  1.00  0.00     0.049 A 
ATOM     37  N   UNL A   1      41.914  27.815  28.501  1.00  0.00    -0.248 NA
ATOM     38  C   UNL A   1      39.778  27.541  29.403  1.00  0.00     0.031 C 
ATOM     39  C   UNL A   1      41.867  32.063  29.929  1.00  0.00     0.029 A 
ATOM     40  N   UNL A   1      42.994  30.539  28.740  1.00  0.00    -0.354 N 
ATOM     41  C   UNL A   1      41.443  26.542  28.195  1.00  0.00     0.074 A 
ATOM     42  C   UNL A   1      40.139  26.415  28.809  1.00  0.00     0.031 C 
ATOM     43  C   UNL A   1      42.970  32.659  29.437  1.00  0.00     0.029 A 
ATOM     44  C   UNL A   1      43.774  31.675  28.710  1.00  0.00     0.049 A 
ATOM     45  H   UNL A   1      43.230  29.713  28.260  1.00  0.00     0.167 HD
ATOM     46  C   UNL A   1      42.038  25.569  27.465  1.00  0.00     0.034 A 
ATOM     47  C   UNL A   1      45.006  31.879  28.194  1.00  0.00     0.034 A 
ATOM     48  C   UNL A   1      43.341  25.698  26.867  1.00  0.00     0.049 A 
ATOM     49  C   UNL A   1      45.722  30.727  27.512  1.00  0.00     0.074 A 
ATOM     50  C   UNL A   1      44.057  24.758  26.147  1.00  0.00     0.029 A 
ATOM     51  N   UNL A   1      44.129  26.841  26.921  1.00  0.00    -0.354 N 
ATOM     52  N   UNL A   1      45.298  29.503  27.286  1.00  0.00    -0.248 NA
ATOM     53  C   UNL A   1      47.084  30.981  27.019  1.00  0.00     0.031 C 
ATOM     54  C   UNL A   1      45.304  25.305  25.829  1.00  0.00     0.029 A 
ATOM     55  C   UNL A   1      45.330  26.619  26.267  1.00  0.00     0.049 A 
ATOM     56  H   UNL A   1      43.872  27.684  27.360  1.00  0.00     0.167 HD
ATOM     57  C   UNL A   1      46.320  28.870  26.577  1.00  0.00     0.074 A 
ATOM     58  C   UNL A   1      47.380  29.840  26.416  1.00  0.00     0.031 C 
ATOM     59  C   UNL A   1      46.372  27.603  26.092  1.00  0.00     0.034 A 
BRANCH  46  60
ATOM     60  C   UNL A   1      41.303  24.258  27.333  1.00  0.00     0.023 A 
ATOM     61  C   UNL A   1      40.163  24.127  26.521  1.00  0.00     0.031 A 
ATOM     62  C   UNL A   1      41.729  23.132  28.059  1.00  0.00     0.131 A 
ATOM     63  C   UNL A   1      39.449  22.920  26.510  1.00  0.00     0.055 A 
ATOM     64  C   UNL A   1      41.065  21.907  27.976  1.00  0.00     0.041 A 
ATOM     65  F   UNL A   1      42.794  23.207  28.873  1.00  0.00    -0.206 F 
ATOM     66  C   UNL A   1      39.909  21.800  27.208  1.00  0.00     0.022 A 
BRANCH  63  67
ATOM     67  S   UNL A   1      37.834  22.877  25.687  1.00  0.00     0.124 S 
ATOM     68  O   UNL A   1      37.867  24.115  24.910  1.00  0.00    -0.237 OA
ATOM     69  O   UNL A   1      37.901  21.639  24.921  1.00  0.00    -0.237 OA
ATOM     70  O   UNL A   1      36.884  22.874  26.798  1.00  0.00    -0.744 OA
ENDBRANCH  63  67
ENDBRANCH  46  60
BRANCH  47  71
ATOM     71  C   UNL A   1      45.705  33.193  28.349  1.00  0.00     0.023 A 
ATOM     72  C   UNL A   1      46.445  33.493  29.506  1.00  0.00     0.031 A 
ATOM     73  C   UNL A   1      45.545  34.215  27.395  1.00  0.00     0.131 A 
ATOM     74  C   UNL A   1      46.934  34.794  29.712  1.00  0.00     0.055 A 
ATOM     75  C   UNL A   1      46.096  35.487  27.571  1.00  0.00     0.041 A 
ATOM     76  F   UNL A   1      44.833  33.998  26.278  1.00  0.00    -0.206 F 
ATOM     77  C   UNL A   1      46.779  35.788  28.744  1.00  0.00     0.022 A 
BRANCH  74  78
ATOM     78  S   UNL A   1      47.653  35.209  31.326  1.00  0.00     0.124 S 
ATOM     79  O   UNL A   1      48.012  33.891  31.836  1.00  0.00    -0.237 OA
ATOM     80  O   UNL A   1      48.764  36.078  30.950  1.00  0.00    -0.237 OA
ATOM     81  O   UNL A   1      46.556  35.873  32.028  1.00  0.00    -0.744 OA
ENDBRANCH  74  78
ENDBRANCH  47  71
BRANCH  59  82
ATOM     82  C   UNL A   1      47.570  27.215  25.255  1.00  0.00     0.023 A 
ATOM     83  C   UNL A   1      47.717  27.613  23.916  1.00  0.00     0.031 A 
ATOM     84  C   UNL A   1      48.600  26.448  25.834  1.00  0.00     0.131 A 
ATOM     85  C   UNL A   1      48.850  27.210  23.189  1.00  0.00     0.055 A 
ATOM     86  C   UNL A   1      49.749  26.101  25.123  1.00  0.00     0.041 A 
ATOM     87  F   UNL A   1      48.513  26.038  27.110  1.00  0.00    -0.206 F 
ATOM     88  C   UNL A   1      49.875  26.474  23.790  1.00  0.00     0.022 A 
BRANCH  85  89
ATOM     89  S   UNL A   1      48.938  27.599  21.419  1.00  0.00     0.124 S 
ATOM     90  O   UNL A   1      49.656  28.869  21.421  1.00  0.00    -0.237 OA
ATOM     91  O   UNL A   1      49.670  26.454  20.884  1.00  0.00    -0.237 OA
ATOM     92  O   UNL A   1      47.536  27.680  21.014  1.00  0.00    -0.744 OA
ENDBRANCH  85  89
ENDBRANCH  59  82
ENDBRANCH  33  34
ENDBRANCH  26  28
ENDBRANCH  25  26
ENDBRANCH  24  25
ENDBRANCH  23  24
ENDBRANCH  22  23
ENDBRANCH  21  22
ENDBRANCH   1  21
TORSDOF 24
ENDMDL
