MODEL 1
REMARK VINA RESULT:      -9.1      0.000      0.000
REMARK SMILES COc1ccc2cc([C@@H](C)C(=O)OCCOCCOCCOC(=O)c3ccc(-c4c5nc(c(-c6cc(S(=O)(=O)[O-])ccc6F)c6ccc([nH]6)c(-c6cc(S(=O)(=O)[O-])ccc6F)c6nc(c(-c7cc(S(=O)(=O)[O-])ccc7F)c7ccc4[nH]7)C=C6)C=C5)cc3)ccc2c1
REMARK SMILES IDX 18 1 17 2 16 3 15 4 14 5 13 6 11 7 12 8 9 9 10 10 8 11 3 12
REMARK SMILES IDX 4 13 91 14 5 15 90 16 6 17 89 18 7 19 88 20 2 21 1 22 19 23
REMARK SMILES IDX 20 24 21 25 22 26 23 27 24 28 25 29 26 30 87 31 27 32 86 33
REMARK SMILES IDX 28 34 29 35 30 36 80 37 31 38 85 39 79 40 81 41 32 42 84 43
REMARK SMILES IDX 78 44 77 45 33 47 65 48 45 49 64 50 46 51 49 52 63 53 82 54
REMARK SMILES IDX 47 55 48 56 62 58 83 59 50 60 34 61 35 62 43 63 36 64 42 65
REMARK SMILES IDX 44 66 41 67 37 68 38 69 39 70 40 71 66 72 67 73 75 74 68 75
REMARK SMILES IDX 74 76 76 77 73 78 69 79 70 80 71 81 72 82 51 83 52 84 60 85
REMARK SMILES IDX 53 86 59 87 61 88 58 89 54 90 55 91 56 92 57 93
REMARK H PARENT 81 46 49 57
REMARK Flexibility Score: inf
ROOT
ATOM      1  C   UNL A   1      43.328  18.803  25.513  1.00  0.00     0.188 C 
ENDROOT
BRANCH   1   2
ATOM      2  C   UNL A   1      44.423  18.962  24.446  1.00  0.00     0.188 C 
BRANCH   2   3
ATOM      3  O   UNL A   1      45.773  19.154  24.858  1.00  0.00    -0.376 OA
BRANCH   3   4
ATOM      4  C   UNL A   1      46.221  20.463  25.184  1.00  0.00     0.202 C 
BRANCH   4   5
ATOM      5  C   UNL A   1      45.899  21.614  24.215  1.00  0.00     0.261 C 
BRANCH   5   6
ATOM      6  O   UNL A   1      46.560  22.871  24.491  1.00  0.00    -0.463 OA
BRANCH   6   7
ATOM      7  C   UNL A   1      45.767  23.893  24.903  1.00  0.00     0.313 C 
ATOM      8  O   UNL A   1      45.956  25.061  24.567  1.00  0.00    -0.252 OA
BRANCH   7   9
ATOM      9  C   UNL A   1      44.586  23.522  25.804  1.00  0.00     0.126 C 
ATOM     10  C   UNL A   1      43.302  24.030  25.150  1.00  0.00     0.025 C 
BRANCH   9  11
ATOM     11  C   UNL A   1      44.567  23.868  27.293  1.00  0.00    -0.033 A 
ATOM     12  C   UNL A   1      45.385  25.531  32.048  1.00  0.00     0.119 A 
ATOM     13  C   UNL A   1      46.564  25.764  31.346  1.00  0.00     0.047 A 
ATOM     14  C   UNL A   1      44.319  24.888  31.418  1.00  0.00     0.055 A 
ATOM     15  C   UNL A   1      46.655  25.408  29.996  1.00  0.00     0.012 A 
ATOM     16  C   UNL A   1      44.395  24.536  30.057  1.00  0.00    -0.015 A 
ATOM     17  C   UNL A   1      45.574  24.811  29.327  1.00  0.00    -0.018 A 
ATOM     18  C   UNL A   1      43.320  23.925  29.400  1.00  0.00     0.009 A 
ATOM     19  C   UNL A   1      45.642  24.481  27.954  1.00  0.00     0.013 A 
ATOM     20  C   UNL A   1      43.402  23.606  28.039  1.00  0.00     0.005 A 
BRANCH  12  21
ATOM     21  O   UNL A   1      45.224  25.849  33.370  1.00  0.00    -0.497 OA
ATOM     22  C   UNL A   1      46.402  25.639  34.147  1.00  0.00     0.278 C 
ENDBRANCH  12  21
ENDBRANCH   9  11
ENDBRANCH   7   9
ENDBRANCH   6   7
ENDBRANCH   5   6
ENDBRANCH   4   5
ENDBRANCH   3   4
ENDBRANCH   2   3
ENDBRANCH   1   2
BRANCH   1  23
ATOM     23  O   UNL A   1      42.942  20.008  26.138  1.00  0.00    -0.376 OA
BRANCH  23  24
ATOM     24  C   UNL A   1      42.088  19.895  27.258  1.00  0.00     0.202 C 
BRANCH  24  25
ATOM     25  C   UNL A   1      40.721  20.588  27.142  1.00  0.00     0.261 C 
BRANCH  25  26
ATOM     26  O   UNL A   1      40.731  22.028  27.171  1.00  0.00    -0.460 OA
BRANCH  26  27
ATOM     27  C   UNL A   1      39.629  22.660  26.707  1.00  0.00     0.338 C 
ATOM     28  O   UNL A   1      38.641  22.132  26.219  1.00  0.00    -0.246 OA
BRANCH  27  29
ATOM     29  C   UNL A   1      39.724  24.089  27.086  1.00  0.00     0.060 A 
ATOM     30  C   UNL A   1      40.037  25.044  26.107  1.00  0.00     0.016 A 
ATOM     31  C   UNL A   1      39.508  24.486  28.407  1.00  0.00     0.016 A 
ATOM     32  C   UNL A   1      40.170  26.393  26.455  1.00  0.00     0.010 A 
ATOM     33  C   UNL A   1      39.663  25.832  28.757  1.00  0.00     0.010 A 
ATOM     34  C   UNL A   1      40.028  26.788  27.791  1.00  0.00    -0.014 A 
BRANCH  34  35
ATOM     35  C   UNL A   1      40.467  28.143  28.225  1.00  0.00     0.031 A 
ATOM     36  C   UNL A   1      41.947  28.412  28.320  1.00  0.00     0.074 A 
ATOM     37  C   UNL A   1      39.588  29.116  28.524  1.00  0.00     0.049 A 
ATOM     38  N   UNL A   1      42.577  29.468  28.765  1.00  0.00    -0.248 NA
ATOM     39  C   UNL A   1      42.832  27.332  27.858  1.00  0.00     0.031 C 
ATOM     40  C   UNL A   1      38.135  29.005  28.420  1.00  0.00     0.029 A 
ATOM     41  N   UNL A   1      39.794  30.393  28.991  1.00  0.00    -0.354 N 
ATOM     42  C   UNL A   1      43.933  29.176  28.648  1.00  0.00     0.074 A 
ATOM     43  C   UNL A   1      44.029  27.829  28.127  1.00  0.00     0.031 C 
ATOM     44  C   UNL A   1      37.579  30.162  28.825  1.00  0.00     0.029 A 
ATOM     45  C   UNL A   1      38.632  31.080  29.261  1.00  0.00     0.049 A 
ATOM     46  H   UNL A   1      40.690  30.781  29.120  1.00  0.00     0.167 HD
ATOM     47  C   UNL A   1      45.000  29.961  28.939  1.00  0.00     0.034 A 
ATOM     48  C   UNL A   1      38.440  32.292  29.824  1.00  0.00     0.034 A 
ATOM     49  C   UNL A   1      44.891  31.298  29.471  1.00  0.00     0.049 A 
ATOM     50  C   UNL A   1      39.644  33.111  30.237  1.00  0.00     0.074 A 
ATOM     51  C   UNL A   1      45.907  32.181  29.794  1.00  0.00     0.029 A 
ATOM     52  N   UNL A   1      43.697  31.940  29.773  1.00  0.00    -0.354 N 
ATOM     53  N   UNL A   1      40.921  32.825  30.123  1.00  0.00    -0.248 NA
ATOM     54  C   UNL A   1      39.377  34.420  30.849  1.00  0.00     0.031 C 
ATOM     55  C   UNL A   1      45.332  33.319  30.367  1.00  0.00     0.029 A 
ATOM     56  C   UNL A   1      43.954  33.193  30.311  1.00  0.00     0.049 A 
ATOM     57  H   UNL A   1      42.800  31.563  29.626  1.00  0.00     0.167 HD
ATOM     58  C   UNL A   1      41.606  33.938  30.610  1.00  0.00     0.074 A 
ATOM     59  C   UNL A   1      40.602  34.901  31.009  1.00  0.00     0.031 C 
ATOM     60  C   UNL A   1      42.945  34.148  30.710  1.00  0.00     0.034 A 
BRANCH  47  61
ATOM     61  C   UNL A   1      46.373  29.365  28.743  1.00  0.00     0.023 A 
ATOM     62  C   UNL A   1      46.900  29.115  27.463  1.00  0.00     0.031 A 
ATOM     63  C   UNL A   1      47.159  29.013  29.856  1.00  0.00     0.131 A 
ATOM     64  C   UNL A   1      48.136  28.464  27.329  1.00  0.00     0.055 A 
ATOM     65  C   UNL A   1      48.426  28.446  29.715  1.00  0.00     0.041 A 
ATOM     66  F   UNL A   1      46.700  29.202  31.104  1.00  0.00    -0.206 F 
ATOM     67  C   UNL A   1      48.916  28.153  28.446  1.00  0.00     0.022 A 
BRANCH  64  68
ATOM     68  S   UNL A   1      48.638  27.890  25.683  1.00  0.00     0.124 S 
ATOM     69  O   UNL A   1      48.828  26.460  25.914  1.00  0.00    -0.237 OA
ATOM     70  O   UNL A   1      47.493  28.258  24.858  1.00  0.00    -0.237 OA
ATOM     71  O   UNL A   1      49.865  28.640  25.419  1.00  0.00    -0.744 OA
ENDBRANCH  64  68
ENDBRANCH  47  61
BRANCH  48  72
ATOM     72  C   UNL A   1      37.060  32.802  30.081  1.00  0.00     0.023 A 
ATOM     73  C   UNL A   1      36.598  33.025  31.388  1.00  0.00     0.031 A 
ATOM     74  C   UNL A   1      36.156  33.004  29.022  1.00  0.00     0.131 A 
ATOM     75  C   UNL A   1      35.259  33.386  31.607  1.00  0.00     0.055 A 
ATOM     76  C   UNL A   1      34.842  33.424  29.241  1.00  0.00     0.041 A 
ATOM     77  F   UNL A   1      36.539  32.796  27.753  1.00  0.00    -0.206 F 
ATOM     78  C   UNL A   1      34.382  33.603  30.542  1.00  0.00     0.022 A 
BRANCH  75  79
ATOM     79  S   UNL A   1      34.646  33.466  33.313  1.00  0.00     0.124 S 
ATOM     80  O   UNL A   1      33.263  33.031  33.152  1.00  0.00    -0.237 OA
ATOM     81  O   UNL A   1      35.535  32.533  33.998  1.00  0.00    -0.237 OA
ATOM     82  O   UNL A   1      34.823  34.871  33.673  1.00  0.00    -0.744 OA
ENDBRANCH  75  79
ENDBRANCH  48  72
BRANCH  60  83
ATOM     83  C   UNL A   1      43.403  35.501  31.211  1.00  0.00     0.023 A 
ATOM     84  C   UNL A   1      43.477  35.808  32.580  1.00  0.00     0.031 A 
ATOM     85  C   UNL A   1      43.768  36.503  30.291  1.00  0.00     0.131 A 
ATOM     86  C   UNL A   1      43.846  37.099  32.989  1.00  0.00     0.055 A 
ATOM     87  C   UNL A   1      44.201  37.763  30.706  1.00  0.00     0.041 A 
ATOM     88  F   UNL A   1      43.713  36.272  28.970  1.00  0.00    -0.206 F 
ATOM     89  C   UNL A   1      44.228  38.072  32.062  1.00  0.00     0.022 A 
BRANCH  86  90
ATOM     90  S   UNL A   1      43.715  37.529  34.748  1.00  0.00     0.124 S 
ATOM     91  O   UNL A   1      42.285  37.372  34.992  1.00  0.00    -0.237 OA
ATOM     92  O   UNL A   1      44.581  36.538  35.377  1.00  0.00    -0.237 OA
ATOM     93  O   UNL A   1      44.205  38.905  34.802  1.00  0.00    -0.744 OA
ENDBRANCH  86  90
ENDBRANCH  60  83
ENDBRANCH  34  35
ENDBRANCH  27  29
ENDBRANCH  26  27
ENDBRANCH  25  26
ENDBRANCH  24  25
ENDBRANCH  23  24
ENDBRANCH   1  23
TORSDOF 22
ENDMDL
MODEL 2
REMARK VINA RESULT:      -8.7      1.771      2.141
REMARK SMILES COc1ccc2cc([C@@H](C)C(=O)OCCOCCOCCOC(=O)c3ccc(-c4c5nc(c(-c6cc(S(=O)(=O)[O-])ccc6F)c6ccc([nH]6)c(-c6cc(S(=O)(=O)[O-])ccc6F)c6nc(c(-c7cc(S(=O)(=O)[O-])ccc7F)c7ccc4[nH]7)C=C6)C=C5)cc3)ccc2c1
REMARK SMILES IDX 18 1 17 2 16 3 15 4 14 5 13 6 11 7 12 8 9 9 10 10 8 11 3 12
REMARK SMILES IDX 4 13 91 14 5 15 90 16 6 17 89 18 7 19 88 20 2 21 1 22 19 23
REMARK SMILES IDX 20 24 21 25 22 26 23 27 24 28 25 29 26 30 87 31 27 32 86 33
REMARK SMILES IDX 28 34 29 35 30 36 80 37 31 38 85 39 79 40 81 41 32 42 84 43
REMARK SMILES IDX 78 44 77 45 33 47 65 48 45 49 64 50 46 51 49 52 63 53 82 54
REMARK SMILES IDX 47 55 48 56 62 58 83 59 50 60 34 61 35 62 43 63 36 64 42 65
REMARK SMILES IDX 44 66 41 67 37 68 38 69 39 70 40 71 66 72 67 73 75 74 68 75
REMARK SMILES IDX 74 76 76 77 73 78 69 79 70 80 71 81 72 82 51 83 52 84 60 85
REMARK SMILES IDX 53 86 59 87 61 88 58 89 54 90 55 91 56 92 57 93
REMARK H PARENT 81 46 49 57
REMARK Flexibility Score: inf
ROOT
ATOM      1  C   UNL A   1      43.290  18.982  25.364  1.00  0.00     0.188 C 
ENDROOT
BRANCH   1   2
ATOM      2  C   UNL A   1      44.534  19.172  24.482  1.00  0.00     0.188 C 
BRANCH   2   3
ATOM      3  O   UNL A   1      45.769  19.539  25.090  1.00  0.00    -0.376 OA
BRANCH   3   4
ATOM      4  C   UNL A   1      46.040  20.911  25.338  1.00  0.00     0.202 C 
BRANCH   4   5
ATOM      5  C   UNL A   1      45.714  21.938  24.241  1.00  0.00     0.261 C 
BRANCH   5   6
ATOM      6  O   UNL A   1      46.504  23.150  24.257  1.00  0.00    -0.463 OA
BRANCH   6   7
ATOM      7  C   UNL A   1      45.912  24.250  24.785  1.00  0.00     0.313 C 
ATOM      8  O   UNL A   1      46.339  25.389  24.605  1.00  0.00    -0.252 OA
BRANCH   7   9
ATOM      9  C   UNL A   1      44.644  24.015  25.613  1.00  0.00     0.126 C 
ATOM     10  C   UNL A   1      43.508  24.829  24.998  1.00  0.00     0.025 C 
BRANCH   9  11
ATOM     11  C   UNL A   1      44.629  24.191  27.131  1.00  0.00    -0.033 A 
ATOM     12  C   UNL A   1      45.447  25.324  32.040  1.00  0.00     0.119 A 
ATOM     13  C   UNL A   1      46.616  25.657  31.363  1.00  0.00     0.047 A 
ATOM     14  C   UNL A   1      44.389  24.735  31.347  1.00  0.00     0.055 A 
ATOM     15  C   UNL A   1      46.705  25.457  29.982  1.00  0.00     0.012 A 
ATOM     16  C   UNL A   1      44.462  24.540  29.954  1.00  0.00    -0.015 A 
ATOM     17  C   UNL A   1      45.631  24.919  29.254  1.00  0.00    -0.018 A 
ATOM     18  C   UNL A   1      43.395  23.986  29.237  1.00  0.00     0.009 A 
ATOM     19  C   UNL A   1      45.697  24.747  27.853  1.00  0.00     0.013 A 
ATOM     20  C   UNL A   1      43.474  23.825  27.848  1.00  0.00     0.005 A 
BRANCH  12  21
ATOM     21  O   UNL A   1      45.289  25.488  33.391  1.00  0.00    -0.497 OA
ATOM     22  C   UNL A   1      43.955  25.829  33.764  1.00  0.00     0.278 C 
ENDBRANCH  12  21
ENDBRANCH   9  11
ENDBRANCH   7   9
ENDBRANCH   6   7
ENDBRANCH   5   6
ENDBRANCH   4   5
ENDBRANCH   3   4
ENDBRANCH   2   3
ENDBRANCH   1   2
BRANCH   1  23
ATOM     23  O   UNL A   1      42.878  20.145  26.050  1.00  0.00    -0.376 OA
BRANCH  23  24
ATOM     24  C   UNL A   1      42.141  19.949  27.240  1.00  0.00     0.202 C 
BRANCH  24  25
ATOM     25  C   UNL A   1      40.782  20.662  27.322  1.00  0.00     0.261 C 
BRANCH  25  26
ATOM     26  O   UNL A   1      40.810  22.100  27.252  1.00  0.00    -0.460 OA
BRANCH  26  27
ATOM     27  C   UNL A   1      39.702  22.714  26.779  1.00  0.00     0.338 C 
ATOM     28  O   UNL A   1      38.718  22.169  26.300  1.00  0.00    -0.246 OA
BRANCH  27  29
ATOM     29  C   UNL A   1      39.785  24.150  27.133  1.00  0.00     0.060 A 
ATOM     30  C   UNL A   1      40.147  25.085  26.151  1.00  0.00     0.016 A 
ATOM     31  C   UNL A   1      39.509  24.575  28.434  1.00  0.00     0.016 A 
ATOM     32  C   UNL A   1      40.268  26.440  26.478  1.00  0.00     0.010 A 
ATOM     33  C   UNL A   1      39.652  25.926  28.764  1.00  0.00     0.010 A 
ATOM     34  C   UNL A   1      40.066  26.862  27.798  1.00  0.00    -0.014 A 
BRANCH  34  35
ATOM     35  C   UNL A   1      40.489  28.224  28.224  1.00  0.00     0.031 A 
ATOM     36  C   UNL A   1      41.966  28.510  28.320  1.00  0.00     0.074 A 
ATOM     37  C   UNL A   1      39.599  29.189  28.517  1.00  0.00     0.049 A 
ATOM     38  N   UNL A   1      42.584  29.575  28.759  1.00  0.00    -0.248 NA
ATOM     39  C   UNL A   1      42.864  27.437  27.864  1.00  0.00     0.031 C 
ATOM     40  C   UNL A   1      38.147  29.061  28.412  1.00  0.00     0.029 A 
ATOM     41  N   UNL A   1      39.791  30.471  28.976  1.00  0.00    -0.354 N 
ATOM     42  C   UNL A   1      43.943  29.298  28.645  1.00  0.00     0.074 A 
ATOM     43  C   UNL A   1      44.055  27.949  28.132  1.00  0.00     0.031 C 
ATOM     44  C   UNL A   1      37.578  30.214  28.809  1.00  0.00     0.029 A 
ATOM     45  C   UNL A   1      38.620  31.146  29.241  1.00  0.00     0.049 A 
ATOM     46  H   UNL A   1      40.682  30.869  29.104  1.00  0.00     0.167 HD
ATOM     47  C   UNL A   1      45.001  30.096  28.934  1.00  0.00     0.034 A 
ATOM     48  C   UNL A   1      38.414  32.359  29.797  1.00  0.00     0.034 A 
ATOM     49  C   UNL A   1      44.876  31.435  29.458  1.00  0.00     0.049 A 
ATOM     50  C   UNL A   1      39.609  33.194  30.207  1.00  0.00     0.074 A 
ATOM     51  C   UNL A   1      45.882  32.331  29.777  1.00  0.00     0.029 A 
ATOM     52  N   UNL A   1      43.675  32.066  29.755  1.00  0.00    -0.354 N 
ATOM     53  N   UNL A   1      40.889  32.921  30.096  1.00  0.00    -0.248 NA
ATOM     54  C   UNL A   1      39.326  34.504  30.811  1.00  0.00     0.031 C 
ATOM     55  C   UNL A   1      45.294  33.466  30.343  1.00  0.00     0.029 A 
ATOM     56  C   UNL A   1      43.917  33.324  30.286  1.00  0.00     0.049 A 
ATOM     57  H   UNL A   1      42.782  31.677  29.609  1.00  0.00     0.167 HD
ATOM     58  C   UNL A   1      41.561  34.045  30.578  1.00  0.00     0.074 A 
ATOM     59  C   UNL A   1      40.545  34.999  30.970  1.00  0.00     0.031 C 
ATOM     60  C   UNL A   1      42.897  34.270  30.679  1.00  0.00     0.034 A 
BRANCH  47  61
ATOM     61  C   UNL A   1      46.381  29.514  28.743  1.00  0.00     0.023 A 
ATOM     62  C   UNL A   1      47.156  29.066  29.827  1.00  0.00     0.031 A 
ATOM     63  C   UNL A   1      46.944  29.432  27.456  1.00  0.00     0.131 A 
ATOM     64  C   UNL A   1      48.473  28.630  29.614  1.00  0.00     0.055 A 
ATOM     65  C   UNL A   1      48.222  28.915  27.241  1.00  0.00     0.041 A 
ATOM     66  F   UNL A   1      46.264  29.868  26.383  1.00  0.00    -0.206 F 
ATOM     67  C   UNL A   1      49.002  28.525  28.326  1.00  0.00     0.022 A 
BRANCH  64  68
ATOM     68  S   UNL A   1      49.536  28.351  31.057  1.00  0.00     0.124 S 
ATOM     69  O   UNL A   1      48.562  28.359  32.147  1.00  0.00    -0.237 OA
ATOM     70  O   UNL A   1      50.146  27.061  30.755  1.00  0.00    -0.237 OA
ATOM     71  O   UNL A   1      50.448  29.494  31.037  1.00  0.00    -0.744 OA
ENDBRANCH  64  68
ENDBRANCH  47  61
BRANCH  48  72
ATOM     72  C   UNL A   1      37.028  32.855  30.050  1.00  0.00     0.023 A 
ATOM     73  C   UNL A   1      36.561  33.077  31.355  1.00  0.00     0.031 A 
ATOM     74  C   UNL A   1      36.124  33.045  28.988  1.00  0.00     0.131 A 
ATOM     75  C   UNL A   1      35.217  33.424  31.570  1.00  0.00     0.055 A 
ATOM     76  C   UNL A   1      34.806  33.452  29.202  1.00  0.00     0.041 A 
ATOM     77  F   UNL A   1      36.513  32.838  27.720  1.00  0.00    -0.206 F 
ATOM     78  C   UNL A   1      34.341  33.630  30.502  1.00  0.00     0.022 A 
BRANCH  75  79
ATOM     79  S   UNL A   1      34.600  33.502  33.274  1.00  0.00     0.124 S 
ATOM     80  O   UNL A   1      34.742  34.921  33.577  1.00  0.00    -0.237 OA
ATOM     81  O   UNL A   1      33.233  33.012  33.124  1.00  0.00    -0.237 OA
ATOM     82  O   UNL A   1      35.502  32.613  34.004  1.00  0.00    -0.744 OA
ENDBRANCH  75  79
ENDBRANCH  48  72
BRANCH  60  83
ATOM     83  C   UNL A   1      43.339  35.631  31.172  1.00  0.00     0.023 A 
ATOM     84  C   UNL A   1      43.662  36.679  30.292  1.00  0.00     0.031 A 
ATOM     85  C   UNL A   1      43.441  35.878  32.554  1.00  0.00     0.131 A 
ATOM     86  C   UNL A   1      44.129  37.901  30.801  1.00  0.00     0.055 A 
ATOM     87  C   UNL A   1      43.838  37.118  33.055  1.00  0.00     0.041 A 
ATOM     88  F   UNL A   1      43.151  34.916  33.444  1.00  0.00    -0.206 F 
ATOM     89  C   UNL A   1      44.200  38.134  32.177  1.00  0.00     0.022 A 
BRANCH  86  90
ATOM     90  S   UNL A   1      44.750  39.150  29.640  1.00  0.00     0.124 S 
ATOM     91  O   UNL A   1      43.828  39.005  28.518  1.00  0.00    -0.237 OA
ATOM     92  O   UNL A   1      44.625  40.383  30.411  1.00  0.00    -0.237 OA
ATOM     93  O   UNL A   1      46.121  38.721  29.375  1.00  0.00    -0.744 OA
ENDBRANCH  86  90
ENDBRANCH  60  83
ENDBRANCH  34  35
ENDBRANCH  27  29
ENDBRANCH  26  27
ENDBRANCH  25  26
ENDBRANCH  24  25
ENDBRANCH  23  24
ENDBRANCH   1  23
TORSDOF 22
ENDMDL
MODEL 3
REMARK VINA RESULT:      -8.4      5.111      8.944
REMARK SMILES COc1ccc2cc([C@@H](C)C(=O)OCCOCCOCCOC(=O)c3ccc(-c4c5nc(c(-c6cc(S(=O)(=O)[O-])ccc6F)c6ccc([nH]6)c(-c6cc(S(=O)(=O)[O-])ccc6F)c6nc(c(-c7cc(S(=O)(=O)[O-])ccc7F)c7ccc4[nH]7)C=C6)C=C5)cc3)ccc2c1
REMARK SMILES IDX 18 1 17 2 16 3 15 4 14 5 13 6 11 7 12 8 9 9 10 10 8 11 3 12
REMARK SMILES IDX 4 13 91 14 5 15 90 16 6 17 89 18 7 19 88 20 2 21 1 22 19 23
REMARK SMILES IDX 20 24 21 25 22 26 23 27 24 28 25 29 26 30 87 31 27 32 86 33
REMARK SMILES IDX 28 34 29 35 30 36 80 37 31 38 85 39 79 40 81 41 32 42 84 43
REMARK SMILES IDX 78 44 77 45 33 47 65 48 45 49 64 50 46 51 49 52 63 53 82 54
REMARK SMILES IDX 47 55 48 56 62 58 83 59 50 60 34 61 35 62 43 63 36 64 42 65
REMARK SMILES IDX 44 66 41 67 37 68 38 69 39 70 40 71 66 72 67 73 75 74 68 75
REMARK SMILES IDX 74 76 76 77 73 78 69 79 70 80 71 81 72 82 51 83 52 84 60 85
REMARK SMILES IDX 53 86 59 87 61 88 58 89 54 90 55 91 56 92 57 93
REMARK H PARENT 81 46 49 57
REMARK Flexibility Score: inf
ROOT
ATOM      1  C   UNL A   1      37.625  20.946  25.306  1.00  0.00     0.188 C 
ENDROOT
BRANCH   1   2
ATOM      2  C   UNL A   1      36.478  21.547  24.479  1.00  0.00     0.188 C 
BRANCH   2   3
ATOM      3  O   UNL A   1      35.221  21.785  25.103  1.00  0.00    -0.376 OA
BRANCH   3   4
ATOM      4  C   UNL A   1      34.109  22.167  24.303  1.00  0.00     0.202 C 
BRANCH   4   5
ATOM      5  C   UNL A   1      34.304  23.271  23.250  1.00  0.00     0.261 C 
BRANCH   5   6
ATOM      6  O   UNL A   1      33.132  23.617  22.476  1.00  0.00    -0.463 OA
BRANCH   6   7
ATOM      7  C   UNL A   1      32.021  23.952  23.179  1.00  0.00     0.313 C 
ATOM      8  O   UNL A   1      31.019  23.240  23.226  1.00  0.00    -0.252 OA
BRANCH   7   9
ATOM      9  C   UNL A   1      32.073  25.274  23.952  1.00  0.00     0.126 C 
ATOM     10  C   UNL A   1      31.689  24.999  25.405  1.00  0.00     0.025 C 
BRANCH   9  11
ATOM     11  C   UNL A   1      31.341  26.523  23.463  1.00  0.00    -0.033 A 
ATOM     12  C   UNL A   1      28.104  30.316  22.374  1.00  0.00     0.119 A 
ATOM     13  C   UNL A   1      27.340  29.303  22.946  1.00  0.00     0.047 A 
ATOM     14  C   UNL A   1      29.467  30.116  22.156  1.00  0.00     0.055 A 
ATOM     15  C   UNL A   1      27.950  28.113  23.354  1.00  0.00     0.012 A 
ATOM     16  C   UNL A   1      30.096  28.926  22.574  1.00  0.00    -0.015 A 
ATOM     17  C   UNL A   1      29.331  27.912  23.196  1.00  0.00    -0.018 A 
ATOM     18  C   UNL A   1      31.470  28.725  22.397  1.00  0.00     0.009 A 
ATOM     19  C   UNL A   1      29.964  26.729  23.639  1.00  0.00     0.013 A 
ATOM     20  C   UNL A   1      32.083  27.548  22.843  1.00  0.00     0.005 A 
BRANCH  12  21
ATOM     21  O   UNL A   1      27.575  31.505  21.948  1.00  0.00    -0.497 OA
ATOM     22  C   UNL A   1      28.164  31.982  20.740  1.00  0.00     0.278 C 
ENDBRANCH  12  21
ENDBRANCH   9  11
ENDBRANCH   7   9
ENDBRANCH   6   7
ENDBRANCH   5   6
ENDBRANCH   4   5
ENDBRANCH   3   4
ENDBRANCH   2   3
ENDBRANCH   1   2
BRANCH   1  23
ATOM     23  O   UNL A   1      38.805  21.722  25.318  1.00  0.00    -0.376 OA
BRANCH  23  24
ATOM     24  C   UNL A   1      39.586  21.667  26.495  1.00  0.00     0.202 C 
BRANCH  24  25
ATOM     25  C   UNL A   1      40.349  20.356  26.742  1.00  0.00     0.261 C 
BRANCH  25  26
ATOM     26  O   UNL A   1      41.053  19.804  25.615  1.00  0.00    -0.460 OA
BRANCH  26  27
ATOM     27  C   UNL A   1      42.396  19.693  25.722  1.00  0.00     0.338 C 
ATOM     28  O   UNL A   1      43.063  18.697  25.479  1.00  0.00    -0.246 OA
BRANCH  27  29
ATOM     29  C   UNL A   1      42.952  21.042  25.976  1.00  0.00     0.060 A 
ATOM     30  C   UNL A   1      43.275  21.421  27.288  1.00  0.00     0.016 A 
ATOM     31  C   UNL A   1      43.152  21.935  24.921  1.00  0.00     0.016 A 
ATOM     32  C   UNL A   1      43.764  22.705  27.551  1.00  0.00     0.010 A 
ATOM     33  C   UNL A   1      43.620  23.225  25.188  1.00  0.00     0.010 A 
ATOM     34  C   UNL A   1      43.896  23.631  26.508  1.00  0.00    -0.014 A 
BRANCH  34  35
ATOM     35  C   UNL A   1      44.111  25.073  26.806  1.00  0.00     0.031 A 
ATOM     36  C   UNL A   1      45.493  25.640  26.605  1.00  0.00     0.074 A 
ATOM     37  C   UNL A   1      43.117  25.868  27.240  1.00  0.00     0.049 A 
ATOM     38  N   UNL A   1      45.958  26.829  26.886  1.00  0.00    -0.248 NA
ATOM     39  C   UNL A   1      46.486  24.730  26.013  1.00  0.00     0.031 C 
ATOM     40  C   UNL A   1      41.726  25.460  27.424  1.00  0.00     0.029 A 
ATOM     41  N   UNL A   1      43.132  27.190  27.618  1.00  0.00    -0.354 N 
ATOM     42  C   UNL A   1      47.300  26.809  26.517  1.00  0.00     0.074 A 
ATOM     43  C   UNL A   1      47.580  25.475  26.030  1.00  0.00     0.031 C 
ATOM     44  C   UNL A   1      41.023  26.508  27.892  1.00  0.00     0.029 A 
ATOM     45  C   UNL A   1      41.920  27.647  28.087  1.00  0.00     0.049 A 
ATOM     46  H   UNL A   1      43.934  27.758  27.559  1.00  0.00     0.167 HD
ATOM     47  C   UNL A   1      48.212  27.810  26.572  1.00  0.00     0.034 A 
ATOM     48  C   UNL A   1      41.584  28.832  28.639  1.00  0.00     0.034 A 
ATOM     49  C   UNL A   1      47.923  29.131  27.074  1.00  0.00     0.049 A 
ATOM     50  C   UNL A   1      42.644  29.904  28.785  1.00  0.00     0.074 A 
ATOM     51  C   UNL A   1      48.772  30.221  27.166  1.00  0.00     0.029 A 
ATOM     52  N   UNL A   1      46.697  29.541  27.581  1.00  0.00    -0.354 N 
ATOM     53  N   UNL A   1      43.909  29.872  28.434  1.00  0.00    -0.248 NA
ATOM     54  C   UNL A   1      42.224  31.172  29.396  1.00  0.00     0.031 C 
ATOM     55  C   UNL A   1      48.085  31.259  27.804  1.00  0.00     0.029 A 
ATOM     56  C   UNL A   1      46.778  30.854  28.020  1.00  0.00     0.049 A 
ATOM     57  H   UNL A   1      45.888  28.982  27.622  1.00  0.00     0.167 HD
ATOM     58  C   UNL A   1      44.422  31.132  28.745  1.00  0.00     0.074 A 
ATOM     59  C   UNL A   1      43.328  31.899  29.301  1.00  0.00     0.031 C 
ATOM     60  C   UNL A   1      45.682  31.613  28.578  1.00  0.00     0.034 A 
BRANCH  47  61
ATOM     61  C   UNL A   1      49.621  27.489  26.132  1.00  0.00     0.023 A 
ATOM     62  C   UNL A   1      50.059  27.716  24.815  1.00  0.00     0.031 A 
ATOM     63  C   UNL A   1      50.534  26.919  27.038  1.00  0.00     0.131 A 
ATOM     64  C   UNL A   1      51.342  27.307  24.423  1.00  0.00     0.055 A 
ATOM     65  C   UNL A   1      51.839  26.595  26.664  1.00  0.00     0.041 A 
ATOM     66  F   UNL A   1      50.168  26.655  28.302  1.00  0.00    -0.206 F 
ATOM     67  C   UNL A   1      52.246  26.774  25.346  1.00  0.00     0.022 A 
BRANCH  64  68
ATOM     68  S   UNL A   1      51.759  27.337  22.658  1.00  0.00     0.124 S 
ATOM     69  O   UNL A   1      50.497  26.922  22.050  1.00  0.00    -0.237 OA
ATOM     70  O   UNL A   1      52.142  28.729  22.448  1.00  0.00    -0.237 OA
ATOM     71  O   UNL A   1      52.847  26.367  22.546  1.00  0.00    -0.744 OA
ENDBRANCH  64  68
ENDBRANCH  47  61
BRANCH  48  72
ATOM     72  C   UNL A   1      40.198  29.072  29.143  1.00  0.00     0.023 A 
ATOM     73  C   UNL A   1      39.883  28.926  30.504  1.00  0.00     0.031 A 
ATOM     74  C   UNL A   1      39.151  29.379  28.256  1.00  0.00     0.131 A 
ATOM     75  C   UNL A   1      38.550  29.036  30.930  1.00  0.00     0.055 A 
ATOM     76  C   UNL A   1      37.836  29.550  28.694  1.00  0.00     0.041 A 
ATOM     77  F   UNL A   1      39.392  29.520  26.943  1.00  0.00    -0.206 F 
ATOM     78  C   UNL A   1      37.527  29.363  30.038  1.00  0.00     0.022 A 
BRANCH  75  79
ATOM     79  S   UNL A   1      38.153  28.640  32.656  1.00  0.00     0.124 S 
ATOM     80  O   UNL A   1      38.199  27.182  32.644  1.00  0.00    -0.237 OA
ATOM     81  O   UNL A   1      39.231  29.309  33.377  1.00  0.00    -0.237 OA
ATOM     82  O   UNL A   1      36.826  29.222  32.843  1.00  0.00    -0.744 OA
ENDBRANCH  75  79
ENDBRANCH  48  72
BRANCH  60  83
ATOM     83  C   UNL A   1      45.928  33.062  28.938  1.00  0.00     0.023 A 
ATOM     84  C   UNL A   1      45.701  34.110  28.028  1.00  0.00     0.031 A 
ATOM     85  C   UNL A   1      46.405  33.396  30.220  1.00  0.00     0.131 A 
ATOM     86  C   UNL A   1      46.007  35.431  28.391  1.00  0.00     0.055 A 
ATOM     87  C   UNL A   1      46.640  34.719  30.598  1.00  0.00     0.041 A 
ATOM     88  F   UNL A   1      46.646  32.440  31.130  1.00  0.00    -0.206 F 
ATOM     89  C   UNL A   1      46.456  35.744  29.677  1.00  0.00     0.022 A 
BRANCH  86  90
ATOM     90  S   UNL A   1      45.916  36.728  27.125  1.00  0.00     0.124 S 
ATOM     91  O   UNL A   1      44.478  36.957  27.029  1.00  0.00    -0.237 OA
ATOM     92  O   UNL A   1      46.693  37.807  27.727  1.00  0.00    -0.237 OA
ATOM     93  O   UNL A   1      46.524  36.106  25.952  1.00  0.00    -0.744 OA
ENDBRANCH  86  90
ENDBRANCH  60  83
ENDBRANCH  34  35
ENDBRANCH  27  29
ENDBRANCH  26  27
ENDBRANCH  25  26
ENDBRANCH  24  25
ENDBRANCH  23  24
ENDBRANCH   1  23
TORSDOF 22
ENDMDL
