MODEL 1
REMARK VINA RESULT:      -8.5      0.000      0.000
REMARK SMILES [NH3+]CCOCC(=O)Nc1cc(C(=O)OCCOCCOCCOC(=O)c2ccc(-c3c4nc(c(-c5cc(S(=O)(=O)[O-])ccc5F)c5ccc([nH]5)c(-c5cc(S(=O)(=O)[O-])ccc5F)c5nc(c(-c6cc(S(=O)(=O)[O-])ccc6F)c6ccc3[nH]6)C=C5)C=C4)cc2)ccc1Cl
REMARK SMILES IDX 17 1 16 2 15 3 14 4 12 5 13 6 11 7 9 8 10 9 91 10 90 11
REMARK SMILES IDX 92 12 89 13 8 14 6 15 7 16 5 18 4 19 3 20 2 21 1 22 18 26
REMARK SMILES IDX 19 27 20 28 21 29 22 30 23 31 24 32 25 33 26 34 27 35 88 36
REMARK SMILES IDX 28 37 87 38 29 39 30 40 31 41 81 42 32 43 86 44 80 45 82 46
REMARK SMILES IDX 33 47 85 48 79 49 78 50 34 52 66 53 46 54 65 55 47 56 50 57
REMARK SMILES IDX 64 58 83 59 48 60 49 61 63 63 84 64 51 65 35 66 36 67 44 68
REMARK SMILES IDX 37 69 43 70 45 71 42 72 38 73 39 74 40 75 41 76 67 77 68 78
REMARK SMILES IDX 76 79 69 80 75 81 77 82 74 83 70 84 71 85 72 86 73 87 52 88
REMARK SMILES IDX 53 89 61 90 54 91 60 92 62 93 59 94 55 95 56 96 57 97 58 98
REMARK H PARENT 8 17 1 23 1 24 1 25 82 51 50 62
REMARK Flexibility Score: inf
ROOT
ATOM      1  O   UNL A   1      33.589  34.173  30.414  1.00  0.00    -0.376 OA
ENDROOT
BRANCH   1   2
ATOM      2  C   UNL A   1      34.078  33.781  29.136  1.00  0.00     0.202 C 
BRANCH   2   3
ATOM      3  C   UNL A   1      34.699  32.388  29.020  1.00  0.00     0.261 C 
BRANCH   3   4
ATOM      4  O   UNL A   1      33.876  31.493  28.254  1.00  0.00    -0.460 OA
BRANCH   4   5
ATOM      5  C   UNL A   1      34.538  30.533  27.566  1.00  0.00     0.338 C 
ATOM      6  O   UNL A   1      35.653  30.093  27.791  1.00  0.00    -0.246 OA
BRANCH   5   7
ATOM      7  C   UNL A   1      33.609  29.928  26.591  1.00  0.00     0.062 A 
ATOM      8  C   UNL A   1      33.186  28.157  24.997  1.00  0.00     0.060 A 
ATOM      9  C   UNL A   1      34.049  28.803  25.882  1.00  0.00     0.043 A 
ATOM     10  C   UNL A   1      31.853  28.592  24.889  1.00  0.00     0.064 A 
ATOM     11  C   UNL A   1      31.424  29.726  25.586  1.00  0.00     0.023 A 
ATOM     12  Cl  UNL A   1      30.645  27.663  24.077  1.00  0.00    -0.082 Cl
ATOM     13  C   UNL A   1      32.304  30.406  26.428  1.00  0.00     0.017 A 
BRANCH   8  14
ATOM     14  N   UNL A   1      33.698  27.062  24.284  1.00  0.00    -0.323 N 
ATOM     15  C   UNL A   1      33.807  25.773  24.745  1.00  0.00     0.250 C 
ATOM     16  O   UNL A   1      34.380  24.926  24.058  1.00  0.00    -0.272 OA
ATOM     17  H   UNL A   1      34.009  27.234  23.367  1.00  0.00     0.170 HD
BRANCH  15  18
ATOM     18  C   UNL A   1      33.119  25.382  26.068  1.00  0.00     0.260 C 
BRANCH  18  19
ATOM     19  O   UNL A   1      31.819  24.827  26.049  1.00  0.00    -0.366 OA
BRANCH  19  20
ATOM     20  C   UNL A   1      31.647  23.669  26.869  1.00  0.00     0.222 C 
BRANCH  20  21
ATOM     21  C   UNL A   1      30.338  22.914  26.601  1.00  0.00     0.287 C 
BRANCH  21  22
ATOM     22  N   UNL A   1      29.153  23.469  27.252  1.00  0.00    -0.356 N 
ATOM     23  H   UNL A   1      28.408  23.578  26.565  1.00  0.00     0.344 HD
ATOM     24  H   UNL A   1      29.381  24.377  27.656  1.00  0.00     0.344 HD
ATOM     25  H   UNL A   1      28.845  22.837  27.990  1.00  0.00     0.344 HD
ENDBRANCH  21  22
ENDBRANCH  20  21
ENDBRANCH  19  20
ENDBRANCH  18  19
ENDBRANCH  15  18
ENDBRANCH   8  14
ENDBRANCH   5   7
ENDBRANCH   4   5
ENDBRANCH   3   4
ENDBRANCH   2   3
ENDBRANCH   1   2
BRANCH   1  26
ATOM     26  C   UNL A   1      34.021  35.407  30.980  1.00  0.00     0.188 C 
BRANCH  26  27
ATOM     27  C   UNL A   1      34.195  35.517  32.507  1.00  0.00     0.188 C 
BRANCH  27  28
ATOM     28  O   UNL A   1      35.371  34.899  33.005  1.00  0.00    -0.376 OA
BRANCH  28  29
ATOM     29  C   UNL A   1      35.185  33.656  33.665  1.00  0.00     0.202 C 
BRANCH  29  30
ATOM     30  C   UNL A   1      35.477  32.426  32.799  1.00  0.00     0.261 C 
BRANCH  30  31
ATOM     31  O   UNL A   1      36.646  31.675  33.166  1.00  0.00    -0.460 OA
BRANCH  31  32
ATOM     32  C   UNL A   1      36.995  30.643  32.363  1.00  0.00     0.338 C 
ATOM     33  O   UNL A   1      36.316  29.670  32.092  1.00  0.00    -0.246 OA
BRANCH  32  34
ATOM     34  C   UNL A   1      38.283  30.989  31.724  1.00  0.00     0.060 A 
ATOM     35  C   UNL A   1      39.339  31.449  32.520  1.00  0.00     0.016 A 
ATOM     36  C   UNL A   1      38.449  30.848  30.343  1.00  0.00     0.016 A 
ATOM     37  C   UNL A   1      40.562  31.783  31.931  1.00  0.00     0.010 A 
ATOM     38  C   UNL A   1      39.669  31.196  29.754  1.00  0.00     0.010 A 
ATOM     39  C   UNL A   1      40.728  31.683  30.541  1.00  0.00    -0.014 A 
BRANCH  39  40
ATOM     40  C   UNL A   1      41.948  32.222  29.887  1.00  0.00     0.031 A 
ATOM     41  C   UNL A   1      43.101  31.292  29.630  1.00  0.00     0.074 A 
ATOM     42  C   UNL A   1      42.037  33.518  29.538  1.00  0.00     0.049 A 
ATOM     43  N   UNL A   1      44.281  31.546  29.126  1.00  0.00    -0.248 NA
ATOM     44  C   UNL A   1      42.893  29.884  30.000  1.00  0.00     0.031 C 
ATOM     45  C   UNL A   1      40.982  34.515  29.711  1.00  0.00     0.029 A 
ATOM     46  N   UNL A   1      43.073  34.222  28.973  1.00  0.00    -0.354 N 
ATOM     47  C   UNL A   1      44.956  30.330  29.109  1.00  0.00     0.074 A 
ATOM     48  C   UNL A   1      44.065  29.349  29.693  1.00  0.00     0.031 C 
ATOM     49  C   UNL A   1      41.430  35.705  29.273  1.00  0.00     0.029 A 
ATOM     50  C   UNL A   1      42.815  35.565  28.822  1.00  0.00     0.049 A 
ATOM     51  H   UNL A   1      43.922  33.803  28.702  1.00  0.00     0.167 HD
ATOM     52  C   UNL A   1      46.200  30.055  28.645  1.00  0.00     0.034 A 
ATOM     53  C   UNL A   1      43.612  36.567  28.397  1.00  0.00     0.034 A 
ATOM     54  C   UNL A   1      47.091  31.045  28.093  1.00  0.00     0.049 A 
ATOM     55  C   UNL A   1      45.029  36.255  27.976  1.00  0.00     0.074 A 
ATOM     56  C   UNL A   1      48.365  30.870  27.579  1.00  0.00     0.029 A 
ATOM     57  N   UNL A   1      46.811  32.403  27.999  1.00  0.00    -0.354 N 
ATOM     58  N   UNL A   1      45.649  35.096  27.947  1.00  0.00    -0.248 NA
ATOM     59  C   UNL A   1      45.854  37.386  27.528  1.00  0.00     0.031 C 
ATOM     60  C   UNL A   1      48.882  32.127  27.243  1.00  0.00     0.029 A 
ATOM     61  C   UNL A   1      47.903  33.080  27.475  1.00  0.00     0.049 A 
ATOM     62  H   UNL A   1      45.962  32.823  28.267  1.00  0.00     0.167 HD
ATOM     63  C   UNL A   1      46.925  35.360  27.452  1.00  0.00     0.074 A 
ATOM     64  C   UNL A   1      46.982  36.782  27.186  1.00  0.00     0.031 C 
ATOM     65  C   UNL A   1      47.955  34.502  27.231  1.00  0.00     0.034 A 
BRANCH  52  66
ATOM     66  C   UNL A   1      46.679  28.630  28.769  1.00  0.00     0.023 A 
ATOM     67  C   UNL A   1      46.442  27.680  27.759  1.00  0.00     0.031 A 
ATOM     68  C   UNL A   1      47.347  28.203  29.931  1.00  0.00     0.131 A 
ATOM     69  C   UNL A   1      46.805  26.340  27.960  1.00  0.00     0.055 A 
ATOM     70  C   UNL A   1      47.774  26.885  30.091  1.00  0.00     0.041 A 
ATOM     71  F   UNL A   1      47.579  29.060  30.937  1.00  0.00    -0.206 F 
ATOM     72  C   UNL A   1      47.490  25.940  29.109  1.00  0.00     0.022 A 
BRANCH  69  73
ATOM     73  S   UNL A   1      46.240  25.100  26.762  1.00  0.00     0.124 S 
ATOM     74  O   UNL A   1      47.279  24.080  26.879  1.00  0.00    -0.237 OA
ATOM     75  O   UNL A   1      44.927  24.737  27.280  1.00  0.00    -0.237 OA
ATOM     76  O   UNL A   1      46.232  25.826  25.493  1.00  0.00    -0.744 OA
ENDBRANCH  69  73
ENDBRANCH  52  66
BRANCH  53  77
ATOM     77  C   UNL A   1      43.122  37.976  28.395  1.00  0.00     0.023 A 
ATOM     78  C   UNL A   1      43.319  38.820  29.499  1.00  0.00     0.031 A 
ATOM     79  C   UNL A   1      42.388  38.478  27.304  1.00  0.00     0.131 A 
ATOM     80  C   UNL A   1      42.750  40.105  29.509  1.00  0.00     0.055 A 
ATOM     81  C   UNL A   1      41.867  39.773  27.297  1.00  0.00     0.041 A 
ATOM     82  F   UNL A   1      42.166  37.711  26.225  1.00  0.00    -0.206 F 
ATOM     83  C   UNL A   1      42.037  40.590  28.410  1.00  0.00     0.022 A 
BRANCH  80  84
ATOM     84  S   UNL A   1      42.887  41.108  31.015  1.00  0.00     0.124 S 
ATOM     85  O   UNL A   1      43.618  42.272  30.530  1.00  0.00    -0.237 OA
ATOM     86  O   UNL A   1      41.486  41.325  31.360  1.00  0.00    -0.237 OA
ATOM     87  O   UNL A   1      43.625  40.244  31.932  1.00  0.00    -0.744 OA
ENDBRANCH  80  84
ENDBRANCH  53  77
BRANCH  65  88
ATOM     88  C   UNL A   1      49.217  35.081  26.636  1.00  0.00     0.023 A 
ATOM     89  C   UNL A   1      50.316  35.441  27.435  1.00  0.00     0.031 A 
ATOM     90  C   UNL A   1      49.316  35.280  25.248  1.00  0.00     0.131 A 
ATOM     91  C   UNL A   1      51.447  36.029  26.846  1.00  0.00     0.055 A 
ATOM     92  C   UNL A   1      50.464  35.813  24.661  1.00  0.00     0.041 A 
ATOM     93  F   UNL A   1      48.296  34.954  24.436  1.00  0.00    -0.206 F 
ATOM     94  C   UNL A   1      51.534  36.202  25.462  1.00  0.00     0.022 A 
BRANCH  91  95
ATOM     95  S   UNL A   1      52.775  36.639  27.920  1.00  0.00     0.124 S 
ATOM     96  O   UNL A   1      52.567  38.082  27.872  1.00  0.00    -0.237 OA
ATOM     97  O   UNL A   1      52.471  35.992  29.192  1.00  0.00    -0.237 OA
ATOM     98  O   UNL A   1      53.993  36.167  27.263  1.00  0.00    -0.744 OA
ENDBRANCH  91  95
ENDBRANCH  65  88
ENDBRANCH  39  40
ENDBRANCH  32  34
ENDBRANCH  31  32
ENDBRANCH  30  31
ENDBRANCH  29  30
ENDBRANCH  28  29
ENDBRANCH  27  28
ENDBRANCH  26  27
ENDBRANCH   1  26
TORSDOF 26
ENDMDL
MODEL 2
REMARK VINA RESULT:      -8.4      7.140     10.427
REMARK SMILES [NH3+]CCOCC(=O)Nc1cc(C(=O)OCCOCCOCCOC(=O)c2ccc(-c3c4nc(c(-c5cc(S(=O)(=O)[O-])ccc5F)c5ccc([nH]5)c(-c5cc(S(=O)(=O)[O-])ccc5F)c5nc(c(-c6cc(S(=O)(=O)[O-])ccc6F)c6ccc3[nH]6)C=C5)C=C4)cc2)ccc1Cl
REMARK SMILES IDX 17 1 16 2 15 3 14 4 12 5 13 6 11 7 9 8 10 9 91 10 90 11
REMARK SMILES IDX 92 12 89 13 8 14 6 15 7 16 5 18 4 19 3 20 2 21 1 22 18 26
REMARK SMILES IDX 19 27 20 28 21 29 22 30 23 31 24 32 25 33 26 34 27 35 88 36
REMARK SMILES IDX 28 37 87 38 29 39 30 40 31 41 81 42 32 43 86 44 80 45 82 46
REMARK SMILES IDX 33 47 85 48 79 49 78 50 34 52 66 53 46 54 65 55 47 56 50 57
REMARK SMILES IDX 64 58 83 59 48 60 49 61 63 63 84 64 51 65 35 66 36 67 44 68
REMARK SMILES IDX 37 69 43 70 45 71 42 72 38 73 39 74 40 75 41 76 67 77 68 78
REMARK SMILES IDX 76 79 69 80 75 81 77 82 74 83 70 84 71 85 72 86 73 87 52 88
REMARK SMILES IDX 53 89 61 90 54 91 60 92 62 93 59 94 55 95 56 96 57 97 58 98
REMARK H PARENT 8 17 1 23 1 24 1 25 82 51 50 62
REMARK Flexibility Score: inf
ROOT
ATOM      1  O   UNL A   1      31.733  30.049  24.769  1.00  0.00    -0.376 OA
ENDROOT
BRANCH   1   2
ATOM      2  C   UNL A   1      30.781  29.275  24.049  1.00  0.00     0.202 C 
BRANCH   2   3
ATOM      3  C   UNL A   1      30.532  27.845  24.531  1.00  0.00     0.261 C 
BRANCH   3   4
ATOM      4  O   UNL A   1      31.507  27.425  25.499  1.00  0.00    -0.460 OA
BRANCH   4   5
ATOM      5  C   UNL A   1      31.322  26.189  26.019  1.00  0.00     0.338 C 
ATOM      6  O   UNL A   1      30.307  25.740  26.525  1.00  0.00    -0.246 OA
BRANCH   5   7
ATOM      7  C   UNL A   1      32.501  25.361  25.696  1.00  0.00     0.062 A 
ATOM      8  C   UNL A   1      33.360  23.316  24.727  1.00  0.00     0.060 A 
ATOM      9  C   UNL A   1      32.277  24.108  25.111  1.00  0.00     0.043 A 
ATOM     10  C   UNL A   1      34.666  23.821  24.856  1.00  0.00     0.064 A 
ATOM     11  C   UNL A   1      34.884  25.066  25.456  1.00  0.00     0.023 A 
ATOM     12  Cl  UNL A   1      36.025  23.055  24.116  1.00  0.00    -0.082 Cl
ATOM     13  C   UNL A   1      33.804  25.833  25.891  1.00  0.00     0.017 A 
BRANCH   8  14
ATOM     14  N   UNL A   1      33.073  22.053  24.187  1.00  0.00    -0.323 N 
ATOM     15  C   UNL A   1      32.446  21.806  22.990  1.00  0.00     0.250 C 
ATOM     16  O   UNL A   1      32.152  20.649  22.683  1.00  0.00    -0.272 OA
ATOM     17  H   UNL A   1      33.346  21.271  24.716  1.00  0.00     0.170 HD
BRANCH  15  18
ATOM     18  C   UNL A   1      32.214  22.968  22.004  1.00  0.00     0.260 C 
BRANCH  18  19
ATOM     19  O   UNL A   1      33.315  23.707  21.515  1.00  0.00    -0.366 OA
BRANCH  19  20
ATOM     20  C   UNL A   1      33.282  25.104  21.813  1.00  0.00     0.222 C 
BRANCH  20  21
ATOM     21  C   UNL A   1      32.217  25.878  21.026  1.00  0.00     0.287 C 
BRANCH  21  22
ATOM     22  N   UNL A   1      32.158  25.579  19.596  1.00  0.00    -0.356 N 
ATOM     23  H   UNL A   1      32.584  26.342  19.071  1.00  0.00     0.344 HD
ATOM     24  H   UNL A   1      31.184  25.471  19.312  1.00  0.00     0.344 HD
ATOM     25  H   UNL A   1      32.664  24.714  19.410  1.00  0.00     0.344 HD
ENDBRANCH  21  22
ENDBRANCH  20  21
ENDBRANCH  19  20
ENDBRANCH  18  19
ENDBRANCH  15  18
ENDBRANCH   8  14
ENDBRANCH   5   7
ENDBRANCH   4   5
ENDBRANCH   3   4
ENDBRANCH   2   3
ENDBRANCH   1   2
BRANCH   1  26
ATOM     26  C   UNL A   1      31.402  30.536  26.066  1.00  0.00     0.188 C 
BRANCH  26  27
ATOM     27  C   UNL A   1      32.373  30.287  27.237  1.00  0.00     0.188 C 
BRANCH  27  28
ATOM     28  O   UNL A   1      33.299  31.339  27.459  1.00  0.00    -0.376 OA
BRANCH  28  29
ATOM     29  C   UNL A   1      32.746  32.646  27.519  1.00  0.00     0.202 C 
BRANCH  29  30
ATOM     30  C   UNL A   1      33.782  33.769  27.642  1.00  0.00     0.261 C 
BRANCH  30  31
ATOM     31  O   UNL A   1      33.360  34.915  28.400  1.00  0.00    -0.460 OA
BRANCH  31  32
ATOM     32  C   UNL A   1      33.483  34.843  29.747  1.00  0.00     0.338 C 
ATOM     33  O   UNL A   1      32.715  35.301  30.572  1.00  0.00    -0.246 OA
BRANCH  32  34
ATOM     34  C   UNL A   1      34.624  33.951  30.045  1.00  0.00     0.060 A 
ATOM     35  C   UNL A   1      34.404  32.785  30.788  1.00  0.00     0.016 A 
ATOM     36  C   UNL A   1      35.906  34.262  29.582  1.00  0.00     0.016 A 
ATOM     37  C   UNL A   1      35.474  31.933  31.081  1.00  0.00     0.010 A 
ATOM     38  C   UNL A   1      36.976  33.416  29.888  1.00  0.00     0.010 A 
ATOM     39  C   UNL A   1      36.771  32.256  30.654  1.00  0.00    -0.014 A 
BRANCH  39  40
ATOM     40  C   UNL A   1      37.938  31.467  31.129  1.00  0.00     0.031 A 
ATOM     41  C   UNL A   1      38.534  31.795  32.470  1.00  0.00     0.074 A 
ATOM     42  C   UNL A   1      38.468  30.484  30.379  1.00  0.00     0.049 A 
ATOM     43  N   UNL A   1      39.580  31.283  33.065  1.00  0.00    -0.248 NA
ATOM     44  C   UNL A   1      37.857  32.849  33.240  1.00  0.00     0.031 C 
ATOM     45  C   UNL A   1      37.968  30.054  29.074  1.00  0.00     0.029 A 
ATOM     46  N   UNL A   1      39.555  29.676  30.604  1.00  0.00    -0.354 N 
ATOM     47  C   UNL A   1      39.686  31.946  34.283  1.00  0.00     0.074 A 
ATOM     48  C   UNL A   1      38.620  32.925  34.320  1.00  0.00     0.031 C 
ATOM     49  C   UNL A   1      38.756  29.068  28.608  1.00  0.00     0.029 A 
ATOM     50  C   UNL A   1      39.837  28.821  29.563  1.00  0.00     0.049 A 
ATOM     51  H   UNL A   1      40.084  29.706  31.434  1.00  0.00     0.167 HD
ATOM     52  C   UNL A   1      40.584  31.753  35.281  1.00  0.00     0.034 A 
ATOM     53  C   UNL A   1      40.862  27.961  29.389  1.00  0.00     0.034 A 
ATOM     54  C   UNL A   1      41.661  30.797  35.222  1.00  0.00     0.049 A 
ATOM     55  C   UNL A   1      41.908  27.832  30.472  1.00  0.00     0.074 A 
ATOM     56  C   UNL A   1      42.615  30.510  36.183  1.00  0.00     0.029 A 
ATOM     57  N   UNL A   1      41.941  29.981  34.132  1.00  0.00    -0.354 N 
ATOM     58  N   UNL A   1      41.985  28.452  31.629  1.00  0.00    -0.248 NA
ATOM     59  C   UNL A   1      43.005  26.885  30.227  1.00  0.00     0.031 C 
ATOM     60  C   UNL A   1      43.513  29.578  35.649  1.00  0.00     0.029 A 
ATOM     61  C   UNL A   1      43.076  29.224  34.382  1.00  0.00     0.049 A 
ATOM     62  H   UNL A   1      41.412  29.948  33.303  1.00  0.00     0.167 HD
ATOM     63  C   UNL A   1      43.122  27.947  32.256  1.00  0.00     0.074 A 
ATOM     64  C   UNL A   1      43.692  26.966  31.356  1.00  0.00     0.031 C 
ATOM     65  C   UNL A   1      43.646  28.261  33.469  1.00  0.00     0.034 A 
BRANCH  52  66
ATOM     66  C   UNL A   1      40.460  32.639  36.496  1.00  0.00     0.023 A 
ATOM     67  C   UNL A   1      39.635  32.292  37.582  1.00  0.00     0.031 A 
ATOM     68  C   UNL A   1      41.144  33.866  36.554  1.00  0.00     0.131 A 
ATOM     69  C   UNL A   1      39.460  33.193  38.643  1.00  0.00     0.055 A 
ATOM     70  C   UNL A   1      41.025  34.723  37.649  1.00  0.00     0.041 A 
ATOM     71  F   UNL A   1      41.926  34.260  35.537  1.00  0.00    -0.206 F 
ATOM     72  C   UNL A   1      40.168  34.396  38.695  1.00  0.00     0.022 A 
BRANCH  69  73
ATOM     73  S   UNL A   1      38.185  32.836  39.883  1.00  0.00     0.124 S 
ATOM     74  O   UNL A   1      38.898  31.940  40.790  1.00  0.00    -0.237 OA
ATOM     75  O   UNL A   1      37.873  34.160  40.405  1.00  0.00    -0.237 OA
ATOM     76  O   UNL A   1      37.119  32.203  39.106  1.00  0.00    -0.744 OA
ENDBRANCH  69  73
ENDBRANCH  52  66
BRANCH  53  77
ATOM     77  C   UNL A   1      40.995  27.187  28.122  1.00  0.00     0.023 A 
ATOM     78  C   UNL A   1      40.701  25.815  28.069  1.00  0.00     0.031 A 
ATOM     79  C   UNL A   1      41.484  27.801  26.954  1.00  0.00     0.131 A 
ATOM     80  C   UNL A   1      40.941  25.092  26.889  1.00  0.00     0.055 A 
ATOM     81  C   UNL A   1      41.673  27.089  25.768  1.00  0.00     0.041 A 
ATOM     82  F   UNL A   1      41.785  29.110  26.950  1.00  0.00    -0.206 F 
ATOM     83  C   UNL A   1      41.413  25.723  25.735  1.00  0.00     0.022 A 
BRANCH  80  84
ATOM     84  S   UNL A   1      40.704  23.293  26.905  1.00  0.00     0.124 S 
ATOM     85  O   UNL A   1      41.135  22.949  28.254  1.00  0.00    -0.237 OA
ATOM     86  O   UNL A   1      39.274  23.175  26.636  1.00  0.00    -0.237 OA
ATOM     87  O   UNL A   1      41.576  22.826  25.831  1.00  0.00    -0.744 OA
ENDBRANCH  80  84
ENDBRANCH  53  77
BRANCH  65  88
ATOM     88  C   UNL A   1      44.878  27.503  33.905  1.00  0.00     0.023 A 
ATOM     89  C   UNL A   1      44.792  26.247  34.531  1.00  0.00     0.031 A 
ATOM     90  C   UNL A   1      46.155  28.052  33.697  1.00  0.00     0.131 A 
ATOM     91  C   UNL A   1      45.960  25.604  34.972  1.00  0.00     0.055 A 
ATOM     92  C   UNL A   1      47.316  27.383  34.087  1.00  0.00     0.041 A 
ATOM     93  F   UNL A   1      46.296  29.249  33.104  1.00  0.00    -0.206 F 
ATOM     94  C   UNL A   1      47.222  26.158  34.739  1.00  0.00     0.022 A 
BRANCH  91  95
ATOM     95  S   UNL A   1      45.806  24.069  35.927  1.00  0.00     0.124 S 
ATOM     96  O   UNL A   1      44.369  24.011  36.179  1.00  0.00    -0.237 OA
ATOM     97  O   UNL A   1      46.332  23.071  35.002  1.00  0.00    -0.237 OA
ATOM     98  O   UNL A   1      46.632  24.315  37.108  1.00  0.00    -0.744 OA
ENDBRANCH  91  95
ENDBRANCH  65  88
ENDBRANCH  39  40
ENDBRANCH  32  34
ENDBRANCH  31  32
ENDBRANCH  30  31
ENDBRANCH  29  30
ENDBRANCH  28  29
ENDBRANCH  27  28
ENDBRANCH  26  27
ENDBRANCH   1  26
TORSDOF 26
ENDMDL
MODEL 3
REMARK VINA RESULT:      -8.3      6.427     10.059
REMARK SMILES [NH3+]CCOCC(=O)Nc1cc(C(=O)OCCOCCOCCOC(=O)c2ccc(-c3c4nc(c(-c5cc(S(=O)(=O)[O-])ccc5F)c5ccc([nH]5)c(-c5cc(S(=O)(=O)[O-])ccc5F)c5nc(c(-c6cc(S(=O)(=O)[O-])ccc6F)c6ccc3[nH]6)C=C5)C=C4)cc2)ccc1Cl
REMARK SMILES IDX 17 1 16 2 15 3 14 4 12 5 13 6 11 7 9 8 10 9 91 10 90 11
REMARK SMILES IDX 92 12 89 13 8 14 6 15 7 16 5 18 4 19 3 20 2 21 1 22 18 26
REMARK SMILES IDX 19 27 20 28 21 29 22 30 23 31 24 32 25 33 26 34 27 35 88 36
REMARK SMILES IDX 28 37 87 38 29 39 30 40 31 41 81 42 32 43 86 44 80 45 82 46
REMARK SMILES IDX 33 47 85 48 79 49 78 50 34 52 66 53 46 54 65 55 47 56 50 57
REMARK SMILES IDX 64 58 83 59 48 60 49 61 63 63 84 64 51 65 35 66 36 67 44 68
REMARK SMILES IDX 37 69 43 70 45 71 42 72 38 73 39 74 40 75 41 76 67 77 68 78
REMARK SMILES IDX 76 79 69 80 75 81 77 82 74 83 70 84 71 85 72 86 73 87 52 88
REMARK SMILES IDX 53 89 61 90 54 91 60 92 62 93 59 94 55 95 56 96 57 97 58 98
REMARK H PARENT 8 17 1 23 1 24 1 25 82 51 50 62
REMARK Flexibility Score: inf
ROOT
ATOM      1  O   UNL A   1      31.759  29.896  24.803  1.00  0.00    -0.376 OA
ENDROOT
BRANCH   1   2
ATOM      2  C   UNL A   1      31.117  28.733  24.291  1.00  0.00     0.202 C 
BRANCH   2   3
ATOM      3  C   UNL A   1      31.540  27.384  24.877  1.00  0.00     0.261 C 
BRANCH   3   4
ATOM      4  O   UNL A   1      32.403  26.657  23.988  1.00  0.00    -0.460 OA
BRANCH   4   5
ATOM      5  C   UNL A   1      33.228  25.759  24.578  1.00  0.00     0.338 C 
ATOM      6  O   UNL A   1      33.881  25.908  25.597  1.00  0.00    -0.246 OA
BRANCH   5   7
ATOM      7  C   UNL A   1      33.066  24.457  23.901  1.00  0.00     0.062 A 
ATOM      8  C   UNL A   1      32.470  22.119  24.085  1.00  0.00     0.060 A 
ATOM      9  C   UNL A   1      32.699  23.356  24.686  1.00  0.00     0.043 A 
ATOM     10  C   UNL A   1      32.528  22.009  22.684  1.00  0.00     0.064 A 
ATOM     11  C   UNL A   1      32.911  23.107  21.907  1.00  0.00     0.023 A 
ATOM     12  Cl  UNL A   1      31.948  20.616  21.845  1.00  0.00    -0.082 Cl
ATOM     13  C   UNL A   1      33.195  24.331  22.514  1.00  0.00     0.017 A 
BRANCH   8  14
ATOM     14  N   UNL A   1      32.147  21.044  24.927  1.00  0.00    -0.323 N 
ATOM     15  C   UNL A   1      32.912  19.925  25.144  1.00  0.00     0.250 C 
ATOM     16  O   UNL A   1      32.462  19.000  25.822  1.00  0.00    -0.272 OA
ATOM     17  H   UNL A   1      31.291  21.097  25.409  1.00  0.00     0.170 HD
BRANCH  15  18
ATOM     18  C   UNL A   1      34.363  19.888  24.623  1.00  0.00     0.260 C 
BRANCH  18  19
ATOM     19  O   UNL A   1      35.430  20.223  25.485  1.00  0.00    -0.366 OA
BRANCH  19  20
ATOM     20  C   UNL A   1      35.958  21.539  25.307  1.00  0.00     0.222 C 
BRANCH  20  21
ATOM     21  C   UNL A   1      37.426  21.561  24.863  1.00  0.00     0.287 C 
BRANCH  21  22
ATOM     22  N   UNL A   1      38.136  22.813  25.115  1.00  0.00    -0.356 N 
ATOM     23  H   UNL A   1      37.673  23.321  25.868  1.00  0.00     0.344 HD
ATOM     24  H   UNL A   1      38.134  23.381  24.268  1.00  0.00     0.344 HD
ATOM     25  H   UNL A   1      39.098  22.609  25.386  1.00  0.00     0.344 HD
ENDBRANCH  21  22
ENDBRANCH  20  21
ENDBRANCH  19  20
ENDBRANCH  18  19
ENDBRANCH  15  18
ENDBRANCH   8  14
ENDBRANCH   5   7
ENDBRANCH   4   5
ENDBRANCH   3   4
ENDBRANCH   2   3
ENDBRANCH   1   2
BRANCH   1  26
ATOM     26  C   UNL A   1      31.563  30.259  26.167  1.00  0.00     0.188 C 
BRANCH  26  27
ATOM     27  C   UNL A   1      32.703  30.035  27.179  1.00  0.00     0.188 C 
BRANCH  27  28
ATOM     28  O   UNL A   1      33.612  31.119  27.281  1.00  0.00    -0.376 OA
BRANCH  28  29
ATOM     29  C   UNL A   1      33.036  32.386  27.561  1.00  0.00     0.202 C 
BRANCH  29  30
ATOM     30  C   UNL A   1      34.049  33.525  27.721  1.00  0.00     0.261 C 
BRANCH  30  31
ATOM     31  O   UNL A   1      33.600  34.644  28.504  1.00  0.00    -0.460 OA
BRANCH  31  32
ATOM     32  C   UNL A   1      33.752  34.557  29.846  1.00  0.00     0.338 C 
ATOM     33  O   UNL A   1      32.986  34.976  30.694  1.00  0.00    -0.246 OA
BRANCH  32  34
ATOM     34  C   UNL A   1      34.932  33.704  30.109  1.00  0.00     0.060 A 
ATOM     35  C   UNL A   1      34.778  32.543  30.876  1.00  0.00     0.016 A 
ATOM     36  C   UNL A   1      36.183  34.045  29.588  1.00  0.00     0.016 A 
ATOM     37  C   UNL A   1      35.884  31.727  31.135  1.00  0.00     0.010 A 
ATOM     38  C   UNL A   1      37.290  33.236  29.861  1.00  0.00     0.010 A 
ATOM     39  C   UNL A   1      37.152  32.081  30.651  1.00  0.00    -0.014 A 
BRANCH  39  40
ATOM     40  C   UNL A   1      38.360  31.334  31.087  1.00  0.00     0.031 A 
ATOM     41  C   UNL A   1      39.036  31.739  32.368  1.00  0.00     0.074 A 
ATOM     42  C   UNL A   1      38.857  30.322  30.354  1.00  0.00     0.049 A 
ATOM     43  N   UNL A   1      40.127  31.273  32.918  1.00  0.00    -0.248 NA
ATOM     44  C   UNL A   1      38.392  32.822  33.126  1.00  0.00     0.031 C 
ATOM     45  C   UNL A   1      38.281  29.818  29.107  1.00  0.00     0.029 A 
ATOM     46  N   UNL A   1      39.971  29.541  30.548  1.00  0.00    -0.354 N 
ATOM     47  C   UNL A   1      40.300  31.999  34.091  1.00  0.00     0.074 A 
ATOM     48  C   UNL A   1      39.222  32.964  34.149  1.00  0.00     0.031 C 
ATOM     49  C   UNL A   1      39.054  28.821  28.642  1.00  0.00     0.029 A 
ATOM     50  C   UNL A   1      40.198  28.638  29.534  1.00  0.00     0.049 A 
ATOM     51  H   UNL A   1      40.552  29.621  31.338  1.00  0.00     0.167 HD
ATOM     52  C   UNL A   1      41.264  31.870  35.036  1.00  0.00     0.034 A 
ATOM     53  C   UNL A   1      41.225  27.785  29.337  1.00  0.00     0.034 A 
ATOM     54  C   UNL A   1      42.351  30.926  34.955  1.00  0.00     0.049 A 
ATOM     55  C   UNL A   1      42.341  27.725  30.354  1.00  0.00     0.074 A 
ATOM     56  C   UNL A   1      43.371  30.703  35.864  1.00  0.00     0.029 A 
ATOM     57  N   UNL A   1      42.575  30.060  33.892  1.00  0.00    -0.354 N 
ATOM     58  N   UNL A   1      42.483  28.405  31.471  1.00  0.00    -0.248 NA
ATOM     59  C   UNL A   1      43.436  26.783  30.085  1.00  0.00     0.031 C 
ATOM     60  C   UNL A   1      44.248  29.757  35.320  1.00  0.00     0.029 A 
ATOM     61  C   UNL A   1      43.736  29.332  34.104  1.00  0.00     0.049 A 
ATOM     62  H   UNL A   1      41.993  29.977  33.101  1.00  0.00     0.167 HD
ATOM     63  C   UNL A   1      43.667  27.949  32.046  1.00  0.00     0.074 A 
ATOM     64  C   UNL A   1      44.194  26.931  31.162  1.00  0.00     0.031 C 
ATOM     65  C   UNL A   1      44.262  28.332  33.205  1.00  0.00     0.034 A 
BRANCH  52  66
ATOM     66  C   UNL A   1      41.204  32.814  36.211  1.00  0.00     0.023 A 
ATOM     67  C   UNL A   1      40.535  32.473  37.401  1.00  0.00     0.031 A 
ATOM     68  C   UNL A   1      41.789  34.091  36.127  1.00  0.00     0.131 A 
ATOM     69  C   UNL A   1      40.406  33.420  38.427  1.00  0.00     0.055 A 
ATOM     70  C   UNL A   1      41.723  35.001  37.183  1.00  0.00     0.041 A 
ATOM     71  F   UNL A   1      42.419  34.480  35.008  1.00  0.00    -0.206 F 
ATOM     72  C   UNL A   1      41.015  34.674  38.336  1.00  0.00     0.022 A 
BRANCH  69  73
ATOM     73  S   UNL A   1      39.309  33.044  39.822  1.00  0.00     0.124 S 
ATOM     74  O   UNL A   1      40.220  32.365  40.740  1.00  0.00    -0.237 OA
ATOM     75  O   UNL A   1      38.855  34.366  40.232  1.00  0.00    -0.237 OA
ATOM     76  O   UNL A   1      38.283  32.187  39.229  1.00  0.00    -0.744 OA
ENDBRANCH  69  73
ENDBRANCH  52  66
BRANCH  53  77
ATOM     77  C   UNL A   1      41.289  26.948  28.104  1.00  0.00     0.023 A 
ATOM     78  C   UNL A   1      41.045  25.566  28.146  1.00  0.00     0.031 A 
ATOM     79  C   UNL A   1      41.661  27.515  26.871  1.00  0.00     0.131 A 
ATOM     80  C   UNL A   1      41.221  24.789  26.988  1.00  0.00     0.055 A 
ATOM     81  C   UNL A   1      41.785  26.747  25.712  1.00  0.00     0.041 A 
ATOM     82  F   UNL A   1      41.910  28.831  26.777  1.00  0.00    -0.206 F 
ATOM     83  C   UNL A   1      41.576  25.373  25.770  1.00  0.00     0.022 A 
BRANCH  80  84
ATOM     84  S   UNL A   1      41.056  22.987  27.115  1.00  0.00     0.124 S 
ATOM     85  O   UNL A   1      39.650  22.842  27.474  1.00  0.00    -0.237 OA
ATOM     86  O   UNL A   1      41.424  22.555  25.770  1.00  0.00    -0.237 OA
ATOM     87  O   UNL A   1      42.009  22.631  28.163  1.00  0.00    -0.744 OA
ENDBRANCH  80  84
ENDBRANCH  53  77
BRANCH  65  88
ATOM     88  C   UNL A   1      45.532  27.615  33.597  1.00  0.00     0.023 A 
ATOM     89  C   UNL A   1      46.802  28.116  33.260  1.00  0.00     0.031 A 
ATOM     90  C   UNL A   1      45.469  26.407  34.313  1.00  0.00     0.131 A 
ATOM     91  C   UNL A   1      47.954  27.387  33.594  1.00  0.00     0.055 A 
ATOM     92  C   UNL A   1      46.619  25.714  34.691  1.00  0.00     0.041 A 
ATOM     93  F   UNL A   1      44.283  25.880  34.661  1.00  0.00    -0.206 F 
ATOM     94  C   UNL A   1      47.871  26.197  34.322  1.00  0.00     0.022 A 
BRANCH  91  95
ATOM     95  S   UNL A   1      49.564  27.973  32.997  1.00  0.00     0.124 S 
ATOM     96  O   UNL A   1      50.156  26.749  32.467  1.00  0.00    -0.237 OA
ATOM     97  O   UNL A   1      49.185  28.978  32.009  1.00  0.00    -0.237 OA
ATOM     98  O   UNL A   1      50.205  28.501  34.200  1.00  0.00    -0.744 OA
ENDBRANCH  91  95
ENDBRANCH  65  88
ENDBRANCH  39  40
ENDBRANCH  32  34
ENDBRANCH  31  32
ENDBRANCH  30  31
ENDBRANCH  29  30
ENDBRANCH  28  29
ENDBRANCH  27  28
ENDBRANCH  26  27
ENDBRANCH   1  26
TORSDOF 26
ENDMDL
