MODEL 1
REMARK VINA RESULT:     -10.5      0.000      0.000
REMARK SMILES O=C(OCCOCCOCCOC(=O)c1csc(C[NH2+][C@H]2CCSc3ccc(F)cc32)c1)c1ccc(-c2c3nc(c(-c4cc(S(=O)(=O)[O-])ccc4F)c4ccc([nH]4)c(-c4cc(S(=O)(=O)[O-])ccc4F)c4nc(c(-c5cc(S(=O)(=O)[O-])ccc5F)c5ccc2[nH]5)C=C4)C=C3)cc1
REMARK SMILES IDX 7 1 6 2 5 3 4 4 3 5 2 6 1 7 33 8 34 9 95 10 35 11 94 12
REMARK SMILES IDX 36 13 37 14 38 15 88 16 39 17 93 18 87 19 89 20 40 21 92 22
REMARK SMILES IDX 86 23 85 24 41 26 73 27 53 28 72 29 54 30 57 31 71 32 90 33
REMARK SMILES IDX 55 34 56 35 70 37 91 38 58 39 42 40 43 41 51 42 44 43 50 44
REMARK SMILES IDX 52 45 49 46 45 47 46 48 47 49 48 50 74 51 75 52 83 53 76 54
REMARK SMILES IDX 82 55 84 56 81 57 77 58 78 59 79 60 80 61 59 62 60 63 68 64
REMARK SMILES IDX 61 65 67 66 69 67 66 68 62 69 63 70 64 71 65 72 8 73 9 74
REMARK SMILES IDX 10 75 11 76 12 77 13 78 14 79 15 80 16 81 32 82 17 83 18 84
REMARK SMILES IDX 19 85 20 86 21 89 22 90 31 91 23 92 25 93 30 94 24 95 26 96
REMARK SMILES IDX 28 97 27 98 29 99
REMARK H PARENT 89 25 57 36 20 87 20 88
REMARK Flexibility Score: inf
ROOT
ATOM      1  C   UNL A   1      33.191  28.652  25.332  1.00  0.00     0.188 C 
ENDROOT
BRANCH   1   2
ATOM      2  O   UNL A   1      32.990  30.043  25.615  1.00  0.00    -0.376 OA
BRANCH   2   3
ATOM      3  C   UNL A   1      31.621  30.450  25.514  1.00  0.00     0.202 C 
BRANCH   3   4
ATOM      4  C   UNL A   1      31.188  31.509  26.530  1.00  0.00     0.261 C 
BRANCH   4   5
ATOM      5  O   UNL A   1      32.026  32.667  26.535  1.00  0.00    -0.460 OA
BRANCH   5   6
ATOM      6  C   UNL A   1      32.865  33.103  27.503  1.00  0.00     0.338 C 
ATOM      7  O   UNL A   1      32.613  34.207  27.994  1.00  0.00    -0.246 OA
BRANCH   6   8
ATOM      8  C   UNL A   1      34.097  32.386  27.997  1.00  0.00     0.060 A 
ATOM      9  C   UNL A   1      35.230  33.198  28.178  1.00  0.00     0.016 A 
ATOM     10  C   UNL A   1      34.239  31.029  28.311  1.00  0.00     0.016 A 
ATOM     11  C   UNL A   1      36.426  32.679  28.680  1.00  0.00     0.010 A 
ATOM     12  C   UNL A   1      35.434  30.511  28.838  1.00  0.00     0.010 A 
ATOM     13  C   UNL A   1      36.533  31.337  29.046  1.00  0.00    -0.014 A 
BRANCH  13  14
ATOM     14  C   UNL A   1      37.721  30.850  29.787  1.00  0.00     0.031 A 
ATOM     15  C   UNL A   1      38.065  31.357  31.152  1.00  0.00     0.074 A 
ATOM     16  C   UNL A   1      38.521  29.952  29.182  1.00  0.00     0.049 A 
ATOM     17  N   UNL A   1      38.979  30.916  31.975  1.00  0.00    -0.248 NA
ATOM     18  C   UNL A   1      37.281  32.485  31.668  1.00  0.00     0.031 C 
ATOM     19  C   UNL A   1      38.309  29.423  27.834  1.00  0.00     0.029 A 
ATOM     20  N   UNL A   1      39.677  29.344  29.603  1.00  0.00    -0.354 N 
ATOM     21  C   UNL A   1      38.837  31.667  33.134  1.00  0.00     0.074 A 
ATOM     22  C   UNL A   1      37.793  32.635  32.885  1.00  0.00     0.031 C 
ATOM     23  C   UNL A   1      39.310  28.585  27.532  1.00  0.00     0.029 A 
ATOM     24  C   UNL A   1      40.243  28.525  28.655  1.00  0.00     0.049 A 
ATOM     25  H   UNL A   1      40.063  29.481  30.498  1.00  0.00     0.167 HD
ATOM     26  C   UNL A   1      39.507  31.539  34.304  1.00  0.00     0.034 A 
ATOM     27  C   UNL A   1      41.384  27.806  28.681  1.00  0.00     0.034 A 
ATOM     28  C   UNL A   1      40.608  30.637  34.503  1.00  0.00     0.049 A 
ATOM     29  C   UNL A   1      42.181  27.761  29.958  1.00  0.00     0.074 A 
ATOM     30  C   UNL A   1      41.335  30.420  35.660  1.00  0.00     0.029 A 
ATOM     31  N   UNL A   1      41.169  29.835  33.520  1.00  0.00    -0.354 N 
ATOM     32  N   UNL A   1      41.925  28.343  31.108  1.00  0.00    -0.248 NA
ATOM     33  C   UNL A   1      43.404  26.947  29.963  1.00  0.00     0.031 C 
ATOM     34  C   UNL A   1      42.377  29.542  35.359  1.00  0.00     0.029 A 
ATOM     35  C   UNL A   1      42.263  29.157  34.032  1.00  0.00     0.049 A 
ATOM     36  H   UNL A   1      40.838  29.760  32.596  1.00  0.00     0.167 HD
ATOM     37  C   UNL A   1      42.928  27.932  31.981  1.00  0.00     0.074 A 
ATOM     38  C   UNL A   1      43.793  27.046  31.228  1.00  0.00     0.031 C 
ATOM     39  C   UNL A   1      43.108  28.256  33.285  1.00  0.00     0.034 A 
BRANCH  26  40
ATOM     40  C   UNL A   1      39.053  32.349  35.487  1.00  0.00     0.023 A 
ATOM     41  C   UNL A   1      39.543  33.648  35.709  1.00  0.00     0.031 A 
ATOM     42  C   UNL A   1      38.262  31.752  36.485  1.00  0.00     0.131 A 
ATOM     43  C   UNL A   1      39.256  34.298  36.916  1.00  0.00     0.055 A 
ATOM     44  C   UNL A   1      37.950  32.416  37.670  1.00  0.00     0.041 A 
ATOM     45  F   UNL A   1      37.813  30.496  36.331  1.00  0.00    -0.206 F 
ATOM     46  C   UNL A   1      38.456  33.693  37.895  1.00  0.00     0.022 A 
BRANCH  43  47
ATOM     47  S   UNL A   1      39.957  35.926  37.296  1.00  0.00     0.124 S 
ATOM     48  O   UNL A   1      39.160  36.338  38.451  1.00  0.00    -0.237 OA
ATOM     49  O   UNL A   1      41.351  35.600  37.585  1.00  0.00    -0.237 OA
ATOM     50  O   UNL A   1      39.727  36.699  36.081  1.00  0.00    -0.744 OA
ENDBRANCH  43  47
ENDBRANCH  26  40
BRANCH  27  51
ATOM     51  C   UNL A   1      41.770  27.023  27.471  1.00  0.00     0.023 A 
ATOM     52  C   UNL A   1      41.561  25.632  27.414  1.00  0.00     0.031 A 
ATOM     53  C   UNL A   1      42.460  27.631  26.410  1.00  0.00     0.131 A 
ATOM     54  C   UNL A   1      42.095  24.887  26.354  1.00  0.00     0.055 A 
ATOM     55  C   UNL A   1      42.936  26.894  25.324  1.00  0.00     0.041 A 
ATOM     56  F   UNL A   1      42.695  28.952  26.425  1.00  0.00    -0.206 F 
ATOM     57  C   UNL A   1      42.770  25.513  25.301  1.00  0.00     0.022 A 
BRANCH  54  58
ATOM     58  S   UNL A   1      42.057  23.072  26.380  1.00  0.00     0.124 S 
ATOM     59  O   UNL A   1      42.886  22.770  27.543  1.00  0.00    -0.237 OA
ATOM     60  O   UNL A   1      40.630  22.800  26.536  1.00  0.00    -0.237 OA
ATOM     61  O   UNL A   1      42.620  22.696  25.087  1.00  0.00    -0.744 OA
ENDBRANCH  54  58
ENDBRANCH  27  51
BRANCH  39  62
ATOM     62  C   UNL A   1      44.275  27.656  34.031  1.00  0.00     0.023 A 
ATOM     63  C   UNL A   1      44.107  26.443  34.729  1.00  0.00     0.031 A 
ATOM     64  C   UNL A   1      45.478  28.359  34.197  1.00  0.00     0.131 A 
ATOM     65  C   UNL A   1      45.107  25.998  35.602  1.00  0.00     0.055 A 
ATOM     66  C   UNL A   1      46.493  27.886  35.031  1.00  0.00     0.041 A 
ATOM     67  F   UNL A   1      45.679  29.525  33.562  1.00  0.00    -0.206 F 
ATOM     68  C   UNL A   1      46.301  26.711  35.751  1.00  0.00     0.022 A 
BRANCH  65  69
ATOM     69  S   UNL A   1      44.848  24.543  36.654  1.00  0.00     0.124 S 
ATOM     70  O   UNL A   1      43.760  23.859  35.961  1.00  0.00    -0.237 OA
ATOM     71  O   UNL A   1      46.147  23.879  36.586  1.00  0.00    -0.237 OA
ATOM     72  O   UNL A   1      44.501  25.105  37.956  1.00  0.00    -0.744 OA
ENDBRANCH  65  69
ENDBRANCH  39  62
ENDBRANCH  13  14
ENDBRANCH   6   8
ENDBRANCH   5   6
ENDBRANCH   4   5
ENDBRANCH   3   4
ENDBRANCH   2   3
ENDBRANCH   1   2
BRANCH   1  73
ATOM     73  C   UNL A   1      33.650  28.404  23.890  1.00  0.00     0.188 C 
BRANCH  73  74
ATOM     74  O   UNL A   1      33.061  27.279  23.233  1.00  0.00    -0.376 OA
BRANCH  74  75
ATOM     75  C   UNL A   1      31.696  27.403  22.841  1.00  0.00     0.202 C 
BRANCH  75  76
ATOM     76  C   UNL A   1      30.643  26.903  23.835  1.00  0.00     0.261 C 
BRANCH  76  77
ATOM     77  O   UNL A   1      30.947  25.616  24.400  1.00  0.00    -0.460 OA
BRANCH  77  78
ATOM     78  C   UNL A   1      31.066  25.616  25.764  1.00  0.00     0.339 C 
ATOM     79  O   UNL A   1      30.373  26.300  26.507  1.00  0.00    -0.246 OA
BRANCH  78  80
ATOM     80  C   UNL A   1      32.094  24.709  26.284  1.00  0.00     0.071 A 
ATOM     81  C   UNL A   1      31.719  23.603  27.026  1.00  0.00     0.081 A 
ATOM     82  C   UNL A   1      33.529  24.733  26.121  1.00  0.00     0.037 A 
ATOM     83  S   UNL A   1      33.016  22.579  27.415  1.00  0.00    -0.142 S 
ATOM     84  C   UNL A   1      34.163  23.624  26.672  1.00  0.00     0.060 A 
BRANCH  84  85
ATOM     85  C   UNL A   1      35.621  23.202  26.612  1.00  0.00     0.308 C 
BRANCH  85  86
ATOM     86  N   UNL A   1      36.069  22.995  25.239  1.00  0.00    -0.336 N 
ATOM     87  H   UNL A   1      37.077  22.851  25.270  1.00  0.00     0.347 HD
ATOM     88  H   UNL A   1      35.745  23.828  24.747  1.00  0.00     0.347 HD
BRANCH  86  89
ATOM     89  C   UNL A   1      35.496  21.881  24.465  1.00  0.00     0.215 C 
ATOM     90  C   UNL A   1      35.574  20.556  25.256  1.00  0.00     0.081 C 
ATOM     91  C   UNL A   1      34.171  22.199  23.782  1.00  0.00     0.026 A 
ATOM     92  C   UNL A   1      34.709  19.463  24.661  1.00  0.00     0.081 C 
ATOM     93  C   UNL A   1      32.995  21.450  23.981  1.00  0.00     0.017 A 
ATOM     94  C   UNL A   1      34.135  23.227  22.819  1.00  0.00     0.050 A 
ATOM     95  S   UNL A   1      32.973  19.930  24.913  1.00  0.00    -0.125 SA
ATOM     96  C   UNL A   1      31.796  21.824  23.351  1.00  0.00     0.018 A 
ATOM     97  C   UNL A   1      32.945  23.568  22.182  1.00  0.00     0.123 A 
ATOM     98  C   UNL A   1      31.768  22.894  22.461  1.00  0.00     0.040 A 
ATOM     99  F   UNL A   1      32.929  24.571  21.297  1.00  0.00    -0.207 F 
ENDBRANCH  86  89
ENDBRANCH  85  86
ENDBRANCH  84  85
ENDBRANCH  78  80
ENDBRANCH  77  78
ENDBRANCH  76  77
ENDBRANCH  75  76
ENDBRANCH  74  75
ENDBRANCH  73  74
ENDBRANCH   1  73
TORSDOF 23
ENDMDL
MODEL 2
REMARK VINA RESULT:     -10.1      1.918      7.680
REMARK SMILES O=C(OCCOCCOCCOC(=O)c1csc(C[NH2+][C@H]2CCSc3ccc(F)cc32)c1)c1ccc(-c2c3nc(c(-c4cc(S(=O)(=O)[O-])ccc4F)c4ccc([nH]4)c(-c4cc(S(=O)(=O)[O-])ccc4F)c4nc(c(-c5cc(S(=O)(=O)[O-])ccc5F)c5ccc2[nH]5)C=C4)C=C3)cc1
REMARK SMILES IDX 7 1 6 2 5 3 4 4 3 5 2 6 1 7 33 8 34 9 95 10 35 11 94 12
REMARK SMILES IDX 36 13 37 14 38 15 88 16 39 17 93 18 87 19 89 20 40 21 92 22
REMARK SMILES IDX 86 23 85 24 41 26 73 27 53 28 72 29 54 30 57 31 71 32 90 33
REMARK SMILES IDX 55 34 56 35 70 37 91 38 58 39 42 40 43 41 51 42 44 43 50 44
REMARK SMILES IDX 52 45 49 46 45 47 46 48 47 49 48 50 74 51 75 52 83 53 76 54
REMARK SMILES IDX 82 55 84 56 81 57 77 58 78 59 79 60 80 61 59 62 60 63 68 64
REMARK SMILES IDX 61 65 67 66 69 67 66 68 62 69 63 70 64 71 65 72 8 73 9 74
REMARK SMILES IDX 10 75 11 76 12 77 13 78 14 79 15 80 16 81 32 82 17 83 18 84
REMARK SMILES IDX 19 85 20 86 21 89 22 90 31 91 23 92 25 93 30 94 24 95 26 96
REMARK SMILES IDX 28 97 27 98 29 99
REMARK H PARENT 89 25 57 36 20 87 20 88
REMARK Flexibility Score: inf
ROOT
ATOM      1  C   UNL A   1      33.577  28.739  25.747  1.00  0.00     0.188 C 
ENDROOT
BRANCH   1   2
ATOM      2  O   UNL A   1      33.080  30.084  25.704  1.00  0.00    -0.376 OA
BRANCH   2   3
ATOM      3  C   UNL A   1      31.810  30.240  26.346  1.00  0.00     0.202 C 
BRANCH   3   4
ATOM      4  C   UNL A   1      31.528  31.644  26.882  1.00  0.00     0.261 C 
BRANCH   4   5
ATOM      5  O   UNL A   1      32.636  32.537  26.744  1.00  0.00    -0.460 OA
BRANCH   5   6
ATOM      6  C   UNL A   1      33.535  32.925  27.678  1.00  0.00     0.338 C 
ATOM      7  O   UNL A   1      33.395  34.060  28.140  1.00  0.00    -0.246 OA
BRANCH   6   8
ATOM      8  C   UNL A   1      34.712  32.115  28.165  1.00  0.00     0.060 A 
ATOM      9  C   UNL A   1      35.938  32.800  28.194  1.00  0.00     0.016 A 
ATOM     10  C   UNL A   1      34.723  30.785  28.603  1.00  0.00     0.016 A 
ATOM     11  C   UNL A   1      37.101  32.191  28.672  1.00  0.00     0.010 A 
ATOM     12  C   UNL A   1      35.887  30.179  29.105  1.00  0.00     0.010 A 
ATOM     13  C   UNL A   1      37.084  30.886  29.163  1.00  0.00    -0.014 A 
BRANCH  13  14
ATOM     14  C   UNL A   1      38.259  30.332  29.875  1.00  0.00     0.031 A 
ATOM     15  C   UNL A   1      39.080  29.220  29.302  1.00  0.00     0.074 A 
ATOM     16  C   UNL A   1      38.560  30.832  31.088  1.00  0.00     0.049 A 
ATOM     17  N   UNL A   1      40.214  28.740  29.737  1.00  0.00    -0.248 NA
ATOM     18  C   UNL A   1      38.579  28.574  28.082  1.00  0.00     0.031 C 
ATOM     19  C   UNL A   1      37.802  31.885  31.765  1.00  0.00     0.029 A 
ATOM     20  N   UNL A   1      39.558  30.514  31.974  1.00  0.00    -0.354 N 
ATOM     21  C   UNL A   1      40.600  27.782  28.808  1.00  0.00     0.074 A 
ATOM     22  C   UNL A   1      39.547  27.702  27.822  1.00  0.00     0.031 C 
ATOM     23  C   UNL A   1      38.350  32.113  32.967  1.00  0.00     0.029 A 
ATOM     24  C   UNL A   1      39.489  31.216  33.155  1.00  0.00     0.049 A 
ATOM     25  H   UNL A   1      40.257  29.847  31.783  1.00  0.00     0.167 HD
ATOM     26  C   UNL A   1      41.742  27.055  28.779  1.00  0.00     0.034 A 
ATOM     27  C   UNL A   1      40.252  31.150  34.265  1.00  0.00     0.034 A 
ATOM     28  C   UNL A   1      42.734  27.076  29.820  1.00  0.00     0.049 A 
ATOM     29  C   UNL A   1      41.460  30.250  34.258  1.00  0.00     0.074 A 
ATOM     30  C   UNL A   1      43.935  26.391  29.867  1.00  0.00     0.029 A 
ATOM     31  N   UNL A   1      42.627  27.782  31.008  1.00  0.00    -0.354 N 
ATOM     32  N   UNL A   1      41.908  29.482  33.291  1.00  0.00    -0.248 NA
ATOM     33  C   UNL A   1      42.286  30.220  35.473  1.00  0.00     0.031 C 
ATOM     34  C   UNL A   1      44.519  26.627  31.113  1.00  0.00     0.029 A 
ATOM     35  C   UNL A   1      43.717  27.512  31.817  1.00  0.00     0.049 A 
ATOM     36  H   UNL A   1      41.884  28.385  31.242  1.00  0.00     0.167 HD
ATOM     37  C   UNL A   1      43.087  28.913  33.764  1.00  0.00     0.074 A 
ATOM     38  C   UNL A   1      43.286  29.431  35.103  1.00  0.00     0.031 C 
ATOM     39  C   UNL A   1      43.926  28.049  33.141  1.00  0.00     0.034 A 
BRANCH  26  40
ATOM     40  C   UNL A   1      42.025  26.206  27.570  1.00  0.00     0.023 A 
ATOM     41  C   UNL A   1      41.849  24.812  27.605  1.00  0.00     0.031 A 
ATOM     42  C   UNL A   1      42.636  26.776  26.439  1.00  0.00     0.131 A 
ATOM     43  C   UNL A   1      42.305  24.031  26.535  1.00  0.00     0.055 A 
ATOM     44  C   UNL A   1      43.056  25.998  25.361  1.00  0.00     0.041 A 
ATOM     45  F   UNL A   1      42.863  28.099  26.388  1.00  0.00    -0.206 F 
ATOM     46  C   UNL A   1      42.901  24.616  25.411  1.00  0.00     0.022 A 
BRANCH  43  47
ATOM     47  S   UNL A   1      42.204  22.221  26.583  1.00  0.00     0.124 S 
ATOM     48  O   UNL A   1      41.013  21.963  25.774  1.00  0.00    -0.237 OA
ATOM     49  O   UNL A   1      43.470  21.826  25.972  1.00  0.00    -0.237 OA
ATOM     50  O   UNL A   1      42.064  21.915  28.002  1.00  0.00    -0.744 OA
ENDBRANCH  43  47
ENDBRANCH  26  40
BRANCH  27  51
ATOM     51  C   UNL A   1      39.913  32.025  35.425  1.00  0.00     0.023 A 
ATOM     52  C   UNL A   1      39.088  31.557  36.465  1.00  0.00     0.031 A 
ATOM     53  C   UNL A   1      40.307  33.372  35.449  1.00  0.00     0.131 A 
ATOM     54  C   UNL A   1      38.630  32.445  37.448  1.00  0.00     0.055 A 
ATOM     55  C   UNL A   1      39.900  34.239  36.465  1.00  0.00     0.041 A 
ATOM     56  F   UNL A   1      41.082  33.868  34.472  1.00  0.00    -0.206 F 
ATOM     57  C   UNL A   1      39.043  33.781  37.461  1.00  0.00     0.022 A 
BRANCH  54  58
ATOM     58  S   UNL A   1      37.373  31.931  38.653  1.00  0.00     0.124 S 
ATOM     59  O   UNL A   1      36.334  32.935  38.452  1.00  0.00    -0.237 OA
ATOM     60  O   UNL A   1      37.045  30.584  38.193  1.00  0.00    -0.237 OA
ATOM     61  O   UNL A   1      38.075  31.992  39.931  1.00  0.00    -0.744 OA
ENDBRANCH  54  58
ENDBRANCH  27  51
BRANCH  39  62
ATOM     62  C   UNL A   1      45.167  27.588  33.866  1.00  0.00     0.023 A 
ATOM     63  C   UNL A   1      45.102  26.466  34.716  1.00  0.00     0.031 A 
ATOM     64  C   UNL A   1      46.346  28.349  33.855  1.00  0.00     0.131 A 
ATOM     65  C   UNL A   1      46.179  26.170  35.561  1.00  0.00     0.055 A 
ATOM     66  C   UNL A   1      47.436  28.020  34.663  1.00  0.00     0.041 A 
ATOM     67  F   UNL A   1      46.451  29.434  33.070  1.00  0.00    -0.206 F 
ATOM     68  C   UNL A   1      47.347  26.937  35.533  1.00  0.00     0.022 A 
BRANCH  65  69
ATOM     69  S   UNL A   1      46.059  24.849  36.798  1.00  0.00     0.124 S 
ATOM     70  O   UNL A   1      45.822  23.674  35.963  1.00  0.00    -0.237 OA
ATOM     71  O   UNL A   1      47.371  24.905  37.437  1.00  0.00    -0.237 OA
ATOM     72  O   UNL A   1      44.936  25.252  37.638  1.00  0.00    -0.744 OA
ENDBRANCH  65  69
ENDBRANCH  39  62
ENDBRANCH  13  14
ENDBRANCH   6   8
ENDBRANCH   5   6
ENDBRANCH   4   5
ENDBRANCH   3   4
ENDBRANCH   2   3
ENDBRANCH   1   2
BRANCH   1  73
ATOM     73  C   UNL A   1      33.886  28.180  24.353  1.00  0.00     0.188 C 
BRANCH  73  74
ATOM     74  O   UNL A   1      32.752  27.810  23.564  1.00  0.00    -0.376 OA
BRANCH  74  75
ATOM     75  C   UNL A   1      32.225  28.804  22.688  1.00  0.00     0.202 C 
BRANCH  75  76
ATOM     76  C   UNL A   1      30.768  29.221  22.913  1.00  0.00     0.261 C 
BRANCH  76  77
ATOM     77  O   UNL A   1      29.813  28.339  22.297  1.00  0.00    -0.460 OA
BRANCH  77  78
ATOM     78  C   UNL A   1      29.064  27.615  23.184  1.00  0.00     0.339 C 
ATOM     79  O   UNL A   1      27.883  27.840  23.419  1.00  0.00    -0.246 OA
BRANCH  78  80
ATOM     80  C   UNL A   1      29.785  26.517  23.835  1.00  0.00     0.071 A 
ATOM     81  C   UNL A   1      30.155  25.407  23.098  1.00  0.00     0.081 A 
ATOM     82  C   UNL A   1      30.253  26.386  25.197  1.00  0.00     0.037 A 
ATOM     83  S   UNL A   1      31.115  24.308  23.965  1.00  0.00    -0.142 S 
ATOM     84  C   UNL A   1      31.009  25.237  25.408  1.00  0.00     0.060 A 
BRANCH  84  85
ATOM     85  C   UNL A   1      31.781  24.789  26.637  1.00  0.00     0.308 C 
BRANCH  85  86
ATOM     86  N   UNL A   1      33.186  24.541  26.334  1.00  0.00    -0.336 N 
ATOM     87  H   UNL A   1      33.731  25.224  26.859  1.00  0.00     0.347 HD
ATOM     88  H   UNL A   1      33.233  24.609  25.317  1.00  0.00     0.347 HD
BRANCH  86  89
ATOM     89  C   UNL A   1      33.754  23.215  26.629  1.00  0.00     0.215 C 
ATOM     90  C   UNL A   1      32.668  22.118  26.562  1.00  0.00     0.081 C 
ATOM     91  C   UNL A   1      35.074  22.922  25.928  1.00  0.00     0.026 A 
ATOM     92  C   UNL A   1      33.248  20.718  26.522  1.00  0.00     0.081 C 
ATOM     93  C   UNL A   1      35.281  21.805  25.096  1.00  0.00     0.017 A 
ATOM     94  C   UNL A   1      36.185  23.745  26.202  1.00  0.00     0.050 A 
ATOM     95  S   UNL A   1      34.073  20.504  24.919  1.00  0.00    -0.125 SA
ATOM     96  C   UNL A   1      36.513  21.617  24.446  1.00  0.00     0.018 A 
ATOM     97  C   UNL A   1      37.408  23.529  25.572  1.00  0.00     0.123 A 
ATOM     98  C   UNL A   1      37.574  22.489  24.674  1.00  0.00     0.040 A 
ATOM     99  F   UNL A   1      38.437  24.345  25.824  1.00  0.00    -0.207 F 
ENDBRANCH  86  89
ENDBRANCH  85  86
ENDBRANCH  84  85
ENDBRANCH  78  80
ENDBRANCH  77  78
ENDBRANCH  76  77
ENDBRANCH  75  76
ENDBRANCH  74  75
ENDBRANCH  73  74
ENDBRANCH   1  73
TORSDOF 23
ENDMDL
MODEL 3
REMARK VINA RESULT:      -9.8      2.925      8.304
REMARK SMILES O=C(OCCOCCOCCOC(=O)c1csc(C[NH2+][C@H]2CCSc3ccc(F)cc32)c1)c1ccc(-c2c3nc(c(-c4cc(S(=O)(=O)[O-])ccc4F)c4ccc([nH]4)c(-c4cc(S(=O)(=O)[O-])ccc4F)c4nc(c(-c5cc(S(=O)(=O)[O-])ccc5F)c5ccc2[nH]5)C=C4)C=C3)cc1
REMARK SMILES IDX 7 1 6 2 5 3 4 4 3 5 2 6 1 7 33 8 34 9 95 10 35 11 94 12
REMARK SMILES IDX 36 13 37 14 38 15 88 16 39 17 93 18 87 19 89 20 40 21 92 22
REMARK SMILES IDX 86 23 85 24 41 26 73 27 53 28 72 29 54 30 57 31 71 32 90 33
REMARK SMILES IDX 55 34 56 35 70 37 91 38 58 39 42 40 43 41 51 42 44 43 50 44
REMARK SMILES IDX 52 45 49 46 45 47 46 48 47 49 48 50 74 51 75 52 83 53 76 54
REMARK SMILES IDX 82 55 84 56 81 57 77 58 78 59 79 60 80 61 59 62 60 63 68 64
REMARK SMILES IDX 61 65 67 66 69 67 66 68 62 69 63 70 64 71 65 72 8 73 9 74
REMARK SMILES IDX 10 75 11 76 12 77 13 78 14 79 15 80 16 81 32 82 17 83 18 84
REMARK SMILES IDX 19 85 20 86 21 89 22 90 31 91 23 92 25 93 30 94 24 95 26 96
REMARK SMILES IDX 28 97 27 98 29 99
REMARK H PARENT 89 25 57 36 20 87 20 88
REMARK Flexibility Score: inf
ROOT
ATOM      1  C   UNL A   1      34.531  33.139  29.539  1.00  0.00     0.188 C 
ENDROOT
BRANCH   1   2
ATOM      2  O   UNL A   1      34.347  34.454  28.996  1.00  0.00    -0.376 OA
BRANCH   2   3
ATOM      3  C   UNL A   1      33.016  34.955  29.160  1.00  0.00     0.202 C 
BRANCH   3   4
ATOM      4  C   UNL A   1      32.927  36.368  29.736  1.00  0.00     0.261 C 
BRANCH   4   5
ATOM      5  O   UNL A   1      32.334  36.415  31.036  1.00  0.00    -0.460 OA
BRANCH   5   6
ATOM      6  C   UNL A   1      32.910  36.196  32.241  1.00  0.00     0.338 C 
ATOM      7  O   UNL A   1      32.536  36.916  33.170  1.00  0.00    -0.246 OA
BRANCH   6   8
ATOM      8  C   UNL A   1      33.995  35.189  32.534  1.00  0.00     0.060 A 
ATOM      9  C   UNL A   1      35.293  35.583  32.168  1.00  0.00     0.016 A 
ATOM     10  C   UNL A   1      33.865  33.931  33.136  1.00  0.00     0.016 A 
ATOM     11  C   UNL A   1      36.401  34.773  32.428  1.00  0.00     0.010 A 
ATOM     12  C   UNL A   1      34.981  33.126  33.419  1.00  0.00     0.010 A 
ATOM     13  C   UNL A   1      36.264  33.550  33.084  1.00  0.00    -0.014 A 
BRANCH  13  14
ATOM     14  C   UNL A   1      37.457  32.810  33.558  1.00  0.00     0.031 A 
ATOM     15  C   UNL A   1      37.963  31.591  32.854  1.00  0.00     0.074 A 
ATOM     16  C   UNL A   1      38.068  33.242  34.678  1.00  0.00     0.049 A 
ATOM     17  N   UNL A   1      39.073  30.934  33.064  1.00  0.00    -0.248 NA
ATOM     18  C   UNL A   1      37.134  31.047  31.771  1.00  0.00     0.031 C 
ATOM     19  C   UNL A   1      37.634  34.391  35.472  1.00  0.00     0.029 A 
ATOM     20  N   UNL A   1      39.161  32.761  35.352  1.00  0.00    -0.354 N 
ATOM     21  C   UNL A   1      39.111  29.939  32.095  1.00  0.00     0.074 A 
ATOM     22  C   UNL A   1      37.882  30.037  31.341  1.00  0.00     0.031 C 
ATOM     23  C   UNL A   1      38.440  34.516  36.536  1.00  0.00     0.029 A 
ATOM     24  C   UNL A   1      39.439  33.450  36.510  1.00  0.00     0.049 A 
ATOM     25  H   UNL A   1      39.695  31.995  35.039  1.00  0.00     0.167 HD
ATOM     26  C   UNL A   1      40.097  29.043  31.853  1.00  0.00     0.034 A 
ATOM     27  C   UNL A   1      40.389  33.251  37.446  1.00  0.00     0.034 A 
ATOM     28  C   UNL A   1      41.267  28.896  32.674  1.00  0.00     0.049 A 
ATOM     29  C   UNL A   1      41.416  32.173  37.217  1.00  0.00     0.074 A 
ATOM     30  C   UNL A   1      42.333  28.031  32.494  1.00  0.00     0.029 A 
ATOM     31  N   UNL A   1      41.511  29.595  33.847  1.00  0.00    -0.354 N 
ATOM     32  N   UNL A   1      41.537  31.357  36.195  1.00  0.00    -0.248 NA
ATOM     33  C   UNL A   1      42.453  32.000  38.243  1.00  0.00     0.031 C 
ATOM     34  C   UNL A   1      43.183  28.157  33.594  1.00  0.00     0.029 A 
ATOM     35  C   UNL A   1      42.686  29.148  34.427  1.00  0.00     0.049 A 
ATOM     36  H   UNL A   1      40.933  30.303  34.212  1.00  0.00     0.167 HD
ATOM     37  C   UNL A   1      42.683  30.605  36.434  1.00  0.00     0.074 A 
ATOM     38  C   UNL A   1      43.224  31.068  37.695  1.00  0.00     0.031 C 
ATOM     39  C   UNL A   1      43.236  29.628  35.673  1.00  0.00     0.034 A 
BRANCH  26  40
ATOM     40  C   UNL A   1      39.997  28.176  30.628  1.00  0.00     0.023 A 
ATOM     41  C   UNL A   1      40.641  28.532  29.431  1.00  0.00     0.031 A 
ATOM     42  C   UNL A   1      39.112  27.082  30.613  1.00  0.00     0.131 A 
ATOM     43  C   UNL A   1      40.370  27.813  28.259  1.00  0.00     0.055 A 
ATOM     44  C   UNL A   1      38.872  26.348  29.453  1.00  0.00     0.041 A 
ATOM     45  F   UNL A   1      38.442  26.739  31.725  1.00  0.00    -0.206 F 
ATOM     46  C   UNL A   1      39.495  26.719  28.265  1.00  0.00     0.022 A 
BRANCH  43  47
ATOM     47  S   UNL A   1      41.089  28.304  26.668  1.00  0.00     0.124 S 
ATOM     48  O   UNL A   1      41.136  27.030  25.952  1.00  0.00    -0.237 OA
ATOM     49  O   UNL A   1      40.107  29.263  26.171  1.00  0.00    -0.237 OA
ATOM     50  O   UNL A   1      42.389  28.858  27.028  1.00  0.00    -0.744 OA
ENDBRANCH  43  47
ENDBRANCH  26  40
BRANCH  27  51
ATOM     51  C   UNL A   1      40.430  34.153  38.634  1.00  0.00     0.023 A 
ATOM     52  C   UNL A   1      41.192  35.337  38.615  1.00  0.00     0.031 A 
ATOM     53  C   UNL A   1      39.810  33.786  39.839  1.00  0.00     0.131 A 
ATOM     54  C   UNL A   1      41.368  36.074  39.794  1.00  0.00     0.055 A 
ATOM     55  C   UNL A   1      39.937  34.557  40.996  1.00  0.00     0.041 A 
ATOM     56  F   UNL A   1      39.085  32.659  39.910  1.00  0.00    -0.206 F 
ATOM     57  C   UNL A   1      40.734  35.698  40.982  1.00  0.00     0.022 A 
BRANCH  54  58
ATOM     58  S   UNL A   1      42.541  37.459  39.858  1.00  0.00     0.124 S 
ATOM     59  O   UNL A   1      42.879  37.633  38.449  1.00  0.00    -0.237 OA
ATOM     60  O   UNL A   1      41.726  38.519  40.446  1.00  0.00    -0.237 OA
ATOM     61  O   UNL A   1      43.616  36.962  40.710  1.00  0.00    -0.744 OA
ENDBRANCH  54  58
ENDBRANCH  27  51
BRANCH  39  62
ATOM     62  C   UNL A   1      44.509  28.970  36.144  1.00  0.00     0.023 A 
ATOM     63  C   UNL A   1      44.441  27.832  36.972  1.00  0.00     0.031 A 
ATOM     64  C   UNL A   1      45.764  29.561  35.925  1.00  0.00     0.131 A 
ATOM     65  C   UNL A   1      45.601  27.354  37.595  1.00  0.00     0.055 A 
ATOM     66  C   UNL A   1      46.925  29.051  36.508  1.00  0.00     0.041 A 
ATOM     67  F   UNL A   1      45.877  30.654  35.152  1.00  0.00    -0.206 F 
ATOM     68  C   UNL A   1      46.842  27.954  37.361  1.00  0.00     0.022 A 
BRANCH  65  69
ATOM     69  S   UNL A   1      45.522  26.011  38.811  1.00  0.00     0.124 S 
ATOM     70  O   UNL A   1      44.394  25.224  38.318  1.00  0.00    -0.237 OA
ATOM     71  O   UNL A   1      46.832  25.383  38.662  1.00  0.00    -0.237 OA
ATOM     72  O   UNL A   1      45.296  26.695  40.080  1.00  0.00    -0.744 OA
ENDBRANCH  65  69
ENDBRANCH  39  62
ENDBRANCH  13  14
ENDBRANCH   6   8
ENDBRANCH   5   6
ENDBRANCH   4   5
ENDBRANCH   3   4
ENDBRANCH   2   3
ENDBRANCH   1   2
BRANCH   1  73
ATOM     73  C   UNL A   1      35.300  32.212  28.590  1.00  0.00     0.188 C 
BRANCH  73  74
ATOM     74  O   UNL A   1      34.620  31.015  28.202  1.00  0.00    -0.376 OA
BRANCH  74  75
ATOM     75  C   UNL A   1      33.661  31.129  27.153  1.00  0.00     0.202 C 
BRANCH  75  76
ATOM     76  C   UNL A   1      32.449  30.195  27.221  1.00  0.00     0.261 C 
BRANCH  76  77
ATOM     77  O   UNL A   1      32.706  28.876  26.706  1.00  0.00    -0.460 OA
BRANCH  77  78
ATOM     78  C   UNL A   1      31.694  27.981  26.924  1.00  0.00     0.339 C 
ATOM     79  O   UNL A   1      31.139  27.833  28.007  1.00  0.00    -0.246 OA
BRANCH  78  80
ATOM     80  C   UNL A   1      31.302  27.207  25.743  1.00  0.00     0.071 A 
ATOM     81  C   UNL A   1      31.044  27.859  24.551  1.00  0.00     0.081 A 
ATOM     82  C   UNL A   1      31.163  25.779  25.567  1.00  0.00     0.037 A 
ATOM     83  S   UNL A   1      30.759  26.804  23.252  1.00  0.00    -0.142 S 
ATOM     84  C   UNL A   1      30.886  25.413  24.254  1.00  0.00     0.060 A 
BRANCH  84  85
ATOM     85  C   UNL A   1      30.791  24.033  23.624  1.00  0.00     0.308 C 
BRANCH  85  86
ATOM     86  N   UNL A   1      31.843  23.815  22.638  1.00  0.00    -0.336 N 
ATOM     87  H   UNL A   1      31.995  24.703  22.159  1.00  0.00     0.347 HD
ATOM     88  H   UNL A   1      31.489  23.047  22.067  1.00  0.00     0.347 HD
BRANCH  86  89
ATOM     89  C   UNL A   1      33.159  23.340  23.096  1.00  0.00     0.215 C 
ATOM     90  C   UNL A   1      34.023  24.510  23.617  1.00  0.00     0.081 C 
ATOM     91  C   UNL A   1      33.114  22.082  23.954  1.00  0.00     0.026 A 
ATOM     92  C   UNL A   1      35.233  24.045  24.401  1.00  0.00     0.081 C 
ATOM     93  C   UNL A   1      33.664  22.004  25.249  1.00  0.00     0.017 A 
ATOM     94  C   UNL A   1      32.593  20.898  23.395  1.00  0.00     0.050 A 
ATOM     95  S   UNL A   1      34.641  23.317  25.956  1.00  0.00    -0.125 SA
ATOM     96  C   UNL A   1      33.550  20.823  26.002  1.00  0.00     0.018 A 
ATOM     97  C   UNL A   1      32.513  19.727  24.145  1.00  0.00     0.123 A 
ATOM     98  C   UNL A   1      32.961  19.687  25.454  1.00  0.00     0.040 A 
ATOM     99  F   UNL A   1      31.982  18.626  23.602  1.00  0.00    -0.207 F 
ENDBRANCH  86  89
ENDBRANCH  85  86
ENDBRANCH  84  85
ENDBRANCH  78  80
ENDBRANCH  77  78
ENDBRANCH  76  77
ENDBRANCH  75  76
ENDBRANCH  74  75
ENDBRANCH  73  74
ENDBRANCH   1  73
TORSDOF 23
ENDMDL
