MODEL 1
REMARK VINA RESULT:     -11.3      0.000      0.000
REMARK SMILES CCC(CC)(NC(=O)NC1CCC(C)(C)CC1)C(=O)OCCOCCOCCOC(=O)c1ccc(-c2c3nc(c(-c4cc(S(=O)(=O)[O-])ccc4F)c4ccc([nH]4)c(-c4cc(S(=O)(=O)[O-])ccc4F)c4nc(c(-c5cc(S(=O)(=O)[O-])ccc5F)c5ccc2[nH]5)C=C4)C=C3)cc1
REMARK SMILES IDX 25 1 24 2 23 3 22 4 21 5 20 6 18 7 19 8 3 9 2 10 1 11 4 12
REMARK SMILES IDX 5 13 6 14 7 15 8 17 9 18 10 20 11 21 17 22 12 23 16 24 13 25
REMARK SMILES IDX 14 26 15 27 26 28 27 29 28 30 29 31 30 32 31 33 32 34 33 35
REMARK SMILES IDX 94 36 34 37 93 38 35 39 36 40 37 41 87 42 38 43 92 44 86 45
REMARK SMILES IDX 88 46 39 47 91 48 85 49 84 50 40 52 72 53 52 54 71 55 53 56
REMARK SMILES IDX 56 57 70 58 89 59 54 60 55 61 69 63 90 64 57 65 41 66 42 67
REMARK SMILES IDX 50 68 43 69 49 70 51 71 48 72 44 73 45 74 46 75 47 76 73 77
REMARK SMILES IDX 74 78 82 79 75 80 81 81 83 82 80 83 76 84 77 85 78 86 79 87
REMARK SMILES IDX 58 88 59 89 67 90 60 91 66 92 68 93 65 94 61 95 62 96 63 97
REMARK SMILES IDX 64 98
REMARK H PARENT 6 16 9 19 88 51 56 62
REMARK Flexibility Score: inf
ROOT
ATOM      1  C   UNL A   1      41.642  19.543  27.211  1.00  0.00     0.188 C 
ENDROOT
BRANCH   1   2
ATOM      2  C   UNL A   1      41.101  20.962  27.399  1.00  0.00     0.188 C 
BRANCH   2   3
ATOM      3  O   UNL A   1      39.914  21.923  26.320  1.00  0.00    -0.376 OA
BRANCH   3   4
ATOM      4  C   UNL A   1      38.414  22.219  25.885  1.00  0.00     0.202 C 
BRANCH   4   5
ATOM      5  C   UNL A   1      37.494  21.575  24.687  1.00  0.00     0.261 C 
BRANCH   5   6
ATOM      6  O   UNL A   1      36.083  21.247  24.963  1.00  0.00    -0.461 OA
BRANCH   6   7
ATOM      7  C   UNL A   1      35.038  21.934  24.463  1.00  0.00     0.331 C 
ATOM      8  O   UNL A   1      35.192  23.010  23.897  1.00  0.00    -0.249 OA
BRANCH   7   9
ATOM      9  C   UNL A   1      33.620  21.233  24.746  1.00  0.00     0.139 C 
BRANCH   9  10
ATOM     10  C   UNL A   1      32.876  21.950  25.942  1.00  0.00     0.037 C 
ATOM     11  C   UNL A   1      33.397  21.819  27.358  1.00  0.00     0.007 C 
ENDBRANCH   9  10
BRANCH   9  12
ATOM     12  C   UNL A   1      34.020  19.770  25.104  1.00  0.00     0.037 C 
ATOM     13  C   UNL A   1      32.889  18.789  25.410  1.00  0.00     0.007 C 
ENDBRANCH   9  12
BRANCH   9  14
ATOM     14  N   UNL A   1      32.479  21.164  23.745  1.00  0.00    -0.322 N 
ATOM     15  C   UNL A   1      32.109  21.657  22.565  1.00  0.00     0.315 C 
ATOM     16  H   UNL A   1      31.785  20.551  24.079  1.00  0.00     0.166 HD
ATOM     17  O   UNL A   1      31.765  20.868  21.684  1.00  0.00    -0.249 OA
ATOM     18  N   UNL A   1      31.822  22.950  22.400  1.00  0.00    -0.335 N 
ATOM     19  H   UNL A   1      31.348  23.150  21.562  1.00  0.00     0.165 HD
BRANCH  18  20
ATOM     20  C   UNL A   1      32.079  24.117  23.227  1.00  0.00     0.083 C 
ATOM     21  C   UNL A   1      32.642  25.609  22.146  1.00  0.00     0.025 C 
ATOM     22  C   UNL A   1      30.778  24.451  24.721  1.00  0.00     0.025 C 
ATOM     23  C   UNL A   1      31.848  27.314  22.402  1.00  0.00     0.008 C 
ATOM     24  C   UNL A   1      30.114  26.254  25.008  1.00  0.00     0.008 C 
ATOM     25  C   UNL A   1      30.614  27.644  23.806  1.00  0.00    -0.035 C 
ATOM     26  C   UNL A   1      29.333  28.308  23.234  1.00  0.00     0.011 C 
ATOM     27  C   UNL A   1      31.266  28.755  24.662  1.00  0.00     0.011 C 
ENDBRANCH  18  20
ENDBRANCH   9  14
ENDBRANCH   7   9
ENDBRANCH   6   7
ENDBRANCH   5   6
ENDBRANCH   4   5
ENDBRANCH   3   4
ENDBRANCH   2   3
ENDBRANCH   1   2
BRANCH   1  28
ATOM     28  O   UNL A   1      42.843  19.201  26.578  1.00  0.00    -0.376 OA
BRANCH  28  29
ATOM     29  C   UNL A   1      43.172  20.153  25.558  1.00  0.00     0.202 C 
BRANCH  29  30
ATOM     30  C   UNL A   1      44.580  20.859  25.454  1.00  0.00     0.261 C 
BRANCH  30  31
ATOM     31  O   UNL A   1      44.808  22.183  26.015  1.00  0.00    -0.460 OA
BRANCH  31  32
ATOM     32  C   UNL A   1      44.531  23.276  25.250  1.00  0.00     0.338 C 
ATOM     33  O   UNL A   1      44.691  23.333  24.040  1.00  0.00    -0.246 OA
BRANCH  32  34
ATOM     34  C   UNL A   1      43.752  24.298  26.046  1.00  0.00     0.060 A 
ATOM     35  C   UNL A   1      43.949  25.668  25.788  1.00  0.00     0.016 A 
ATOM     36  C   UNL A   1      42.820  23.940  27.023  1.00  0.00     0.016 A 
ATOM     37  C   UNL A   1      43.283  26.660  26.543  1.00  0.00     0.010 A 
ATOM     38  C   UNL A   1      42.155  24.933  27.778  1.00  0.00     0.010 A 
ATOM     39  C   UNL A   1      42.410  26.306  27.582  1.00  0.00    -0.014 A 
BRANCH  39  40
ATOM     40  C   UNL A   1      41.968  27.307  28.618  1.00  0.00     0.031 A 
ATOM     41  C   UNL A   1      42.750  27.368  29.917  1.00  0.00     0.074 A 
ATOM     42  C   UNL A   1      40.918  28.145  28.470  1.00  0.00     0.049 A 
ATOM     43  N   UNL A   1      42.509  28.046  31.011  1.00  0.00    -0.248 NA
ATOM     44  C   UNL A   1      43.966  26.542  29.982  1.00  0.00     0.031 C 
ATOM     45  C   UNL A   1      40.091  28.273  27.272  1.00  0.00     0.029 A 
ATOM     46  N   UNL A   1      40.350  29.043  29.356  1.00  0.00    -0.354 N 
ATOM     47  C   UNL A   1      43.527  27.712  31.901  1.00  0.00     0.074 A 
ATOM     48  C   UNL A   1      44.377  26.756  31.222  1.00  0.00     0.031 C 
ATOM     49  C   UNL A   1      39.115  29.172  27.505  1.00  0.00     0.029 A 
ATOM     50  C   UNL A   1      39.207  29.659  28.884  1.00  0.00     0.049 A 
ATOM     51  H   UNL A   1      40.729  29.228  30.245  1.00  0.00     0.167 HD
ATOM     52  C   UNL A   1      43.744  28.152  33.164  1.00  0.00     0.034 A 
ATOM     53  C   UNL A   1      38.319  30.482  29.495  1.00  0.00     0.034 A 
ATOM     54  C   UNL A   1      42.918  29.113  33.851  1.00  0.00     0.049 A 
ATOM     55  C   UNL A   1      38.527  30.877  30.950  1.00  0.00     0.074 A 
ATOM     56  C   UNL A   1      43.104  29.652  35.113  1.00  0.00     0.029 A 
ATOM     57  N   UNL A   1      41.747  29.663  33.355  1.00  0.00    -0.354 N 
ATOM     58  N   UNL A   1      39.517  30.576  31.758  1.00  0.00    -0.248 NA
ATOM     59  C   UNL A   1      37.491  31.718  31.576  1.00  0.00     0.031 C 
ATOM     60  C   UNL A   1      41.998  30.452  35.418  1.00  0.00     0.029 A 
ATOM     61  C   UNL A   1      41.169  30.486  34.310  1.00  0.00     0.049 A 
ATOM     62  H   UNL A   1      41.379  29.493  32.458  1.00  0.00     0.167 HD
ATOM     63  C   UNL A   1      39.233  31.217  32.967  1.00  0.00     0.074 A 
ATOM     64  C   UNL A   1      37.997  31.940  32.780  1.00  0.00     0.031 C 
ATOM     65  C   UNL A   1      39.933  31.207  34.130  1.00  0.00     0.034 A 
BRANCH  52  66
ATOM     66  C   UNL A   1      44.901  27.557  33.929  1.00  0.00     0.023 A 
ATOM     67  C   UNL A   1      44.763  26.396  34.705  1.00  0.00     0.031 A 
ATOM     68  C   UNL A   1      46.173  28.150  33.843  1.00  0.00     0.131 A 
ATOM     69  C   UNL A   1      45.871  25.887  35.400  1.00  0.00     0.055 A 
ATOM     70  C   UNL A   1      47.286  27.600  34.478  1.00  0.00     0.041 A 
ATOM     71  F   UNL A   1      46.356  29.274  33.130  1.00  0.00    -0.206 F 
ATOM     72  C   UNL A   1      47.137  26.465  35.268  1.00  0.00     0.022 A 
BRANCH  69  73
ATOM     73  S   UNL A   1      45.617  24.518  36.560  1.00  0.00     0.124 S 
ATOM     74  O   UNL A   1      44.631  23.708  35.849  1.00  0.00    -0.237 OA
ATOM     75  O   UNL A   1      46.954  23.945  36.671  1.00  0.00    -0.237 OA
ATOM     76  O   UNL A   1      45.120  25.177  37.765  1.00  0.00    -0.744 OA
ENDBRANCH  69  73
ENDBRANCH  52  66
BRANCH  53  77
ATOM     77  C   UNL A   1      37.074  30.944  28.795  1.00  0.00     0.023 A 
ATOM     78  C   UNL A   1      36.702  32.301  28.771  1.00  0.00     0.031 A 
ATOM     79  C   UNL A   1      36.159  30.013  28.270  1.00  0.00     0.131 A 
ATOM     80  C   UNL A   1      35.427  32.677  28.307  1.00  0.00     0.055 A 
ATOM     81  C   UNL A   1      34.923  30.399  27.742  1.00  0.00     0.041 A 
ATOM     82  F   UNL A   1      36.440  28.701  28.285  1.00  0.00    -0.206 F 
ATOM     83  C   UNL A   1      34.543  31.736  27.777  1.00  0.00     0.022 A 
BRANCH  80  84
ATOM     84  S   UNL A   1      34.877  34.392  28.548  1.00  0.00     0.124 S 
ATOM     85  O   UNL A   1      36.000  34.960  29.285  1.00  0.00    -0.237 OA
ATOM     86  O   UNL A   1      34.711  34.853  27.175  1.00  0.00    -0.237 OA
ATOM     87  O   UNL A   1      33.638  34.248  29.310  1.00  0.00    -0.744 OA
ENDBRANCH  80  84
ENDBRANCH  53  77
BRANCH  65  88
ATOM     88  C   UNL A   1      39.409  32.031  35.285  1.00  0.00     0.023 A 
ATOM     89  C   UNL A   1      39.812  33.362  35.492  1.00  0.00     0.031 A 
ATOM     90  C   UNL A   1      38.470  31.483  36.181  1.00  0.00     0.131 A 
ATOM     91  C   UNL A   1      39.312  34.086  36.588  1.00  0.00     0.055 A 
ATOM     92  C   UNL A   1      37.933  32.227  37.233  1.00  0.00     0.041 A 
ATOM     93  F   UNL A   1      38.048  30.217  36.037  1.00  0.00    -0.206 F 
ATOM     94  C   UNL A   1      38.360  33.533  37.448  1.00  0.00     0.022 A 
BRANCH  91  95
ATOM     95  S   UNL A   1      39.975  35.742  36.921  1.00  0.00     0.124 S 
ATOM     96  O   UNL A   1      39.594  36.471  35.715  1.00  0.00    -0.237 OA
ATOM     97  O   UNL A   1      39.274  36.121  38.143  1.00  0.00    -0.237 OA
ATOM     98  O   UNL A   1      41.410  35.513  37.078  1.00  0.00    -0.744 OA
ENDBRANCH  91  95
ENDBRANCH  65  88
ENDBRANCH  39  40
ENDBRANCH  32  34
ENDBRANCH  31  32
ENDBRANCH  30  31
ENDBRANCH  29  30
ENDBRANCH  28  29
ENDBRANCH   1  28
TORSDOF 24
ENDMDL
MODEL 2
REMARK VINA RESULT:     -10.6      2.229      2.886
REMARK SMILES CCC(CC)(NC(=O)NC1CCC(C)(C)CC1)C(=O)OCCOCCOCCOC(=O)c1ccc(-c2c3nc(c(-c4cc(S(=O)(=O)[O-])ccc4F)c4ccc([nH]4)c(-c4cc(S(=O)(=O)[O-])ccc4F)c4nc(c(-c5cc(S(=O)(=O)[O-])ccc5F)c5ccc2[nH]5)C=C4)C=C3)cc1
REMARK SMILES IDX 25 1 24 2 23 3 22 4 21 5 20 6 18 7 19 8 3 9 2 10 1 11 4 12
REMARK SMILES IDX 5 13 6 14 7 15 8 17 9 18 10 20 11 21 17 22 12 23 16 24 13 25
REMARK SMILES IDX 14 26 15 27 26 28 27 29 28 30 29 31 30 32 31 33 32 34 33 35
REMARK SMILES IDX 94 36 34 37 93 38 35 39 36 40 37 41 87 42 38 43 92 44 86 45
REMARK SMILES IDX 88 46 39 47 91 48 85 49 84 50 40 52 72 53 52 54 71 55 53 56
REMARK SMILES IDX 56 57 70 58 89 59 54 60 55 61 69 63 90 64 57 65 41 66 42 67
REMARK SMILES IDX 50 68 43 69 49 70 51 71 48 72 44 73 45 74 46 75 47 76 73 77
REMARK SMILES IDX 74 78 82 79 75 80 81 81 83 82 80 83 76 84 77 85 78 86 79 87
REMARK SMILES IDX 58 88 59 89 67 90 60 91 66 92 68 93 65 94 61 95 62 96 63 97
REMARK SMILES IDX 64 98
REMARK H PARENT 6 16 9 19 88 51 56 62
REMARK Flexibility Score: inf
ROOT
ATOM      1  C   UNL A   1      41.735  19.246  27.380  1.00  0.00     0.188 C 
ENDROOT
BRANCH   1   2
ATOM      2  C   UNL A   1      41.211  20.683  27.302  1.00  0.00     0.188 C 
BRANCH   2   3
ATOM      3  O   UNL A   1      39.970  21.421  26.115  1.00  0.00    -0.376 OA
BRANCH   3   4
ATOM      4  C   UNL A   1      38.454  21.756  25.774  1.00  0.00     0.202 C 
BRANCH   4   5
ATOM      5  C   UNL A   1      37.386  21.012  24.771  1.00  0.00     0.261 C 
BRANCH   5   6
ATOM      6  O   UNL A   1      35.969  20.928  25.167  1.00  0.00    -0.461 OA
BRANCH   6   7
ATOM      7  C   UNL A   1      34.979  21.627  24.578  1.00  0.00     0.331 C 
ATOM      8  O   UNL A   1      35.191  22.709  24.043  1.00  0.00    -0.249 OA
BRANCH   7   9
ATOM      9  C   UNL A   1      33.537  20.931  24.718  1.00  0.00     0.139 C 
BRANCH   9  10
ATOM     10  C   UNL A   1      32.739  21.550  25.934  1.00  0.00     0.037 C 
ATOM     11  C   UNL A   1      33.470  21.993  27.185  1.00  0.00     0.007 C 
ENDBRANCH   9  10
BRANCH   9  12
ATOM     12  C   UNL A   1      33.895  19.434  24.959  1.00  0.00     0.037 C 
ATOM     13  C   UNL A   1      32.787  18.527  25.493  1.00  0.00     0.007 C 
ENDBRANCH   9  12
BRANCH   9  14
ATOM     14  N   UNL A   1      32.453  20.978  23.656  1.00  0.00    -0.322 N 
ATOM     15  C   UNL A   1      32.164  21.574  22.500  1.00  0.00     0.315 C 
ATOM     16  H   UNL A   1      31.723  20.366  23.902  1.00  0.00     0.166 HD
ATOM     17  O   UNL A   1      31.847  20.867  21.542  1.00  0.00    -0.249 OA
ATOM     18  N   UNL A   1      31.925  22.884  22.424  1.00  0.00    -0.335 N 
ATOM     19  H   UNL A   1      31.504  23.165  21.579  1.00  0.00     0.165 HD
BRANCH  18  20
ATOM     20  C   UNL A   1      32.168  23.974  23.353  1.00  0.00     0.083 C 
ATOM     21  C   UNL A   1      32.979  25.472  22.451  1.00  0.00     0.025 C 
ATOM     22  C   UNL A   1      30.722  24.335  24.699  1.00  0.00     0.025 C 
ATOM     23  C   UNL A   1      32.299  27.223  22.727  1.00  0.00     0.008 C 
ATOM     24  C   UNL A   1      30.174  26.169  25.027  1.00  0.00     0.008 C 
ATOM     25  C   UNL A   1      30.930  27.577  23.993  1.00  0.00    -0.035 C 
ATOM     26  C   UNL A   1      29.787  28.384  23.318  1.00  0.00     0.011 C 
ATOM     27  C   UNL A   1      31.556  28.575  24.994  1.00  0.00     0.011 C 
ENDBRANCH  18  20
ENDBRANCH   9  14
ENDBRANCH   7   9
ENDBRANCH   6   7
ENDBRANCH   5   6
ENDBRANCH   4   5
ENDBRANCH   3   4
ENDBRANCH   2   3
ENDBRANCH   1   2
BRANCH   1  28
ATOM     28  O   UNL A   1      42.874  18.753  26.735  1.00  0.00    -0.376 OA
BRANCH  28  29
ATOM     29  C   UNL A   1      43.019  19.338  25.435  1.00  0.00     0.202 C 
BRANCH  29  30
ATOM     30  C   UNL A   1      44.419  19.665  24.782  1.00  0.00     0.261 C 
BRANCH  30  31
ATOM     31  O   UNL A   1      45.092  20.932  25.024  1.00  0.00    -0.460 OA
BRANCH  31  32
ATOM     32  C   UNL A   1      44.662  22.040  24.357  1.00  0.00     0.338 C 
ATOM     33  O   UNL A   1      44.453  22.087  23.153  1.00  0.00    -0.246 OA
BRANCH  32  34
ATOM     34  C   UNL A   1      44.219  23.109  25.330  1.00  0.00     0.060 A 
ATOM     35  C   UNL A   1      44.359  24.464  24.976  1.00  0.00     0.016 A 
ATOM     36  C   UNL A   1      43.652  22.808  26.571  1.00  0.00     0.016 A 
ATOM     37  C   UNL A   1      44.008  25.498  25.875  1.00  0.00     0.010 A 
ATOM     38  C   UNL A   1      43.304  23.842  27.469  1.00  0.00     0.010 A 
ATOM     39  C   UNL A   1      43.519  25.200  27.154  1.00  0.00    -0.014 A 
BRANCH  39  40
ATOM     40  C   UNL A   1      43.473  26.240  28.244  1.00  0.00     0.031 A 
ATOM     41  C   UNL A   1      44.678  26.355  29.158  1.00  0.00     0.074 A 
ATOM     42  C   UNL A   1      42.427  27.067  28.465  1.00  0.00     0.049 A 
ATOM     43  N   UNL A   1      44.846  27.076  30.239  1.00  0.00    -0.248 NA
ATOM     44  C   UNL A   1      45.847  25.538  28.797  1.00  0.00     0.031 C 
ATOM     45  C   UNL A   1      41.214  27.145  27.654  1.00  0.00     0.029 A 
ATOM     46  N   UNL A   1      42.211  27.998  29.466  1.00  0.00    -0.354 N 
ATOM     47  C   UNL A   1      46.128  26.781  30.699  1.00  0.00     0.074 A 
ATOM     48  C   UNL A   1      46.683  25.802  29.789  1.00  0.00     0.031 C 
ATOM     49  C   UNL A   1      40.377  28.049  28.201  1.00  0.00     0.029 A 
ATOM     50  C   UNL A   1      40.964  28.590  29.429  1.00  0.00     0.049 A 
ATOM     51  H   UNL A   1      42.889  28.220  30.144  1.00  0.00     0.167 HD
ATOM     52  C   UNL A   1      46.788  27.273  31.776  1.00  0.00     0.034 A 
ATOM     53  C   UNL A   1      40.350  29.434  30.295  1.00  0.00     0.034 A 
ATOM     54  C   UNL A   1      46.257  28.257  32.686  1.00  0.00     0.049 A 
ATOM     55  C   UNL A   1      41.073  29.887  31.555  1.00  0.00     0.074 A 
ATOM     56  C   UNL A   1      46.887  28.847  33.769  1.00  0.00     0.029 A 
ATOM     57  N   UNL A   1      44.976  28.782  32.638  1.00  0.00    -0.354 N 
ATOM     58  N   UNL A   1      42.297  29.622  31.949  1.00  0.00    -0.248 NA
ATOM     59  C   UNL A   1      40.327  30.748  32.490  1.00  0.00     0.031 C 
ATOM     60  C   UNL A   1      45.958  29.654  34.433  1.00  0.00     0.029 A 
ATOM     61  C   UNL A   1      44.778  29.640  33.710  1.00  0.00     0.049 A 
ATOM     62  H   UNL A   1      44.306  28.575  31.948  1.00  0.00     0.167 HD
ATOM     63  C   UNL A   1      42.469  30.310  33.153  1.00  0.00     0.074 A 
ATOM     64  C   UNL A   1      41.238  31.020  33.412  1.00  0.00     0.031 C 
ATOM     65  C   UNL A   1      43.550  30.349  33.974  1.00  0.00     0.034 A 
BRANCH  52  66
ATOM     66  C   UNL A   1      48.156  26.713  32.079  1.00  0.00     0.023 A 
ATOM     67  C   UNL A   1      48.331  25.492  32.749  1.00  0.00     0.031 A 
ATOM     68  C   UNL A   1      49.304  27.404  31.651  1.00  0.00     0.131 A 
ATOM     69  C   UNL A   1      49.627  25.019  33.009  1.00  0.00     0.055 A 
ATOM     70  C   UNL A   1      50.587  26.895  31.849  1.00  0.00     0.041 A 
ATOM     71  F   UNL A   1      49.194  28.587  31.023  1.00  0.00    -0.206 F 
ATOM     72  C   UNL A   1      50.754  25.699  32.539  1.00  0.00     0.022 A 
BRANCH  69  73
ATOM     73  S   UNL A   1      49.825  23.555  34.059  1.00  0.00     0.124 S 
ATOM     74  O   UNL A   1      50.318  22.570  33.101  1.00  0.00    -0.237 OA
ATOM     75  O   UNL A   1      50.783  24.011  35.059  1.00  0.00    -0.237 OA
ATOM     76  O   UNL A   1      48.474  23.306  34.558  1.00  0.00    -0.744 OA
ENDBRANCH  69  73
ENDBRANCH  52  66
BRANCH  53  77
ATOM     77  C   UNL A   1      38.925  29.863  30.090  1.00  0.00     0.023 A 
ATOM     78  C   UNL A   1      38.605  31.117  29.537  1.00  0.00     0.031 A 
ATOM     79  C   UNL A   1      37.863  29.084  30.586  1.00  0.00     0.131 A 
ATOM     80  C   UNL A   1      37.278  31.583  29.563  1.00  0.00     0.055 A 
ATOM     81  C   UNL A   1      36.536  29.521  30.542  1.00  0.00     0.041 A 
ATOM     82  F   UNL A   1      38.101  27.889  31.148  1.00  0.00    -0.206 F 
ATOM     83  C   UNL A   1      36.239  30.785  30.047  1.00  0.00     0.022 A 
BRANCH  80  84
ATOM     84  S   UNL A   1      36.946  33.309  29.100  1.00  0.00     0.124 S 
ATOM     85  O   UNL A   1      38.294  33.822  28.889  1.00  0.00    -0.237 OA
ATOM     86  O   UNL A   1      36.125  33.149  27.905  1.00  0.00    -0.237 OA
ATOM     87  O   UNL A   1      36.248  33.846  30.266  1.00  0.00    -0.744 OA
ENDBRANCH  80  84
ENDBRANCH  53  77
BRANCH  65  88
ATOM     88  C   UNL A   1      43.475  31.217  35.211  1.00  0.00     0.023 A 
ATOM     89  C   UNL A   1      43.843  32.574  35.191  1.00  0.00     0.031 A 
ATOM     90  C   UNL A   1      43.004  30.683  36.426  1.00  0.00     0.131 A 
ATOM     91  C   UNL A   1      43.772  33.339  36.368  1.00  0.00     0.055 A 
ATOM     92  C   UNL A   1      42.881  31.463  37.578  1.00  0.00     0.041 A 
ATOM     93  F   UNL A   1      42.639  29.393  36.510  1.00  0.00    -0.206 F 
ATOM     94  C   UNL A   1      43.275  32.797  37.556  1.00  0.00     0.022 A 
BRANCH  91  95
ATOM     95  S   UNL A   1      44.408  35.039  36.347  1.00  0.00     0.124 S 
ATOM     96  O   UNL A   1      43.672  35.625  35.232  1.00  0.00    -0.237 OA
ATOM     97  O   UNL A   1      44.047  35.525  37.674  1.00  0.00    -0.237 OA
ATOM     98  O   UNL A   1      45.842  34.868  36.121  1.00  0.00    -0.744 OA
ENDBRANCH  91  95
ENDBRANCH  65  88
ENDBRANCH  39  40
ENDBRANCH  32  34
ENDBRANCH  31  32
ENDBRANCH  30  31
ENDBRANCH  29  30
ENDBRANCH  28  29
ENDBRANCH   1  28
TORSDOF 24
ENDMDL
MODEL 3
REMARK VINA RESULT:     -10.6      4.995      6.424
REMARK SMILES CCC(CC)(NC(=O)NC1CCC(C)(C)CC1)C(=O)OCCOCCOCCOC(=O)c1ccc(-c2c3nc(c(-c4cc(S(=O)(=O)[O-])ccc4F)c4ccc([nH]4)c(-c4cc(S(=O)(=O)[O-])ccc4F)c4nc(c(-c5cc(S(=O)(=O)[O-])ccc5F)c5ccc2[nH]5)C=C4)C=C3)cc1
REMARK SMILES IDX 25 1 24 2 23 3 22 4 21 5 20 6 18 7 19 8 3 9 2 10 1 11 4 12
REMARK SMILES IDX 5 13 6 14 7 15 8 17 9 18 10 20 11 21 17 22 12 23 16 24 13 25
REMARK SMILES IDX 14 26 15 27 26 28 27 29 28 30 29 31 30 32 31 33 32 34 33 35
REMARK SMILES IDX 94 36 34 37 93 38 35 39 36 40 37 41 87 42 38 43 92 44 86 45
REMARK SMILES IDX 88 46 39 47 91 48 85 49 84 50 40 52 72 53 52 54 71 55 53 56
REMARK SMILES IDX 56 57 70 58 89 59 54 60 55 61 69 63 90 64 57 65 41 66 42 67
REMARK SMILES IDX 50 68 43 69 49 70 51 71 48 72 44 73 45 74 46 75 47 76 73 77
REMARK SMILES IDX 74 78 82 79 75 80 81 81 83 82 80 83 76 84 77 85 78 86 79 87
REMARK SMILES IDX 58 88 59 89 67 90 60 91 66 92 68 93 65 94 61 95 62 96 63 97
REMARK SMILES IDX 64 98
REMARK H PARENT 6 16 9 19 88 51 56 62
REMARK Flexibility Score: inf
ROOT
ATOM      1  C   UNL A   1      41.477  20.240  27.913  1.00  0.00     0.188 C 
ENDROOT
BRANCH   1   2
ATOM      2  C   UNL A   1      41.270  21.423  26.964  1.00  0.00     0.188 C 
BRANCH   2   3
ATOM      3  O   UNL A   1      39.853  21.757  25.791  1.00  0.00    -0.376 OA
BRANCH   3   4
ATOM      4  C   UNL A   1      38.288  21.927  25.570  1.00  0.00     0.202 C 
BRANCH   4   5
ATOM      5  C   UNL A   1      37.174  20.902  24.929  1.00  0.00     0.261 C 
BRANCH   5   6
ATOM      6  O   UNL A   1      35.770  21.004  25.367  1.00  0.00    -0.461 OA
BRANCH   6   7
ATOM      7  C   UNL A   1      34.829  21.721  24.721  1.00  0.00     0.331 C 
ATOM      8  O   UNL A   1      35.099  22.785  24.176  1.00  0.00    -0.249 OA
BRANCH   7   9
ATOM      9  C   UNL A   1      33.362  21.072  24.808  1.00  0.00     0.139 C 
BRANCH   9  10
ATOM     10  C   UNL A   1      32.516  21.765  25.949  1.00  0.00     0.037 C 
ATOM     11  C   UNL A   1      33.140  22.829  26.826  1.00  0.00     0.007 C 
ENDBRANCH   9  10
BRANCH   9  12
ATOM     12  C   UNL A   1      33.661  19.577  25.133  1.00  0.00     0.037 C 
ATOM     13  C   UNL A   1      33.002  18.522  24.246  1.00  0.00     0.007 C 
ENDBRANCH   9  12
BRANCH   9  14
ATOM     14  N   UNL A   1      32.341  21.100  23.684  1.00  0.00    -0.322 N 
ATOM     15  C   UNL A   1      32.124  21.669  22.499  1.00  0.00     0.315 C 
ATOM     16  H   UNL A   1      31.592  20.501  23.903  1.00  0.00     0.166 HD
ATOM     17  O   UNL A   1      31.856  20.940  21.542  1.00  0.00    -0.249 OA
ATOM     18  N   UNL A   1      31.903  22.978  22.376  1.00  0.00    -0.335 N 
ATOM     19  H   UNL A   1      31.534  23.241  21.502  1.00  0.00     0.165 HD
BRANCH  18  20
ATOM     20  C   UNL A   1      32.104  24.090  23.290  1.00  0.00     0.083 C 
ATOM     21  C   UNL A   1      33.022  25.539  22.412  1.00  0.00     0.025 C 
ATOM     22  C   UNL A   1      30.569  24.527  24.510  1.00  0.00     0.025 C 
ATOM     23  C   UNL A   1      32.370  27.313  22.584  1.00  0.00     0.008 C 
ATOM     24  C   UNL A   1      30.047  26.383  24.742  1.00  0.00     0.008 C 
ATOM     25  C   UNL A   1      30.918  27.740  23.729  1.00  0.00    -0.035 C 
ATOM     26  C   UNL A   1      29.853  28.554  22.945  1.00  0.00     0.011 C 
ATOM     27  C   UNL A   1      31.492  28.752  24.747  1.00  0.00     0.011 C 
ENDBRANCH  18  20
ENDBRANCH   9  14
ENDBRANCH   7   9
ENDBRANCH   6   7
ENDBRANCH   5   6
ENDBRANCH   4   5
ENDBRANCH   3   4
ENDBRANCH   2   3
ENDBRANCH   1   2
BRANCH   1  28
ATOM     28  O   UNL A   1      42.334  19.155  27.696  1.00  0.00    -0.376 OA
BRANCH  28  29
ATOM     29  C   UNL A   1      42.406  18.833  26.302  1.00  0.00     0.202 C 
BRANCH  29  30
ATOM     30  C   UNL A   1      43.677  18.182  25.627  1.00  0.00     0.261 C 
BRANCH  30  31
ATOM     31  O   UNL A   1      44.853  18.974  25.301  1.00  0.00    -0.460 OA
BRANCH  31  32
ATOM     32  C   UNL A   1      44.757  19.917  24.322  1.00  0.00     0.338 C 
ATOM     33  O   UNL A   1      44.633  19.670  23.131  1.00  0.00    -0.246 OA
BRANCH  32  34
ATOM     34  C   UNL A   1      44.550  21.289  24.923  1.00  0.00     0.060 A 
ATOM     35  C   UNL A   1      43.944  22.296  24.149  1.00  0.00     0.016 A 
ATOM     36  C   UNL A   1      44.920  21.600  26.234  1.00  0.00     0.016 A 
ATOM     37  C   UNL A   1      43.778  23.608  24.650  1.00  0.00     0.010 A 
ATOM     38  C   UNL A   1      44.755  22.911  26.733  1.00  0.00     0.010 A 
ATOM     39  C   UNL A   1      44.225  23.946  25.935  1.00  0.00    -0.014 A 
BRANCH  39  40
ATOM     40  C   UNL A   1      44.388  25.382  26.361  1.00  0.00     0.031 A 
ATOM     41  C   UNL A   1      45.785  25.972  26.327  1.00  0.00     0.074 A 
ATOM     42  C   UNL A   1      43.376  26.173  26.781  1.00  0.00     0.049 A 
ATOM     43  N   UNL A   1      46.218  27.133  26.752  1.00  0.00    -0.248 NA
ATOM     44  C   UNL A   1      46.833  25.126  25.733  1.00  0.00     0.031 C 
ATOM     45  C   UNL A   1      41.963  25.802  26.821  1.00  0.00     0.029 A 
ATOM     46  N   UNL A   1      43.388  27.464  27.278  1.00  0.00    -0.354 N 
ATOM     47  C   UNL A   1      47.588  27.147  26.500  1.00  0.00     0.074 A 
ATOM     48  C   UNL A   1      47.915  25.870  25.901  1.00  0.00     0.031 C 
ATOM     49  C   UNL A   1      41.254  26.825  27.336  1.00  0.00     0.029 A 
ATOM     50  C   UNL A   1      42.156  27.918  27.709  1.00  0.00     0.049 A 
ATOM     51  H   UNL A   1      44.204  28.013  27.319  1.00  0.00     0.167 HD
ATOM     52  C   UNL A   1      48.496  28.124  26.740  1.00  0.00     0.034 A 
ATOM     53  C   UNL A   1      41.800  29.052  28.360  1.00  0.00     0.034 A 
ATOM     54  C   UNL A   1      48.188  29.406  27.323  1.00  0.00     0.049 A 
ATOM     55  C   UNL A   1      42.858  30.087  28.716  1.00  0.00     0.074 A 
ATOM     56  C   UNL A   1      49.044  30.472  27.547  1.00  0.00     0.029 A 
ATOM     57  N   UNL A   1      46.943  29.794  27.791  1.00  0.00    -0.354 N 
ATOM     58  N   UNL A   1      44.140  30.093  28.434  1.00  0.00    -0.248 NA
ATOM     59  C   UNL A   1      42.418  31.266  29.483  1.00  0.00     0.031 C 
ATOM     60  C   UNL A   1      48.342  31.464  28.236  1.00  0.00     0.029 A 
ATOM     61  C   UNL A   1      47.024  31.057  28.359  1.00  0.00     0.049 A 
ATOM     62  H   UNL A   1      46.123  29.253  27.731  1.00  0.00     0.167 HD
ATOM     63  C   UNL A   1      44.642  31.286  28.962  1.00  0.00     0.074 A 
ATOM     64  C   UNL A   1      43.528  31.986  29.556  1.00  0.00     0.031 C 
ATOM     65  C   UNL A   1      45.915  31.759  28.956  1.00  0.00     0.034 A 
BRANCH  52  66
ATOM     66  C   UNL A   1      49.943  27.833  26.426  1.00  0.00     0.023 A 
ATOM     67  C   UNL A   1      50.876  27.524  27.428  1.00  0.00     0.031 A 
ATOM     68  C   UNL A   1      50.380  27.831  25.089  1.00  0.00     0.131 A 
ATOM     69  C   UNL A   1      52.211  27.266  27.080  1.00  0.00     0.055 A 
ATOM     70  C   UNL A   1      51.691  27.504  24.744  1.00  0.00     0.041 A 
ATOM     71  F   UNL A   1      49.533  28.140  24.094  1.00  0.00    -0.206 F 
ATOM     72  C   UNL A   1      52.618  27.227  25.744  1.00  0.00     0.022 A 
BRANCH  69  73
ATOM     73  S   UNL A   1      53.435  27.082  28.405  1.00  0.00     0.124 S 
ATOM     74  O   UNL A   1      54.503  26.358  27.721  1.00  0.00    -0.237 OA
ATOM     75  O   UNL A   1      53.726  28.466  28.761  1.00  0.00    -0.237 OA
ATOM     76  O   UNL A   1      52.724  26.313  29.424  1.00  0.00    -0.744 OA
ENDBRANCH  69  73
ENDBRANCH  52  66
BRANCH  53  77
ATOM     77  C   UNL A   1      40.391  29.274  28.828  1.00  0.00     0.023 A 
ATOM     78  C   UNL A   1      40.045  29.198  30.190  1.00  0.00     0.031 A 
ATOM     79  C   UNL A   1      39.341  29.416  27.901  1.00  0.00     0.131 A 
ATOM     80  C   UNL A   1      38.692  29.187  30.577  1.00  0.00     0.055 A 
ATOM     81  C   UNL A   1      38.002  29.479  28.296  1.00  0.00     0.041 A 
ATOM     82  F   UNL A   1      39.600  29.470  26.585  1.00  0.00    -0.206 F 
ATOM     83  C   UNL A   1      37.669  29.344  29.639  1.00  0.00     0.022 A 
BRANCH  80  84
ATOM     84  S   UNL A   1      38.277  28.807  32.305  1.00  0.00     0.124 S 
ATOM     85  O   UNL A   1      39.091  29.780  33.023  1.00  0.00    -0.237 OA
ATOM     86  O   UNL A   1      36.836  29.033  32.327  1.00  0.00    -0.237 OA
ATOM     87  O   UNL A   1      38.690  27.413  32.456  1.00  0.00    -0.744 OA
ENDBRANCH  80  84
ENDBRANCH  53  77
BRANCH  65  88
ATOM     88  C   UNL A   1      46.174  33.115  29.575  1.00  0.00     0.023 A 
ATOM     89  C   UNL A   1      45.909  34.311  28.883  1.00  0.00     0.031 A 
ATOM     90  C   UNL A   1      46.671  33.214  30.889  1.00  0.00     0.131 A 
ATOM     91  C   UNL A   1      46.180  35.549  29.490  1.00  0.00     0.055 A 
ATOM     92  C   UNL A   1      46.883  34.448  31.507  1.00  0.00     0.041 A 
ATOM     93  F   UNL A   1      46.945  32.109  31.600  1.00  0.00    -0.206 F 
ATOM     94  C   UNL A   1      46.646  35.625  30.805  1.00  0.00     0.022 A 
BRANCH  91  95
ATOM     95  S   UNL A   1      45.983  37.065  28.512  1.00  0.00     0.124 S 
ATOM     96  O   UNL A   1      46.234  38.103  29.507  1.00  0.00    -0.237 OA
ATOM     97  O   UNL A   1      47.004  36.909  27.482  1.00  0.00    -0.237 OA
ATOM     98  O   UNL A   1      44.605  36.989  28.031  1.00  0.00    -0.744 OA
ENDBRANCH  91  95
ENDBRANCH  65  88
ENDBRANCH  39  40
ENDBRANCH  32  34
ENDBRANCH  31  32
ENDBRANCH  30  31
ENDBRANCH  29  30
ENDBRANCH  28  29
ENDBRANCH   1  28
TORSDOF 24
ENDMDL
