MODEL 1
REMARK VINA RESULT:      -9.3      0.000      0.000
REMARK SMILES O=C(COC[C@@H]1COc2ccccc2O1)OCCOCCOCCOC(=O)c1ccc(-c2c3nc(c(-c4cc(S(=O)(=O)[O-])ccc4F)c4ccc([nH]4)c(-c4cc(S(=O)(=O)[O-])ccc4F)c4nc(c(-c5cc(S(=O)(=O)[O-])ccc5F)c5ccc2[nH]5)C=C4)C=C3)cc1
REMARK SMILES IDX 20 1 19 2 18 3 17 4 16 5 2 6 1 7 3 8 4 9 5 10 6 11 7 12
REMARK SMILES IDX 15 13 8 14 14 15 9 16 13 17 10 18 12 19 11 20 21 21 22 22
REMARK SMILES IDX 23 23 24 24 25 25 26 26 27 27 28 28 29 29 90 30 30 31 89 32
REMARK SMILES IDX 31 33 32 34 33 35 83 36 34 37 88 38 82 39 84 40 35 41 87 42
REMARK SMILES IDX 81 43 80 44 36 46 68 47 48 48 67 49 49 50 52 51 66 52 85 53
REMARK SMILES IDX 50 54 51 55 65 57 86 58 53 59 37 60 38 61 46 62 39 63 45 64
REMARK SMILES IDX 47 65 44 66 40 67 41 68 42 69 43 70 69 71 70 72 78 73 71 74
REMARK SMILES IDX 77 75 79 76 76 77 72 78 73 79 74 80 75 81 54 82 55 83 63 84
REMARK SMILES IDX 56 85 62 86 64 87 61 88 57 89 58 90 59 91 60 92
REMARK H PARENT 84 45 52 56
REMARK Flexibility Score: inf
ROOT
ATOM      1  C   UNL A   1      35.300  21.679  25.974  1.00  0.00     0.188 C 
ENDROOT
BRANCH   1   2
ATOM      2  O   UNL A   1      34.256  20.731  26.077  1.00  0.00    -0.376 OA
BRANCH   2   3
ATOM      3  C   UNL A   1      33.926  19.911  24.975  1.00  0.00     0.202 C 
BRANCH   3   4
ATOM      4  C   UNL A   1      32.554  20.098  24.314  1.00  0.00     0.261 C 
BRANCH   4   5
ATOM      5  O   UNL A   1      32.353  21.295  23.546  1.00  0.00    -0.462 OA
BRANCH   5   6
ATOM      6  C   UNL A   1      31.832  22.442  24.050  1.00  0.00     0.332 C 
ATOM      7  O   UNL A   1      31.534  22.479  25.240  1.00  0.00    -0.250 OA
BRANCH   6   8
ATOM      8  C   UNL A   1      31.523  23.573  23.041  1.00  0.00     0.282 C 
BRANCH   8   9
ATOM      9  O   UNL A   1      32.473  24.578  22.725  1.00  0.00    -0.366 OA
BRANCH   9  10
ATOM     10  C   UNL A   1      31.978  25.911  22.693  1.00  0.00     0.209 C 
BRANCH  10  11
ATOM     11  C   UNL A   1      30.724  26.209  23.539  1.00  0.00     0.236 C 
ATOM     12  C   UNL A   1      30.103  27.529  23.074  1.00  0.00     0.277 C 
ATOM     13  O   UNL A   1      30.954  26.208  24.955  1.00  0.00    -0.481 OA
ATOM     14  O   UNL A   1      30.968  28.633  23.388  1.00  0.00    -0.486 OA
ATOM     15  C   UNL A   1      31.218  27.441  25.485  1.00  0.00     0.161 A 
ATOM     16  C   UNL A   1      31.299  28.604  24.719  1.00  0.00     0.161 A 
ATOM     17  C   UNL A   1      31.428  27.496  26.862  1.00  0.00     0.050 A 
ATOM     18  C   UNL A   1      31.714  29.797  25.306  1.00  0.00     0.050 A 
ATOM     19  C   UNL A   1      31.782  28.706  27.462  1.00  0.00     0.004 A 
ATOM     20  C   UNL A   1      31.956  29.848  26.680  1.00  0.00     0.004 A 
ENDBRANCH  10  11
ENDBRANCH   9  10
ENDBRANCH   8   9
ENDBRANCH   6   8
ENDBRANCH   5   6
ENDBRANCH   4   5
ENDBRANCH   3   4
ENDBRANCH   2   3
ENDBRANCH   1   2
BRANCH   1  21
ATOM     21  C   UNL A   1      35.840  21.771  24.536  1.00  0.00     0.188 C 
BRANCH  21  22
ATOM     22  O   UNL A   1      37.253  21.726  24.363  1.00  0.00    -0.376 OA
BRANCH  22  23
ATOM     23  C   UNL A   1      38.007  20.860  25.219  1.00  0.00     0.202 C 
BRANCH  23  24
ATOM     24  C   UNL A   1      39.225  21.432  25.965  1.00  0.00     0.261 C 
BRANCH  24  25
ATOM     25  O   UNL A   1      40.086  20.441  26.577  1.00  0.00    -0.460 OA
BRANCH  25  26
ATOM     26  C   UNL A   1      41.368  20.445  26.166  1.00  0.00     0.338 C 
ATOM     27  O   UNL A   1      41.937  19.559  25.519  1.00  0.00    -0.246 OA
BRANCH  26  28
ATOM     28  C   UNL A   1      42.021  21.732  26.446  1.00  0.00     0.060 A 
ATOM     29  C   UNL A   1      42.191  22.122  27.785  1.00  0.00     0.016 A 
ATOM     30  C   UNL A   1      42.329  22.624  25.414  1.00  0.00     0.016 A 
ATOM     31  C   UNL A   1      42.644  23.406  28.097  1.00  0.00     0.010 A 
ATOM     32  C   UNL A   1      42.758  23.919  25.732  1.00  0.00     0.010 A 
ATOM     33  C   UNL A   1      42.890  24.326  27.073  1.00  0.00    -0.014 A 
BRANCH  33  34
ATOM     34  C   UNL A   1      43.096  25.767  27.380  1.00  0.00     0.031 A 
ATOM     35  C   UNL A   1      44.497  26.314  27.351  1.00  0.00     0.074 A 
ATOM     36  C   UNL A   1      42.072  26.570  27.719  1.00  0.00     0.049 A 
ATOM     37  N   UNL A   1      44.951  27.467  27.765  1.00  0.00    -0.248 NA
ATOM     38  C   UNL A   1      45.520  25.428  26.781  1.00  0.00     0.031 C 
ATOM     39  C   UNL A   1      40.663  26.186  27.713  1.00  0.00     0.029 A 
ATOM     40  N   UNL A   1      42.071  27.868  28.165  1.00  0.00    -0.354 N 
ATOM     41  C   UNL A   1      46.321  27.443  27.524  1.00  0.00     0.074 A 
ATOM     42  C   UNL A   1      46.618  26.149  26.942  1.00  0.00     0.031 C 
ATOM     43  C   UNL A   1      39.935  27.214  28.185  1.00  0.00     0.029 A 
ATOM     44  C   UNL A   1      40.832  28.304  28.573  1.00  0.00     0.049 A 
ATOM     45  H   UNL A   1      42.879  28.432  28.192  1.00  0.00     0.167 HD
ATOM     46  C   UNL A   1      47.246  28.403  27.776  1.00  0.00     0.034 A 
ATOM     47  C   UNL A   1      40.471  29.421  29.238  1.00  0.00     0.034 A 
ATOM     48  C   UNL A   1      46.940  29.672  28.388  1.00  0.00     0.049 A 
ATOM     49  C   UNL A   1      41.525  30.434  29.618  1.00  0.00     0.074 A 
ATOM     50  C   UNL A   1      47.797  30.716  28.691  1.00  0.00     0.029 A 
ATOM     51  N   UNL A   1      45.677  30.064  28.816  1.00  0.00    -0.354 N 
ATOM     52  N   UNL A   1      42.821  30.398  29.408  1.00  0.00    -0.248 NA
ATOM     53  C   UNL A   1      41.068  31.637  30.329  1.00  0.00     0.031 C 
ATOM     54  C   UNL A   1      47.069  31.701  29.369  1.00  0.00     0.029 A 
ATOM     55  C   UNL A   1      45.740  31.313  29.415  1.00  0.00     0.049 A 
ATOM     56  H   UNL A   1      44.856  29.532  28.708  1.00  0.00     0.167 HD
ATOM     57  C   UNL A   1      43.329  31.583  29.937  1.00  0.00     0.074 A 
ATOM     58  C   UNL A   1      42.199  32.313  30.476  1.00  0.00     0.031 C 
ATOM     59  C   UNL A   1      44.610  32.031  29.962  1.00  0.00     0.034 A 
BRANCH  46  60
ATOM     60  C   UNL A   1      48.685  28.061  27.465  1.00  0.00     0.023 A 
ATOM     61  C   UNL A   1      49.260  28.341  26.213  1.00  0.00     0.031 A 
ATOM     62  C   UNL A   1      49.466  27.371  28.408  1.00  0.00     0.131 A 
ATOM     63  C   UNL A   1      50.535  27.845  25.904  1.00  0.00     0.055 A 
ATOM     64  C   UNL A   1      50.770  26.958  28.126  1.00  0.00     0.041 A 
ATOM     65  F   UNL A   1      48.965  27.055  29.613  1.00  0.00    -0.206 F 
ATOM     66  C   UNL A   1      51.304  27.175  26.859  1.00  0.00     0.022 A 
BRANCH  63  67
ATOM     67  S   UNL A   1      51.096  27.918  24.179  1.00  0.00     0.124 S 
ATOM     68  O   UNL A   1      52.002  29.063  24.209  1.00  0.00    -0.237 OA
ATOM     69  O   UNL A   1      51.719  26.612  23.997  1.00  0.00    -0.237 OA
ATOM     70  O   UNL A   1      49.860  28.131  23.426  1.00  0.00    -0.744 OA
ENDBRANCH  63  67
ENDBRANCH  46  60
BRANCH  47  71
ATOM     71  C   UNL A   1      39.056  29.598  29.673  1.00  0.00     0.023 A 
ATOM     72  C   UNL A   1      38.153  30.381  28.940  1.00  0.00     0.031 A 
ATOM     73  C   UNL A   1      38.597  28.994  30.860  1.00  0.00     0.131 A 
ATOM     74  C   UNL A   1      36.842  30.559  29.413  1.00  0.00     0.055 A 
ATOM     75  C   UNL A   1      37.282  29.138  31.300  1.00  0.00     0.041 A 
ATOM     76  F   UNL A   1      39.424  28.236  31.598  1.00  0.00    -0.206 F 
ATOM     77  C   UNL A   1      36.397  29.931  30.580  1.00  0.00     0.022 A 
BRANCH  74  78
ATOM     78  S   UNL A   1      35.728  31.664  28.502  1.00  0.00     0.124 S 
ATOM     79  O   UNL A   1      36.610  32.784  28.192  1.00  0.00    -0.237 OA
ATOM     80  O   UNL A   1      35.327  30.830  27.375  1.00  0.00    -0.237 OA
ATOM     81  O   UNL A   1      34.669  31.952  29.468  1.00  0.00    -0.744 OA
ENDBRANCH  74  78
ENDBRANCH  47  71
BRANCH  59  82
ATOM     82  C   UNL A   1      44.861  33.403  30.541  1.00  0.00     0.023 A 
ATOM     83  C   UNL A   1      44.736  34.575  29.775  1.00  0.00     0.031 A 
ATOM     84  C   UNL A   1      45.202  33.535  31.900  1.00  0.00     0.131 A 
ATOM     85  C   UNL A   1      44.981  35.826  30.366  1.00  0.00     0.055 A 
ATOM     86  C   UNL A   1      45.396  34.783  32.494  1.00  0.00     0.041 A 
ATOM     87  F   UNL A   1      45.337  32.450  32.679  1.00  0.00    -0.206 F 
ATOM     88  C   UNL A   1      45.292  35.937  31.725  1.00  0.00     0.022 A 
BRANCH  85  89
ATOM     89  S   UNL A   1      44.939  37.312  29.326  1.00  0.00     0.124 S 
ATOM     90  O   UNL A   1      44.845  38.376  30.320  1.00  0.00    -0.237 OA
ATOM     91  O   UNL A   1      46.204  37.225  28.603  1.00  0.00    -0.237 OA
ATOM     92  O   UNL A   1      43.744  37.125  28.504  1.00  0.00    -0.744 OA
ENDBRANCH  85  89
ENDBRANCH  59  82
ENDBRANCH  33  34
ENDBRANCH  26  28
ENDBRANCH  25  26
ENDBRANCH  24  25
ENDBRANCH  23  24
ENDBRANCH  22  23
ENDBRANCH  21  22
ENDBRANCH   1  21
TORSDOF 23
ENDMDL
MODEL 2
REMARK VINA RESULT:      -9.0      1.147      7.558
REMARK SMILES O=C(COC[C@@H]1COc2ccccc2O1)OCCOCCOCCOC(=O)c1ccc(-c2c3nc(c(-c4cc(S(=O)(=O)[O-])ccc4F)c4ccc([nH]4)c(-c4cc(S(=O)(=O)[O-])ccc4F)c4nc(c(-c5cc(S(=O)(=O)[O-])ccc5F)c5ccc2[nH]5)C=C4)C=C3)cc1
REMARK SMILES IDX 20 1 19 2 18 3 17 4 16 5 2 6 1 7 3 8 4 9 5 10 6 11 7 12
REMARK SMILES IDX 15 13 8 14 14 15 9 16 13 17 10 18 12 19 11 20 21 21 22 22
REMARK SMILES IDX 23 23 24 24 25 25 26 26 27 27 28 28 29 29 90 30 30 31 89 32
REMARK SMILES IDX 31 33 32 34 33 35 83 36 34 37 88 38 82 39 84 40 35 41 87 42
REMARK SMILES IDX 81 43 80 44 36 46 68 47 48 48 67 49 49 50 52 51 66 52 85 53
REMARK SMILES IDX 50 54 51 55 65 57 86 58 53 59 37 60 38 61 46 62 39 63 45 64
REMARK SMILES IDX 47 65 44 66 40 67 41 68 42 69 43 70 69 71 70 72 78 73 71 74
REMARK SMILES IDX 77 75 79 76 76 77 72 78 73 79 74 80 75 81 54 82 55 83 63 84
REMARK SMILES IDX 56 85 62 86 64 87 61 88 57 89 58 90 59 91 60 92
REMARK H PARENT 84 45 52 56
REMARK Flexibility Score: inf
ROOT
ATOM      1  C   UNL A   1      35.229  21.618  26.067  1.00  0.00     0.188 C 
ENDROOT
BRANCH   1   2
ATOM      2  O   UNL A   1      34.150  20.709  26.158  1.00  0.00    -0.376 OA
BRANCH   2   3
ATOM      3  C   UNL A   1      33.425  20.346  25.001  1.00  0.00     0.202 C 
BRANCH   3   4
ATOM      4  C   UNL A   1      32.157  21.140  24.659  1.00  0.00     0.261 C 
BRANCH   4   5
ATOM      5  O   UNL A   1      32.308  22.548  24.420  1.00  0.00    -0.462 OA
BRANCH   5   6
ATOM      6  C   UNL A   1      32.184  23.128  23.200  1.00  0.00     0.332 C 
ATOM      7  O   UNL A   1      32.762  22.619  22.245  1.00  0.00    -0.250 OA
BRANCH   6   8
ATOM      8  C   UNL A   1      31.429  24.478  23.141  1.00  0.00     0.282 C 
BRANCH   8   9
ATOM      9  O   UNL A   1      31.861  25.544  22.311  1.00  0.00    -0.366 OA
BRANCH   9  10
ATOM     10  C   UNL A   1      31.201  26.789  22.506  1.00  0.00     0.209 C 
BRANCH  10  11
ATOM     11  C   UNL A   1      32.091  28.044  22.589  1.00  0.00     0.236 C 
ATOM     12  C   UNL A   1      33.529  27.623  22.907  1.00  0.00     0.277 C 
ATOM     13  O   UNL A   1      31.623  29.041  23.509  1.00  0.00    -0.481 OA
ATOM     14  O   UNL A   1      33.616  27.082  24.236  1.00  0.00    -0.486 OA
ATOM     15  C   UNL A   1      32.169  28.956  24.760  1.00  0.00     0.161 A 
ATOM     16  C   UNL A   1      33.077  27.965  25.136  1.00  0.00     0.161 A 
ATOM     17  C   UNL A   1      31.761  29.915  25.685  1.00  0.00     0.050 A 
ATOM     18  C   UNL A   1      33.478  27.856  26.466  1.00  0.00     0.050 A 
ATOM     19  C   UNL A   1      32.213  29.845  27.004  1.00  0.00     0.004 A 
ATOM     20  C   UNL A   1      33.046  28.798  27.401  1.00  0.00     0.004 A 
ENDBRANCH  10  11
ENDBRANCH   9  10
ENDBRANCH   8   9
ENDBRANCH   6   8
ENDBRANCH   5   6
ENDBRANCH   4   5
ENDBRANCH   3   4
ENDBRANCH   2   3
ENDBRANCH   1   2
BRANCH   1  21
ATOM     21  C   UNL A   1      35.611  21.897  24.603  1.00  0.00     0.188 C 
BRANCH  21  22
ATOM     22  O   UNL A   1      36.990  21.798  24.255  1.00  0.00    -0.376 OA
BRANCH  22  23
ATOM     23  C   UNL A   1      37.812  20.907  25.018  1.00  0.00     0.202 C 
BRANCH  23  24
ATOM     24  C   UNL A   1      38.990  21.487  25.819  1.00  0.00     0.261 C 
BRANCH  24  25
ATOM     25  O   UNL A   1      39.744  20.517  26.585  1.00  0.00    -0.460 OA
BRANCH  25  26
ATOM     26  C   UNL A   1      41.015  20.317  26.189  1.00  0.00     0.338 C 
ATOM     27  O   UNL A   1      41.429  19.393  25.482  1.00  0.00    -0.246 OA
BRANCH  26  28
ATOM     28  C   UNL A   1      41.883  21.440  26.574  1.00  0.00     0.060 A 
ATOM     29  C   UNL A   1      42.198  21.610  27.933  1.00  0.00     0.016 A 
ATOM     30  C   UNL A   1      42.265  22.408  25.641  1.00  0.00     0.016 A 
ATOM     31  C   UNL A   1      42.871  22.755  28.366  1.00  0.00     0.010 A 
ATOM     32  C   UNL A   1      42.916  23.567  26.083  1.00  0.00     0.010 A 
ATOM     33  C   UNL A   1      43.197  23.760  27.450  1.00  0.00    -0.014 A 
BRANCH  33  34
ATOM     34  C   UNL A   1      43.651  25.097  27.918  1.00  0.00     0.031 A 
ATOM     35  C   UNL A   1      42.624  26.061  28.445  1.00  0.00     0.074 A 
ATOM     36  C   UNL A   1      44.941  25.470  27.842  1.00  0.00     0.049 A 
ATOM     37  N   UNL A   1      42.738  27.332  28.724  1.00  0.00    -0.248 NA
ATOM     38  C   UNL A   1      41.284  25.505  28.679  1.00  0.00     0.031 C 
ATOM     39  C   UNL A   1      46.044  24.611  27.422  1.00  0.00     0.029 A 
ATOM     40  N   UNL A   1      45.529  26.687  28.086  1.00  0.00    -0.354 N 
ATOM     41  C   UNL A   1      41.478  27.740  29.151  1.00  0.00     0.074 A 
ATOM     42  C   UNL A   1      40.617  26.577  29.075  1.00  0.00     0.031 C 
ATOM     43  C   UNL A   1      47.172  25.341  27.391  1.00  0.00     0.029 A 
ATOM     44  C   UNL A   1      46.859  26.729  27.738  1.00  0.00     0.049 A 
ATOM     45  H   UNL A   1      45.047  27.453  28.473  1.00  0.00     0.167 HD
ATOM     46  C   UNL A   1      41.075  28.971  29.556  1.00  0.00     0.034 A 
ATOM     47  C   UNL A   1      47.708  27.774  27.646  1.00  0.00     0.034 A 
ATOM     48  C   UNL A   1      41.937  30.126  29.593  1.00  0.00     0.049 A 
ATOM     49  C   UNL A   1      47.220  29.161  27.988  1.00  0.00     0.074 A 
ATOM     50  C   UNL A   1      41.633  31.420  29.983  1.00  0.00     0.029 A 
ATOM     51  N   UNL A   1      43.270  30.136  29.201  1.00  0.00    -0.354 N 
ATOM     52  N   UNL A   1      46.023  29.547  28.370  1.00  0.00    -0.248 NA
ATOM     53  C   UNL A   1      48.195  30.256  27.883  1.00  0.00     0.031 C 
ATOM     54  C   UNL A   1      42.757  32.223  29.754  1.00  0.00     0.029 A 
ATOM     55  C   UNL A   1      43.790  31.418  29.302  1.00  0.00     0.049 A 
ATOM     56  H   UNL A   1      43.773  29.346  28.897  1.00  0.00     0.167 HD
ATOM     57  C   UNL A   1      46.111  30.922  28.575  1.00  0.00     0.074 A 
ATOM     58  C   UNL A   1      47.477  31.300  28.275  1.00  0.00     0.031 C 
ATOM     59  C   UNL A   1      45.151  31.790  28.988  1.00  0.00     0.034 A 
BRANCH  46  60
ATOM     60  C   UNL A   1      39.613  29.129  29.902  1.00  0.00     0.023 A 
ATOM     61  C   UNL A   1      38.708  29.760  29.030  1.00  0.00     0.031 A 
ATOM     62  C   UNL A   1      39.137  28.717  31.159  1.00  0.00     0.131 A 
ATOM     63  C   UNL A   1      37.406  30.048  29.464  1.00  0.00     0.055 A 
ATOM     64  C   UNL A   1      37.813  28.927  31.551  1.00  0.00     0.041 A 
ATOM     65  F   UNL A   1      39.958  28.130  32.044  1.00  0.00    -0.206 F 
ATOM     66  C   UNL A   1      36.944  29.616  30.710  1.00  0.00     0.022 A 
BRANCH  63  67
ATOM     67  S   UNL A   1      36.387  31.164  28.458  1.00  0.00     0.124 S 
ATOM     68  O   UNL A   1      35.233  31.378  29.328  1.00  0.00    -0.237 OA
ATOM     69  O   UNL A   1      37.269  32.310  28.270  1.00  0.00    -0.237 OA
ATOM     70  O   UNL A   1      36.112  30.383  27.253  1.00  0.00    -0.744 OA
ENDBRANCH  63  67
ENDBRANCH  46  60
BRANCH  47  71
ATOM     71  C   UNL A   1      49.086  27.563  27.118  1.00  0.00     0.023 A 
ATOM     72  C   UNL A   1      49.397  27.775  25.767  1.00  0.00     0.031 A 
ATOM     73  C   UNL A   1      50.113  27.115  27.972  1.00  0.00     0.131 A 
ATOM     74  C   UNL A   1      50.698  27.517  25.303  1.00  0.00     0.055 A 
ATOM     75  C   UNL A   1      51.413  26.904  27.514  1.00  0.00     0.041 A 
ATOM     76  F   UNL A   1      49.865  26.894  29.273  1.00  0.00    -0.206 F 
ATOM     77  C   UNL A   1      51.711  27.098  26.170  1.00  0.00     0.022 A 
BRANCH  74  78
ATOM     78  S   UNL A   1      51.045  27.698  23.531  1.00  0.00     0.124 S 
ATOM     79  O   UNL A   1      52.392  27.148  23.435  1.00  0.00    -0.237 OA
ATOM     80  O   UNL A   1      49.981  26.902  22.930  1.00  0.00    -0.237 OA
ATOM     81  O   UNL A   1      50.941  29.139  23.309  1.00  0.00    -0.744 OA
ENDBRANCH  74  78
ENDBRANCH  47  71
BRANCH  59  82
ATOM     82  C   UNL A   1      45.554  33.231  29.197  1.00  0.00     0.023 A 
ATOM     83  C   UNL A   1      45.451  34.194  28.178  1.00  0.00     0.031 A 
ATOM     84  C   UNL A   1      46.022  33.649  30.456  1.00  0.00     0.131 A 
ATOM     85  C   UNL A   1      45.840  35.520  28.429  1.00  0.00     0.055 A 
ATOM     86  C   UNL A   1      46.361  34.978  30.714  1.00  0.00     0.041 A 
ATOM     87  F   UNL A   1      46.143  32.771  31.466  1.00  0.00    -0.206 F 
ATOM     88  C   UNL A   1      46.277  35.921  29.695  1.00  0.00     0.022 A 
BRANCH  85  89
ATOM     89  S   UNL A   1      45.819  36.715  27.063  1.00  0.00     0.124 S 
ATOM     90  O   UNL A   1      44.404  37.064  26.985  1.00  0.00    -0.237 OA
ATOM     91  O   UNL A   1      46.710  37.764  27.550  1.00  0.00    -0.237 OA
ATOM     92  O   UNL A   1      46.331  35.949  25.927  1.00  0.00    -0.744 OA
ENDBRANCH  85  89
ENDBRANCH  59  82
ENDBRANCH  33  34
ENDBRANCH  26  28
ENDBRANCH  25  26
ENDBRANCH  24  25
ENDBRANCH  23  24
ENDBRANCH  22  23
ENDBRANCH  21  22
ENDBRANCH   1  21
TORSDOF 23
ENDMDL
MODEL 3
REMARK VINA RESULT:      -8.9      2.565      8.561
REMARK SMILES O=C(COC[C@@H]1COc2ccccc2O1)OCCOCCOCCOC(=O)c1ccc(-c2c3nc(c(-c4cc(S(=O)(=O)[O-])ccc4F)c4ccc([nH]4)c(-c4cc(S(=O)(=O)[O-])ccc4F)c4nc(c(-c5cc(S(=O)(=O)[O-])ccc5F)c5ccc2[nH]5)C=C4)C=C3)cc1
REMARK SMILES IDX 20 1 19 2 18 3 17 4 16 5 2 6 1 7 3 8 4 9 5 10 6 11 7 12
REMARK SMILES IDX 15 13 8 14 14 15 9 16 13 17 10 18 12 19 11 20 21 21 22 22
REMARK SMILES IDX 23 23 24 24 25 25 26 26 27 27 28 28 29 29 90 30 30 31 89 32
REMARK SMILES IDX 31 33 32 34 33 35 83 36 34 37 88 38 82 39 84 40 35 41 87 42
REMARK SMILES IDX 81 43 80 44 36 46 68 47 48 48 67 49 49 50 52 51 66 52 85 53
REMARK SMILES IDX 50 54 51 55 65 57 86 58 53 59 37 60 38 61 46 62 39 63 45 64
REMARK SMILES IDX 47 65 44 66 40 67 41 68 42 69 43 70 69 71 70 72 78 73 71 74
REMARK SMILES IDX 77 75 79 76 76 77 72 78 73 79 74 80 75 81 54 82 55 83 63 84
REMARK SMILES IDX 56 85 62 86 64 87 61 88 57 89 58 90 59 91 60 92
REMARK H PARENT 84 45 52 56
REMARK Flexibility Score: inf
ROOT
ATOM      1  C   UNL A   1      38.001  22.158  25.742  1.00  0.00     0.188 C 
ENDROOT
BRANCH   1   2
ATOM      2  O   UNL A   1      37.253  23.317  26.050  1.00  0.00    -0.376 OA
BRANCH   2   3
ATOM      3  C   UNL A   1      36.214  23.744  25.193  1.00  0.00     0.202 C 
BRANCH   3   4
ATOM      4  C   UNL A   1      36.046  23.033  23.843  1.00  0.00     0.261 C 
BRANCH   4   5
ATOM      5  O   UNL A   1      35.284  23.714  22.834  1.00  0.00    -0.462 OA
BRANCH   5   6
ATOM      6  C   UNL A   1      33.977  24.054  22.970  1.00  0.00     0.332 C 
ATOM      7  O   UNL A   1      33.691  25.021  23.668  1.00  0.00    -0.250 OA
BRANCH   6   8
ATOM      8  C   UNL A   1      32.936  23.098  22.339  1.00  0.00     0.282 C 
BRANCH   8   9
ATOM      9  O   UNL A   1      32.033  22.344  23.131  1.00  0.00    -0.366 OA
BRANCH   9  10
ATOM     10  C   UNL A   1      32.402  20.992  23.375  1.00  0.00     0.209 C 
BRANCH  10  11
ATOM     11  C   UNL A   1      32.514  20.557  24.850  1.00  0.00     0.236 C 
ATOM     12  C   UNL A   1      33.974  20.664  25.298  1.00  0.00     0.277 C 
ATOM     13  O   UNL A   1      31.976  19.255  25.124  1.00  0.00    -0.481 OA
ATOM     14  O   UNL A   1      34.785  19.692  24.616  1.00  0.00    -0.486 OA
ATOM     15  C   UNL A   1      32.896  18.244  25.084  1.00  0.00     0.161 A 
ATOM     16  C   UNL A   1      34.240  18.442  24.766  1.00  0.00     0.161 A 
ATOM     17  C   UNL A   1      32.427  16.962  25.363  1.00  0.00     0.050 A 
ATOM     18  C   UNL A   1      35.086  17.347  24.602  1.00  0.00     0.050 A 
ATOM     19  C   UNL A   1      33.290  15.869  25.263  1.00  0.00     0.004 A 
ATOM     20  C   UNL A   1      34.610  16.059  24.852  1.00  0.00     0.004 A 
ENDBRANCH  10  11
ENDBRANCH   9  10
ENDBRANCH   8   9
ENDBRANCH   6   8
ENDBRANCH   5   6
ENDBRANCH   4   5
ENDBRANCH   3   4
ENDBRANCH   2   3
ENDBRANCH   1   2
BRANCH   1  21
ATOM     21  C   UNL A   1      39.345  22.138  26.491  1.00  0.00     0.188 C 
BRANCH  21  22
ATOM     22  O   UNL A   1      40.507  21.786  25.744  1.00  0.00    -0.376 OA
BRANCH  22  23
ATOM     23  C   UNL A   1      41.215  20.601  26.124  1.00  0.00     0.202 C 
BRANCH  23  24
ATOM     24  C   UNL A   1      42.752  20.607  26.076  1.00  0.00     0.261 C 
BRANCH  24  25
ATOM     25  O   UNL A   1      43.370  21.851  26.486  1.00  0.00    -0.460 OA
BRANCH  25  26
ATOM     26  C   UNL A   1      43.651  22.720  25.497  1.00  0.00     0.338 C 
ATOM     27  O   UNL A   1      43.451  22.551  24.289  1.00  0.00    -0.246 OA
BRANCH  26  28
ATOM     28  C   UNL A   1      44.104  24.015  26.027  1.00  0.00     0.060 A 
ATOM     29  C   UNL A   1      44.627  24.061  27.330  1.00  0.00     0.016 A 
ATOM     30  C   UNL A   1      43.883  25.200  25.320  1.00  0.00     0.016 A 
ATOM     31  C   UNL A   1      44.906  25.287  27.938  1.00  0.00     0.010 A 
ATOM     32  C   UNL A   1      44.140  26.428  25.943  1.00  0.00     0.010 A 
ATOM     33  C   UNL A   1      44.625  26.479  27.264  1.00  0.00    -0.014 A 
BRANCH  33  34
ATOM     34  C   UNL A   1      44.644  27.781  27.983  1.00  0.00     0.031 A 
ATOM     35  C   UNL A   1      43.346  28.333  28.504  1.00  0.00     0.074 A 
ATOM     36  C   UNL A   1      45.779  28.485  28.138  1.00  0.00     0.049 A 
ATOM     37  N   UNL A   1      43.075  29.519  28.982  1.00  0.00    -0.248 NA
ATOM     38  C   UNL A   1      42.199  27.416  28.470  1.00  0.00     0.031 C 
ATOM     39  C   UNL A   1      47.112  28.032  27.748  1.00  0.00     0.029 A 
ATOM     40  N   UNL A   1      45.981  29.748  28.638  1.00  0.00    -0.354 N 
ATOM     41  C   UNL A   1      41.719  29.501  29.290  1.00  0.00     0.074 A 
ATOM     42  C   UNL A   1      41.226  28.188  28.927  1.00  0.00     0.031 C 
ATOM     43  C   UNL A   1      47.989  29.024  27.979  1.00  0.00     0.029 A 
ATOM     44  C   UNL A   1      47.271  30.197  28.482  1.00  0.00     0.049 A 
ATOM     45  H   UNL A   1      45.271  30.280  29.066  1.00  0.00     0.167 HD
ATOM     46  C   UNL A   1      40.953  30.491  29.816  1.00  0.00     0.034 A 
ATOM     47  C   UNL A   1      47.799  31.426  28.662  1.00  0.00     0.034 A 
ATOM     48  C   UNL A   1      41.451  31.805  30.140  1.00  0.00     0.049 A 
ATOM     49  C   UNL A   1      46.915  32.553  29.137  1.00  0.00     0.074 A 
ATOM     50  C   UNL A   1      40.765  32.883  30.673  1.00  0.00     0.029 A 
ATOM     51  N   UNL A   1      42.758  32.232  29.938  1.00  0.00    -0.354 N 
ATOM     52  N   UNL A   1      45.629  32.539  29.408  1.00  0.00    -0.248 NA
ATOM     53  C   UNL A   1      47.551  33.865  29.328  1.00  0.00     0.031 C 
ATOM     54  C   UNL A   1      41.636  33.979  30.720  1.00  0.00     0.029 A 
ATOM     55  C   UNL A   1      42.888  33.565  30.297  1.00  0.00     0.049 A 
ATOM     56  H   UNL A   1      43.487  31.668  29.590  1.00  0.00     0.167 HD
ATOM     57  C   UNL A   1      45.310  33.830  29.825  1.00  0.00     0.074 A 
ATOM     58  C   UNL A   1      46.537  34.597  29.771  1.00  0.00     0.031 C 
ATOM     59  C   UNL A   1      44.114  34.329  30.228  1.00  0.00     0.034 A 
BRANCH  46  60
ATOM     60  C   UNL A   1      39.480  30.199  29.980  1.00  0.00     0.023 A 
ATOM     61  C   UNL A   1      38.507  30.800  29.162  1.00  0.00     0.031 A 
ATOM     62  C   UNL A   1      39.038  29.370  31.027  1.00  0.00     0.131 A 
ATOM     63  C   UNL A   1      37.147  30.644  29.465  1.00  0.00     0.055 A 
ATOM     64  C   UNL A   1      37.681  29.147  31.268  1.00  0.00     0.041 A 
ATOM     65  F   UNL A   1      39.918  28.786  31.856  1.00  0.00    -0.206 F 
ATOM     66  C   UNL A   1      36.725  29.804  30.498  1.00  0.00     0.022 A 
BRANCH  63  67
ATOM     67  S   UNL A   1      35.946  31.708  28.615  1.00  0.00     0.124 S 
ATOM     68  O   UNL A   1      36.773  32.853  28.244  1.00  0.00    -0.237 OA
ATOM     69  O   UNL A   1      35.498  30.859  27.517  1.00  0.00    -0.237 OA
ATOM     70  O   UNL A   1      34.943  31.982  29.643  1.00  0.00    -0.744 OA
ENDBRANCH  63  67
ENDBRANCH  46  60
BRANCH  47  71
ATOM     71  C   UNL A   1      49.223  31.679  28.299  1.00  0.00     0.023 A 
ATOM     72  C   UNL A   1      49.574  32.331  27.108  1.00  0.00     0.031 A 
ATOM     73  C   UNL A   1      50.260  31.240  29.145  1.00  0.00     0.131 A 
ATOM     74  C   UNL A   1      50.930  32.506  26.784  1.00  0.00     0.055 A 
ATOM     75  C   UNL A   1      51.603  31.457  28.839  1.00  0.00     0.041 A 
ATOM     76  F   UNL A   1      49.976  30.609  30.295  1.00  0.00    -0.206 F 
ATOM     77  C   UNL A   1      51.946  32.086  27.648  1.00  0.00     0.022 A 
BRANCH  74  78
ATOM     78  S   UNL A   1      51.356  33.256  25.187  1.00  0.00     0.124 S 
ATOM     79  O   UNL A   1      50.191  34.098  24.935  1.00  0.00    -0.237 OA
ATOM     80  O   UNL A   1      52.598  33.953  25.500  1.00  0.00    -0.237 OA
ATOM     81  O   UNL A   1      51.499  32.105  24.298  1.00  0.00    -0.744 OA
ENDBRANCH  74  78
ENDBRANCH  47  71
BRANCH  59  82
ATOM     82  C   UNL A   1      44.078  35.763  30.702  1.00  0.00     0.023 A 
ATOM     83  C   UNL A   1      43.885  36.839  29.819  1.00  0.00     0.031 A 
ATOM     84  C   UNL A   1      44.210  36.048  32.073  1.00  0.00     0.131 A 
ATOM     85  C   UNL A   1      43.860  38.154  30.314  1.00  0.00     0.055 A 
ATOM     86  C   UNL A   1      44.135  37.353  32.566  1.00  0.00     0.041 A 
ATOM     87  F   UNL A   1      44.398  35.059  32.962  1.00  0.00    -0.206 F 
ATOM     88  C   UNL A   1      43.966  38.415  31.684  1.00  0.00     0.022 A 
BRANCH  85  89
ATOM     89  S   UNL A   1      43.739  39.533  29.141  1.00  0.00     0.124 S 
ATOM     90  O   UNL A   1      44.083  38.889  27.878  1.00  0.00    -0.237 OA
ATOM     91  O   UNL A   1      42.348  39.950  29.288  1.00  0.00    -0.237 OA
ATOM     92  O   UNL A   1      44.726  40.493  29.636  1.00  0.00    -0.744 OA
ENDBRANCH  85  89
ENDBRANCH  59  82
ENDBRANCH  33  34
ENDBRANCH  26  28
ENDBRANCH  25  26
ENDBRANCH  24  25
ENDBRANCH  23  24
ENDBRANCH  22  23
ENDBRANCH  21  22
ENDBRANCH   1  21
TORSDOF 23
ENDMDL
