MODEL 1
REMARK VINA RESULT:     -10.5      0.000      0.000
REMARK SMILES C[C@]1(C(=O)N2CCC(CC(=O)OCCOCCOCCOC(=O)c3ccc(-c4c5nc(c(-c6cc(S(=O)(=O)[O-])ccc6F)c6ccc([nH]6)c(-c6cc(S(=O)(=O)[O-])ccc6F)c6nc(c(-c7cc(S(=O)(=O)[O-])ccc7F)c7ccc4[nH]7)C=C6)C=C5)cc3)CC2)CCC[NH2+]C1
REMARK SMILES IDX 17 1 16 2 15 3 14 4 13 5 12 6 10 7 11 8 9 9 8 10 3 11 4 12
REMARK SMILES IDX 5 13 6 14 88 15 7 16 87 17 2 18 1 19 89 20 93 21 90 22 92 23
REMARK SMILES IDX 91 24 18 27 19 28 20 29 21 30 22 31 23 32 24 33 25 34 86 35
REMARK SMILES IDX 26 36 85 37 27 38 28 39 29 40 79 41 30 42 84 43 78 44 80 45
REMARK SMILES IDX 31 46 83 47 77 48 76 49 32 51 64 52 44 53 63 54 45 55 48 56
REMARK SMILES IDX 62 57 81 58 46 59 47 60 61 62 82 63 49 64 33 65 34 66 42 67
REMARK SMILES IDX 35 68 41 69 43 70 40 71 36 72 37 73 38 74 39 75 65 76 66 77
REMARK SMILES IDX 74 78 67 79 73 80 75 81 72 82 68 83 69 84 70 85 71 86 50 87
REMARK SMILES IDX 51 88 59 89 52 90 58 91 60 92 57 93 53 94 54 95 55 96 56 97
REMARK H PARENT 92 25 92 26 80 50 48 61
REMARK Flexibility Score: inf
ROOT
ATOM      1  C   UNL A   1      36.420  22.966  24.843  1.00  0.00     0.188 C 
ENDROOT
BRANCH   1   2
ATOM      2  C   UNL A   1      35.510  21.738  24.830  1.00  0.00     0.188 C 
BRANCH   2   3
ATOM      3  O   UNL A   1      34.812  21.455  26.038  1.00  0.00    -0.376 OA
BRANCH   3   4
ATOM      4  C   UNL A   1      34.383  22.577  26.805  1.00  0.00     0.202 C 
BRANCH   4   5
ATOM      5  C   UNL A   1      33.008  22.457  27.477  1.00  0.00     0.261 C 
BRANCH   5   6
ATOM      6  O   UNL A   1      32.193  23.635  27.329  1.00  0.00    -0.463 OA
BRANCH   6   7
ATOM      7  C   UNL A   1      30.987  23.454  26.737  1.00  0.00     0.306 C 
ATOM      8  O   UNL A   1      29.915  23.792  27.231  1.00  0.00    -0.252 OA
BRANCH   7   9
ATOM      9  C   UNL A   1      31.044  22.833  25.352  1.00  0.00     0.126 C 
BRANCH   9  10
ATOM     10  C   UNL A   1      31.182  23.676  24.064  1.00  0.00     0.003 C 
ATOM     11  C   UNL A   1      32.441  27.626  23.343  1.00  0.00     0.234 C 
ATOM     12  O   UNL A   1      33.320  28.037  22.576  1.00  0.00    -0.274 OA
ATOM     13  N   UNL A   1      32.005  26.323  23.260  1.00  0.00    -0.342 N 
ATOM     14  C   UNL A   1      32.937  25.251  22.967  1.00  0.00     0.120 C 
ATOM     15  C   UNL A   1      30.623  25.949  23.040  1.00  0.00     0.120 C 
ATOM     16  C   UNL A   1      32.675  24.116  23.956  1.00  0.00     0.026 C 
ATOM     17  C   UNL A   1      30.211  24.870  24.033  1.00  0.00     0.026 C 
BRANCH  11  18
ATOM     18  C   UNL A   1      32.001  28.509  24.551  1.00  0.00     0.095 C 
ATOM     19  C   UNL A   1      30.661  29.136  24.073  1.00  0.00     0.028 C 
ATOM     20  C   UNL A   1      31.710  27.626  25.779  1.00  0.00     0.028 C 
ATOM     21  C   UNL A   1      32.898  29.691  24.971  1.00  0.00     0.277 C 
ATOM     22  C   UNL A   1      32.996  27.248  26.508  1.00  0.00     0.063 C 
ATOM     23  N   UNL A   1      34.087  29.341  25.751  1.00  0.00    -0.345 N 
ATOM     24  C   UNL A   1      33.800  28.487  26.894  1.00  0.00     0.260 C 
ATOM     25  H   UNL A   1      34.742  28.852  25.140  1.00  0.00     0.346 HD
ATOM     26  H   UNL A   1      34.476  30.211  26.115  1.00  0.00     0.346 HD
ENDBRANCH  11  18
ENDBRANCH   9  10
ENDBRANCH   7   9
ENDBRANCH   6   7
ENDBRANCH   5   6
ENDBRANCH   4   5
ENDBRANCH   3   4
ENDBRANCH   2   3
ENDBRANCH   1   2
BRANCH   1  27
ATOM     27  O   UNL A   1      37.620  22.860  25.602  1.00  0.00    -0.376 OA
BRANCH  27  28
ATOM     28  C   UNL A   1      38.161  21.538  25.713  1.00  0.00     0.202 C 
BRANCH  28  29
ATOM     29  C   UNL A   1      39.643  21.430  26.136  1.00  0.00     0.261 C 
BRANCH  29  30
ATOM     30  O   UNL A   1      40.121  20.094  26.406  1.00  0.00    -0.460 OA
BRANCH  30  31
ATOM     31  C   UNL A   1      41.440  19.844  26.223  1.00  0.00     0.338 C 
ATOM     32  O   UNL A   1      41.917  18.826  25.751  1.00  0.00    -0.246 OA
BRANCH  31  33
ATOM     33  C   UNL A   1      42.195  21.116  26.411  1.00  0.00     0.060 A 
ATOM     34  C   UNL A   1      42.479  21.528  27.723  1.00  0.00     0.016 A 
ATOM     35  C   UNL A   1      42.692  21.855  25.333  1.00  0.00     0.016 A 
ATOM     36  C   UNL A   1      43.214  22.696  27.956  1.00  0.00     0.010 A 
ATOM     37  C   UNL A   1      43.418  23.030  25.568  1.00  0.00     0.010 A 
ATOM     38  C   UNL A   1      43.653  23.478  26.881  1.00  0.00    -0.014 A 
BRANCH  38  39
ATOM     39  C   UNL A   1      44.152  24.860  27.124  1.00  0.00     0.031 A 
ATOM     40  C   UNL A   1      43.172  25.884  27.635  1.00  0.00     0.074 A 
ATOM     41  C   UNL A   1      45.436  25.211  26.924  1.00  0.00     0.049 A 
ATOM     42  N   UNL A   1      43.342  27.157  27.878  1.00  0.00    -0.248 NA
ATOM     43  C   UNL A   1      41.810  25.396  27.900  1.00  0.00     0.031 C 
ATOM     44  C   UNL A   1      46.498  24.315  26.470  1.00  0.00     0.029 A 
ATOM     45  N   UNL A   1      46.061  26.427  27.068  1.00  0.00    -0.354 N 
ATOM     46  C   UNL A   1      42.108  27.627  28.317  1.00  0.00     0.074 A 
ATOM     47  C   UNL A   1      41.192  26.508  28.263  1.00  0.00     0.031 C 
ATOM     48  C   UNL A   1      47.639  25.018  26.356  1.00  0.00     0.029 A 
ATOM     49  C   UNL A   1      47.384  26.419  26.690  1.00  0.00     0.049 A 
ATOM     50  H   UNL A   1      45.604  27.229  27.410  1.00  0.00     0.167 HD
ATOM     51  C   UNL A   1      41.769  28.872  28.736  1.00  0.00     0.034 A 
ATOM     52  C   UNL A   1      48.276  27.429  26.593  1.00  0.00     0.034 A 
ATOM     53  C   UNL A   1      42.685  29.986  28.771  1.00  0.00     0.049 A 
ATOM     54  C   UNL A   1      47.857  28.832  26.977  1.00  0.00     0.074 A 
ATOM     55  C   UNL A   1      42.447  31.280  29.201  1.00  0.00     0.029 A 
ATOM     56  N   UNL A   1      44.005  29.948  28.340  1.00  0.00    -0.354 N 
ATOM     57  N   UNL A   1      46.694  29.259  27.413  1.00  0.00    -0.248 NA
ATOM     58  C   UNL A   1      48.875  29.885  26.863  1.00  0.00     0.031 C 
ATOM     59  C   UNL A   1      43.593  32.043  28.951  1.00  0.00     0.029 A 
ATOM     60  C   UNL A   1      44.579  31.207  28.451  1.00  0.00     0.049 A 
ATOM     61  H   UNL A   1      44.465  29.145  28.004  1.00  0.00     0.167 HD
ATOM     62  C   UNL A   1      46.853  30.624  27.651  1.00  0.00     0.074 A 
ATOM     63  C   UNL A   1      48.225  30.946  27.323  1.00  0.00     0.031 C 
ATOM     64  C   UNL A   1      45.946  31.527  28.107  1.00  0.00     0.034 A 
BRANCH  51  65
ATOM     65  C   UNL A   1      40.327  29.096  29.124  1.00  0.00     0.023 A 
ATOM     66  C   UNL A   1      39.915  29.129  30.469  1.00  0.00     0.031 A 
ATOM     67  C   UNL A   1      39.338  29.222  28.131  1.00  0.00     0.131 A 
ATOM     68  C   UNL A   1      38.548  29.190  30.781  1.00  0.00     0.055 A 
ATOM     69  C   UNL A   1      37.988  29.377  28.451  1.00  0.00     0.041 A 
ATOM     70  F   UNL A   1      39.665  29.173  26.831  1.00  0.00    -0.206 F 
ATOM     71  C   UNL A   1      37.584  29.342  29.782  1.00  0.00     0.022 A 
BRANCH  68  72
ATOM     72  S   UNL A   1      38.039  28.887  32.495  1.00  0.00     0.124 S 
ATOM     73  O   UNL A   1      39.007  29.693  33.237  1.00  0.00    -0.237 OA
ATOM     74  O   UNL A   1      36.663  29.369  32.506  1.00  0.00    -0.237 OA
ATOM     75  O   UNL A   1      38.197  27.443  32.649  1.00  0.00    -0.744 OA
ENDBRANCH  68  72
ENDBRANCH  51  65
BRANCH  52  76
ATOM     76  C   UNL A   1      49.644  27.175  26.047  1.00  0.00     0.023 A 
ATOM     77  C   UNL A   1      49.954  27.405  24.698  1.00  0.00     0.031 A 
ATOM     78  C   UNL A   1      50.650  26.639  26.871  1.00  0.00     0.131 A 
ATOM     79  C   UNL A   1      51.226  27.065  24.203  1.00  0.00     0.055 A 
ATOM     80  C   UNL A   1      51.928  26.353  26.390  1.00  0.00     0.041 A 
ATOM     81  F   UNL A   1      50.404  26.390  28.167  1.00  0.00    -0.206 F 
ATOM     82  C   UNL A   1      52.219  26.556  25.045  1.00  0.00     0.022 A 
BRANCH  79  83
ATOM     83  S   UNL A   1      51.545  27.223  22.424  1.00  0.00     0.124 S 
ATOM     84  O   UNL A   1      51.831  28.648  22.300  1.00  0.00    -0.237 OA
ATOM     85  O   UNL A   1      52.678  26.322  22.238  1.00  0.00    -0.237 OA
ATOM     86  O   UNL A   1      50.294  26.782  21.812  1.00  0.00    -0.744 OA
ENDBRANCH  79  83
ENDBRANCH  52  76
BRANCH  64  87
ATOM     87  C   UNL A   1      46.423  32.946  28.326  1.00  0.00     0.023 A 
ATOM     88  C   UNL A   1      47.007  33.361  29.536  1.00  0.00     0.031 A 
ATOM     89  C   UNL A   1      46.294  33.900  27.298  1.00  0.00     0.131 A 
ATOM     90  C   UNL A   1      47.390  34.702  29.707  1.00  0.00     0.055 A 
ATOM     91  C   UNL A   1      46.734  35.216  27.452  1.00  0.00     0.041 A 
ATOM     92  F   UNL A   1      45.742  33.566  26.121  1.00  0.00    -0.206 F 
ATOM     93  C   UNL A   1      47.275  35.626  28.666  1.00  0.00     0.022 A 
BRANCH  90  94
ATOM     94  S   UNL A   1      47.958  35.249  31.341  1.00  0.00     0.124 S 
ATOM     95  O   UNL A   1      46.700  35.579  32.004  1.00  0.00    -0.237 OA
ATOM     96  O   UNL A   1      48.653  34.068  31.843  1.00  0.00    -0.237 OA
ATOM     97  O   UNL A   1      48.819  36.393  31.041  1.00  0.00    -0.744 OA
ENDBRANCH  90  94
ENDBRANCH  64  87
ENDBRANCH  38  39
ENDBRANCH  31  33
ENDBRANCH  30  31
ENDBRANCH  29  30
ENDBRANCH  28  29
ENDBRANCH  27  28
ENDBRANCH   1  27
TORSDOF 22
ENDMDL
MODEL 2
REMARK VINA RESULT:     -10.5      1.784      2.086
REMARK SMILES C[C@]1(C(=O)N2CCC(CC(=O)OCCOCCOCCOC(=O)c3ccc(-c4c5nc(c(-c6cc(S(=O)(=O)[O-])ccc6F)c6ccc([nH]6)c(-c6cc(S(=O)(=O)[O-])ccc6F)c6nc(c(-c7cc(S(=O)(=O)[O-])ccc7F)c7ccc4[nH]7)C=C6)C=C5)cc3)CC2)CCC[NH2+]C1
REMARK SMILES IDX 17 1 16 2 15 3 14 4 13 5 12 6 10 7 11 8 9 9 8 10 3 11 4 12
REMARK SMILES IDX 5 13 6 14 88 15 7 16 87 17 2 18 1 19 89 20 93 21 90 22 92 23
REMARK SMILES IDX 91 24 18 27 19 28 20 29 21 30 22 31 23 32 24 33 25 34 86 35
REMARK SMILES IDX 26 36 85 37 27 38 28 39 29 40 79 41 30 42 84 43 78 44 80 45
REMARK SMILES IDX 31 46 83 47 77 48 76 49 32 51 64 52 44 53 63 54 45 55 48 56
REMARK SMILES IDX 62 57 81 58 46 59 47 60 61 62 82 63 49 64 33 65 34 66 42 67
REMARK SMILES IDX 35 68 41 69 43 70 40 71 36 72 37 73 38 74 39 75 65 76 66 77
REMARK SMILES IDX 74 78 67 79 73 80 75 81 72 82 68 83 69 84 70 85 71 86 50 87
REMARK SMILES IDX 51 88 59 89 52 90 58 91 60 92 57 93 53 94 54 95 55 96 56 97
REMARK H PARENT 92 25 92 26 80 50 48 61
REMARK Flexibility Score: inf
ROOT
ATOM      1  C   UNL A   1      36.531  22.831  24.707  1.00  0.00     0.188 C 
ENDROOT
BRANCH   1   2
ATOM      2  C   UNL A   1      35.596  21.623  24.637  1.00  0.00     0.188 C 
BRANCH   2   3
ATOM      3  O   UNL A   1      34.811  21.362  25.795  1.00  0.00    -0.376 OA
BRANCH   3   4
ATOM      4  C   UNL A   1      34.460  22.489  26.594  1.00  0.00     0.202 C 
BRANCH   4   5
ATOM      5  C   UNL A   1      33.155  22.377  27.395  1.00  0.00     0.261 C 
BRANCH   5   6
ATOM      6  O   UNL A   1      32.324  23.549  27.303  1.00  0.00    -0.463 OA
BRANCH   6   7
ATOM      7  C   UNL A   1      31.111  23.374  26.723  1.00  0.00     0.306 C 
ATOM      8  O   UNL A   1      30.046  23.717  27.229  1.00  0.00    -0.252 OA
BRANCH   7   9
ATOM      9  C   UNL A   1      31.151  22.755  25.337  1.00  0.00     0.126 C 
BRANCH   9  10
ATOM     10  C   UNL A   1      31.318  23.597  24.051  1.00  0.00     0.003 C 
ATOM     11  C   UNL A   1      32.537  27.565  23.359  1.00  0.00     0.234 C 
ATOM     12  O   UNL A   1      33.434  27.988  22.620  1.00  0.00    -0.274 OA
ATOM     13  N   UNL A   1      32.124  26.255  23.266  1.00  0.00    -0.342 N 
ATOM     14  C   UNL A   1      33.082  25.198  23.007  1.00  0.00     0.120 C 
ATOM     15  C   UNL A   1      30.756  25.858  23.002  1.00  0.00     0.120 C 
ATOM     16  C   UNL A   1      32.806  24.061  23.991  1.00  0.00     0.026 C 
ATOM     17  C   UNL A   1      30.329  24.775  23.985  1.00  0.00     0.026 C 
BRANCH  11  18
ATOM     18  C   UNL A   1      32.043  28.444  24.549  1.00  0.00     0.095 C 
ATOM     19  C   UNL A   1      30.715  29.057  24.021  1.00  0.00     0.028 C 
ATOM     20  C   UNL A   1      31.716  27.559  25.766  1.00  0.00     0.028 C 
ATOM     21  C   UNL A   1      32.912  29.635  25.001  1.00  0.00     0.277 C 
ATOM     22  C   UNL A   1      32.978  27.194  26.542  1.00  0.00     0.063 C 
ATOM     23  N   UNL A   1      34.075  29.297  25.825  1.00  0.00    -0.345 N 
ATOM     24  C   UNL A   1      33.755  28.441  26.957  1.00  0.00     0.260 C 
ATOM     25  H   UNL A   1      34.757  28.815  25.238  1.00  0.00     0.346 HD
ATOM     26  H   UNL A   1      34.441  30.172  26.202  1.00  0.00     0.346 HD
ENDBRANCH  11  18
ENDBRANCH   9  10
ENDBRANCH   7   9
ENDBRANCH   6   7
ENDBRANCH   5   6
ENDBRANCH   4   5
ENDBRANCH   3   4
ENDBRANCH   2   3
ENDBRANCH   1   2
BRANCH   1  27
ATOM     27  O   UNL A   1      37.610  22.747  25.633  1.00  0.00    -0.376 OA
BRANCH  27  28
ATOM     28  C   UNL A   1      38.168  21.438  25.808  1.00  0.00     0.202 C 
BRANCH  28  29
ATOM     29  C   UNL A   1      39.692  21.362  26.049  1.00  0.00     0.261 C 
BRANCH  29  30
ATOM     30  O   UNL A   1      40.200  20.067  26.436  1.00  0.00    -0.460 OA
BRANCH  30  31
ATOM     31  C   UNL A   1      41.516  19.816  26.231  1.00  0.00     0.338 C 
ATOM     32  O   UNL A   1      41.981  18.811  25.718  1.00  0.00    -0.246 OA
BRANCH  31  33
ATOM     33  C   UNL A   1      42.281  21.075  26.456  1.00  0.00     0.060 A 
ATOM     34  C   UNL A   1      42.511  21.481  27.780  1.00  0.00     0.016 A 
ATOM     35  C   UNL A   1      42.838  21.808  25.403  1.00  0.00     0.016 A 
ATOM     36  C   UNL A   1      43.252  22.637  28.049  1.00  0.00     0.010 A 
ATOM     37  C   UNL A   1      43.570  22.972  25.674  1.00  0.00     0.010 A 
ATOM     38  C   UNL A   1      43.752  23.414  26.997  1.00  0.00    -0.014 A 
BRANCH  38  39
ATOM     39  C   UNL A   1      44.260  24.788  27.266  1.00  0.00     0.031 A 
ATOM     40  C   UNL A   1      43.285  25.812  27.787  1.00  0.00     0.074 A 
ATOM     41  C   UNL A   1      45.548  25.132  27.079  1.00  0.00     0.049 A 
ATOM     42  N   UNL A   1      43.463  27.079  28.051  1.00  0.00    -0.248 NA
ATOM     43  C   UNL A   1      41.917  25.331  28.034  1.00  0.00     0.031 C 
ATOM     44  C   UNL A   1      46.605  24.235  26.618  1.00  0.00     0.029 A 
ATOM     45  N   UNL A   1      46.181  26.341  27.247  1.00  0.00    -0.354 N 
ATOM     46  C   UNL A   1      42.230  27.552  28.489  1.00  0.00     0.074 A 
ATOM     47  C   UNL A   1      41.305  26.441  28.411  1.00  0.00     0.031 C 
ATOM     48  C   UNL A   1      47.752  24.930  26.522  1.00  0.00     0.029 A 
ATOM     49  C   UNL A   1      47.507  26.328  26.877  1.00  0.00     0.049 A 
ATOM     50  H   UNL A   1      45.729  27.141  27.599  1.00  0.00     0.167 HD
ATOM     51  C   UNL A   1      41.898  28.793  28.926  1.00  0.00     0.034 A 
ATOM     52  C   UNL A   1      48.407  27.332  26.802  1.00  0.00     0.034 A 
ATOM     53  C   UNL A   1      42.822  29.899  28.986  1.00  0.00     0.049 A 
ATOM     54  C   UNL A   1      47.997  28.732  27.206  1.00  0.00     0.074 A 
ATOM     55  C   UNL A   1      42.592  31.187  29.434  1.00  0.00     0.029 A 
ATOM     56  N   UNL A   1      44.144  29.857  28.562  1.00  0.00    -0.354 N 
ATOM     57  N   UNL A   1      46.834  29.161  27.641  1.00  0.00    -0.248 NA
ATOM     58  C   UNL A   1      49.024  29.779  27.115  1.00  0.00     0.031 C 
ATOM     59  C   UNL A   1      43.745  31.945  29.204  1.00  0.00     0.029 A 
ATOM     60  C   UNL A   1      44.728  31.109  28.698  1.00  0.00     0.049 A 
ATOM     61  H   UNL A   1      44.601  29.056  28.216  1.00  0.00     0.167 HD
ATOM     62  C   UNL A   1      47.002  30.521  27.902  1.00  0.00     0.074 A 
ATOM     63  C   UNL A   1      48.379  30.837  27.588  1.00  0.00     0.031 C 
ATOM     64  C   UNL A   1      46.100  31.424  28.368  1.00  0.00     0.034 A 
BRANCH  51  65
ATOM     65  C   UNL A   1      40.455  29.022  29.309  1.00  0.00     0.023 A 
ATOM     66  C   UNL A   1      40.026  28.990  30.648  1.00  0.00     0.031 A 
ATOM     67  C   UNL A   1      39.481  29.220  28.313  1.00  0.00     0.131 A 
ATOM     68  C   UNL A   1      38.657  29.059  30.947  1.00  0.00     0.055 A 
ATOM     69  C   UNL A   1      38.130  29.382  28.624  1.00  0.00     0.041 A 
ATOM     70  F   UNL A   1      39.825  29.236  27.016  1.00  0.00    -0.206 F 
ATOM     71  C   UNL A   1      37.708  29.282  29.946  1.00  0.00     0.022 A 
BRANCH  68  72
ATOM     72  S   UNL A   1      38.120  28.673  32.636  1.00  0.00     0.124 S 
ATOM     73  O   UNL A   1      38.244  27.217  32.659  1.00  0.00    -0.237 OA
ATOM     74  O   UNL A   1      39.080  29.410  33.448  1.00  0.00    -0.237 OA
ATOM     75  O   UNL A   1      36.748  29.172  32.681  1.00  0.00    -0.744 OA
ENDBRANCH  68  72
ENDBRANCH  51  65
BRANCH  52  76
ATOM     76  C   UNL A   1      49.777  27.076  26.261  1.00  0.00     0.023 A 
ATOM     77  C   UNL A   1      50.869  26.827  27.107  1.00  0.00     0.031 A 
ATOM     78  C   UNL A   1      50.018  27.136  24.877  1.00  0.00     0.131 A 
ATOM     79  C   UNL A   1      52.157  26.684  26.564  1.00  0.00     0.055 A 
ATOM     80  C   UNL A   1      51.289  26.940  24.337  1.00  0.00     0.041 A 
ATOM     81  F   UNL A   1      49.011  27.382  24.023  1.00  0.00    -0.206 F 
ATOM     82  C   UNL A   1      52.371  26.722  25.183  1.00  0.00     0.022 A 
BRANCH  79  83
ATOM     83  S   UNL A   1      53.571  26.523  27.691  1.00  0.00     0.124 S 
ATOM     84  O   UNL A   1      52.906  26.384  28.981  1.00  0.00    -0.237 OA
ATOM     85  O   UNL A   1      54.233  25.328  27.178  1.00  0.00    -0.237 OA
ATOM     86  O   UNL A   1      54.306  27.771  27.498  1.00  0.00    -0.744 OA
ENDBRANCH  79  83
ENDBRANCH  52  76
BRANCH  64  87
ATOM     87  C   UNL A   1      46.587  32.836  28.612  1.00  0.00     0.023 A 
ATOM     88  C   UNL A   1      46.682  33.784  27.578  1.00  0.00     0.031 A 
ATOM     89  C   UNL A   1      46.958  33.238  29.909  1.00  0.00     0.131 A 
ATOM     90  C   UNL A   1      47.185  35.068  27.848  1.00  0.00     0.055 A 
ATOM     91  C   UNL A   1      47.397  34.535  30.183  1.00  0.00     0.041 A 
ATOM     92  F   UNL A   1      46.892  32.378  30.938  1.00  0.00    -0.206 F 
ATOM     93  C   UNL A   1      47.525  35.454  29.147  1.00  0.00     0.022 A 
BRANCH  90  94
ATOM     94  S   UNL A   1      47.479  36.201  26.462  1.00  0.00     0.124 S 
ATOM     95  O   UNL A   1      48.404  37.165  27.050  1.00  0.00    -0.237 OA
ATOM     96  O   UNL A   1      48.039  35.316  25.447  1.00  0.00    -0.237 OA
ATOM     97  O   UNL A   1      46.148  36.727  26.160  1.00  0.00    -0.744 OA
ENDBRANCH  90  94
ENDBRANCH  64  87
ENDBRANCH  38  39
ENDBRANCH  31  33
ENDBRANCH  30  31
ENDBRANCH  29  30
ENDBRANCH  28  29
ENDBRANCH  27  28
ENDBRANCH   1  27
TORSDOF 22
ENDMDL
MODEL 3
REMARK VINA RESULT:     -10.4      5.298      8.331
REMARK SMILES C[C@]1(C(=O)N2CCC(CC(=O)OCCOCCOCCOC(=O)c3ccc(-c4c5nc(c(-c6cc(S(=O)(=O)[O-])ccc6F)c6ccc([nH]6)c(-c6cc(S(=O)(=O)[O-])ccc6F)c6nc(c(-c7cc(S(=O)(=O)[O-])ccc7F)c7ccc4[nH]7)C=C6)C=C5)cc3)CC2)CCC[NH2+]C1
REMARK SMILES IDX 17 1 16 2 15 3 14 4 13 5 12 6 10 7 11 8 9 9 8 10 3 11 4 12
REMARK SMILES IDX 5 13 6 14 88 15 7 16 87 17 2 18 1 19 89 20 93 21 90 22 92 23
REMARK SMILES IDX 91 24 18 27 19 28 20 29 21 30 22 31 23 32 24 33 25 34 86 35
REMARK SMILES IDX 26 36 85 37 27 38 28 39 29 40 79 41 30 42 84 43 78 44 80 45
REMARK SMILES IDX 31 46 83 47 77 48 76 49 32 51 64 52 44 53 63 54 45 55 48 56
REMARK SMILES IDX 62 57 81 58 46 59 47 60 61 62 82 63 49 64 33 65 34 66 42 67
REMARK SMILES IDX 35 68 41 69 43 70 40 71 36 72 37 73 38 74 39 75 65 76 66 77
REMARK SMILES IDX 74 78 67 79 73 80 75 81 72 82 68 83 69 84 70 85 71 86 50 87
REMARK SMILES IDX 51 88 59 89 52 90 58 91 60 92 57 93 53 94 54 95 55 96 56 97
REMARK H PARENT 92 25 92 26 80 50 48 61
REMARK Flexibility Score: inf
ROOT
ATOM      1  C   UNL A   1      32.368  28.622  23.725  1.00  0.00     0.188 C 
ENDROOT
BRANCH   1   2
ATOM      2  C   UNL A   1      31.602  27.479  24.391  1.00  0.00     0.188 C 
BRANCH   2   3
ATOM      3  O   UNL A   1      30.250  27.301  23.982  1.00  0.00    -0.376 OA
BRANCH   3   4
ATOM      4  C   UNL A   1      29.486  26.340  24.707  1.00  0.00     0.202 C 
BRANCH   4   5
ATOM      5  C   UNL A   1      30.019  25.951  26.093  1.00  0.00     0.261 C 
BRANCH   5   6
ATOM      6  O   UNL A   1      29.601  24.641  26.521  1.00  0.00    -0.463 OA
BRANCH   6   7
ATOM      7  C   UNL A   1      30.559  23.682  26.521  1.00  0.00     0.306 C 
ATOM      8  O   UNL A   1      31.030  23.174  27.535  1.00  0.00    -0.252 OA
BRANCH   7   9
ATOM      9  C   UNL A   1      30.996  23.217  25.143  1.00  0.00     0.126 C 
BRANCH   9  10
ATOM     10  C   UNL A   1      32.124  23.911  24.346  1.00  0.00     0.003 C 
ATOM     11  C   UNL A   1      36.184  22.992  23.731  1.00  0.00     0.234 C 
ATOM     12  O   UNL A   1      36.802  22.863  22.668  1.00  0.00    -0.274 OA
ATOM     13  N   UNL A   1      34.920  23.536  23.734  1.00  0.00    -0.342 N 
ATOM     14  C   UNL A   1      33.989  23.243  22.661  1.00  0.00     0.120 C 
ATOM     15  C   UNL A   1      34.547  24.705  24.505  1.00  0.00     0.120 C 
ATOM     16  C   UNL A   1      32.643  22.887  23.289  1.00  0.00     0.026 C 
ATOM     17  C   UNL A   1      33.247  24.442  25.255  1.00  0.00     0.026 C 
BRANCH  11  18
ATOM     18  C   UNL A   1      36.738  22.324  25.027  1.00  0.00     0.095 C 
ATOM     19  C   UNL A   1      37.113  23.535  25.927  1.00  0.00     0.028 C 
ATOM     20  C   UNL A   1      35.625  21.525  25.732  1.00  0.00     0.028 C 
ATOM     21  C   UNL A   1      38.008  21.456  24.929  1.00  0.00     0.277 C 
ATOM     22  C   UNL A   1      35.435  20.154  25.091  1.00  0.00     0.063 C 
ATOM     23  N   UNL A   1      37.815  20.104  24.400  1.00  0.00    -0.345 N 
ATOM     24  C   UNL A   1      36.745  19.370  25.059  1.00  0.00     0.260 C 
ATOM     25  H   UNL A   1      37.593  20.175  23.406  1.00  0.00     0.346 HD
ATOM     26  H   UNL A   1      38.681  19.589  24.565  1.00  0.00     0.346 HD
ENDBRANCH  11  18
ENDBRANCH   9  10
ENDBRANCH   7   9
ENDBRANCH   6   7
ENDBRANCH   5   6
ENDBRANCH   4   5
ENDBRANCH   3   4
ENDBRANCH   2   3
ENDBRANCH   1   2
BRANCH   1  27
ATOM     27  O   UNL A   1      32.666  29.749  24.543  1.00  0.00    -0.376 OA
BRANCH  27  28
ATOM     28  C   UNL A   1      31.789  29.946  25.659  1.00  0.00     0.202 C 
BRANCH  28  29
ATOM     29  C   UNL A   1      32.432  30.481  26.958  1.00  0.00     0.261 C 
BRANCH  29  30
ATOM     30  O   UNL A   1      33.674  31.199  26.792  1.00  0.00    -0.460 OA
BRANCH  30  31
ATOM     31  C   UNL A   1      34.148  31.899  27.851  1.00  0.00     0.338 C 
ATOM     32  O   UNL A   1      33.517  32.705  28.516  1.00  0.00    -0.246 OA
BRANCH  31  33
ATOM     33  C   UNL A   1      35.457  31.316  28.258  1.00  0.00     0.060 A 
ATOM     34  C   UNL A   1      35.529  29.929  28.460  1.00  0.00     0.016 A 
ATOM     35  C   UNL A   1      36.618  32.089  28.363  1.00  0.00     0.016 A 
ATOM     36  C   UNL A   1      36.741  29.324  28.810  1.00  0.00     0.010 A 
ATOM     37  C   UNL A   1      37.829  31.484  28.725  1.00  0.00     0.010 A 
ATOM     38  C   UNL A   1      37.892  30.103  28.986  1.00  0.00    -0.014 A 
BRANCH  38  39
ATOM     39  C   UNL A   1      39.088  29.520  29.654  1.00  0.00     0.031 A 
ATOM     40  C   UNL A   1      39.462  30.044  31.016  1.00  0.00     0.074 A 
ATOM     41  C   UNL A   1      39.821  28.539  29.095  1.00  0.00     0.049 A 
ATOM     42  N   UNL A   1      40.477  29.739  31.780  1.00  0.00    -0.248 NA
ATOM     43  C   UNL A   1      38.562  31.059  31.585  1.00  0.00     0.031 C 
ATOM     44  C   UNL A   1      39.552  27.912  27.803  1.00  0.00     0.029 A 
ATOM     45  N   UNL A   1      40.956  27.906  29.547  1.00  0.00    -0.354 N 
ATOM     46  C   UNL A   1      40.346  30.530  32.918  1.00  0.00     0.074 A 
ATOM     47  C   UNL A   1      39.175  31.357  32.719  1.00  0.00     0.031 C 
ATOM     48  C   UNL A   1      40.507  26.997  27.558  1.00  0.00     0.029 A 
ATOM     49  C   UNL A   1      41.476  26.997  28.654  1.00  0.00     0.049 A 
ATOM     50  H   UNL A   1      41.358  28.087  30.426  1.00  0.00     0.167 HD
ATOM     51  C   UNL A   1      41.121  30.559  34.031  1.00  0.00     0.034 A 
ATOM     52  C   UNL A   1      42.617  26.275  28.700  1.00  0.00     0.034 A 
ATOM     53  C   UNL A   1      42.296  29.743  34.215  1.00  0.00     0.049 A 
ATOM     54  C   UNL A   1      43.520  26.386  29.909  1.00  0.00     0.074 A 
ATOM     55  C   UNL A   1      43.135  29.680  35.313  1.00  0.00     0.029 A 
ATOM     56  N   UNL A   1      42.814  28.866  33.271  1.00  0.00    -0.354 N 
ATOM     57  N   UNL A   1      43.372  27.120  30.989  1.00  0.00    -0.248 NA
ATOM     58  C   UNL A   1      44.740  25.566  29.907  1.00  0.00     0.031 C 
ATOM     59  C   UNL A   1      44.204  28.833  35.002  1.00  0.00     0.029 A 
ATOM     60  C   UNL A   1      43.986  28.292  33.744  1.00  0.00     0.049 A 
ATOM     61  H   UNL A   1      42.409  28.679  32.393  1.00  0.00     0.167 HD
ATOM     62  C   UNL A   1      44.465  26.825  31.804  1.00  0.00     0.074 A 
ATOM     63  C   UNL A   1      45.256  25.840  31.097  1.00  0.00     0.031 C 
ATOM     64  C   UNL A   1      44.781  27.320  33.029  1.00  0.00     0.034 A 
BRANCH  51  65
ATOM     65  C   UNL A   1      40.748  31.558  35.101  1.00  0.00     0.023 A 
ATOM     66  C   UNL A   1      39.735  31.297  36.042  1.00  0.00     0.031 A 
ATOM     67  C   UNL A   1      41.376  32.816  35.145  1.00  0.00     0.131 A 
ATOM     68  C   UNL A   1      39.319  32.308  36.921  1.00  0.00     0.055 A 
ATOM     69  C   UNL A   1      41.020  33.785  36.085  1.00  0.00     0.041 A 
ATOM     70  F   UNL A   1      42.331  33.134  34.258  1.00  0.00    -0.206 F 
ATOM     71  C   UNL A   1      39.974  33.541  36.968  1.00  0.00     0.022 A 
BRANCH  68  72
ATOM     72  S   UNL A   1      37.798  32.051  37.876  1.00  0.00     0.124 S 
ATOM     73  O   UNL A   1      38.274  32.238  39.245  1.00  0.00    -0.237 OA
ATOM     74  O   UNL A   1      36.920  33.091  37.355  1.00  0.00    -0.237 OA
ATOM     75  O   UNL A   1      37.413  30.681  37.543  1.00  0.00    -0.744 OA
ENDBRANCH  68  72
ENDBRANCH  51  65
BRANCH  52  76
ATOM     76  C   UNL A   1      43.016  25.424  27.538  1.00  0.00     0.023 A 
ATOM     77  C   UNL A   1      42.598  24.089  27.423  1.00  0.00     0.031 A 
ATOM     78  C   UNL A   1      43.878  25.931  26.548  1.00  0.00     0.131 A 
ATOM     79  C   UNL A   1      43.072  23.295  26.364  1.00  0.00     0.055 A 
ATOM     80  C   UNL A   1      44.303  25.156  25.469  1.00  0.00     0.041 A 
ATOM     81  F   UNL A   1      44.316  27.198  26.615  1.00  0.00    -0.206 F 
ATOM     82  C   UNL A   1      43.908  23.825  25.378  1.00  0.00     0.022 A 
BRANCH  79  83
ATOM     83  S   UNL A   1      42.644  21.532  26.331  1.00  0.00     0.124 S 
ATOM     84  O   UNL A   1      42.410  21.257  27.744  1.00  0.00    -0.237 OA
ATOM     85  O   UNL A   1      41.465  21.523  25.472  1.00  0.00    -0.237 OA
ATOM     86  O   UNL A   1      43.833  20.902  25.760  1.00  0.00    -0.744 OA
ENDBRANCH  79  83
ENDBRANCH  52  76
BRANCH  64  87
ATOM     87  C   UNL A   1      46.014  26.767  33.709  1.00  0.00     0.023 A 
ATOM     88  C   UNL A   1      45.968  25.622  34.525  1.00  0.00     0.031 A 
ATOM     89  C   UNL A   1      47.260  27.397  33.531  1.00  0.00     0.131 A 
ATOM     90  C   UNL A   1      47.132  25.176  35.173  1.00  0.00     0.055 A 
ATOM     91  C   UNL A   1      48.425  26.912  34.128  1.00  0.00     0.041 A 
ATOM     92  F   UNL A   1      47.368  28.495  32.767  1.00  0.00    -0.206 F 
ATOM     93  C   UNL A   1      48.363  25.802  34.964  1.00  0.00     0.022 A 
BRANCH  90  94
ATOM     94  S   UNL A   1      47.001  23.818  36.370  1.00  0.00     0.124 S 
ATOM     95  O   UNL A   1      45.573  23.815  36.671  1.00  0.00    -0.237 OA
ATOM     96  O   UNL A   1      47.495  22.678  35.604  1.00  0.00    -0.237 OA
ATOM     97  O   UNL A   1      47.865  24.245  37.470  1.00  0.00    -0.744 OA
ENDBRANCH  90  94
ENDBRANCH  64  87
ENDBRANCH  38  39
ENDBRANCH  31  33
ENDBRANCH  30  31
ENDBRANCH  29  30
ENDBRANCH  28  29
ENDBRANCH  27  28
ENDBRANCH   1  27
TORSDOF 22
ENDMDL
