MODEL 1
REMARK VINA RESULT:     -10.2      0.000      0.000
REMARK SMILES CCCCCCNC(=O)Oc1cccc(-c2ccc(CC(=O)OCCOCCOCCOC(=O)c3ccc(-c4c5nc(c(-c6cc(S(=O)(=O)[O-])ccc6F)c6ccc([nH]6)c(-c6cc(S(=O)(=O)[O-])ccc6F)c6nc(c(-c7cc(S(=O)(=O)[O-])ccc7F)c7ccc4[nH]7)C=C6)C=C5)cc3)cc2F)c1
REMARK SMILES IDX 24 1 23 2 21 3 22 4 20 5 19 6 16 7 17 8 99 9 18 10 98 11
REMARK SMILES IDX 100 12 15 13 11 14 12 15 101 16 13 17 14 18 10 19 8 20 7 21
REMARK SMILES IDX 9 23 6 24 5 25 4 26 3 27 2 28 1 29 25 30 26 31 27 32 28 33
REMARK SMILES IDX 29 34 30 35 31 36 32 37 33 38 34 39 35 40 36 41 97 42 37 43
REMARK SMILES IDX 96 44 38 45 39 46 40 47 90 48 41 49 95 50 89 51 91 52 42 53
REMARK SMILES IDX 94 54 88 55 87 56 43 58 75 59 55 60 74 61 56 62 59 63 73 64
REMARK SMILES IDX 92 65 57 66 58 67 72 69 93 70 60 71 44 72 45 73 53 74 46 75
REMARK SMILES IDX 52 76 54 77 51 78 47 79 48 80 49 81 50 82 76 83 77 84 85 85
REMARK SMILES IDX 78 86 84 87 86 88 83 89 79 90 80 91 81 92 82 93 61 94 62 95
REMARK SMILES IDX 70 96 63 97 69 98 71 99 68 100 64 101 65 102 66 103 67 104
REMARK H PARENT 7 22 91 57 59 68
REMARK Flexibility Score: inf
ROOT
ATOM      1  C   UNL A   1      32.535  28.936  22.753  1.00  0.00     0.261 C 
ENDROOT
BRANCH   1   2
ATOM      2  O   UNL A   1      31.254  29.195  23.366  1.00  0.00    -0.463 OA
BRANCH   2   3
ATOM      3  C   UNL A   1      30.165  28.873  22.625  1.00  0.00     0.310 C 
ATOM      4  O   UNL A   1      29.841  29.465  21.598  1.00  0.00    -0.252 OA
BRANCH   3   5
ATOM      5  C   UNL A   1      29.325  27.729  23.148  1.00  0.00     0.158 C 
BRANCH   5   6
ATOM      6  C   UNL A   1      29.952  26.467  23.708  1.00  0.00    -0.034 A 
ATOM      7  C   UNL A   1      31.358  24.269  24.868  1.00  0.00     0.018 A 
ATOM      8  C   UNL A   1      30.459  25.032  25.625  1.00  0.00     0.012 A 
ATOM      9  C   UNL A   1      31.531  24.623  23.524  1.00  0.00     0.131 A 
ATOM     10  C   UNL A   1      29.776  26.120  25.058  1.00  0.00     0.005 A 
ATOM     11  C   UNL A   1      30.835  25.694  22.944  1.00  0.00     0.044 A 
ATOM     12  F   UNL A   1      32.403  23.947  22.759  1.00  0.00    -0.206 F 
BRANCH   7  13
ATOM     13  C   UNL A   1      32.112  23.169  25.484  1.00  0.00    -0.012 A 
ATOM     14  C   UNL A   1      32.663  20.807  25.637  1.00  0.00     0.133 A 
ATOM     15  C   UNL A   1      33.585  21.057  26.649  1.00  0.00     0.047 A 
ATOM     16  C   UNL A   1      31.916  21.843  25.068  1.00  0.00     0.056 A 
ATOM     17  C   UNL A   1      33.789  22.369  27.072  1.00  0.00     0.004 A 
ATOM     18  C   UNL A   1      33.063  23.417  26.490  1.00  0.00     0.009 A 
BRANCH  14  19
ATOM     19  O   UNL A   1      32.439  19.469  25.277  1.00  0.00    -0.410 OA
BRANCH  19  20
ATOM     20  C   UNL A   1      32.651  19.147  23.944  1.00  0.00     0.412 C 
ATOM     21  N   UNL A   1      33.787  18.415  23.734  1.00  0.00    -0.321 N 
ATOM     22  H   UNL A   1      33.990  18.183  22.799  1.00  0.00     0.167 HD
ATOM     23  O   UNL A   1      31.931  19.455  23.003  1.00  0.00    -0.224 OA
BRANCH  21  24
ATOM     24  C   UNL A   1      34.726  17.942  24.728  1.00  0.00     0.119 C 
BRANCH  24  25
ATOM     25  C   UNL A   1      36.075  18.657  24.627  1.00  0.00     0.021 C 
BRANCH  25  26
ATOM     26  C   UNL A   1      36.051  20.142  25.015  1.00  0.00     0.002 C 
BRANCH  26  27
ATOM     27  C   UNL A   1      37.324  20.932  24.692  1.00  0.00    -0.000 C 
BRANCH  27  28
ATOM     28  C   UNL A   1      37.152  22.450  24.602  1.00  0.00    -0.003 C 
ATOM     29  C   UNL A   1      36.684  22.924  23.235  1.00  0.00     0.004 C 
ENDBRANCH  27  28
ENDBRANCH  26  27
ENDBRANCH  25  26
ENDBRANCH  24  25
ENDBRANCH  21  24
ENDBRANCH  19  20
ENDBRANCH  14  19
ENDBRANCH   7  13
ENDBRANCH   5   6
ENDBRANCH   3   5
ENDBRANCH   2   3
ENDBRANCH   1   2
BRANCH   1  30
ATOM     30  C   UNL A   1      33.705  28.961  23.739  1.00  0.00     0.202 C 
BRANCH  30  31
ATOM     31  O   UNL A   1      33.569  28.127  24.877  1.00  0.00    -0.376 OA
BRANCH  31  32
ATOM     32  C   UNL A   1      33.401  28.736  26.156  1.00  0.00     0.188 C 
BRANCH  32  33
ATOM     33  C   UNL A   1      31.989  28.870  26.748  1.00  0.00     0.188 C 
BRANCH  33  34
ATOM     34  O   UNL A   1      31.712  30.195  27.187  1.00  0.00    -0.376 OA
BRANCH  34  35
ATOM     35  C   UNL A   1      32.757  31.120  26.931  1.00  0.00     0.202 C 
BRANCH  35  36
ATOM     36  C   UNL A   1      32.282  32.535  27.269  1.00  0.00     0.261 C 
BRANCH  36  37
ATOM     37  O   UNL A   1      33.339  33.507  27.396  1.00  0.00    -0.460 OA
BRANCH  37  38
ATOM     38  C   UNL A   1      33.318  34.279  28.508  1.00  0.00     0.338 C 
ATOM     39  O   UNL A   1      32.402  34.986  28.883  1.00  0.00    -0.246 OA
BRANCH  38  40
ATOM     40  C   UNL A   1      34.537  33.997  29.297  1.00  0.00     0.060 A 
ATOM     41  C   UNL A   1      35.774  33.962  28.643  1.00  0.00     0.016 A 
ATOM     42  C   UNL A   1      34.457  33.731  30.665  1.00  0.00     0.016 A 
ATOM     43  C   UNL A   1      36.935  33.635  29.351  1.00  0.00     0.010 A 
ATOM     44  C   UNL A   1      35.617  33.389  31.369  1.00  0.00     0.010 A 
ATOM     45  C   UNL A   1      36.859  33.311  30.712  1.00  0.00    -0.014 A 
BRANCH  45  46
ATOM     46  C   UNL A   1      38.032  32.726  31.417  1.00  0.00     0.031 A 
ATOM     47  C   UNL A   1      38.718  31.533  30.807  1.00  0.00     0.074 A 
ATOM     48  C   UNL A   1      38.487  33.238  32.576  1.00  0.00     0.049 A 
ATOM     49  N   UNL A   1      39.676  30.784  31.288  1.00  0.00    -0.248 NA
ATOM     50  C   UNL A   1      38.249  31.130  29.472  1.00  0.00     0.031 C 
ATOM     51  C   UNL A   1      37.952  34.424  33.244  1.00  0.00     0.029 A 
ATOM     52  N   UNL A   1      39.499  32.815  33.404  1.00  0.00    -0.354 N 
ATOM     53  C   UNL A   1      39.918  29.811  30.322  1.00  0.00     0.074 A 
ATOM     54  C   UNL A   1      38.979  30.049  29.245  1.00  0.00     0.031 C 
ATOM     55  C   UNL A   1      38.634  34.624  34.386  1.00  0.00     0.029 A 
ATOM     56  C   UNL A   1      39.618  33.555  34.558  1.00  0.00     0.049 A 
ATOM     57  H   UNL A   1      40.084  32.052  33.191  1.00  0.00     0.167 HD
ATOM     58  C   UNL A   1      40.839  28.815  30.331  1.00  0.00     0.034 A 
ATOM     59  C   UNL A   1      40.401  33.370  35.642  1.00  0.00     0.034 A 
ATOM     60  C   UNL A   1      41.763  28.583  31.414  1.00  0.00     0.049 A 
ATOM     61  C   UNL A   1      41.351  32.194  35.675  1.00  0.00     0.074 A 
ATOM     62  C   UNL A   1      42.738  27.605  31.520  1.00  0.00     0.029 A 
ATOM     63  N   UNL A   1      41.821  29.326  32.586  1.00  0.00    -0.354 N 
ATOM     64  N   UNL A   1      41.562  31.272  34.763  1.00  0.00    -0.248 NA
ATOM     65  C   UNL A   1      42.169  32.034  36.885  1.00  0.00     0.031 C 
ATOM     66  C   UNL A   1      43.332  27.711  32.783  1.00  0.00     0.029 A 
ATOM     67  C   UNL A   1      42.791  28.807  33.433  1.00  0.00     0.049 A 
ATOM     68  H   UNL A   1      41.257  30.108  32.787  1.00  0.00     0.167 HD
ATOM     69  C   UNL A   1      42.562  30.448  35.278  1.00  0.00     0.074 A 
ATOM     70  C   UNL A   1      42.918  30.987  36.573  1.00  0.00     0.031 C 
ATOM     71  C   UNL A   1      43.136  29.347  34.727  1.00  0.00     0.034 A 
BRANCH  58  72
ATOM     72  C   UNL A   1      40.846  27.870  29.153  1.00  0.00     0.023 A 
ATOM     73  C   UNL A   1      41.760  28.008  28.093  1.00  0.00     0.031 A 
ATOM     74  C   UNL A   1      39.899  26.832  29.073  1.00  0.00     0.131 A 
ATOM     75  C   UNL A   1      41.660  27.174  26.970  1.00  0.00     0.055 A 
ATOM     76  C   UNL A   1      39.859  25.953  27.991  1.00  0.00     0.041 A 
ATOM     77  F   UNL A   1      38.985  26.665  30.043  1.00  0.00    -0.206 F 
ATOM     78  C   UNL A   1      40.732  26.130  26.922  1.00  0.00     0.022 A 
BRANCH  75  79
ATOM     79  S   UNL A   1      42.656  27.566  25.506  1.00  0.00     0.124 S 
ATOM     80  O   UNL A   1      42.103  28.859  25.110  1.00  0.00    -0.237 OA
ATOM     81  O   UNL A   1      44.011  27.587  26.043  1.00  0.00    -0.237 OA
ATOM     82  O   UNL A   1      42.365  26.466  24.588  1.00  0.00    -0.744 OA
ENDBRANCH  75  79
ENDBRANCH  58  72
BRANCH  59  83
ATOM     83  C   UNL A   1      40.291  34.280  36.821  1.00  0.00     0.023 A 
ATOM     84  C   UNL A   1      41.271  35.249  37.092  1.00  0.00     0.031 A 
ATOM     85  C   UNL A   1      39.234  34.141  37.741  1.00  0.00     0.131 A 
ATOM     86  C   UNL A   1      41.202  36.006  38.273  1.00  0.00     0.055 A 
ATOM     87  C   UNL A   1      39.139  34.938  38.883  1.00  0.00     0.041 A 
ATOM     88  F   UNL A   1      38.275  33.223  37.540  1.00  0.00    -0.206 F 
ATOM     89  C   UNL A   1      40.135  35.868  39.162  1.00  0.00     0.022 A 
BRANCH  86  90
ATOM     90  S   UNL A   1      42.584  37.109  38.681  1.00  0.00     0.124 S 
ATOM     91  O   UNL A   1      43.430  36.239  39.488  1.00  0.00    -0.237 OA
ATOM     92  O   UNL A   1      43.095  37.456  37.360  1.00  0.00    -0.237 OA
ATOM     93  O   UNL A   1      41.942  38.204  39.406  1.00  0.00    -0.744 OA
ENDBRANCH  86  90
ENDBRANCH  59  83
BRANCH  71  94
ATOM     94  C   UNL A   1      44.253  28.686  35.503  1.00  0.00     0.023 A 
ATOM     95  C   UNL A   1      44.015  27.647  36.419  1.00  0.00     0.031 A 
ATOM     96  C   UNL A   1      45.583  29.110  35.320  1.00  0.00     0.131 A 
ATOM     97  C   UNL A   1      45.080  27.104  37.156  1.00  0.00     0.055 A 
ATOM     98  C   UNL A   1      46.646  28.525  36.010  1.00  0.00     0.041 A 
ATOM     99  F   UNL A   1      45.874  30.100  34.460  1.00  0.00    -0.206 F 
ATOM    100  C   UNL A   1      46.395  27.524  36.944  1.00  0.00     0.022 A 
BRANCH  97 101
ATOM    101  S   UNL A   1      44.715  25.903  38.466  1.00  0.00     0.124 S 
ATOM    102  O   UNL A   1      45.984  25.840  39.182  1.00  0.00    -0.237 OA
ATOM    103  O   UNL A   1      43.612  26.542  39.177  1.00  0.00    -0.237 OA
ATOM    104  O   UNL A   1      44.356  24.691  37.731  1.00  0.00    -0.744 OA
ENDBRANCH  97 101
ENDBRANCH  71  94
ENDBRANCH  45  46
ENDBRANCH  38  40
ENDBRANCH  37  38
ENDBRANCH  36  37
ENDBRANCH  35  36
ENDBRANCH  34  35
ENDBRANCH  33  34
ENDBRANCH  32  33
ENDBRANCH  31  32
ENDBRANCH  30  31
ENDBRANCH   1  30
TORSDOF 29
ENDMDL
MODEL 2
REMARK VINA RESULT:      -9.7      5.535     11.418
REMARK SMILES CCCCCCNC(=O)Oc1cccc(-c2ccc(CC(=O)OCCOCCOCCOC(=O)c3ccc(-c4c5nc(c(-c6cc(S(=O)(=O)[O-])ccc6F)c6ccc([nH]6)c(-c6cc(S(=O)(=O)[O-])ccc6F)c6nc(c(-c7cc(S(=O)(=O)[O-])ccc7F)c7ccc4[nH]7)C=C6)C=C5)cc3)cc2F)c1
REMARK SMILES IDX 24 1 23 2 21 3 22 4 20 5 19 6 16 7 17 8 99 9 18 10 98 11
REMARK SMILES IDX 100 12 15 13 11 14 12 15 101 16 13 17 14 18 10 19 8 20 7 21
REMARK SMILES IDX 9 23 6 24 5 25 4 26 3 27 2 28 1 29 25 30 26 31 27 32 28 33
REMARK SMILES IDX 29 34 30 35 31 36 32 37 33 38 34 39 35 40 36 41 97 42 37 43
REMARK SMILES IDX 96 44 38 45 39 46 40 47 90 48 41 49 95 50 89 51 91 52 42 53
REMARK SMILES IDX 94 54 88 55 87 56 43 58 75 59 55 60 74 61 56 62 59 63 73 64
REMARK SMILES IDX 92 65 57 66 58 67 72 69 93 70 60 71 44 72 45 73 53 74 46 75
REMARK SMILES IDX 52 76 54 77 51 78 47 79 48 80 49 81 50 82 76 83 77 84 85 85
REMARK SMILES IDX 78 86 84 87 86 88 83 89 79 90 80 91 81 92 82 93 61 94 62 95
REMARK SMILES IDX 70 96 63 97 69 98 71 99 68 100 64 101 65 102 66 103 67 104
REMARK H PARENT 7 22 91 57 59 68
REMARK Flexibility Score: inf
ROOT
ATOM      1  C   UNL A   1      39.685  23.813  27.246  1.00  0.00     0.261 C 
ENDROOT
BRANCH   1   2
ATOM      2  O   UNL A   1      39.640  24.896  26.292  1.00  0.00    -0.463 OA
BRANCH   2   3
ATOM      3  C   UNL A   1      40.676  25.770  26.337  1.00  0.00     0.310 C 
ATOM      4  O   UNL A   1      41.149  26.318  25.344  1.00  0.00    -0.252 OA
BRANCH   3   5
ATOM      5  C   UNL A   1      41.259  26.032  27.708  1.00  0.00     0.158 C 
BRANCH   5   6
ATOM      6  C   UNL A   1      40.655  27.052  28.653  1.00  0.00    -0.034 A 
ATOM      7  C   UNL A   1      39.743  28.904  30.626  1.00  0.00     0.018 A 
ATOM      8  C   UNL A   1      40.719  29.269  29.689  1.00  0.00     0.012 A 
ATOM      9  C   UNL A   1      39.230  27.603  30.549  1.00  0.00     0.131 A 
ATOM     10  C   UNL A   1      41.176  28.355  28.726  1.00  0.00     0.005 A 
ATOM     11  C   UNL A   1      39.665  26.691  29.576  1.00  0.00     0.044 A 
ATOM     12  F   UNL A   1      38.316  27.187  31.440  1.00  0.00    -0.206 F 
BRANCH   7  13
ATOM     13  C   UNL A   1      39.312  29.847  31.666  1.00  0.00    -0.012 A 
ATOM     14  C   UNL A   1      37.946  31.723  32.387  1.00  0.00     0.133 A 
ATOM     15  C   UNL A   1      38.463  31.642  33.677  1.00  0.00     0.047 A 
ATOM     16  C   UNL A   1      38.374  30.852  31.382  1.00  0.00     0.056 A 
ATOM     17  C   UNL A   1      39.395  30.649  33.974  1.00  0.00     0.004 A 
ATOM     18  C   UNL A   1      39.811  29.756  32.978  1.00  0.00     0.009 A 
BRANCH  14  19
ATOM     19  O   UNL A   1      37.055  32.771  32.109  1.00  0.00    -0.410 OA
BRANCH  19  20
ATOM     20  C   UNL A   1      37.559  34.058  32.242  1.00  0.00     0.412 C 
ATOM     21  N   UNL A   1      36.875  34.819  33.151  1.00  0.00    -0.321 N 
ATOM     22  H   UNL A   1      37.185  35.747  33.263  1.00  0.00     0.167 HD
ATOM     23  O   UNL A   1      38.516  34.524  31.639  1.00  0.00    -0.224 OA
BRANCH  21  24
ATOM     24  C   UNL A   1      35.750  34.417  33.967  1.00  0.00     0.119 C 
BRANCH  24  25
ATOM     25  C   UNL A   1      34.478  35.185  33.607  1.00  0.00     0.021 C 
BRANCH  25  26
ATOM     26  C   UNL A   1      34.234  35.364  32.102  1.00  0.00     0.002 C 
BRANCH  26  27
ATOM     27  C   UNL A   1      32.998  36.186  31.724  1.00  0.00    -0.000 C 
BRANCH  27  28
ATOM     28  C   UNL A   1      33.024  36.812  30.327  1.00  0.00    -0.003 C 
ATOM     29  C   UNL A   1      32.938  35.788  29.206  1.00  0.00     0.004 C 
ENDBRANCH  27  28
ENDBRANCH  26  27
ENDBRANCH  25  26
ENDBRANCH  24  25
ENDBRANCH  21  24
ENDBRANCH  19  20
ENDBRANCH  14  19
ENDBRANCH   7  13
ENDBRANCH   5   6
ENDBRANCH   3   5
ENDBRANCH   2   3
ENDBRANCH   1   2
BRANCH   1  30
ATOM     30  C   UNL A   1      39.740  22.427  26.601  1.00  0.00     0.202 C 
BRANCH  30  31
ATOM     31  O   UNL A   1      40.791  21.584  27.044  1.00  0.00    -0.376 OA
BRANCH  31  32
ATOM     32  C   UNL A   1      41.881  22.166  27.757  1.00  0.00     0.188 C 
BRANCH  32  33
ATOM     33  C   UNL A   1      43.138  22.602  26.987  1.00  0.00     0.188 C 
BRANCH  33  34
ATOM     34  O   UNL A   1      43.162  22.090  25.659  1.00  0.00    -0.376 OA
BRANCH  34  35
ATOM     35  C   UNL A   1      44.350  21.387  25.331  1.00  0.00     0.202 C 
BRANCH  35  36
ATOM     36  C   UNL A   1      45.542  22.345  25.381  1.00  0.00     0.261 C 
BRANCH  36  37
ATOM     37  O   UNL A   1      45.393  23.529  24.571  1.00  0.00    -0.460 OA
BRANCH  37  38
ATOM     38  C   UNL A   1      46.402  24.430  24.629  1.00  0.00     0.338 C 
ATOM     39  O   UNL A   1      47.399  24.449  23.932  1.00  0.00    -0.246 OA
BRANCH  38  40
ATOM     40  C   UNL A   1      46.019  25.501  25.575  1.00  0.00     0.060 A 
ATOM     41  C   UNL A   1      46.929  25.886  26.567  1.00  0.00     0.016 A 
ATOM     42  C   UNL A   1      44.758  26.096  25.509  1.00  0.00     0.016 A 
ATOM     43  C   UNL A   1      46.571  26.849  27.514  1.00  0.00     0.010 A 
ATOM     44  C   UNL A   1      44.395  27.049  26.466  1.00  0.00     0.010 A 
ATOM     45  C   UNL A   1      45.287  27.413  27.492  1.00  0.00    -0.014 A 
BRANCH  45  46
ATOM     46  C   UNL A   1      44.808  28.249  28.627  1.00  0.00     0.031 A 
ATOM     47  C   UNL A   1      44.812  29.746  28.469  1.00  0.00     0.074 A 
ATOM     48  C   UNL A   1      44.376  27.698  29.776  1.00  0.00     0.049 A 
ATOM     49  N   UNL A   1      44.555  30.678  29.349  1.00  0.00    -0.248 NA
ATOM     50  C   UNL A   1      45.160  30.255  27.134  1.00  0.00     0.031 C 
ATOM     51  C   UNL A   1      44.267  26.265  30.038  1.00  0.00     0.029 A 
ATOM     52  N   UNL A   1      43.960  28.286  30.947  1.00  0.00    -0.354 N 
ATOM     53  C   UNL A   1      44.723  31.888  28.681  1.00  0.00     0.074 A 
ATOM     54  C   UNL A   1      45.138  31.565  27.331  1.00  0.00     0.031 C 
ATOM     55  C   UNL A   1      43.824  26.084  31.296  1.00  0.00     0.029 A 
ATOM     56  C   UNL A   1      43.668  27.386  31.947  1.00  0.00     0.049 A 
ATOM     57  H   UNL A   1      43.877  29.260  31.060  1.00  0.00     0.167 HD
ATOM     58  C   UNL A   1      44.545  33.149  29.147  1.00  0.00     0.034 A 
ATOM     59  C   UNL A   1      43.350  27.587  33.242  1.00  0.00     0.034 A 
ATOM     60  C   UNL A   1      44.140  33.459  30.497  1.00  0.00     0.049 A 
ATOM     61  C   UNL A   1      43.255  29.001  33.769  1.00  0.00     0.074 A 
ATOM     62  C   UNL A   1      43.927  34.702  31.068  1.00  0.00     0.029 A 
ATOM     63  N   UNL A   1      43.899  32.521  31.492  1.00  0.00    -0.354 N 
ATOM     64  N   UNL A   1      43.429  30.137  33.132  1.00  0.00    -0.248 NA
ATOM     65  C   UNL A   1      42.918  29.160  35.191  1.00  0.00     0.031 C 
ATOM     66  C   UNL A   1      43.632  34.518  32.424  1.00  0.00     0.029 A 
ATOM     67  C   UNL A   1      43.574  33.159  32.681  1.00  0.00     0.049 A 
ATOM     68  H   UNL A   1      43.952  31.544  31.372  1.00  0.00     0.167 HD
ATOM     69  C   UNL A   1      43.188  31.141  34.069  1.00  0.00     0.074 A 
ATOM     70  C   UNL A   1      42.846  30.478  35.310  1.00  0.00     0.031 C 
ATOM     71  C   UNL A   1      43.240  32.489  33.917  1.00  0.00     0.034 A 
BRANCH  58  72
ATOM     72  C   UNL A   1      44.846  34.285  28.198  1.00  0.00     0.023 A 
ATOM     73  C   UNL A   1      46.161  34.714  27.943  1.00  0.00     0.031 A 
ATOM     74  C   UNL A   1      43.796  34.973  27.562  1.00  0.00     0.131 A 
ATOM     75  C   UNL A   1      46.386  35.840  27.139  1.00  0.00     0.055 A 
ATOM     76  C   UNL A   1      44.032  36.041  26.696  1.00  0.00     0.041 A 
ATOM     77  F   UNL A   1      42.518  34.625  27.785  1.00  0.00    -0.206 F 
ATOM     78  C   UNL A   1      45.333  36.492  26.492  1.00  0.00     0.022 A 
BRANCH  75  79
ATOM     79  S   UNL A   1      48.059  36.537  27.069  1.00  0.00     0.124 S 
ATOM     80  O   UNL A   1      47.785  37.927  26.712  1.00  0.00    -0.237 OA
ATOM     81  O   UNL A   1      48.552  36.309  28.422  1.00  0.00    -0.237 OA
ATOM     82  O   UNL A   1      48.714  35.752  26.025  1.00  0.00    -0.744 OA
ENDBRANCH  75  79
ENDBRANCH  58  72
BRANCH  59  83
ATOM     83  C   UNL A   1      43.153  26.428  34.164  1.00  0.00     0.023 A 
ATOM     84  C   UNL A   1      44.225  25.601  34.539  1.00  0.00     0.031 A 
ATOM     85  C   UNL A   1      41.868  26.086  34.626  1.00  0.00     0.131 A 
ATOM     86  C   UNL A   1      43.987  24.450  35.308  1.00  0.00     0.055 A 
ATOM     87  C   UNL A   1      41.647  24.974  35.440  1.00  0.00     0.041 A 
ATOM     88  F   UNL A   1      40.804  26.833  34.291  1.00  0.00    -0.206 F 
ATOM     89  C   UNL A   1      42.709  24.140  35.774  1.00  0.00     0.022 A 
BRANCH  86  90
ATOM     90  S   UNL A   1      45.363  23.306  35.609  1.00  0.00     0.124 S 
ATOM     91  O   UNL A   1      46.474  24.004  34.975  1.00  0.00    -0.237 OA
ATOM     92  O   UNL A   1      45.392  23.244  37.067  1.00  0.00    -0.237 OA
ATOM     93  O   UNL A   1      44.935  22.076  34.945  1.00  0.00    -0.744 OA
ENDBRANCH  86  90
ENDBRANCH  59  83
BRANCH  71  94
ATOM     94  C   UNL A   1      42.863  33.338  35.110  1.00  0.00     0.023 A 
ATOM     95  C   UNL A   1      41.564  33.845  35.286  1.00  0.00     0.031 A 
ATOM     96  C   UNL A   1      43.828  33.646  36.087  1.00  0.00     0.131 A 
ATOM     97  C   UNL A   1      41.277  34.675  36.382  1.00  0.00     0.055 A 
ATOM     98  C   UNL A   1      43.522  34.422  37.207  1.00  0.00     0.041 A 
ATOM     99  F   UNL A   1      45.087  33.193  35.973  1.00  0.00    -0.206 F 
ATOM    100  C   UNL A   1      42.244  34.952  37.352  1.00  0.00     0.022 A 
BRANCH  97 101
ATOM    101  S   UNL A   1      39.649  35.469  36.477  1.00  0.00     0.124 S 
ATOM    102  O   UNL A   1      39.936  36.812  35.985  1.00  0.00    -0.237 OA
ATOM    103  O   UNL A   1      38.840  34.628  35.600  1.00  0.00    -0.237 OA
ATOM    104  O   UNL A   1      39.309  35.388  37.897  1.00  0.00    -0.744 OA
ENDBRANCH  97 101
ENDBRANCH  71  94
ENDBRANCH  45  46
ENDBRANCH  38  40
ENDBRANCH  37  38
ENDBRANCH  36  37
ENDBRANCH  35  36
ENDBRANCH  34  35
ENDBRANCH  33  34
ENDBRANCH  32  33
ENDBRANCH  31  32
ENDBRANCH  30  31
ENDBRANCH   1  30
TORSDOF 29
ENDMDL
MODEL 3
REMARK VINA RESULT:      -9.7      4.103     10.186
REMARK SMILES CCCCCCNC(=O)Oc1cccc(-c2ccc(CC(=O)OCCOCCOCCOC(=O)c3ccc(-c4c5nc(c(-c6cc(S(=O)(=O)[O-])ccc6F)c6ccc([nH]6)c(-c6cc(S(=O)(=O)[O-])ccc6F)c6nc(c(-c7cc(S(=O)(=O)[O-])ccc7F)c7ccc4[nH]7)C=C6)C=C5)cc3)cc2F)c1
REMARK SMILES IDX 24 1 23 2 21 3 22 4 20 5 19 6 16 7 17 8 99 9 18 10 98 11
REMARK SMILES IDX 100 12 15 13 11 14 12 15 101 16 13 17 14 18 10 19 8 20 7 21
REMARK SMILES IDX 9 23 6 24 5 25 4 26 3 27 2 28 1 29 25 30 26 31 27 32 28 33
REMARK SMILES IDX 29 34 30 35 31 36 32 37 33 38 34 39 35 40 36 41 97 42 37 43
REMARK SMILES IDX 96 44 38 45 39 46 40 47 90 48 41 49 95 50 89 51 91 52 42 53
REMARK SMILES IDX 94 54 88 55 87 56 43 58 75 59 55 60 74 61 56 62 59 63 73 64
REMARK SMILES IDX 92 65 57 66 58 67 72 69 93 70 60 71 44 72 45 73 53 74 46 75
REMARK SMILES IDX 52 76 54 77 51 78 47 79 48 80 49 81 50 82 76 83 77 84 85 85
REMARK SMILES IDX 78 86 84 87 86 88 83 89 79 90 80 91 81 92 82 93 61 94 62 95
REMARK SMILES IDX 70 96 63 97 69 98 71 99 68 100 64 101 65 102 66 103 67 104
REMARK H PARENT 7 22 91 57 59 68
REMARK Flexibility Score: inf
ROOT
ATOM      1  C   UNL A   1      39.394  23.843  27.331  1.00  0.00     0.261 C 
ENDROOT
BRANCH   1   2
ATOM      2  O   UNL A   1      39.604  24.666  26.162  1.00  0.00    -0.463 OA
BRANCH   2   3
ATOM      3  C   UNL A   1      40.518  25.659  26.292  1.00  0.00     0.310 C 
ATOM      4  O   UNL A   1      41.136  26.143  25.347  1.00  0.00    -0.252 OA
BRANCH   3   5
ATOM      5  C   UNL A   1      40.770  26.143  27.703  1.00  0.00     0.158 C 
BRANCH   5   6
ATOM      6  C   UNL A   1      40.351  27.526  28.161  1.00  0.00    -0.034 A 
ATOM      7  C   UNL A   1      39.358  29.992  29.204  1.00  0.00     0.018 A 
ATOM      8  C   UNL A   1      40.369  29.282  29.866  1.00  0.00     0.012 A 
ATOM      9  C   UNL A   1      38.864  29.448  28.011  1.00  0.00     0.131 A 
ATOM     10  C   UNL A   1      40.849  28.064  29.359  1.00  0.00     0.005 A 
ATOM     11  C   UNL A   1      39.354  28.244  27.487  1.00  0.00     0.044 A 
ATOM     12  F   UNL A   1      37.873  30.068  27.351  1.00  0.00    -0.206 F 
BRANCH   7  13
ATOM     13  C   UNL A   1      38.821  31.236  29.771  1.00  0.00    -0.012 A 
ATOM     14  C   UNL A   1      37.050  32.892  29.941  1.00  0.00     0.133 A 
ATOM     15  C   UNL A   1      37.775  33.613  30.886  1.00  0.00     0.047 A 
ATOM     16  C   UNL A   1      37.568  31.725  29.370  1.00  0.00     0.056 A 
ATOM     17  C   UNL A   1      39.020  33.138  31.293  1.00  0.00     0.004 A 
ATOM     18  C   UNL A   1      39.536  31.956  30.745  1.00  0.00     0.009 A 
BRANCH  14  19
ATOM     19  O   UNL A   1      35.827  33.429  29.510  1.00  0.00    -0.410 OA
BRANCH  19  20
ATOM     20  C   UNL A   1      34.684  32.896  30.088  1.00  0.00     0.412 C 
ATOM     21  N   UNL A   1      33.950  32.121  29.233  1.00  0.00    -0.321 N 
ATOM     22  H   UNL A   1      33.118  31.739  29.594  1.00  0.00     0.167 HD
ATOM     23  O   UNL A   1      34.314  33.063  31.243  1.00  0.00    -0.224 OA
BRANCH  21  24
ATOM     24  C   UNL A   1      34.258  31.796  27.856  1.00  0.00     0.119 C 
BRANCH  24  25
ATOM     25  C   UNL A   1      34.142  30.296  27.582  1.00  0.00     0.021 C 
BRANCH  25  26
ATOM     26  C   UNL A   1      32.805  29.851  26.973  1.00  0.00     0.002 C 
BRANCH  26  27
ATOM     27  C   UNL A   1      32.296  28.478  27.423  1.00  0.00    -0.000 C 
BRANCH  27  28
ATOM     28  C   UNL A   1      32.345  27.376  26.361  1.00  0.00    -0.003 C 
ATOM     29  C   UNL A   1      31.009  26.679  26.153  1.00  0.00     0.004 C 
ENDBRANCH  27  28
ENDBRANCH  26  27
ENDBRANCH  25  26
ENDBRANCH  24  25
ENDBRANCH  21  24
ENDBRANCH  19  20
ENDBRANCH  14  19
ENDBRANCH   7  13
ENDBRANCH   5   6
ENDBRANCH   3   5
ENDBRANCH   2   3
ENDBRANCH   1   2
BRANCH   1  30
ATOM     30  C   UNL A   1      40.027  22.454  27.227  1.00  0.00     0.202 C 
BRANCH  30  31
ATOM     31  O   UNL A   1      41.428  22.431  27.005  1.00  0.00    -0.376 OA
BRANCH  31  32
ATOM     32  C   UNL A   1      41.921  21.837  25.805  1.00  0.00     0.188 C 
BRANCH  32  33
ATOM     33  C   UNL A   1      43.409  21.984  25.448  1.00  0.00     0.188 C 
BRANCH  33  34
ATOM     34  O   UNL A   1      43.602  22.681  24.223  1.00  0.00    -0.376 OA
BRANCH  34  35
ATOM     35  C   UNL A   1      44.953  22.731  23.792  1.00  0.00     0.202 C 
BRANCH  35  36
ATOM     36  C   UNL A   1      45.832  23.261  24.926  1.00  0.00     0.261 C 
BRANCH  36  37
ATOM     37  O   UNL A   1      45.353  24.475  25.539  1.00  0.00    -0.460 OA
BRANCH  37  38
ATOM     38  C   UNL A   1      46.053  25.602  25.273  1.00  0.00     0.338 C 
ATOM     39  O   UNL A   1      46.805  25.785  24.334  1.00  0.00    -0.246 OA
BRANCH  38  40
ATOM     40  C   UNL A   1      45.628  26.653  26.223  1.00  0.00     0.060 A 
ATOM     41  C   UNL A   1      46.590  27.250  27.047  1.00  0.00     0.016 A 
ATOM     42  C   UNL A   1      44.285  27.020  26.330  1.00  0.00     0.016 A 
ATOM     43  C   UNL A   1      46.208  28.199  28.000  1.00  0.00     0.010 A 
ATOM     44  C   UNL A   1      43.903  27.959  27.294  1.00  0.00     0.010 A 
ATOM     45  C   UNL A   1      44.856  28.535  28.154  1.00  0.00    -0.014 A 
BRANCH  45  46
ATOM     46  C   UNL A   1      44.406  29.350  29.315  1.00  0.00     0.031 A 
ATOM     47  C   UNL A   1      44.138  28.653  30.623  1.00  0.00     0.074 A 
ATOM     48  C   UNL A   1      44.237  30.681  29.221  1.00  0.00     0.049 A 
ATOM     49  N   UNL A   1      43.630  29.125  31.732  1.00  0.00    -0.248 NA
ATOM     50  C   UNL A   1      44.487  27.225  30.679  1.00  0.00     0.031 C 
ATOM     51  C   UNL A   1      44.516  31.487  28.033  1.00  0.00     0.029 A 
ATOM     52  N   UNL A   1      43.776  31.591  30.142  1.00  0.00    -0.354 N 
ATOM     53  C   UNL A   1      43.585  28.051  32.616  1.00  0.00     0.074 A 
ATOM     54  C   UNL A   1      44.085  26.897  31.897  1.00  0.00     0.031 C 
ATOM     55  C   UNL A   1      44.207  32.769  28.295  1.00  0.00     0.029 A 
ATOM     56  C   UNL A   1      43.661  32.871  29.648  1.00  0.00     0.049 A 
ATOM     57  H   UNL A   1      43.548  31.350  31.069  1.00  0.00     0.167 HD
ATOM     58  C   UNL A   1      43.169  28.029  33.907  1.00  0.00     0.034 A 
ATOM     59  C   UNL A   1      43.143  33.984  30.208  1.00  0.00     0.034 A 
ATOM     60  C   UNL A   1      42.663  29.183  34.610  1.00  0.00     0.049 A 
ATOM     61  C   UNL A   1      42.590  33.915  31.615  1.00  0.00     0.074 A 
ATOM     62  C   UNL A   1      42.221  29.269  35.919  1.00  0.00     0.029 A 
ATOM     63  N   UNL A   1      42.520  30.451  34.061  1.00  0.00    -0.354 N 
ATOM     64  N   UNL A   1      42.540  32.891  32.437  1.00  0.00    -0.248 NA
ATOM     65  C   UNL A   1      42.026  35.154  32.169  1.00  0.00     0.031 C 
ATOM     66  C   UNL A   1      41.741  30.565  36.137  1.00  0.00     0.029 A 
ATOM     67  C   UNL A   1      41.964  31.315  34.994  1.00  0.00     0.049 A 
ATOM     68  H   UNL A   1      42.775  30.701  33.143  1.00  0.00     0.167 HD
ATOM     69  C   UNL A   1      41.971  33.375  33.614  1.00  0.00     0.074 A 
ATOM     70  C   UNL A   1      41.706  34.782  33.400  1.00  0.00     0.031 C 
ATOM     71  C   UNL A   1      41.697  32.717  34.770  1.00  0.00     0.034 A 
BRANCH  58  72
ATOM     72  C   UNL A   1      43.192  26.696  34.617  1.00  0.00     0.023 A 
ATOM     73  C   UNL A   1      44.392  26.100  35.044  1.00  0.00     0.031 A 
ATOM     74  C   UNL A   1      41.993  25.995  34.844  1.00  0.00     0.131 A 
ATOM     75  C   UNL A   1      44.374  24.814  35.603  1.00  0.00     0.055 A 
ATOM     76  C   UNL A   1      41.975  24.751  35.477  1.00  0.00     0.041 A 
ATOM     77  F   UNL A   1      40.818  26.501  34.438  1.00  0.00    -0.206 F 
ATOM     78  C   UNL A   1      43.172  24.146  35.846  1.00  0.00     0.022 A 
BRANCH  75  79
ATOM     79  S   UNL A   1      45.953  23.962  35.869  1.00  0.00     0.124 S 
ATOM     80  O   UNL A   1      45.508  22.678  36.408  1.00  0.00    -0.237 OA
ATOM     81  O   UNL A   1      46.524  23.929  34.528  1.00  0.00    -0.237 OA
ATOM     82  O   UNL A   1      46.650  24.820  36.824  1.00  0.00    -0.744 OA
ENDBRANCH  75  79
ENDBRANCH  58  72
BRANCH  59  83
ATOM     83  C   UNL A   1      43.058  35.256  29.430  1.00  0.00     0.023 A 
ATOM     84  C   UNL A   1      44.142  36.146  29.364  1.00  0.00     0.031 A 
ATOM     85  C   UNL A   1      41.859  35.635  28.800  1.00  0.00     0.131 A 
ATOM     86  C   UNL A   1      43.992  37.389  28.727  1.00  0.00     0.055 A 
ATOM     87  C   UNL A   1      41.733  36.846  28.116  1.00  0.00     0.041 A 
ATOM     88  F   UNL A   1      40.785  34.830  28.839  1.00  0.00    -0.206 F 
ATOM     89  C   UNL A   1      42.801  37.738  28.089  1.00  0.00     0.022 A 
BRANCH  86  90
ATOM     90  S   UNL A   1      45.350  38.588  28.828  1.00  0.00     0.124 S 
ATOM     91  O   UNL A   1      46.075  38.118  30.002  1.00  0.00    -0.237 OA
ATOM     92  O   UNL A   1      46.017  38.401  27.543  1.00  0.00    -0.237 OA
ATOM     93  O   UNL A   1      44.662  39.868  28.989  1.00  0.00    -0.744 OA
ENDBRANCH  86  90
ENDBRANCH  59  83
BRANCH  71  94
ATOM     94  C   UNL A   1      41.130  33.528  35.914  1.00  0.00     0.023 A 
ATOM     95  C   UNL A   1      41.948  34.090  36.909  1.00  0.00     0.031 A 
ATOM     96  C   UNL A   1      39.741  33.737  36.007  1.00  0.00     0.131 A 
ATOM     97  C   UNL A   1      41.369  34.788  37.981  1.00  0.00     0.055 A 
ATOM     98  C   UNL A   1      39.175  34.484  37.042  1.00  0.00     0.041 A 
ATOM     99  F   UNL A   1      38.909  33.223  35.087  1.00  0.00    -0.206 F 
ATOM    100  C   UNL A   1      39.989  35.002  38.044  1.00  0.00     0.022 A 
BRANCH  97 101
ATOM    101  S   UNL A   1      42.431  35.333  39.347  1.00  0.00     0.124 S 
ATOM    102  O   UNL A   1      41.692  36.477  39.869  1.00  0.00    -0.237 OA
ATOM    103  O   UNL A   1      42.469  34.152  40.204  1.00  0.00    -0.237 OA
ATOM    104  O   UNL A   1      43.696  35.660  38.689  1.00  0.00    -0.744 OA
ENDBRANCH  97 101
ENDBRANCH  71  94
ENDBRANCH  45  46
ENDBRANCH  38  40
ENDBRANCH  37  38
ENDBRANCH  36  37
ENDBRANCH  35  36
ENDBRANCH  34  35
ENDBRANCH  33  34
ENDBRANCH  32  33
ENDBRANCH  31  32
ENDBRANCH  30  31
ENDBRANCH   1  30
TORSDOF 29
ENDMDL
