MODEL 1
REMARK VINA RESULT:     -11.5      0.000      0.000
REMARK SMILES CC(C)OC(=O)c1c(NC(=O)[C@H]2[C@@H](C(=O)OCCOCCOCCOC(=O)c3ccc(-c4c5nc(c(-c6cc(S(=O)(=O)[O-])ccc6F)c6ccc([nH]6)c(-c6cc(S(=O)(=O)[O-])ccc6F)c6nc(c(-c7cc(S(=O)(=O)[O-])ccc7F)c7ccc4[nH]7)C=C6)C=C5)cc3)[C@@H]3C=C[C@H]2CC3)sc2c1CCC2
REMARK SMILES IDX 20 1 19 2 18 3 17 4 16 5 14 6 15 7 13 8 12 9 94 10 91 11
REMARK SMILES IDX 93 12 95 13 92 14 96 15 10 16 9 17 11 19 8 20 7 21 99 22
REMARK SMILES IDX 97 23 98 24 100 25 102 26 101 27 5 28 6 29 4 30 2 31 1 32
REMARK SMILES IDX 3 33 21 34 22 35 23 36 24 37 25 38 26 39 27 40 28 41 29 42
REMARK SMILES IDX 90 43 30 44 89 45 31 46 32 47 33 48 83 49 34 50 88 51 82 52
REMARK SMILES IDX 84 53 35 54 87 55 81 56 80 57 36 59 68 60 48 61 67 62 49 63
REMARK SMILES IDX 52 64 66 65 85 66 50 67 51 68 65 70 86 71 53 72 37 73 38 74
REMARK SMILES IDX 46 75 39 76 45 77 47 78 44 79 40 80 41 81 42 82 43 83 69 84
REMARK SMILES IDX 70 85 78 86 71 87 77 88 79 89 76 90 72 91 73 92 74 93 75 94
REMARK SMILES IDX 54 95 55 96 63 97 56 98 62 99 64 100 61 101 57 102 58 103
REMARK SMILES IDX 59 104 60 105
REMARK H PARENT 9 18 84 58 52 69
REMARK Flexibility Score: inf
ROOT
ATOM      1  C   UNL A   1      39.831  20.786  25.763  1.00  0.00     0.188 C 
ENDROOT
BRANCH   1   2
ATOM      2  O   UNL A   1      38.662  21.459  26.212  1.00  0.00    -0.376 OA
BRANCH   2   3
ATOM      3  C   UNL A   1      38.741  22.886  26.209  1.00  0.00     0.202 C 
BRANCH   3   4
ATOM      4  C   UNL A   1      37.579  23.600  25.503  1.00  0.00     0.261 C 
BRANCH   4   5
ATOM      5  O   UNL A   1      36.564  22.667  25.092  1.00  0.00    -0.463 OA
BRANCH   5   6
ATOM      6  C   UNL A   1      35.918  22.939  23.929  1.00  0.00     0.310 C 
ATOM      7  O   UNL A   1      36.390  23.672  23.085  1.00  0.00    -0.252 OA
BRANCH   6   8
ATOM      8  C   UNL A   1      34.591  22.206  23.877  1.00  0.00     0.119 C 
ATOM      9  C   UNL A   1      33.322  22.847  23.241  1.00  0.00     0.100 C 
ATOM     10  C   UNL A   1      32.054  22.369  24.025  1.00  0.00     0.025 C 
ATOM     11  C   UNL A   1      34.215  21.418  25.161  1.00  0.00     0.026 C 
ATOM     12  C   UNL A   1      32.125  20.836  24.094  1.00  0.00    -0.027 C 
ATOM     13  C   UNL A   1      32.086  22.741  25.520  1.00  0.00     0.009 C 
ATOM     14  C   UNL A   1      33.221  20.351  24.712  1.00  0.00    -0.027 C 
ATOM     15  C   UNL A   1      33.437  22.307  26.147  1.00  0.00     0.009 C 
BRANCH   9  16
ATOM     16  C   UNL A   1      33.239  24.183  22.453  1.00  0.00     0.229 C 
ATOM     17  N   UNL A   1      33.166  25.467  22.883  1.00  0.00    -0.317 N 
ATOM     18  H   UNL A   1      33.295  26.128  22.165  1.00  0.00     0.170 HD
ATOM     19  O   UNL A   1      33.330  24.090  21.212  1.00  0.00    -0.274 OA
BRANCH  17  20
ATOM     20  C   UNL A   1      32.948  26.031  24.112  1.00  0.00     0.110 A 
ATOM     21  C   UNL A   1      31.776  26.593  24.628  1.00  0.00     0.098 A 
ATOM     22  C   UNL A   1      32.139  27.405  25.751  1.00  0.00    -0.017 A 
ATOM     23  S   UNL A   1      34.166  25.982  25.286  1.00  0.00    -0.122 S 
ATOM     24  C   UNL A   1      33.455  27.251  26.082  1.00  0.00     0.011 A 
ATOM     25  C   UNL A   1      31.534  28.483  26.571  1.00  0.00     0.038 C 
ATOM     26  C   UNL A   1      34.014  28.280  26.977  1.00  0.00     0.047 C 
ATOM     27  C   UNL A   1      32.791  29.231  27.131  1.00  0.00     0.010 C 
BRANCH  21  28
ATOM     28  C   UNL A   1      30.484  26.482  23.974  1.00  0.00     0.341 C 
ATOM     29  O   UNL A   1      29.596  25.748  24.402  1.00  0.00    -0.246 OA
BRANCH  28  30
ATOM     30  O   UNL A   1      30.364  27.308  22.900  1.00  0.00    -0.459 OA
BRANCH  30  31
ATOM     31  C   UNL A   1      29.675  28.569  23.029  1.00  0.00     0.170 C 
ATOM     32  C   UNL A   1      30.120  29.643  22.041  1.00  0.00     0.052 C 
ATOM     33  C   UNL A   1      28.169  28.337  23.027  1.00  0.00     0.052 C 
ENDBRANCH  30  31
ENDBRANCH  28  30
ENDBRANCH  21  28
ENDBRANCH  17  20
ENDBRANCH   9  16
ENDBRANCH   6   8
ENDBRANCH   5   6
ENDBRANCH   4   5
ENDBRANCH   3   4
ENDBRANCH   2   3
ENDBRANCH   1   2
BRANCH   1  34
ATOM     34  C   UNL A   1      41.029  20.806  26.737  1.00  0.00     0.188 C 
BRANCH  34  35
ATOM     35  O   UNL A   1      42.289  21.353  26.367  1.00  0.00    -0.376 OA
BRANCH  35  36
ATOM     36  C   UNL A   1      42.725  22.613  26.860  1.00  0.00     0.202 C 
BRANCH  36  37
ATOM     37  C   UNL A   1      42.569  23.871  26.019  1.00  0.00     0.261 C 
BRANCH  37  38
ATOM     38  O   UNL A   1      41.510  24.701  26.455  1.00  0.00    -0.460 OA
BRANCH  38  39
ATOM     39  C   UNL A   1      41.480  25.888  25.815  1.00  0.00     0.338 C 
ATOM     40  O   UNL A   1      42.110  26.202  24.818  1.00  0.00    -0.246 OA
BRANCH  39  41
ATOM     41  C   UNL A   1      40.577  26.796  26.524  1.00  0.00     0.060 A 
ATOM     42  C   UNL A   1      40.819  28.156  26.336  1.00  0.00     0.016 A 
ATOM     43  C   UNL A   1      39.771  26.308  27.563  1.00  0.00     0.016 A 
ATOM     44  C   UNL A   1      40.505  29.004  27.367  1.00  0.00     0.010 A 
ATOM     45  C   UNL A   1      39.461  27.159  28.596  1.00  0.00     0.010 A 
ATOM     46  C   UNL A   1      39.940  28.462  28.527  1.00  0.00    -0.014 A 
BRANCH  46  47
ATOM     47  C   UNL A   1      39.902  29.317  29.690  1.00  0.00     0.031 A 
ATOM     48  C   UNL A   1      38.656  30.084  29.816  1.00  0.00     0.074 A 
ATOM     49  C   UNL A   1      40.920  29.399  30.564  1.00  0.00     0.049 A 
ATOM     50  N   UNL A   1      38.500  31.347  29.615  1.00  0.00    -0.248 NA
ATOM     51  C   UNL A   1      37.411  29.336  30.012  1.00  0.00     0.031 C 
ATOM     52  C   UNL A   1      42.100  28.540  30.672  1.00  0.00     0.029 A 
ATOM     53  N   UNL A   1      41.052  30.246  31.620  1.00  0.00    -0.354 N 
ATOM     54  C   UNL A   1      37.165  31.600  29.888  1.00  0.00     0.074 A 
ATOM     55  C   UNL A   1      36.512  30.318  29.931  1.00  0.00     0.031 C 
ATOM     56  C   UNL A   1      42.701  28.766  31.863  1.00  0.00     0.029 A 
ATOM     57  C   UNL A   1      42.028  29.871  32.530  1.00  0.00     0.049 A 
ATOM     58  H   UNL A   1      40.502  31.054  31.728  1.00  0.00     0.167 HD
ATOM     59  C   UNL A   1      36.761  32.830  30.298  1.00  0.00     0.034 A 
ATOM     60  C   UNL A   1      42.208  30.383  33.775  1.00  0.00     0.034 A 
ATOM     61  C   UNL A   1      37.751  33.839  29.996  1.00  0.00     0.049 A 
ATOM     62  C   UNL A   1      41.603  31.741  33.781  1.00  0.00     0.074 A 
ATOM     63  C   UNL A   1      38.352  34.282  28.833  1.00  0.00     0.029 A 
ATOM     64  N   UNL A   1      38.546  34.302  31.022  1.00  0.00    -0.354 N 
ATOM     65  N   UNL A   1      42.077  32.737  33.083  1.00  0.00    -0.248 NA
ATOM     66  C   UNL A   1      40.207  31.878  34.173  1.00  0.00     0.031 C 
ATOM     67  C   UNL A   1      39.706  34.552  29.193  1.00  0.00     0.029 A 
ATOM     68  C   UNL A   1      39.842  34.321  30.563  1.00  0.00     0.049 A 
ATOM     69  H   UNL A   1      38.241  34.570  31.918  1.00  0.00     0.167 HD
ATOM     70  C   UNL A   1      40.961  33.388  32.579  1.00  0.00     0.074 A 
ATOM     71  C   UNL A   1      39.842  32.885  33.372  1.00  0.00     0.031 C 
ATOM     72  C   UNL A   1      41.007  34.060  31.389  1.00  0.00     0.034 A 
BRANCH  59  73
ATOM     73  C   UNL A   1      35.642  33.059  31.279  1.00  0.00     0.023 A 
ATOM     74  C   UNL A   1      34.664  34.004  30.929  1.00  0.00     0.031 A 
ATOM     75  C   UNL A   1      35.638  32.630  32.627  1.00  0.00     0.131 A 
ATOM     76  C   UNL A   1      33.809  34.545  31.904  1.00  0.00     0.055 A 
ATOM     77  C   UNL A   1      34.734  33.114  33.574  1.00  0.00     0.041 A 
ATOM     78  F   UNL A   1      36.564  31.806  33.131  1.00  0.00    -0.206 F 
ATOM     79  C   UNL A   1      33.832  34.101  33.223  1.00  0.00     0.022 A 
BRANCH  76  80
ATOM     80  S   UNL A   1      32.799  35.976  31.451  1.00  0.00     0.124 S 
ATOM     81  O   UNL A   1      32.518  35.705  30.046  1.00  0.00    -0.237 OA
ATOM     82  O   UNL A   1      31.672  35.850  32.370  1.00  0.00    -0.237 OA
ATOM     83  O   UNL A   1      33.686  37.109  31.703  1.00  0.00    -0.744 OA
ENDBRANCH  76  80
ENDBRANCH  59  73
BRANCH  60  84
ATOM     84  C   UNL A   1      42.554  29.621  35.004  1.00  0.00     0.023 A 
ATOM     85  C   UNL A   1      42.007  28.355  35.295  1.00  0.00     0.031 A 
ATOM     86  C   UNL A   1      43.636  30.045  35.813  1.00  0.00     0.131 A 
ATOM     87  C   UNL A   1      42.537  27.576  36.350  1.00  0.00     0.055 A 
ATOM     88  C   UNL A   1      44.148  29.276  36.860  1.00  0.00     0.041 A 
ATOM     89  F   UNL A   1      44.293  31.186  35.558  1.00  0.00    -0.206 F 
ATOM     90  C   UNL A   1      43.605  28.032  37.127  1.00  0.00     0.022 A 
BRANCH  87  91
ATOM     91  S   UNL A   1      41.904  25.896  36.662  1.00  0.00     0.124 S 
ATOM     92  O   UNL A   1      41.492  25.974  38.057  1.00  0.00    -0.237 OA
ATOM     93  O   UNL A   1      40.838  25.775  35.674  1.00  0.00    -0.237 OA
ATOM     94  O   UNL A   1      43.067  25.043  36.411  1.00  0.00    -0.744 OA
ENDBRANCH  87  91
ENDBRANCH  60  84
BRANCH  72  95
ATOM     95  C   UNL A   1      42.364  34.353  30.777  1.00  0.00     0.023 A 
ATOM     96  C   UNL A   1      43.165  35.475  31.090  1.00  0.00     0.031 A 
ATOM     97  C   UNL A   1      42.912  33.380  29.923  1.00  0.00     0.131 A 
ATOM     98  C   UNL A   1      44.456  35.595  30.539  1.00  0.00     0.055 A 
ATOM     99  C   UNL A   1      44.199  33.491  29.398  1.00  0.00     0.041 A 
ATOM    100  F   UNL A   1      42.212  32.277  29.608  1.00  0.00    -0.206 F 
ATOM    101  C   UNL A   1      44.975  34.603  29.699  1.00  0.00     0.022 A 
BRANCH  98 102
ATOM    102  S   UNL A   1      45.485  37.057  30.890  1.00  0.00     0.124 S 
ATOM    103  O   UNL A   1      46.788  36.489  31.217  1.00  0.00    -0.237 OA
ATOM    104  O   UNL A   1      45.409  37.804  29.637  1.00  0.00    -0.237 OA
ATOM    105  O   UNL A   1      44.799  37.694  32.017  1.00  0.00    -0.744 OA
ENDBRANCH  98 102
ENDBRANCH  72  95
ENDBRANCH  46  47
ENDBRANCH  39  41
ENDBRANCH  38  39
ENDBRANCH  37  38
ENDBRANCH  36  37
ENDBRANCH  35  36
ENDBRANCH  34  35
ENDBRANCH   1  34
TORSDOF 25
ENDMDL
MODEL 2
REMARK VINA RESULT:     -10.0      5.432     12.634
REMARK SMILES CC(C)OC(=O)c1c(NC(=O)[C@H]2[C@@H](C(=O)OCCOCCOCCOC(=O)c3ccc(-c4c5nc(c(-c6cc(S(=O)(=O)[O-])ccc6F)c6ccc([nH]6)c(-c6cc(S(=O)(=O)[O-])ccc6F)c6nc(c(-c7cc(S(=O)(=O)[O-])ccc7F)c7ccc4[nH]7)C=C6)C=C5)cc3)[C@@H]3C=C[C@H]2CC3)sc2c1CCC2
REMARK SMILES IDX 20 1 19 2 18 3 17 4 16 5 14 6 15 7 13 8 12 9 94 10 91 11
REMARK SMILES IDX 93 12 95 13 92 14 96 15 10 16 9 17 11 19 8 20 7 21 99 22
REMARK SMILES IDX 97 23 98 24 100 25 102 26 101 27 5 28 6 29 4 30 2 31 1 32
REMARK SMILES IDX 3 33 21 34 22 35 23 36 24 37 25 38 26 39 27 40 28 41 29 42
REMARK SMILES IDX 90 43 30 44 89 45 31 46 32 47 33 48 83 49 34 50 88 51 82 52
REMARK SMILES IDX 84 53 35 54 87 55 81 56 80 57 36 59 68 60 48 61 67 62 49 63
REMARK SMILES IDX 52 64 66 65 85 66 50 67 51 68 65 70 86 71 53 72 37 73 38 74
REMARK SMILES IDX 46 75 39 76 45 77 47 78 44 79 40 80 41 81 42 82 43 83 69 84
REMARK SMILES IDX 70 85 78 86 71 87 77 88 79 89 76 90 72 91 73 92 74 93 75 94
REMARK SMILES IDX 54 95 55 96 63 97 56 98 62 99 64 100 61 101 57 102 58 103
REMARK SMILES IDX 59 104 60 105
REMARK H PARENT 9 18 84 58 52 69
REMARK Flexibility Score: inf
ROOT
ATOM      1  C   UNL A   1      33.945  36.447  31.932  1.00  0.00     0.188 C 
ENDROOT
BRANCH   1   2
ATOM      2  O   UNL A   1      33.793  35.810  33.194  1.00  0.00    -0.376 OA
BRANCH   2   3
ATOM      3  C   UNL A   1      33.581  34.398  33.143  1.00  0.00     0.202 C 
BRANCH   3   4
ATOM      4  C   UNL A   1      34.687  33.551  33.790  1.00  0.00     0.261 C 
BRANCH   4   5
ATOM      5  O   UNL A   1      35.804  34.366  34.189  1.00  0.00    -0.463 OA
BRANCH   5   6
ATOM      6  C   UNL A   1      37.006  34.069  33.632  1.00  0.00     0.310 C 
ATOM      7  O   UNL A   1      37.444  34.678  32.678  1.00  0.00    -0.252 OA
BRANCH   6   8
ATOM      8  C   UNL A   1      37.662  32.918  34.372  1.00  0.00     0.119 C 
ATOM      9  C   UNL A   1      38.621  33.156  35.576  1.00  0.00     0.100 C 
ATOM     10  C   UNL A   1      39.736  32.056  35.573  1.00  0.00     0.025 C 
ATOM     11  C   UNL A   1      38.190  31.765  33.477  1.00  0.00     0.026 C 
ATOM     12  C   UNL A   1      39.022  30.699  35.481  1.00  0.00    -0.027 C 
ATOM     13  C   UNL A   1      40.575  32.044  34.281  1.00  0.00     0.009 C 
ATOM     14  C   UNL A   1      38.256  30.539  34.384  1.00  0.00    -0.027 C 
ATOM     15  C   UNL A   1      39.642  32.025  33.041  1.00  0.00     0.009 C 
BRANCH   9  16
ATOM     16  C   UNL A   1      38.920  34.504  36.287  1.00  0.00     0.229 C 
ATOM     17  N   UNL A   1      38.912  34.839  37.602  1.00  0.00    -0.317 N 
ATOM     18  H   UNL A   1      39.307  35.721  37.784  1.00  0.00     0.170 HD
ATOM     19  O   UNL A   1      39.314  35.432  35.552  1.00  0.00    -0.274 OA
BRANCH  17  20
ATOM     20  C   UNL A   1      38.463  34.199  38.727  1.00  0.00     0.110 A 
ATOM     21  C   UNL A   1      38.895  34.336  40.050  1.00  0.00     0.098 A 
ATOM     22  C   UNL A   1      38.436  33.192  40.780  1.00  0.00    -0.017 A 
ATOM     23  S   UNL A   1      37.123  33.170  38.629  1.00  0.00    -0.122 S 
ATOM     24  C   UNL A   1      37.591  32.422  40.033  1.00  0.00     0.011 A 
ATOM     25  C   UNL A   1      38.732  32.517  42.067  1.00  0.00     0.038 C 
ATOM     26  C   UNL A   1      37.342  31.063  40.547  1.00  0.00     0.047 C 
ATOM     27  C   UNL A   1      38.278  31.043  41.791  1.00  0.00     0.010 C 
BRANCH  21  28
ATOM     28  C   UNL A   1      39.803  35.381  40.488  1.00  0.00     0.341 C 
ATOM     29  O   UNL A   1      40.090  35.544  41.671  1.00  0.00    -0.246 OA
BRANCH  28  30
ATOM     30  O   UNL A   1      40.321  36.097  39.454  1.00  0.00    -0.459 OA
BRANCH  30  31
ATOM     31  C   UNL A   1      40.130  37.525  39.393  1.00  0.00     0.170 C 
ATOM     32  C   UNL A   1      38.713  37.994  39.709  1.00  0.00     0.052 C 
ATOM     33  C   UNL A   1      41.196  38.224  40.228  1.00  0.00     0.052 C 
ENDBRANCH  30  31
ENDBRANCH  28  30
ENDBRANCH  21  28
ENDBRANCH  17  20
ENDBRANCH   9  16
ENDBRANCH   6   8
ENDBRANCH   5   6
ENDBRANCH   4   5
ENDBRANCH   3   4
ENDBRANCH   2   3
ENDBRANCH   1   2
BRANCH   1  34
ATOM     34  C   UNL A   1      32.779  36.247  30.939  1.00  0.00     0.188 C 
BRANCH  34  35
ATOM     35  O   UNL A   1      32.694  35.101  30.100  1.00  0.00    -0.376 OA
BRANCH  35  36
ATOM     36  C   UNL A   1      33.857  34.498  29.548  1.00  0.00     0.202 C 
BRANCH  36  37
ATOM     37  C   UNL A   1      34.025  32.986  29.557  1.00  0.00     0.261 C 
BRANCH  37  38
ATOM     38  O   UNL A   1      35.304  32.569  29.117  1.00  0.00    -0.460 OA
BRANCH  38  39
ATOM     39  C   UNL A   1      35.913  31.744  29.994  1.00  0.00     0.338 C 
ATOM     40  O   UNL A   1      35.565  31.500  31.137  1.00  0.00    -0.246 OA
BRANCH  39  41
ATOM     41  C   UNL A   1      37.112  31.182  29.372  1.00  0.00     0.060 A 
ATOM     42  C   UNL A   1      37.002  29.864  28.930  1.00  0.00     0.016 A 
ATOM     43  C   UNL A   1      38.350  31.822  29.536  1.00  0.00     0.016 A 
ATOM     44  C   UNL A   1      38.135  29.092  28.945  1.00  0.00     0.010 A 
ATOM     45  C   UNL A   1      39.483  31.045  29.555  1.00  0.00     0.010 A 
ATOM     46  C   UNL A   1      39.332  29.675  29.375  1.00  0.00    -0.014 A 
BRANCH  46  47
ATOM     47  C   UNL A   1      40.423  28.775  29.666  1.00  0.00     0.031 A 
ATOM     48  C   UNL A   1      40.705  28.638  31.101  1.00  0.00     0.074 A 
ATOM     49  C   UNL A   1      41.112  28.135  28.706  1.00  0.00     0.049 A 
ATOM     50  N   UNL A   1      41.712  29.120  31.743  1.00  0.00    -0.248 NA
ATOM     51  C   UNL A   1      39.662  28.052  31.949  1.00  0.00     0.031 C 
ATOM     52  C   UNL A   1      40.795  28.015  27.283  1.00  0.00     0.029 A 
ATOM     53  N   UNL A   1      42.224  27.364  28.845  1.00  0.00    -0.354 N 
ATOM     54  C   UNL A   1      41.550  28.698  33.053  1.00  0.00     0.074 A 
ATOM     55  C   UNL A   1      40.195  28.225  33.159  1.00  0.00     0.031 C 
ATOM     56  C   UNL A   1      41.560  27.039  26.742  1.00  0.00     0.029 A 
ATOM     57  C   UNL A   1      42.503  26.568  27.745  1.00  0.00     0.049 A 
ATOM     58  H   UNL A   1      42.781  27.372  29.656  1.00  0.00     0.167 HD
ATOM     59  C   UNL A   1      42.623  28.549  33.872  1.00  0.00     0.034 A 
ATOM     60  C   UNL A   1      43.390  25.540  27.699  1.00  0.00     0.034 A 
ATOM     61  C   UNL A   1      43.777  29.257  33.367  1.00  0.00     0.049 A 
ATOM     62  C   UNL A   1      44.386  25.774  28.778  1.00  0.00     0.074 A 
ATOM     63  C   UNL A   1      44.036  30.579  33.055  1.00  0.00     0.029 A 
ATOM     64  N   UNL A   1      44.771  28.531  32.749  1.00  0.00    -0.354 N 
ATOM     65  N   UNL A   1      45.230  26.770  28.767  1.00  0.00    -0.248 NA
ATOM     66  C   UNL A   1      44.135  25.199  30.092  1.00  0.00     0.031 C 
ATOM     67  C   UNL A   1      44.857  30.532  31.890  1.00  0.00     0.029 A 
ATOM     68  C   UNL A   1      45.106  29.191  31.591  1.00  0.00     0.049 A 
ATOM     69  H   UNL A   1      45.168  27.692  33.078  1.00  0.00     0.167 HD
ATOM     70  C   UNL A   1      45.268  27.225  30.077  1.00  0.00     0.074 A 
ATOM     71  C   UNL A   1      44.663  26.154  30.865  1.00  0.00     0.031 C 
ATOM     72  C   UNL A   1      45.528  28.536  30.366  1.00  0.00     0.034 A 
BRANCH  59  73
ATOM     73  C   UNL A   1      42.724  27.482  34.930  1.00  0.00     0.023 A 
ATOM     74  C   UNL A   1      43.467  26.332  34.613  1.00  0.00     0.031 A 
ATOM     75  C   UNL A   1      41.916  27.400  36.087  1.00  0.00     0.131 A 
ATOM     76  C   UNL A   1      43.320  25.155  35.365  1.00  0.00     0.055 A 
ATOM     77  C   UNL A   1      41.834  26.251  36.877  1.00  0.00     0.041 A 
ATOM     78  F   UNL A   1      41.083  28.378  36.464  1.00  0.00    -0.206 F 
ATOM     79  C   UNL A   1      42.514  25.108  36.499  1.00  0.00     0.022 A 
BRANCH  76  80
ATOM     80  S   UNL A   1      44.055  23.634  34.718  1.00  0.00     0.124 S 
ATOM     81  O   UNL A   1      42.941  23.065  33.967  1.00  0.00    -0.237 OA
ATOM     82  O   UNL A   1      45.168  24.151  33.929  1.00  0.00    -0.237 OA
ATOM     83  O   UNL A   1      44.432  22.901  35.924  1.00  0.00    -0.744 OA
ENDBRANCH  76  80
ENDBRANCH  59  73
BRANCH  60  84
ATOM     84  C   UNL A   1      43.200  24.236  27.011  1.00  0.00     0.023 A 
ATOM     85  C   UNL A   1      44.088  23.759  26.025  1.00  0.00     0.031 A 
ATOM     86  C   UNL A   1      42.241  23.316  27.499  1.00  0.00     0.131 A 
ATOM     87  C   UNL A   1      43.993  22.422  25.569  1.00  0.00     0.055 A 
ATOM     88  C   UNL A   1      42.146  22.003  27.038  1.00  0.00     0.041 A 
ATOM     89  F   UNL A   1      41.417  23.637  28.508  1.00  0.00    -0.206 F 
ATOM     90  C   UNL A   1      43.029  21.547  26.075  1.00  0.00     0.022 A 
BRANCH  87  91
ATOM     91  S   UNL A   1      45.202  21.771  24.373  1.00  0.00     0.124 S 
ATOM     92  O   UNL A   1      44.490  20.637  23.798  1.00  0.00    -0.237 OA
ATOM     93  O   UNL A   1      45.423  22.914  23.496  1.00  0.00    -0.237 OA
ATOM     94  O   UNL A   1      46.349  21.414  25.210  1.00  0.00    -0.744 OA
ENDBRANCH  87  91
ENDBRANCH  60  84
BRANCH  72  95
ATOM     95  C   UNL A   1      46.082  29.422  29.267  1.00  0.00     0.023 A 
ATOM     96  C   UNL A   1      45.321  30.343  28.511  1.00  0.00     0.031 A 
ATOM     97  C   UNL A   1      47.474  29.409  29.066  1.00  0.00     0.131 A 
ATOM     98  C   UNL A   1      45.958  31.192  27.585  1.00  0.00     0.055 A 
ATOM     99  C   UNL A   1      48.103  30.267  28.165  1.00  0.00     0.041 A 
ATOM    100  F   UNL A   1      48.257  28.577  29.772  1.00  0.00    -0.206 F 
ATOM    101  C   UNL A   1      47.346  31.159  27.415  1.00  0.00     0.022 A 
BRANCH  98 102
ATOM    102  S   UNL A   1      44.989  32.349  26.565  1.00  0.00     0.124 S 
ATOM    103  O   UNL A   1      43.983  31.498  25.941  1.00  0.00    -0.237 OA
ATOM    104  O   UNL A   1      44.496  33.304  27.554  1.00  0.00    -0.237 OA
ATOM    105  O   UNL A   1      45.980  32.898  25.636  1.00  0.00    -0.744 OA
ENDBRANCH  98 102
ENDBRANCH  72  95
ENDBRANCH  46  47
ENDBRANCH  39  41
ENDBRANCH  38  39
ENDBRANCH  37  38
ENDBRANCH  36  37
ENDBRANCH  35  36
ENDBRANCH  34  35
ENDBRANCH   1  34
TORSDOF 25
ENDMDL
MODEL 3
REMARK VINA RESULT:      -9.8      2.093      2.377
REMARK SMILES CC(C)OC(=O)c1c(NC(=O)[C@H]2[C@@H](C(=O)OCCOCCOCCOC(=O)c3ccc(-c4c5nc(c(-c6cc(S(=O)(=O)[O-])ccc6F)c6ccc([nH]6)c(-c6cc(S(=O)(=O)[O-])ccc6F)c6nc(c(-c7cc(S(=O)(=O)[O-])ccc7F)c7ccc4[nH]7)C=C6)C=C5)cc3)[C@@H]3C=C[C@H]2CC3)sc2c1CCC2
REMARK SMILES IDX 20 1 19 2 18 3 17 4 16 5 14 6 15 7 13 8 12 9 94 10 91 11
REMARK SMILES IDX 93 12 95 13 92 14 96 15 10 16 9 17 11 19 8 20 7 21 99 22
REMARK SMILES IDX 97 23 98 24 100 25 102 26 101 27 5 28 6 29 4 30 2 31 1 32
REMARK SMILES IDX 3 33 21 34 22 35 23 36 24 37 25 38 26 39 27 40 28 41 29 42
REMARK SMILES IDX 90 43 30 44 89 45 31 46 32 47 33 48 83 49 34 50 88 51 82 52
REMARK SMILES IDX 84 53 35 54 87 55 81 56 80 57 36 59 68 60 48 61 67 62 49 63
REMARK SMILES IDX 52 64 66 65 85 66 50 67 51 68 65 70 86 71 53 72 37 73 38 74
REMARK SMILES IDX 46 75 39 76 45 77 47 78 44 79 40 80 41 81 42 82 43 83 69 84
REMARK SMILES IDX 70 85 78 86 71 87 77 88 79 89 76 90 72 91 73 92 74 93 75 94
REMARK SMILES IDX 54 95 55 96 63 97 56 98 62 99 64 100 61 101 57 102 58 103
REMARK SMILES IDX 59 104 60 105
REMARK H PARENT 9 18 84 58 52 69
REMARK Flexibility Score: inf
ROOT
ATOM      1  C   UNL A   1      39.660  23.150  27.103  1.00  0.00     0.188 C 
ENDROOT
BRANCH   1   2
ATOM      2  O   UNL A   1      39.023  21.982  26.602  1.00  0.00    -0.376 OA
BRANCH   2   3
ATOM      3  C   UNL A   1      38.423  22.120  25.313  1.00  0.00     0.202 C 
BRANCH   3   4
ATOM      4  C   UNL A   1      36.969  21.636  25.218  1.00  0.00     0.261 C 
BRANCH   4   5
ATOM      5  O   UNL A   1      36.070  22.728  24.960  1.00  0.00    -0.463 OA
BRANCH   5   6
ATOM      6  C   UNL A   1      35.529  22.795  23.716  1.00  0.00     0.310 C 
ATOM      7  O   UNL A   1      36.175  23.142  22.749  1.00  0.00    -0.252 OA
BRANCH   6   8
ATOM      8  C   UNL A   1      34.071  22.377  23.751  1.00  0.00     0.119 C 
ATOM      9  C   UNL A   1      32.935  23.316  23.247  1.00  0.00     0.100 C 
ATOM     10  C   UNL A   1      31.653  23.089  24.118  1.00  0.00     0.025 C 
ATOM     11  C   UNL A   1      33.624  21.624  25.033  1.00  0.00     0.026 C 
ATOM     12  C   UNL A   1      31.383  21.576  24.126  1.00  0.00    -0.027 C 
ATOM     13  C   UNL A   1      31.880  23.364  25.617  1.00  0.00     0.009 C 
ATOM     14  C   UNL A   1      32.385  20.829  24.631  1.00  0.00    -0.027 C 
ATOM     15  C   UNL A   1      33.142  22.609  26.112  1.00  0.00     0.009 C 
BRANCH   9  16
ATOM     16  C   UNL A   1      33.096  24.677  22.517  1.00  0.00     0.229 C 
ATOM     17  N   UNL A   1      33.212  25.939  23.001  1.00  0.00    -0.317 N 
ATOM     18  H   UNL A   1      33.472  26.598  22.319  1.00  0.00     0.170 HD
ATOM     19  O   UNL A   1      33.220  24.620  21.277  1.00  0.00    -0.274 OA
BRANCH  17  20
ATOM     20  C   UNL A   1      33.039  26.483  24.247  1.00  0.00     0.110 A 
ATOM     21  C   UNL A   1      31.887  27.040  24.813  1.00  0.00     0.098 A 
ATOM     22  C   UNL A   1      32.292  27.831  25.937  1.00  0.00    -0.017 A 
ATOM     23  S   UNL A   1      34.296  26.408  25.377  1.00  0.00    -0.122 S 
ATOM     24  C   UNL A   1      33.619  27.667  26.218  1.00  0.00     0.011 A 
ATOM     25  C   UNL A   1      31.721  28.896  26.795  1.00  0.00     0.038 C 
ATOM     26  C   UNL A   1      34.212  28.677  27.112  1.00  0.00     0.047 C 
ATOM     27  C   UNL A   1      33.000  29.630  27.324  1.00  0.00     0.010 C 
BRANCH  21  28
ATOM     28  C   UNL A   1      30.573  26.945  24.203  1.00  0.00     0.341 C 
ATOM     29  O   UNL A   1      29.617  26.439  24.785  1.00  0.00    -0.246 OA
BRANCH  28  30
ATOM     30  O   UNL A   1      30.521  27.518  22.970  1.00  0.00    -0.459 OA
BRANCH  30  31
ATOM     31  C   UNL A   1      29.784  28.741  22.771  1.00  0.00     0.170 C 
ATOM     32  C   UNL A   1      28.282  28.557  22.575  1.00  0.00     0.052 C 
ATOM     33  C   UNL A   1      30.130  29.738  23.870  1.00  0.00     0.052 C 
ENDBRANCH  30  31
ENDBRANCH  28  30
ENDBRANCH  21  28
ENDBRANCH  17  20
ENDBRANCH   9  16
ENDBRANCH   6   8
ENDBRANCH   5   6
ENDBRANCH   4   5
ENDBRANCH   3   4
ENDBRANCH   2   3
ENDBRANCH   1   2
BRANCH   1  34
ATOM     34  C   UNL A   1      41.009  22.922  27.818  1.00  0.00     0.188 C 
BRANCH  34  35
ATOM     35  O   UNL A   1      42.183  22.547  27.107  1.00  0.00    -0.376 OA
BRANCH  35  36
ATOM     36  C   UNL A   1      42.403  22.965  25.766  1.00  0.00     0.202 C 
BRANCH  36  37
ATOM     37  C   UNL A   1      43.134  24.265  25.468  1.00  0.00     0.261 C 
BRANCH  37  38
ATOM     38  O   UNL A   1      42.827  25.296  26.386  1.00  0.00    -0.460 OA
BRANCH  38  39
ATOM     39  C   UNL A   1      42.259  26.368  25.796  1.00  0.00     0.338 C 
ATOM     40  O   UNL A   1      42.470  26.784  24.669  1.00  0.00    -0.246 OA
BRANCH  39  41
ATOM     41  C   UNL A   1      41.341  27.007  26.740  1.00  0.00     0.060 A 
ATOM     42  C   UNL A   1      41.033  28.341  26.473  1.00  0.00     0.016 A 
ATOM     43  C   UNL A   1      41.088  26.408  27.983  1.00  0.00     0.016 A 
ATOM     44  C   UNL A   1      40.754  29.154  27.541  1.00  0.00     0.010 A 
ATOM     45  C   UNL A   1      40.813  27.226  29.052  1.00  0.00     0.010 A 
ATOM     46  C   UNL A   1      40.770  28.597  28.824  1.00  0.00    -0.014 A 
BRANCH  46  47
ATOM     47  C   UNL A   1      40.774  29.522  29.933  1.00  0.00     0.031 A 
ATOM     48  C   UNL A   1      39.490  30.207  30.132  1.00  0.00     0.074 A 
ATOM     49  C   UNL A   1      41.859  29.734  30.698  1.00  0.00     0.049 A 
ATOM     50  N   UNL A   1      39.220  31.439  29.872  1.00  0.00    -0.248 NA
ATOM     51  C   UNL A   1      38.329  29.387  30.492  1.00  0.00     0.031 C 
ATOM     52  C   UNL A   1      43.106  28.969  30.743  1.00  0.00     0.029 A 
ATOM     53  N   UNL A   1      42.022  30.656  31.684  1.00  0.00    -0.354 N 
ATOM     54  C   UNL A   1      37.901  31.615  30.258  1.00  0.00     0.074 A 
ATOM     55  C   UNL A   1      37.354  30.296  30.439  1.00  0.00     0.031 C 
ATOM     56  C   UNL A   1      43.795  29.316  31.855  1.00  0.00     0.029 A 
ATOM     57  C   UNL A   1      43.104  30.412  32.516  1.00  0.00     0.049 A 
ATOM     58  H   UNL A   1      41.424  31.429  31.796  1.00  0.00     0.167 HD
ATOM     59  C   UNL A   1      37.443  32.838  30.630  1.00  0.00     0.034 A 
ATOM     60  C   UNL A   1      43.357  31.017  33.706  1.00  0.00     0.034 A 
ATOM     61  C   UNL A   1      38.321  33.892  30.175  1.00  0.00     0.049 A 
ATOM     62  C   UNL A   1      42.653  32.326  33.689  1.00  0.00     0.074 A 
ATOM     63  C   UNL A   1      38.778  34.298  28.935  1.00  0.00     0.029 A 
ATOM     64  N   UNL A   1      39.169  34.477  31.090  1.00  0.00    -0.354 N 
ATOM     65  N   UNL A   1      42.984  33.305  32.891  1.00  0.00    -0.248 NA
ATOM     66  C   UNL A   1      41.293  32.391  34.205  1.00  0.00     0.031 C 
ATOM     67  C   UNL A   1      40.134  34.685  29.146  1.00  0.00     0.029 A 
ATOM     68  C   UNL A   1      40.413  34.556  30.509  1.00  0.00     0.049 A 
ATOM     69  H   UNL A   1      38.928  34.782  31.994  1.00  0.00     0.167 HD
ATOM     70  C   UNL A   1      41.780  33.841  32.459  1.00  0.00     0.074 A 
ATOM     71  C   UNL A   1      40.780  33.313  33.384  1.00  0.00     0.031 C 
ATOM     72  C   UNL A   1      41.665  34.434  31.232  1.00  0.00     0.034 A 
BRANCH  59  73
ATOM     73  C   UNL A   1      36.405  33.052  31.700  1.00  0.00     0.023 A 
ATOM     74  C   UNL A   1      35.247  33.762  31.339  1.00  0.00     0.031 A 
ATOM     75  C   UNL A   1      36.609  32.861  33.086  1.00  0.00     0.131 A 
ATOM     76  C   UNL A   1      34.414  34.320  32.321  1.00  0.00     0.055 A 
ATOM     77  C   UNL A   1      35.734  33.351  34.057  1.00  0.00     0.041 A 
ATOM     78  F   UNL A   1      37.710  32.287  33.587  1.00  0.00    -0.206 F 
ATOM     79  C   UNL A   1      34.644  34.113  33.678  1.00  0.00     0.022 A 
BRANCH  76  80
ATOM     80  S   UNL A   1      33.131  35.480  31.791  1.00  0.00     0.124 S 
ATOM     81  O   UNL A   1      32.181  35.392  32.895  1.00  0.00    -0.237 OA
ATOM     82  O   UNL A   1      33.880  36.728  31.684  1.00  0.00    -0.237 OA
ATOM     83  O   UNL A   1      32.669  34.918  30.524  1.00  0.00    -0.744 OA
ENDBRANCH  76  80
ENDBRANCH  59  73
BRANCH  60  84
ATOM     84  C   UNL A   1      43.872  30.365  34.939  1.00  0.00     0.023 A 
ATOM     85  C   UNL A   1      44.959  30.879  35.675  1.00  0.00     0.031 A 
ATOM     86  C   UNL A   1      43.128  29.327  35.550  1.00  0.00     0.131 A 
ATOM     87  C   UNL A   1      45.262  30.357  36.955  1.00  0.00     0.055 A 
ATOM     88  C   UNL A   1      43.438  28.809  36.808  1.00  0.00     0.041 A 
ATOM     89  F   UNL A   1      42.016  28.838  34.981  1.00  0.00    -0.206 F 
ATOM     90  C   UNL A   1      44.504  29.330  37.521  1.00  0.00     0.022 A 
BRANCH  87  91
ATOM     91  S   UNL A   1      46.599  31.088  37.953  1.00  0.00     0.124 S 
ATOM     92  O   UNL A   1      47.506  29.961  38.131  1.00  0.00    -0.237 OA
ATOM     93  O   UNL A   1      47.070  32.174  37.100  1.00  0.00    -0.237 OA
ATOM     94  O   UNL A   1      45.915  31.523  39.171  1.00  0.00    -0.744 OA
ENDBRANCH  87  91
ENDBRANCH  60  84
BRANCH  72  95
ATOM     95  C   UNL A   1      42.933  34.780  30.476  1.00  0.00     0.023 A 
ATOM     96  C   UNL A   1      43.462  34.031  29.400  1.00  0.00     0.031 A 
ATOM     97  C   UNL A   1      43.565  35.996  30.794  1.00  0.00     0.131 A 
ATOM     98  C   UNL A   1      44.591  34.502  28.700  1.00  0.00     0.055 A 
ATOM     99  C   UNL A   1      44.668  36.470  30.084  1.00  0.00     0.041 A 
ATOM    100  F   UNL A   1      43.096  36.768  31.788  1.00  0.00    -0.206 F 
ATOM    101  C   UNL A   1      45.190  35.720  29.037  1.00  0.00     0.022 A 
BRANCH  98 102
ATOM    102  S   UNL A   1      45.317  33.527  27.343  1.00  0.00     0.124 S 
ATOM    103  O   UNL A   1      46.245  32.631  28.023  1.00  0.00    -0.237 OA
ATOM    104  O   UNL A   1      44.143  32.898  26.743  1.00  0.00    -0.237 OA
ATOM    105  O   UNL A   1      45.958  34.539  26.501  1.00  0.00    -0.744 OA
ENDBRANCH  98 102
ENDBRANCH  72  95
ENDBRANCH  46  47
ENDBRANCH  39  41
ENDBRANCH  38  39
ENDBRANCH  37  38
ENDBRANCH  36  37
ENDBRANCH  35  36
ENDBRANCH  34  35
ENDBRANCH   1  34
TORSDOF 25
ENDMDL
