MODEL 1
REMARK VINA RESULT:     -12.0      0.000      0.000
REMARK SMILES Cc1ccc(NC(=O)[C@H]2CC=CC[C@H]2C(=O)OCCOCCOCCOC(=O)c2ccc(-c3c4nc(c(-c5cc(S(=O)(=O)[O-])ccc5F)c5ccc([nH]5)c(-c5cc(S(=O)(=O)[O-])ccc5F)c5nc(c(-c6cc(S(=O)(=O)[O-])ccc6F)c6ccc3[nH]6)C=C5)C=C4)cc2)cc1F
REMARK SMILES IDX 22 1 21 2 20 3 19 4 18 5 17 6 15 7 16 8 14 9 9 10 10 11
REMARK SMILES IDX 11 12 13 13 12 14 7 15 6 16 8 18 5 19 1 20 2 21 3 22 93 23
REMARK SMILES IDX 4 24 92 25 94 26 23 27 24 28 25 29 26 30 27 31 28 32 29 33
REMARK SMILES IDX 30 34 91 35 31 36 90 37 32 38 33 39 34 40 84 41 35 42 89 43
REMARK SMILES IDX 83 44 85 45 36 46 88 47 82 48 81 49 37 51 69 52 49 53 68 54
REMARK SMILES IDX 50 55 53 56 67 57 86 58 51 59 52 60 66 62 87 63 54 64 38 65
REMARK SMILES IDX 39 66 47 67 40 68 46 69 48 70 45 71 41 72 42 73 43 74 44 75
REMARK SMILES IDX 70 76 71 77 79 78 72 79 78 80 80 81 77 82 73 83 74 84 75 85
REMARK SMILES IDX 76 86 55 87 56 88 64 89 57 90 63 91 65 92 62 93 58 94 59 95
REMARK SMILES IDX 60 96 61 97
REMARK H PARENT 6 17 85 50 53 61
REMARK Flexibility Score: inf
ROOT
ATOM      1  C   UNL A   1      34.218  29.717  27.210  1.00  0.00     0.188 C 
ENDROOT
BRANCH   1   2
ATOM      2  C   UNL A   1      33.444  28.912  25.336  1.00  0.00     0.188 C 
BRANCH   2   3
ATOM      3  O   UNL A   1      33.740  29.307  23.840  1.00  0.00    -0.376 OA
BRANCH   3   4
ATOM      4  C   UNL A   1      32.996  28.745  22.741  1.00  0.00     0.202 C 
BRANCH   4   5
ATOM      5  C   UNL A   1      33.319  27.355  22.168  1.00  0.00     0.261 C 
BRANCH   5   6
ATOM      6  O   UNL A   1      32.186  26.471  21.999  1.00  0.00    -0.463 OA
BRANCH   6   7
ATOM      7  C   UNL A   1      32.353  25.172  22.355  1.00  0.00     0.310 C 
ATOM      8  O   UNL A   1      32.986  24.372  21.671  1.00  0.00    -0.252 OA
BRANCH   7   9
ATOM      9  C   UNL A   1      31.606  24.722  23.619  1.00  0.00     0.116 C 
ATOM     10  C   UNL A   1      32.215  23.789  24.701  1.00  0.00     0.097 C 
ATOM     11  C   UNL A   1      31.300  23.602  25.933  1.00  0.00     0.041 C 
ATOM     12  C   UNL A   1      30.301  24.685  26.187  1.00  0.00    -0.030 C 
ATOM     13  C   UNL A   1      31.037  26.010  24.221  1.00  0.00     0.043 C 
ATOM     14  C   UNL A   1      30.188  25.777  25.425  1.00  0.00    -0.030 C 
BRANCH  10  15
ATOM     15  C   UNL A   1      33.688  24.010  24.956  1.00  0.00     0.228 C 
ATOM     16  N   UNL A   1      34.544  22.933  24.880  1.00  0.00    -0.326 N 
ATOM     17  H   UNL A   1      35.496  23.164  24.981  1.00  0.00     0.169 HD
ATOM     18  O   UNL A   1      34.153  25.126  25.193  1.00  0.00    -0.274 OA
BRANCH  16  19
ATOM     19  C   UNL A   1      34.296  21.548  24.681  1.00  0.00     0.044 A 
ATOM     20  C   UNL A   1      33.681  16.668  23.311  1.00  0.00     0.047 C 
ATOM     21  C   UNL A   1      33.728  18.103  23.737  1.00  0.00    -0.015 A 
ATOM     22  C   UNL A   1      32.472  19.327  23.347  1.00  0.00     0.008 A 
ATOM     23  C   UNL A   1      35.182  18.558  24.634  1.00  0.00     0.128 A 
ATOM     24  C   UNL A   1      32.767  21.074  23.768  1.00  0.00     0.026 A 
ATOM     25  C   UNL A   1      35.498  20.244  25.070  1.00  0.00     0.065 A 
ATOM     26  F   UNL A   1      36.097  17.629  24.938  1.00  0.00    -0.207 F 
ENDBRANCH  16  19
ENDBRANCH  10  15
ENDBRANCH   7   9
ENDBRANCH   6   7
ENDBRANCH   5   6
ENDBRANCH   4   5
ENDBRANCH   3   4
ENDBRANCH   2   3
ENDBRANCH   1   2
BRANCH   1  27
ATOM     27  O   UNL A   1      34.113  31.206  27.826  1.00  0.00    -0.376 OA
BRANCH  27  28
ATOM     28  C   UNL A   1      35.155  32.204  27.840  1.00  0.00     0.202 C 
BRANCH  28  29
ATOM     29  C   UNL A   1      36.415  32.003  28.694  1.00  0.00     0.261 C 
BRANCH  29  30
ATOM     30  O   UNL A   1      36.919  30.693  28.638  1.00  0.00    -0.460 OA
BRANCH  30  31
ATOM     31  C   UNL A   1      38.259  30.671  28.784  1.00  0.00     0.338 C 
ATOM     32  O   UNL A   1      38.943  31.402  29.471  1.00  0.00    -0.246 OA
BRANCH  31  33
ATOM     33  C   UNL A   1      38.706  29.481  28.080  1.00  0.00     0.060 A 
ATOM     34  C   UNL A   1      38.205  28.227  28.477  1.00  0.00     0.016 A 
ATOM     35  C   UNL A   1      39.716  29.645  27.129  1.00  0.00     0.016 A 
ATOM     36  C   UNL A   1      38.909  27.115  28.124  1.00  0.00     0.010 A 
ATOM     37  C   UNL A   1      40.472  28.551  26.864  1.00  0.00     0.010 A 
ATOM     38  C   UNL A   1      40.148  27.405  27.604  1.00  0.00    -0.014 A 
BRANCH  38  39
ATOM     39  C   UNL A   1      41.294  26.920  28.349  1.00  0.00     0.031 A 
ATOM     40  C   UNL A   1      41.605  25.526  28.035  1.00  0.00     0.074 A 
ATOM     41  C   UNL A   1      42.019  27.915  28.941  1.00  0.00     0.049 A 
ATOM     42  N   UNL A   1      42.373  24.767  28.722  1.00  0.00    -0.248 NA
ATOM     43  C   UNL A   1      40.923  24.795  26.946  1.00  0.00     0.031 C 
ATOM     44  C   UNL A   1      43.463  28.110  28.988  1.00  0.00     0.029 A 
ATOM     45  N   UNL A   1      41.584  29.091  29.558  1.00  0.00    -0.354 N 
ATOM     46  C   UNL A   1      42.693  23.746  27.853  1.00  0.00     0.074 A 
ATOM     47  C   UNL A   1      41.578  23.632  26.955  1.00  0.00     0.031 C 
ATOM     48  C   UNL A   1      43.758  29.149  29.803  1.00  0.00     0.029 A 
ATOM     49  C   UNL A   1      42.529  29.575  30.452  1.00  0.00     0.049 A 
ATOM     50  H   UNL A   1      40.717  29.521  29.380  1.00  0.00     0.167 HD
ATOM     51  C   UNL A   1      44.006  23.402  27.750  1.00  0.00     0.034 A 
ATOM     52  C   UNL A   1      42.322  29.567  31.809  1.00  0.00     0.034 A 
ATOM     53  C   UNL A   1      44.787  24.198  28.710  1.00  0.00     0.049 A 
ATOM     54  C   UNL A   1      43.126  28.449  32.448  1.00  0.00     0.074 A 
ATOM     55  C   UNL A   1      45.572  25.328  28.557  1.00  0.00     0.029 A 
ATOM     56  N   UNL A   1      44.480  24.119  30.066  1.00  0.00    -0.354 N 
ATOM     57  N   UNL A   1      43.626  27.450  31.778  1.00  0.00    -0.248 NA
ATOM     58  C   UNL A   1      43.409  28.357  33.877  1.00  0.00     0.031 C 
ATOM     59  C   UNL A   1      45.680  25.960  29.830  1.00  0.00     0.029 A 
ATOM     60  C   UNL A   1      44.956  25.225  30.755  1.00  0.00     0.049 A 
ATOM     61  H   UNL A   1      43.989  23.375  30.483  1.00  0.00     0.167 HD
ATOM     62  C   UNL A   1      44.213  26.564  32.626  1.00  0.00     0.074 A 
ATOM     63  C   UNL A   1      44.101  27.206  33.924  1.00  0.00     0.031 C 
ATOM     64  C   UNL A   1      44.702  25.365  32.193  1.00  0.00     0.034 A 
BRANCH  51  65
ATOM     65  C   UNL A   1      44.624  22.620  26.608  1.00  0.00     0.023 A 
ATOM     66  C   UNL A   1      44.296  21.294  26.234  1.00  0.00     0.031 A 
ATOM     67  C   UNL A   1      45.605  23.245  25.812  1.00  0.00     0.131 A 
ATOM     68  C   UNL A   1      44.924  20.657  25.142  1.00  0.00     0.055 A 
ATOM     69  C   UNL A   1      46.225  22.615  24.729  1.00  0.00     0.041 A 
ATOM     70  F   UNL A   1      45.994  24.508  26.041  1.00  0.00    -0.206 F 
ATOM     71  C   UNL A   1      45.891  21.315  24.389  1.00  0.00     0.022 A 
BRANCH  68  72
ATOM     72  S   UNL A   1      44.501  18.958  24.648  1.00  0.00     0.124 S 
ATOM     73  O   UNL A   1      45.240  18.158  25.625  1.00  0.00    -0.237 OA
ATOM     74  O   UNL A   1      43.049  18.939  24.802  1.00  0.00    -0.237 OA
ATOM     75  O   UNL A   1      44.987  18.855  23.275  1.00  0.00    -0.744 OA
ENDBRANCH  68  72
ENDBRANCH  51  65
BRANCH  52  76
ATOM     76  C   UNL A   1      40.918  29.870  32.223  1.00  0.00     0.023 A 
ATOM     77  C   UNL A   1      40.651  31.056  32.917  1.00  0.00     0.031 A 
ATOM     78  C   UNL A   1      39.987  28.818  32.314  1.00  0.00     0.131 A 
ATOM     79  C   UNL A   1      39.610  31.082  33.856  1.00  0.00     0.055 A 
ATOM     80  C   UNL A   1      38.922  28.866  33.216  1.00  0.00     0.041 A 
ATOM     81  F   UNL A   1      40.180  27.677  31.628  1.00  0.00    -0.206 F 
ATOM     82  C   UNL A   1      38.771  29.978  34.040  1.00  0.00     0.022 A 
BRANCH  79  83
ATOM     83  S   UNL A   1      39.543  32.474  35.020  1.00  0.00     0.124 S 
ATOM     84  O   UNL A   1      40.522  33.414  34.473  1.00  0.00    -0.237 OA
ATOM     85  O   UNL A   1      38.158  32.910  34.917  1.00  0.00    -0.237 OA
ATOM     86  O   UNL A   1      39.920  31.832  36.274  1.00  0.00    -0.744 OA
ENDBRANCH  79  83
ENDBRANCH  52  76
BRANCH  64  87
ATOM     87  C   UNL A   1      45.065  24.226  33.110  1.00  0.00     0.023 A 
ATOM     88  C   UNL A   1      46.362  24.198  33.670  1.00  0.00     0.031 A 
ATOM     89  C   UNL A   1      44.258  23.106  33.367  1.00  0.00     0.131 A 
ATOM     90  C   UNL A   1      46.794  23.124  34.449  1.00  0.00     0.055 A 
ATOM     91  C   UNL A   1      44.645  22.096  34.249  1.00  0.00     0.041 A 
ATOM     92  F   UNL A   1      43.094  22.904  32.735  1.00  0.00    -0.206 F 
ATOM     93  C   UNL A   1      45.921  22.098  34.790  1.00  0.00     0.022 A 
BRANCH  90  94
ATOM     94  S   UNL A   1      48.537  22.964  34.910  1.00  0.00     0.124 S 
ATOM     95  O   UNL A   1      49.180  23.855  33.947  1.00  0.00    -0.237 OA
ATOM     96  O   UNL A   1      48.532  23.437  36.293  1.00  0.00    -0.237 OA
ATOM     97  O   UNL A   1      48.817  21.544  34.744  1.00  0.00    -0.744 OA
ENDBRANCH  90  94
ENDBRANCH  64  87
ENDBRANCH  38  39
ENDBRANCH  31  33
ENDBRANCH  30  31
ENDBRANCH  29  30
ENDBRANCH  28  29
ENDBRANCH  27  28
ENDBRANCH   1  27
TORSDOF 22
ENDMDL
MODEL 2
REMARK VINA RESULT:     -11.8      5.043      8.487
REMARK SMILES Cc1ccc(NC(=O)[C@H]2CC=CC[C@H]2C(=O)OCCOCCOCCOC(=O)c2ccc(-c3c4nc(c(-c5cc(S(=O)(=O)[O-])ccc5F)c5ccc([nH]5)c(-c5cc(S(=O)(=O)[O-])ccc5F)c5nc(c(-c6cc(S(=O)(=O)[O-])ccc6F)c6ccc3[nH]6)C=C5)C=C4)cc2)cc1F
REMARK SMILES IDX 22 1 21 2 20 3 19 4 18 5 17 6 15 7 16 8 14 9 9 10 10 11
REMARK SMILES IDX 11 12 13 13 12 14 7 15 6 16 8 18 5 19 1 20 2 21 3 22 93 23
REMARK SMILES IDX 4 24 92 25 94 26 23 27 24 28 25 29 26 30 27 31 28 32 29 33
REMARK SMILES IDX 30 34 91 35 31 36 90 37 32 38 33 39 34 40 84 41 35 42 89 43
REMARK SMILES IDX 83 44 85 45 36 46 88 47 82 48 81 49 37 51 69 52 49 53 68 54
REMARK SMILES IDX 50 55 53 56 67 57 86 58 51 59 52 60 66 62 87 63 54 64 38 65
REMARK SMILES IDX 39 66 47 67 40 68 46 69 48 70 45 71 41 72 42 73 43 74 44 75
REMARK SMILES IDX 70 76 71 77 79 78 72 79 78 80 80 81 77 82 73 83 74 84 75 85
REMARK SMILES IDX 76 86 55 87 56 88 64 89 57 90 63 91 65 92 62 93 58 94 59 95
REMARK SMILES IDX 60 96 61 97
REMARK H PARENT 6 17 85 50 53 61
REMARK Flexibility Score: inf
ROOT
ATOM      1  C   UNL A   1      33.229  30.055  26.549  1.00  0.00     0.188 C 
ENDROOT
BRANCH   1   2
ATOM      2  C   UNL A   1      33.593  28.585  24.979  1.00  0.00     0.188 C 
BRANCH   2   3
ATOM      3  O   UNL A   1      32.759  28.215  23.695  1.00  0.00    -0.376 OA
BRANCH   3   4
ATOM      4  C   UNL A   1      33.392  27.860  22.450  1.00  0.00     0.202 C 
BRANCH   4   5
ATOM      5  C   UNL A   1      33.222  26.467  21.821  1.00  0.00     0.261 C 
BRANCH   5   6
ATOM      6  O   UNL A   1      32.037  25.740  22.223  1.00  0.00    -0.463 OA
BRANCH   6   7
ATOM      7  C   UNL A   1      32.212  24.482  22.700  1.00  0.00     0.310 C 
ATOM      8  O   UNL A   1      32.845  23.623  22.092  1.00  0.00    -0.252 OA
BRANCH   7   9
ATOM      9  C   UNL A   1      31.475  24.151  24.007  1.00  0.00     0.116 C 
ATOM     10  C   UNL A   1      32.136  23.443  25.221  1.00  0.00     0.097 C 
ATOM     11  C   UNL A   1      31.209  23.352  26.455  1.00  0.00     0.041 C 
ATOM     12  C   UNL A   1      30.111  24.364  26.535  1.00  0.00    -0.030 C 
ATOM     13  C   UNL A   1      30.778  25.455  24.407  1.00  0.00     0.043 C 
ATOM     14  C   UNL A   1      29.922  25.320  25.621  1.00  0.00    -0.030 C 
BRANCH  10  15
ATOM     15  C   UNL A   1      33.576  23.832  25.461  1.00  0.00     0.228 C 
ATOM     16  N   UNL A   1      34.566  22.913  25.193  1.00  0.00    -0.326 N 
ATOM     17  H   UNL A   1      35.482  23.260  25.298  1.00  0.00     0.169 HD
ATOM     18  O   UNL A   1      33.896  24.957  25.852  1.00  0.00    -0.274 OA
BRANCH  16  19
ATOM     19  C   UNL A   1      34.500  21.552  24.791  1.00  0.00     0.044 A 
ATOM     20  C   UNL A   1      34.139  16.515  24.035  1.00  0.00     0.047 C 
ATOM     21  C   UNL A   1      34.368  17.985  24.203  1.00  0.00    -0.015 A 
ATOM     22  C   UNL A   1      35.933  18.728  24.680  1.00  0.00     0.008 A 
ATOM     23  C   UNL A   1      32.934  18.988  23.950  1.00  0.00     0.128 A 
ATOM     24  C   UNL A   1      36.003  20.514  25.031  1.00  0.00     0.026 A 
ATOM     25  C   UNL A   1      32.967  20.728  24.270  1.00  0.00     0.065 A 
ATOM     26  F   UNL A   1      31.782  18.422  23.570  1.00  0.00    -0.207 F 
ENDBRANCH  16  19
ENDBRANCH  10  15
ENDBRANCH   7   9
ENDBRANCH   6   7
ENDBRANCH   5   6
ENDBRANCH   4   5
ENDBRANCH   3   4
ENDBRANCH   2   3
ENDBRANCH   1   2
BRANCH   1  27
ATOM     27  O   UNL A   1      34.259  31.022  27.329  1.00  0.00    -0.376 OA
BRANCH  27  28
ATOM     28  C   UNL A   1      35.328  30.609  28.206  1.00  0.00     0.202 C 
BRANCH  28  29
ATOM     29  C   UNL A   1      36.753  31.142  28.001  1.00  0.00     0.261 C 
BRANCH  29  30
ATOM     30  O   UNL A   1      37.691  30.565  28.874  1.00  0.00    -0.460 OA
BRANCH  30  31
ATOM     31  C   UNL A   1      38.416  29.607  28.260  1.00  0.00     0.338 C 
ATOM     32  O   UNL A   1      38.654  29.503  27.073  1.00  0.00    -0.246 OA
BRANCH  31  33
ATOM     33  C   UNL A   1      38.996  28.815  29.330  1.00  0.00     0.060 A 
ATOM     34  C   UNL A   1      38.155  28.321  30.345  1.00  0.00     0.016 A 
ATOM     35  C   UNL A   1      40.388  28.702  29.356  1.00  0.00     0.016 A 
ATOM     36  C   UNL A   1      38.724  27.955  31.527  1.00  0.00     0.010 A 
ATOM     37  C   UNL A   1      40.945  28.437  30.564  1.00  0.00     0.010 A 
ATOM     38  C   UNL A   1      40.041  28.336  31.631  1.00  0.00    -0.014 A 
BRANCH  38  39
ATOM     39  C   UNL A   1      40.362  29.280  32.683  1.00  0.00     0.031 A 
ATOM     40  C   UNL A   1      40.885  28.617  33.878  1.00  0.00     0.074 A 
ATOM     41  C   UNL A   1      40.406  30.577  32.256  1.00  0.00     0.049 A 
ATOM     42  N   UNL A   1      40.994  29.155  35.034  1.00  0.00    -0.248 NA
ATOM     43  C   UNL A   1      41.205  27.174  33.899  1.00  0.00     0.031 C 
ATOM     44  C   UNL A   1      41.389  31.616  32.539  1.00  0.00     0.029 A 
ATOM     45  N   UNL A   1      39.596  31.240  31.330  1.00  0.00    -0.354 N 
ATOM     46  C   UNL A   1      41.890  28.342  35.694  1.00  0.00     0.074 A 
ATOM     47  C   UNL A   1      41.732  27.036  35.117  1.00  0.00     0.031 C 
ATOM     48  C   UNL A   1      40.967  32.795  32.028  1.00  0.00     0.029 A 
ATOM     49  C   UNL A   1      39.614  32.613  31.530  1.00  0.00     0.049 A 
ATOM     50  H   UNL A   1      39.079  30.788  30.624  1.00  0.00     0.167 HD
ATOM     51  C   UNL A   1      42.916  28.947  36.352  1.00  0.00     0.034 A 
ATOM     52  C   UNL A   1      38.517  33.299  31.990  1.00  0.00     0.034 A 
ATOM     53  C   UNL A   1      42.753  30.407  36.256  1.00  0.00     0.049 A 
ATOM     54  C   UNL A   1      38.706  33.658  33.453  1.00  0.00     0.074 A 
ATOM     55  C   UNL A   1      43.353  31.355  35.445  1.00  0.00     0.029 A 
ATOM     56  N   UNL A   1      41.589  30.995  36.746  1.00  0.00    -0.354 N 
ATOM     57  N   UNL A   1      39.589  33.089  34.223  1.00  0.00    -0.248 NA
ATOM     58  C   UNL A   1      37.912  34.657  34.159  1.00  0.00     0.031 C 
ATOM     59  C   UNL A   1      42.501  32.498  35.408  1.00  0.00     0.029 A 
ATOM     60  C   UNL A   1      41.381  32.245  36.184  1.00  0.00     0.049 A 
ATOM     61  H   UNL A   1      40.992  30.576  37.407  1.00  0.00     0.167 HD
ATOM     62  C   UNL A   1      39.465  33.548  35.497  1.00  0.00     0.074 A 
ATOM     63  C   UNL A   1      38.438  34.571  35.394  1.00  0.00     0.031 C 
ATOM     64  C   UNL A   1      40.185  33.021  36.529  1.00  0.00     0.034 A 
BRANCH  51  65
ATOM     65  C   UNL A   1      44.201  28.273  36.790  1.00  0.00     0.023 A 
ATOM     66  C   UNL A   1      44.444  27.688  38.056  1.00  0.00     0.031 A 
ATOM     67  C   UNL A   1      45.267  28.184  35.871  1.00  0.00     0.131 A 
ATOM     68  C   UNL A   1      45.675  27.070  38.362  1.00  0.00     0.055 A 
ATOM     69  C   UNL A   1      46.486  27.571  36.174  1.00  0.00     0.041 A 
ATOM     70  F   UNL A   1      45.164  28.677  34.629  1.00  0.00    -0.206 F 
ATOM     71  C   UNL A   1      46.700  27.013  37.423  1.00  0.00     0.022 A 
BRANCH  68  72
ATOM     72  S   UNL A   1      45.992  26.307  39.983  1.00  0.00     0.124 S 
ATOM     73  O   UNL A   1      44.729  26.536  40.686  1.00  0.00    -0.237 OA
ATOM     74  O   UNL A   1      46.261  24.917  39.628  1.00  0.00    -0.237 OA
ATOM     75  O   UNL A   1      47.132  27.051  40.510  1.00  0.00    -0.744 OA
ENDBRANCH  68  72
ENDBRANCH  51  65
BRANCH  52  76
ATOM     76  C   UNL A   1      37.211  32.803  31.457  1.00  0.00     0.023 A 
ATOM     77  C   UNL A   1      36.499  33.595  30.548  1.00  0.00     0.031 A 
ATOM     78  C   UNL A   1      36.511  31.810  32.170  1.00  0.00     0.131 A 
ATOM     79  C   UNL A   1      35.098  33.543  30.544  1.00  0.00     0.055 A 
ATOM     80  C   UNL A   1      35.118  31.731  32.126  1.00  0.00     0.041 A 
ATOM     81  F   UNL A   1      37.163  30.997  33.020  1.00  0.00    -0.206 F 
ATOM     82  C   UNL A   1      34.402  32.646  31.360  1.00  0.00     0.022 A 
BRANCH  79  83
ATOM     83  S   UNL A   1      34.197  34.851  29.664  1.00  0.00     0.124 S 
ATOM     84  O   UNL A   1      35.167  35.314  28.670  1.00  0.00    -0.237 OA
ATOM     85  O   UNL A   1      33.056  34.136  29.111  1.00  0.00    -0.237 OA
ATOM     86  O   UNL A   1      33.903  35.789  30.741  1.00  0.00    -0.744 OA
ENDBRANCH  79  83
ENDBRANCH  52  76
BRANCH  64  87
ATOM     87  C   UNL A   1      39.867  33.258  37.982  1.00  0.00     0.023 A 
ATOM     88  C   UNL A   1      38.695  32.679  38.519  1.00  0.00     0.031 A 
ATOM     89  C   UNL A   1      40.577  34.117  38.836  1.00  0.00     0.131 A 
ATOM     90  C   UNL A   1      38.293  32.937  39.830  1.00  0.00     0.055 A 
ATOM     91  C   UNL A   1      40.244  34.272  40.183  1.00  0.00     0.041 A 
ATOM     92  F   UNL A   1      41.581  34.890  38.399  1.00  0.00    -0.206 F 
ATOM     93  C   UNL A   1      39.093  33.685  40.685  1.00  0.00     0.022 A 
BRANCH  90  94
ATOM     94  S   UNL A   1      36.652  32.432  40.405  1.00  0.00     0.124 S 
ATOM     95  O   UNL A   1      35.927  32.295  39.144  1.00  0.00    -0.237 OA
ATOM     96  O   UNL A   1      36.944  31.178  41.098  1.00  0.00    -0.237 OA
ATOM     97  O   UNL A   1      36.226  33.528  41.265  1.00  0.00    -0.744 OA
ENDBRANCH  90  94
ENDBRANCH  64  87
ENDBRANCH  38  39
ENDBRANCH  31  33
ENDBRANCH  30  31
ENDBRANCH  29  30
ENDBRANCH  28  29
ENDBRANCH  27  28
ENDBRANCH   1  27
TORSDOF 22
ENDMDL
MODEL 3
REMARK VINA RESULT:     -11.8      2.578      3.885
REMARK SMILES Cc1ccc(NC(=O)[C@H]2CC=CC[C@H]2C(=O)OCCOCCOCCOC(=O)c2ccc(-c3c4nc(c(-c5cc(S(=O)(=O)[O-])ccc5F)c5ccc([nH]5)c(-c5cc(S(=O)(=O)[O-])ccc5F)c5nc(c(-c6cc(S(=O)(=O)[O-])ccc6F)c6ccc3[nH]6)C=C5)C=C4)cc2)cc1F
REMARK SMILES IDX 22 1 21 2 20 3 19 4 18 5 17 6 15 7 16 8 14 9 9 10 10 11
REMARK SMILES IDX 11 12 13 13 12 14 7 15 6 16 8 18 5 19 1 20 2 21 3 22 93 23
REMARK SMILES IDX 4 24 92 25 94 26 23 27 24 28 25 29 26 30 27 31 28 32 29 33
REMARK SMILES IDX 30 34 91 35 31 36 90 37 32 38 33 39 34 40 84 41 35 42 89 43
REMARK SMILES IDX 83 44 85 45 36 46 88 47 82 48 81 49 37 51 69 52 49 53 68 54
REMARK SMILES IDX 50 55 53 56 67 57 86 58 51 59 52 60 66 62 87 63 54 64 38 65
REMARK SMILES IDX 39 66 47 67 40 68 46 69 48 70 45 71 41 72 42 73 43 74 44 75
REMARK SMILES IDX 70 76 71 77 79 78 72 79 78 80 80 81 77 82 73 83 74 84 75 85
REMARK SMILES IDX 76 86 55 87 56 88 64 89 57 90 63 91 65 92 62 93 58 94 59 95
REMARK SMILES IDX 60 96 61 97
REMARK H PARENT 6 17 85 50 53 61
REMARK Flexibility Score: inf
ROOT
ATOM      1  C   UNL A   1      34.227  32.144  28.580  1.00  0.00     0.188 C 
ENDROOT
BRANCH   1   2
ATOM      2  C   UNL A   1      33.486  30.598  27.231  1.00  0.00     0.188 C 
BRANCH   2   3
ATOM      3  O   UNL A   1      32.358  30.637  26.132  1.00  0.00    -0.376 OA
BRANCH   3   4
ATOM      4  C   UNL A   1      31.664  29.449  25.707  1.00  0.00     0.202 C 
BRANCH   4   5
ATOM      5  C   UNL A   1      31.572  28.199  26.599  1.00  0.00     0.261 C 
BRANCH   5   6
ATOM      6  O   UNL A   1      31.813  26.937  25.933  1.00  0.00    -0.463 OA
BRANCH   6   7
ATOM      7  C   UNL A   1      33.025  26.764  25.350  1.00  0.00     0.310 C 
ATOM      8  O   UNL A   1      34.078  27.068  25.905  1.00  0.00    -0.252 OA
BRANCH   7   9
ATOM      9  C   UNL A   1      33.008  26.263  23.899  1.00  0.00     0.116 C 
ATOM     10  C   UNL A   1      33.109  24.766  23.495  1.00  0.00     0.097 C 
ATOM     11  C   UNL A   1      32.932  24.528  21.978  1.00  0.00     0.041 C 
ATOM     12  C   UNL A   1      32.179  25.579  21.226  1.00  0.00    -0.030 C 
ATOM     13  C   UNL A   1      31.801  26.954  23.258  1.00  0.00     0.043 C 
ATOM     14  C   UNL A   1      31.657  26.666  21.801  1.00  0.00    -0.030 C 
BRANCH  10  15
ATOM     15  C   UNL A   1      32.400  23.819  24.435  1.00  0.00     0.228 C 
ATOM     16  N   UNL A   1      33.152  22.949  25.193  1.00  0.00    -0.326 N 
ATOM     17  H   UNL A   1      32.630  22.417  25.837  1.00  0.00     0.169 HD
ATOM     18  O   UNL A   1      31.175  23.825  24.572  1.00  0.00    -0.274 OA
BRANCH  16  19
ATOM     19  C   UNL A   1      34.547  22.683  25.211  1.00  0.00     0.044 A 
ATOM     20  C   UNL A   1      39.472  21.564  25.966  1.00  0.00     0.047 C 
ATOM     21  C   UNL A   1      38.068  22.015  25.704  1.00  0.00    -0.015 A 
ATOM     22  C   UNL A   1      37.441  23.662  26.055  1.00  0.00     0.008 A 
ATOM     23  C   UNL A   1      37.001  20.763  25.056  1.00  0.00     0.128 A 
ATOM     24  C   UNL A   1      35.661  23.999  25.863  1.00  0.00     0.026 A 
ATOM     25  C   UNL A   1      35.268  21.057  24.845  1.00  0.00     0.065 A 
ATOM     26  F   UNL A   1      37.490  19.548  24.777  1.00  0.00    -0.207 F 
ENDBRANCH  16  19
ENDBRANCH  10  15
ENDBRANCH   7   9
ENDBRANCH   6   7
ENDBRANCH   5   6
ENDBRANCH   4   5
ENDBRANCH   3   4
ENDBRANCH   2   3
ENDBRANCH   1   2
BRANCH   1  27
ATOM     27  O   UNL A   1      33.599  33.581  28.960  1.00  0.00    -0.376 OA
BRANCH  27  28
ATOM     28  C   UNL A   1      34.197  34.581  29.813  1.00  0.00     0.202 C 
BRANCH  28  29
ATOM     29  C   UNL A   1      34.639  34.223  31.239  1.00  0.00     0.261 C 
BRANCH  29  30
ATOM     30  O   UNL A   1      36.032  34.268  31.415  1.00  0.00    -0.460 OA
BRANCH  30  31
ATOM     31  C   UNL A   1      36.465  33.262  32.202  1.00  0.00     0.338 C 
ATOM     32  O   UNL A   1      36.470  33.219  33.416  1.00  0.00    -0.246 OA
BRANCH  31  33
ATOM     33  C   UNL A   1      36.769  32.166  31.299  1.00  0.00     0.060 A 
ATOM     34  C   UNL A   1      36.462  30.851  31.696  1.00  0.00     0.016 A 
ATOM     35  C   UNL A   1      37.474  32.477  30.134  1.00  0.00     0.016 A 
ATOM     36  C   UNL A   1      37.103  29.826  31.069  1.00  0.00     0.010 A 
ATOM     37  C   UNL A   1      38.189  31.467  29.579  1.00  0.00     0.010 A 
ATOM     38  C   UNL A   1      38.139  30.248  30.269  1.00  0.00    -0.014 A 
BRANCH  38  39
ATOM     39  C   UNL A   1      39.468  29.798  30.637  1.00  0.00     0.031 A 
ATOM     40  C   UNL A   1      39.786  28.492  30.061  1.00  0.00     0.074 A 
ATOM     41  C   UNL A   1      40.248  30.784  31.171  1.00  0.00     0.049 A 
ATOM     42  N   UNL A   1      40.754  27.739  30.426  1.00  0.00    -0.248 NA
ATOM     43  C   UNL A   1      38.903  27.831  29.078  1.00  0.00     0.031 C 
ATOM     44  C   UNL A   1      41.639  31.120  30.894  1.00  0.00     0.029 A 
ATOM     45  N   UNL A   1      39.902  31.826  32.036  1.00  0.00    -0.354 N 
ATOM     46  C   UNL A   1      40.915  26.869  29.369  1.00  0.00     0.074 A 
ATOM     47  C   UNL A   1      39.619  26.750  28.761  1.00  0.00     0.031 C 
ATOM     48  C   UNL A   1      42.058  32.079  31.753  1.00  0.00     0.029 A 
ATOM     49  C   UNL A   1      41.007  32.295  32.734  1.00  0.00     0.049 A 
ATOM     50  H   UNL A   1      38.990  32.182  32.137  1.00  0.00     0.167 HD
ATOM     51  C   UNL A   1      42.179  26.678  28.902  1.00  0.00     0.034 A 
ATOM     52  C   UNL A   1      41.154  32.101  34.085  1.00  0.00     0.034 A 
ATOM     53  C   UNL A   1      43.120  27.429  29.748  1.00  0.00     0.049 A 
ATOM     54  C   UNL A   1      42.170  31.003  34.344  1.00  0.00     0.074 A 
ATOM     55  C   UNL A   1      43.759  28.645  29.572  1.00  0.00     0.029 A 
ATOM     56  N   UNL A   1      43.175  27.157  31.113  1.00  0.00    -0.354 N 
ATOM     57  N   UNL A   1      42.552  30.150  33.437  1.00  0.00    -0.248 NA
ATOM     58  C   UNL A   1      42.812  30.770  35.634  1.00  0.00     0.031 C 
ATOM     59  C   UNL A   1      44.142  29.127  30.858  1.00  0.00     0.029 A 
ATOM     60  C   UNL A   1      43.731  28.214  31.816  1.00  0.00     0.049 A 
ATOM     61  H   UNL A   1      42.859  26.320  31.525  1.00  0.00     0.167 HD
ATOM     62  C   UNL A   1      43.396  29.234  33.982  1.00  0.00     0.074 A 
ATOM     63  C   UNL A   1      43.572  29.699  35.347  1.00  0.00     0.031 C 
ATOM     64  C   UNL A   1      43.842  28.153  33.278  1.00  0.00     0.034 A 
BRANCH  51  65
ATOM     65  C   UNL A   1      42.540  26.108  27.545  1.00  0.00     0.023 A 
ATOM     66  C   UNL A   1      42.973  24.785  27.288  1.00  0.00     0.031 A 
ATOM     67  C   UNL A   1      42.426  26.936  26.410  1.00  0.00     0.131 A 
ATOM     68  C   UNL A   1      43.274  24.346  25.981  1.00  0.00     0.055 A 
ATOM     69  C   UNL A   1      42.722  26.501  25.115  1.00  0.00     0.041 A 
ATOM     70  F   UNL A   1      42.004  28.205  26.508  1.00  0.00    -0.206 F 
ATOM     71  C   UNL A   1      43.151  25.204  24.892  1.00  0.00     0.022 A 
BRANCH  68  72
ATOM     72  S   UNL A   1      43.823  22.645  25.639  1.00  0.00     0.124 S 
ATOM     73  O   UNL A   1      42.853  21.850  26.392  1.00  0.00    -0.237 OA
ATOM     74  O   UNL A   1      43.699  22.561  24.187  1.00  0.00    -0.237 OA
ATOM     75  O   UNL A   1      45.187  22.601  26.155  1.00  0.00    -0.744 OA
ENDBRANCH  68  72
ENDBRANCH  51  65
BRANCH  52  76
ATOM     76  C   UNL A   1      39.883  32.205  34.866  1.00  0.00     0.023 A 
ATOM     77  C   UNL A   1      39.740  33.233  35.805  1.00  0.00     0.031 A 
ATOM     78  C   UNL A   1      39.055  31.072  34.984  1.00  0.00     0.131 A 
ATOM     79  C   UNL A   1      38.964  33.012  36.952  1.00  0.00     0.055 A 
ATOM     80  C   UNL A   1      38.246  30.877  36.105  1.00  0.00     0.041 A 
ATOM     81  F   UNL A   1      39.126  30.081  34.078  1.00  0.00    -0.206 F 
ATOM     82  C   UNL A   1      38.251  31.822  37.127  1.00  0.00     0.022 A 
BRANCH  79  83
ATOM     83  S   UNL A   1      39.122  34.184  38.330  1.00  0.00     0.124 S 
ATOM     84  O   UNL A   1      40.392  33.803  38.949  1.00  0.00    -0.237 OA
ATOM     85  O   UNL A   1      39.138  35.473  37.652  1.00  0.00    -0.237 OA
ATOM     86  O   UNL A   1      37.927  33.889  39.112  1.00  0.00    -0.744 OA
ENDBRANCH  79  83
ENDBRANCH  52  76
BRANCH  64  87
ATOM     87  C   UNL A   1      44.505  26.956  33.907  1.00  0.00     0.023 A 
ATOM     88  C   UNL A   1      45.915  26.868  33.869  1.00  0.00     0.031 A 
ATOM     89  C   UNL A   1      43.831  25.840  34.430  1.00  0.00     0.131 A 
ATOM     90  C   UNL A   1      46.585  25.742  34.347  1.00  0.00     0.055 A 
ATOM     91  C   UNL A   1      44.507  24.773  35.024  1.00  0.00     0.041 A 
ATOM     92  F   UNL A   1      42.502  25.700  34.337  1.00  0.00    -0.206 F 
ATOM     93  C   UNL A   1      45.891  24.717  34.979  1.00  0.00     0.022 A 
BRANCH  90  94
ATOM     94  S   UNL A   1      48.353  25.518  34.025  1.00  0.00     0.124 S 
ATOM     95  O   UNL A   1      48.438  25.847  32.604  1.00  0.00    -0.237 OA
ATOM     96  O   UNL A   1      48.954  26.495  34.931  1.00  0.00    -0.237 OA
ATOM     97  O   UNL A   1      48.600  24.123  34.369  1.00  0.00    -0.744 OA
ENDBRANCH  90  94
ENDBRANCH  64  87
ENDBRANCH  38  39
ENDBRANCH  31  33
ENDBRANCH  30  31
ENDBRANCH  29  30
ENDBRANCH  28  29
ENDBRANCH  27  28
ENDBRANCH   1  27
TORSDOF 22
ENDMDL
