MODEL 1
REMARK VINA RESULT:     -10.4      0.000      0.000
REMARK SMILES CC(C)(C)OC(=O)N1CCC[C@]1(Cc1ccccc1)C(=O)OCCOCCOCCOC(=O)c1ccc(-c2c3nc(c(-c4cc(S(=O)(=O)[O-])ccc4F)c4ccc([nH]4)c(-c4cc(S(=O)(=O)[O-])ccc4F)c4nc(c(-c5cc(S(=O)(=O)[O-])ccc5F)c5ccc2[nH]5)C=C4)C=C3)cc1
REMARK SMILES IDX 26 1 25 2 24 3 23 4 22 5 20 6 21 7 12 8 8 9 9 10 10 11 11 12
REMARK SMILES IDX 6 13 7 14 5 15 2 16 1 17 3 18 4 19 13 20 14 21 15 22 19 23
REMARK SMILES IDX 16 24 18 25 17 26 27 27 28 28 29 29 30 30 31 31 32 32 33 33
REMARK SMILES IDX 34 34 35 35 96 36 36 37 95 38 37 39 38 40 39 41 89 42 40 43
REMARK SMILES IDX 94 44 88 45 90 46 41 47 93 48 87 49 86 50 42 52 74 53 54 54
REMARK SMILES IDX 73 55 55 56 58 57 72 58 91 59 56 60 57 61 71 63 92 64 59 65
REMARK SMILES IDX 43 66 44 67 52 68 45 69 51 70 53 71 50 72 46 73 47 74 48 75
REMARK SMILES IDX 49 76 75 77 76 78 84 79 77 80 83 81 85 82 82 83 78 84 79 85
REMARK SMILES IDX 80 86 81 87 60 88 61 89 69 90 62 91 68 92 70 93 67 94 63 95
REMARK SMILES IDX 64 96 65 97 66 98
REMARK H PARENT 90 51 58 62
REMARK Flexibility Score: inf
ROOT
ATOM      1  C   UNL A   1      40.035  20.268  26.190  1.00  0.00     0.188 C 
ENDROOT
BRANCH   1   2
ATOM      2  O   UNL A   1      39.095  21.131  25.590  1.00  0.00    -0.376 OA
BRANCH   2   3
ATOM      3  C   UNL A   1      38.788  22.389  26.167  1.00  0.00     0.202 C 
BRANCH   3   4
ATOM      4  C   UNL A   1      37.723  23.384  25.659  1.00  0.00     0.261 C 
BRANCH   4   5
ATOM      5  O   UNL A   1      36.340  23.005  25.722  1.00  0.00    -0.461 OA
BRANCH   5   6
ATOM      6  C   UNL A   1      35.754  22.779  24.515  1.00  0.00     0.332 C 
ATOM      7  O   UNL A   1      36.379  22.282  23.584  1.00  0.00    -0.249 OA
BRANCH   6   8
ATOM      8  C   UNL A   1      34.244  23.206  24.429  1.00  0.00     0.147 C 
ATOM      9  N   UNL A   1      33.500  21.938  24.373  1.00  0.00    -0.291 N 
ATOM     10  C   UNL A   1      32.603  21.862  23.242  1.00  0.00     0.124 C 
ATOM     11  C   UNL A   1      33.165  22.844  22.243  1.00  0.00     0.025 C 
ATOM     12  C   UNL A   1      33.832  23.910  23.104  1.00  0.00     0.043 C 
BRANCH   9  13
ATOM     13  C   UNL A   1      33.614  20.980  25.342  1.00  0.00     0.411 C 
ATOM     14  O   UNL A   1      33.284  21.139  26.508  1.00  0.00    -0.224 OA
BRANCH  13  15
ATOM     15  O   UNL A   1      34.265  19.891  24.871  1.00  0.00    -0.444 OA
BRANCH  15  16
ATOM     16  C   UNL A   1      33.510  18.667  24.700  1.00  0.00     0.106 C 
ATOM     17  C   UNL A   1      34.503  17.699  24.046  1.00  0.00     0.056 C 
ATOM     18  C   UNL A   1      32.328  18.904  23.757  1.00  0.00     0.056 C 
ATOM     19  C   UNL A   1      33.072  18.057  26.044  1.00  0.00     0.056 C 
ENDBRANCH  15  16
ENDBRANCH  13  15
ENDBRANCH   9  13
BRANCH   8  20
ATOM     20  C   UNL A   1      33.945  24.101  25.675  1.00  0.00     0.076 C 
BRANCH  20  21
ATOM     21  C   UNL A   1      32.668  24.922  25.661  1.00  0.00    -0.045 A 
ATOM     22  C   UNL A   1      31.420  24.314  25.856  1.00  0.00     0.004 A 
ATOM     23  C   UNL A   1      32.700  26.297  25.392  1.00  0.00     0.004 A 
ATOM     24  C   UNL A   1      30.246  25.073  25.821  1.00  0.00     0.000 A 
ATOM     25  C   UNL A   1      31.531  27.058  25.379  1.00  0.00     0.000 A 
ATOM     26  C   UNL A   1      30.303  26.446  25.597  1.00  0.00     0.000 A 
ENDBRANCH  20  21
ENDBRANCH   8  20
ENDBRANCH   6   8
ENDBRANCH   5   6
ENDBRANCH   4   5
ENDBRANCH   3   4
ENDBRANCH   2   3
ENDBRANCH   1   2
BRANCH   1  27
ATOM     27  C   UNL A   1      41.491  20.742  26.285  1.00  0.00     0.188 C 
BRANCH  27  28
ATOM     28  O   UNL A   1      42.429  20.172  25.408  1.00  0.00    -0.376 OA
BRANCH  28  29
ATOM     29  C   UNL A   1      43.814  20.304  25.676  1.00  0.00     0.202 C 
BRANCH  29  30
ATOM     30  C   UNL A   1      44.653  21.596  25.540  1.00  0.00     0.261 C 
BRANCH  30  31
ATOM     31  O   UNL A   1      44.246  22.768  26.251  1.00  0.00    -0.460 OA
BRANCH  31  32
ATOM     32  C   UNL A   1      44.140  23.898  25.504  1.00  0.00     0.338 C 
ATOM     33  O   UNL A   1      44.468  24.031  24.339  1.00  0.00    -0.246 OA
BRANCH  32  34
ATOM     34  C   UNL A   1      43.324  24.881  26.252  1.00  0.00     0.060 A 
ATOM     35  C   UNL A   1      43.701  26.234  26.220  1.00  0.00     0.016 A 
ATOM     36  C   UNL A   1      42.221  24.474  27.001  1.00  0.00     0.016 A 
ATOM     37  C   UNL A   1      43.006  27.176  26.976  1.00  0.00     0.010 A 
ATOM     38  C   UNL A   1      41.545  25.414  27.786  1.00  0.00     0.010 A 
ATOM     39  C   UNL A   1      41.965  26.758  27.813  1.00  0.00    -0.014 A 
BRANCH  39  40
ATOM     40  C   UNL A   1      41.518  27.650  28.914  1.00  0.00     0.031 A 
ATOM     41  C   UNL A   1      42.306  27.620  30.198  1.00  0.00     0.074 A 
ATOM     42  C   UNL A   1      40.480  28.494  28.776  1.00  0.00     0.049 A 
ATOM     43  N   UNL A   1      42.089  28.239  31.329  1.00  0.00    -0.248 NA
ATOM     44  C   UNL A   1      43.505  26.765  30.203  1.00  0.00     0.031 C 
ATOM     45  C   UNL A   1      39.689  28.674  27.562  1.00  0.00     0.029 A 
ATOM     46  N   UNL A   1      39.912  29.359  29.680  1.00  0.00    -0.354 N 
ATOM     47  C   UNL A   1      43.116  27.845  32.179  1.00  0.00     0.074 A 
ATOM     48  C   UNL A   1      43.931  26.901  31.447  1.00  0.00     0.031 C 
ATOM     49  C   UNL A   1      38.728  29.586  27.800  1.00  0.00     0.029 A 
ATOM     50  C   UNL A   1      38.809  30.022  29.193  1.00  0.00     0.049 A 
ATOM     51  H   UNL A   1      40.261  29.492  30.590  1.00  0.00     0.167 HD
ATOM     52  C   UNL A   1      43.364  28.240  33.452  1.00  0.00     0.034 A 
ATOM     53  C   UNL A   1      37.952  30.861  29.813  1.00  0.00     0.034 A 
ATOM     54  C   UNL A   1      42.535  29.170  34.175  1.00  0.00     0.049 A 
ATOM     55  C   UNL A   1      38.183  31.202  31.270  1.00  0.00     0.074 A 
ATOM     56  C   UNL A   1      42.682  29.629  35.472  1.00  0.00     0.029 A 
ATOM     57  N   UNL A   1      41.394  29.780  33.667  1.00  0.00    -0.354 N 
ATOM     58  N   UNL A   1      39.147  30.808  32.073  1.00  0.00    -0.248 NA
ATOM     59  C   UNL A   1      37.216  32.111  31.902  1.00  0.00     0.031 C 
ATOM     60  C   UNL A   1      41.592  30.452  35.773  1.00  0.00     0.029 A 
ATOM     61  C   UNL A   1      40.814  30.587  34.633  1.00  0.00     0.049 A 
ATOM     62  H   UNL A   1      41.048  29.656  32.754  1.00  0.00     0.167 HD
ATOM     63  C   UNL A   1      38.925  31.462  33.285  1.00  0.00     0.074 A 
ATOM     64  C   UNL A   1      37.743  32.277  33.105  1.00  0.00     0.031 C 
ATOM     65  C   UNL A   1      39.638  31.402  34.439  1.00  0.00     0.034 A 
BRANCH  52  66
ATOM     66  C   UNL A   1      44.549  27.617  34.151  1.00  0.00     0.023 A 
ATOM     67  C   UNL A   1      44.439  26.409  34.861  1.00  0.00     0.031 A 
ATOM     68  C   UNL A   1      45.798  28.262  34.138  1.00  0.00     0.131 A 
ATOM     69  C   UNL A   1      45.537  25.922  35.587  1.00  0.00     0.055 A 
ATOM     70  C   UNL A   1      46.910  27.727  34.790  1.00  0.00     0.041 A 
ATOM     71  F   UNL A   1      45.957  29.432  33.500  1.00  0.00    -0.206 F 
ATOM     72  C   UNL A   1      46.779  26.558  35.534  1.00  0.00     0.022 A 
BRANCH  69  73
ATOM     73  S   UNL A   1      45.278  24.532  36.724  1.00  0.00     0.124 S 
ATOM     74  O   UNL A   1      45.041  25.225  37.988  1.00  0.00    -0.237 OA
ATOM     75  O   UNL A   1      44.125  23.857  36.140  1.00  0.00    -0.237 OA
ATOM     76  O   UNL A   1      46.537  23.793  36.654  1.00  0.00    -0.744 OA
ENDBRANCH  69  73
ENDBRANCH  52  66
BRANCH  53  77
ATOM     77  C   UNL A   1      36.766  31.412  29.092  1.00  0.00     0.023 A 
ATOM     78  C   UNL A   1      35.716  30.578  28.674  1.00  0.00     0.031 A 
ATOM     79  C   UNL A   1      36.706  32.771  28.732  1.00  0.00     0.131 A 
ATOM     80  C   UNL A   1      34.686  31.094  27.871  1.00  0.00     0.055 A 
ATOM     81  C   UNL A   1      35.645  33.294  27.990  1.00  0.00     0.041 A 
ATOM     82  F   UNL A   1      37.687  33.614  29.093  1.00  0.00    -0.206 F 
ATOM     83  C   UNL A   1      34.635  32.451  27.541  1.00  0.00     0.022 A 
BRANCH  80  84
ATOM     84  S   UNL A   1      33.475  29.943  27.162  1.00  0.00     0.124 S 
ATOM     85  O   UNL A   1      32.215  30.544  27.584  1.00  0.00    -0.237 OA
ATOM     86  O   UNL A   1      33.778  30.021  25.738  1.00  0.00    -0.237 OA
ATOM     87  O   UNL A   1      33.803  28.669  27.799  1.00  0.00    -0.744 OA
ENDBRANCH  80  84
ENDBRANCH  53  77
BRANCH  65  88
ATOM     88  C   UNL A   1      39.208  32.306  35.573  1.00  0.00     0.023 A 
ATOM     89  C   UNL A   1      39.630  33.643  35.669  1.00  0.00     0.031 A 
ATOM     90  C   UNL A   1      38.360  31.810  36.581  1.00  0.00     0.131 A 
ATOM     91  C   UNL A   1      39.253  34.418  36.778  1.00  0.00     0.055 A 
ATOM     92  C   UNL A   1      37.933  32.605  37.644  1.00  0.00     0.041 A 
ATOM     93  F   UNL A   1      37.926  30.540  36.545  1.00  0.00    -0.206 F 
ATOM     94  C   UNL A   1      38.392  33.913  37.756  1.00  0.00     0.022 A 
BRANCH  91  95
ATOM     95  S   UNL A   1      39.990  36.063  36.985  1.00  0.00     0.124 S 
ATOM     96  O   UNL A   1      39.114  36.664  37.986  1.00  0.00    -0.237 OA
ATOM     97  O   UNL A   1      41.342  35.745  37.430  1.00  0.00    -0.237 OA
ATOM     98  O   UNL A   1      39.900  36.652  35.650  1.00  0.00    -0.744 OA
ENDBRANCH  91  95
ENDBRANCH  65  88
ENDBRANCH  39  40
ENDBRANCH  32  34
ENDBRANCH  31  32
ENDBRANCH  30  31
ENDBRANCH  29  30
ENDBRANCH  28  29
ENDBRANCH  27  28
ENDBRANCH   1  27
TORSDOF 25
ENDMDL
MODEL 2
REMARK VINA RESULT:     -10.1      1.847      2.217
REMARK SMILES CC(C)(C)OC(=O)N1CCC[C@]1(Cc1ccccc1)C(=O)OCCOCCOCCOC(=O)c1ccc(-c2c3nc(c(-c4cc(S(=O)(=O)[O-])ccc4F)c4ccc([nH]4)c(-c4cc(S(=O)(=O)[O-])ccc4F)c4nc(c(-c5cc(S(=O)(=O)[O-])ccc5F)c5ccc2[nH]5)C=C4)C=C3)cc1
REMARK SMILES IDX 26 1 25 2 24 3 23 4 22 5 20 6 21 7 12 8 8 9 9 10 10 11 11 12
REMARK SMILES IDX 6 13 7 14 5 15 2 16 1 17 3 18 4 19 13 20 14 21 15 22 19 23
REMARK SMILES IDX 16 24 18 25 17 26 27 27 28 28 29 29 30 30 31 31 32 32 33 33
REMARK SMILES IDX 34 34 35 35 96 36 36 37 95 38 37 39 38 40 39 41 89 42 40 43
REMARK SMILES IDX 94 44 88 45 90 46 41 47 93 48 87 49 86 50 42 52 74 53 54 54
REMARK SMILES IDX 73 55 55 56 58 57 72 58 91 59 56 60 57 61 71 63 92 64 59 65
REMARK SMILES IDX 43 66 44 67 52 68 45 69 51 70 53 71 50 72 46 73 47 74 48 75
REMARK SMILES IDX 49 76 75 77 76 78 84 79 77 80 83 81 85 82 82 83 78 84 79 85
REMARK SMILES IDX 80 86 81 87 60 88 61 89 69 90 62 91 68 92 70 93 67 94 63 95
REMARK SMILES IDX 64 96 65 97 66 98
REMARK H PARENT 90 51 58 62
REMARK Flexibility Score: inf
ROOT
ATOM      1  C   UNL A   1      40.365  20.219  26.398  1.00  0.00     0.188 C 
ENDROOT
BRANCH   1   2
ATOM      2  O   UNL A   1      39.360  20.980  25.766  1.00  0.00    -0.376 OA
BRANCH   2   3
ATOM      3  C   UNL A   1      39.135  22.332  26.125  1.00  0.00     0.202 C 
BRANCH   3   4
ATOM      4  C   UNL A   1      37.778  23.067  26.087  1.00  0.00     0.261 C 
BRANCH   4   5
ATOM      5  O   UNL A   1      36.596  22.314  25.780  1.00  0.00    -0.461 OA
BRANCH   5   6
ATOM      6  C   UNL A   1      36.079  22.543  24.542  1.00  0.00     0.332 C 
ATOM      7  O   UNL A   1      36.720  22.296  23.525  1.00  0.00    -0.249 OA
BRANCH   6   8
ATOM      8  C   UNL A   1      34.625  23.138  24.537  1.00  0.00     0.147 C 
ATOM      9  N   UNL A   1      33.745  21.975  24.335  1.00  0.00    -0.291 N 
ATOM     10  C   UNL A   1      32.841  22.142  23.221  1.00  0.00     0.124 C 
ATOM     11  C   UNL A   1      33.502  23.176  22.343  1.00  0.00     0.025 C 
ATOM     12  C   UNL A   1      34.286  24.046  23.319  1.00  0.00     0.043 C 
BRANCH   9  13
ATOM     13  C   UNL A   1      33.759  20.895  25.174  1.00  0.00     0.411 C 
ATOM     14  O   UNL A   1      33.398  20.927  26.341  1.00  0.00    -0.224 OA
BRANCH  13  15
ATOM     15  O   UNL A   1      34.349  19.830  24.582  1.00  0.00    -0.444 OA
BRANCH  15  16
ATOM     16  C   UNL A   1      33.544  18.652  24.340  1.00  0.00     0.106 C 
ATOM     17  C   UNL A   1      32.837  18.397  25.676  1.00  0.00     0.056 C 
ATOM     18  C   UNL A   1      34.441  17.460  23.999  1.00  0.00     0.056 C 
ATOM     19  C   UNL A   1      32.460  18.892  23.272  1.00  0.00     0.056 C 
ENDBRANCH  15  16
ENDBRANCH  13  15
ENDBRANCH   9  13
BRANCH   8  20
ATOM     20  C   UNL A   1      34.431  23.894  25.892  1.00  0.00     0.076 C 
BRANCH  20  21
ATOM     21  C   UNL A   1      33.401  25.009  25.934  1.00  0.00    -0.045 A 
ATOM     22  C   UNL A   1      33.797  26.354  25.920  1.00  0.00     0.004 A 
ATOM     23  C   UNL A   1      32.035  24.722  26.048  1.00  0.00     0.004 A 
ATOM     24  C   UNL A   1      32.845  27.376  25.980  1.00  0.00     0.000 A 
ATOM     25  C   UNL A   1      31.083  25.741  26.085  1.00  0.00     0.000 A 
ATOM     26  C   UNL A   1      31.488  27.070  26.047  1.00  0.00     0.000 A 
ENDBRANCH  20  21
ENDBRANCH   8  20
ENDBRANCH   6   8
ENDBRANCH   5   6
ENDBRANCH   4   5
ENDBRANCH   3   4
ENDBRANCH   2   3
ENDBRANCH   1   2
BRANCH   1  27
ATOM     27  C   UNL A   1      41.807  20.738  26.338  1.00  0.00     0.188 C 
BRANCH  27  28
ATOM     28  O   UNL A   1      42.649  20.235  25.332  1.00  0.00    -0.376 OA
BRANCH  28  29
ATOM     29  C   UNL A   1      44.055  20.304  25.490  1.00  0.00     0.202 C 
BRANCH  29  30
ATOM     30  C   UNL A   1      44.931  21.569  25.340  1.00  0.00     0.261 C 
BRANCH  30  31
ATOM     31  O   UNL A   1      44.617  22.729  26.115  1.00  0.00    -0.460 OA
BRANCH  31  32
ATOM     32  C   UNL A   1      44.555  23.896  25.422  1.00  0.00     0.338 C 
ATOM     33  O   UNL A   1      44.956  24.088  24.288  1.00  0.00    -0.246 OA
BRANCH  32  34
ATOM     34  C   UNL A   1      43.689  24.840  26.165  1.00  0.00     0.060 A 
ATOM     35  C   UNL A   1      43.972  26.214  26.093  1.00  0.00     0.016 A 
ATOM     36  C   UNL A   1      42.633  24.377  26.947  1.00  0.00     0.016 A 
ATOM     37  C   UNL A   1      43.230  27.124  26.844  1.00  0.00     0.010 A 
ATOM     38  C   UNL A   1      41.910  25.287  27.726  1.00  0.00     0.010 A 
ATOM     39  C   UNL A   1      42.238  26.656  27.713  1.00  0.00    -0.014 A 
BRANCH  39  40
ATOM     40  C   UNL A   1      41.754  27.543  28.803  1.00  0.00     0.031 A 
ATOM     41  C   UNL A   1      42.561  27.586  30.075  1.00  0.00     0.074 A 
ATOM     42  C   UNL A   1      40.665  28.320  28.665  1.00  0.00     0.049 A 
ATOM     43  N   UNL A   1      42.323  28.214  31.197  1.00  0.00    -0.248 NA
ATOM     44  C   UNL A   1      43.809  26.804  30.078  1.00  0.00     0.031 C 
ATOM     45  C   UNL A   1      39.848  28.428  27.460  1.00  0.00     0.029 A 
ATOM     46  N   UNL A   1      40.060  29.168  29.561  1.00  0.00    -0.354 N 
ATOM     47  C   UNL A   1      43.384  27.899  32.039  1.00  0.00     0.074 A 
ATOM     48  C   UNL A   1      44.243  26.990  31.312  1.00  0.00     0.031 C 
ATOM     49  C   UNL A   1      38.838  29.285  27.695  1.00  0.00     0.029 A 
ATOM     50  C   UNL A   1      38.912  29.754  29.078  1.00  0.00     0.049 A 
ATOM     51  H   UNL A   1      40.413  29.340  30.463  1.00  0.00     0.167 HD
ATOM     52  C   UNL A   1      43.627  28.334  33.300  1.00  0.00     0.034 A 
ATOM     53  C   UNL A   1      38.015  30.553  29.695  1.00  0.00     0.034 A 
ATOM     54  C   UNL A   1      42.753  29.228  34.018  1.00  0.00     0.049 A 
ATOM     55  C   UNL A   1      38.246  30.936  31.142  1.00  0.00     0.074 A 
ATOM     56  C   UNL A   1      42.891  29.720  35.303  1.00  0.00     0.029 A 
ATOM     57  N   UNL A   1      41.571  29.757  33.515  1.00  0.00    -0.354 N 
ATOM     58  N   UNL A   1      39.243  30.617  31.937  1.00  0.00    -0.248 NA
ATOM     59  C   UNL A   1      37.236  31.799  31.770  1.00  0.00     0.031 C 
ATOM     60  C   UNL A   1      41.758  30.483  35.604  1.00  0.00     0.029 A 
ATOM     61  C   UNL A   1      40.958  30.548  34.475  1.00  0.00     0.049 A 
ATOM     62  H   UNL A   1      41.219  29.595  32.610  1.00  0.00     0.167 HD
ATOM     63  C   UNL A   1      39.000  31.281  33.139  1.00  0.00     0.074 A 
ATOM     64  C   UNL A   1      37.769  32.021  32.962  1.00  0.00     0.031 C 
ATOM     65  C   UNL A   1      39.732  31.288  34.283  1.00  0.00     0.034 A 
BRANCH  52  66
ATOM     66  C   UNL A   1      44.856  27.797  33.992  1.00  0.00     0.023 A 
ATOM     67  C   UNL A   1      46.100  28.445  33.904  1.00  0.00     0.031 A 
ATOM     68  C   UNL A   1      44.790  26.596  34.721  1.00  0.00     0.131 A 
ATOM     69  C   UNL A   1      47.239  27.854  34.471  1.00  0.00     0.055 A 
ATOM     70  C   UNL A   1      45.910  26.058  35.356  1.00  0.00     0.041 A 
ATOM     71  F   UNL A   1      43.637  25.917  34.817  1.00  0.00    -0.206 F 
ATOM     72  C   UNL A   1      47.148  26.679  35.220  1.00  0.00     0.022 A 
BRANCH  69  73
ATOM     73  S   UNL A   1      48.865  28.560  34.086  1.00  0.00     0.124 S 
ATOM     74  O   UNL A   1      48.499  29.721  33.277  1.00  0.00    -0.237 OA
ATOM     75  O   UNL A   1      49.406  28.849  35.409  1.00  0.00    -0.237 OA
ATOM     76  O   UNL A   1      49.540  27.489  33.355  1.00  0.00    -0.744 OA
ENDBRANCH  69  73
ENDBRANCH  52  66
BRANCH  53  77
ATOM     77  C   UNL A   1      36.787  31.018  28.982  1.00  0.00     0.023 A 
ATOM     78  C   UNL A   1      36.464  32.382  28.906  1.00  0.00     0.031 A 
ATOM     79  C   UNL A   1      35.872  30.095  28.443  1.00  0.00     0.131 A 
ATOM     80  C   UNL A   1      35.232  32.782  28.361  1.00  0.00     0.055 A 
ATOM     81  C   UNL A   1      34.679  30.502  27.842  1.00  0.00     0.041 A 
ATOM     82  F   UNL A   1      36.123  28.777  28.498  1.00  0.00    -0.206 F 
ATOM     83  C   UNL A   1      34.346  31.851  27.813  1.00  0.00     0.022 A 
BRANCH  80  84
ATOM     84  S   UNL A   1      34.750  34.527  28.487  1.00  0.00     0.124 S 
ATOM     85  O   UNL A   1      35.837  35.075  29.290  1.00  0.00    -0.237 OA
ATOM     86  O   UNL A   1      34.717  34.936  27.087  1.00  0.00    -0.237 OA
ATOM     87  O   UNL A   1      33.449  34.474  29.150  1.00  0.00    -0.744 OA
ENDBRANCH  80  84
ENDBRANCH  53  77
BRANCH  65  88
ATOM     88  C   UNL A   1      39.265  32.187  35.405  1.00  0.00     0.023 A 
ATOM     89  C   UNL A   1      39.669  33.529  35.511  1.00  0.00     0.031 A 
ATOM     90  C   UNL A   1      38.398  31.681  36.394  1.00  0.00     0.131 A 
ATOM     91  C   UNL A   1      39.257  34.300  36.609  1.00  0.00     0.055 A 
ATOM     92  C   UNL A   1      37.937  32.472  37.446  1.00  0.00     0.041 A 
ATOM     93  F   UNL A   1      37.979  30.407  36.348  1.00  0.00    -0.206 F 
ATOM     94  C   UNL A   1      38.379  33.786  37.567  1.00  0.00     0.022 A 
BRANCH  91  95
ATOM     95  S   UNL A   1      39.970  35.954  36.833  1.00  0.00     0.124 S 
ATOM     96  O   UNL A   1      39.761  36.555  35.520  1.00  0.00    -0.237 OA
ATOM     97  O   UNL A   1      39.160  36.497  37.919  1.00  0.00    -0.237 OA
ATOM     98  O   UNL A   1      41.365  35.684  37.177  1.00  0.00    -0.744 OA
ENDBRANCH  91  95
ENDBRANCH  65  88
ENDBRANCH  39  40
ENDBRANCH  32  34
ENDBRANCH  31  32
ENDBRANCH  30  31
ENDBRANCH  29  30
ENDBRANCH  28  29
ENDBRANCH  27  28
ENDBRANCH   1  27
TORSDOF 25
ENDMDL
MODEL 3
REMARK VINA RESULT:     -10.1      4.519      7.337
REMARK SMILES CC(C)(C)OC(=O)N1CCC[C@]1(Cc1ccccc1)C(=O)OCCOCCOCCOC(=O)c1ccc(-c2c3nc(c(-c4cc(S(=O)(=O)[O-])ccc4F)c4ccc([nH]4)c(-c4cc(S(=O)(=O)[O-])ccc4F)c4nc(c(-c5cc(S(=O)(=O)[O-])ccc5F)c5ccc2[nH]5)C=C4)C=C3)cc1
REMARK SMILES IDX 26 1 25 2 24 3 23 4 22 5 20 6 21 7 12 8 8 9 9 10 10 11 11 12
REMARK SMILES IDX 6 13 7 14 5 15 2 16 1 17 3 18 4 19 13 20 14 21 15 22 19 23
REMARK SMILES IDX 16 24 18 25 17 26 27 27 28 28 29 29 30 30 31 31 32 32 33 33
REMARK SMILES IDX 34 34 35 35 96 36 36 37 95 38 37 39 38 40 39 41 89 42 40 43
REMARK SMILES IDX 94 44 88 45 90 46 41 47 93 48 87 49 86 50 42 52 74 53 54 54
REMARK SMILES IDX 73 55 55 56 58 57 72 58 91 59 56 60 57 61 71 63 92 64 59 65
REMARK SMILES IDX 43 66 44 67 52 68 45 69 51 70 53 71 50 72 46 73 47 74 48 75
REMARK SMILES IDX 49 76 75 77 76 78 84 79 77 80 83 81 85 82 82 83 78 84 79 85
REMARK SMILES IDX 80 86 81 87 60 88 61 89 69 90 62 91 68 92 70 93 67 94 63 95
REMARK SMILES IDX 64 96 65 97 66 98
REMARK H PARENT 90 51 58 62
REMARK Flexibility Score: inf
ROOT
ATOM      1  C   UNL A   1      35.631  23.255  22.796  1.00  0.00     0.188 C 
ENDROOT
BRANCH   1   2
ATOM      2  O   UNL A   1      34.457  24.003  23.017  1.00  0.00    -0.376 OA
BRANCH   2   3
ATOM      3  C   UNL A   1      33.367  23.934  22.114  1.00  0.00     0.202 C 
BRANCH   3   4
ATOM      4  C   UNL A   1      32.634  25.137  21.483  1.00  0.00     0.261 C 
BRANCH   4   5
ATOM      5  O   UNL A   1      31.840  25.981  22.331  1.00  0.00    -0.461 OA
BRANCH   5   6
ATOM      6  C   UNL A   1      32.518  27.010  22.907  1.00  0.00     0.332 C 
ATOM      7  O   UNL A   1      33.472  27.542  22.347  1.00  0.00    -0.249 OA
BRANCH   6   8
ATOM      8  C   UNL A   1      31.982  27.440  24.320  1.00  0.00     0.147 C 
ATOM      9  N   UNL A   1      31.398  28.775  24.108  1.00  0.00    -0.291 N 
ATOM     10  C   UNL A   1      31.929  29.770  25.011  1.00  0.00     0.124 C 
ATOM     11  C   UNL A   1      33.266  29.219  25.445  1.00  0.00     0.025 C 
ATOM     12  C   UNL A   1      33.080  27.706  25.390  1.00  0.00     0.043 C 
BRANCH   9  13
ATOM     13  C   UNL A   1      30.409  29.002  23.192  1.00  0.00     0.411 C 
ATOM     14  O   UNL A   1      30.427  28.584  22.043  1.00  0.00    -0.224 OA
BRANCH  13  15
ATOM     15  O   UNL A   1      29.484  29.859  23.682  1.00  0.00    -0.444 OA
BRANCH  15  16
ATOM     16  C   UNL A   1      28.269  30.060  22.919  1.00  0.00     0.106 C 
ATOM     17  C   UNL A   1      27.593  31.258  23.595  1.00  0.00     0.056 C 
ATOM     18  C   UNL A   1      27.366  28.830  23.032  1.00  0.00     0.056 C 
ATOM     19  C   UNL A   1      28.554  30.443  21.455  1.00  0.00     0.056 C 
ENDBRANCH  15  16
ENDBRANCH  13  15
ENDBRANCH   9  13
BRANCH   8  20
ATOM     20  C   UNL A   1      30.976  26.338  24.787  1.00  0.00     0.076 C 
BRANCH  20  21
ATOM     21  C   UNL A   1      31.548  24.992  25.195  1.00  0.00    -0.045 A 
ATOM     22  C   UNL A   1      32.732  24.911  25.942  1.00  0.00     0.004 A 
ATOM     23  C   UNL A   1      30.941  23.798  24.785  1.00  0.00     0.004 A 
ATOM     24  C   UNL A   1      33.264  23.668  26.297  1.00  0.00     0.000 A 
ATOM     25  C   UNL A   1      31.459  22.558  25.158  1.00  0.00     0.000 A 
ATOM     26  C   UNL A   1      32.621  22.493  25.918  1.00  0.00     0.000 A 
ENDBRANCH  20  21
ENDBRANCH   8  20
ENDBRANCH   6   8
ENDBRANCH   5   6
ENDBRANCH   4   5
ENDBRANCH   3   4
ENDBRANCH   2   3
ENDBRANCH   1   2
BRANCH   1  27
ATOM     27  C   UNL A   1      36.291  22.576  24.003  1.00  0.00     0.188 C 
BRANCH  27  28
ATOM     28  O   UNL A   1      35.715  21.391  24.492  1.00  0.00    -0.376 OA
BRANCH  28  29
ATOM     29  C   UNL A   1      36.459  20.550  25.355  1.00  0.00     0.202 C 
BRANCH  29  30
ATOM     30  C   UNL A   1      37.863  19.965  25.075  1.00  0.00     0.261 C 
BRANCH  30  31
ATOM     31  O   UNL A   1      39.002  20.826  25.143  1.00  0.00    -0.460 OA
BRANCH  31  32
ATOM     32  C   UNL A   1      39.831  20.618  26.199  1.00  0.00     0.338 C 
ATOM     33  O   UNL A   1      40.432  19.590  26.458  1.00  0.00    -0.246 OA
BRANCH  32  34
ATOM     34  C   UNL A   1      40.096  21.919  26.854  1.00  0.00     0.060 A 
ATOM     35  C   UNL A   1      39.302  23.024  26.507  1.00  0.00     0.016 A 
ATOM     36  C   UNL A   1      41.133  22.058  27.776  1.00  0.00     0.016 A 
ATOM     37  C   UNL A   1      39.574  24.282  27.041  1.00  0.00     0.010 A 
ATOM     38  C   UNL A   1      41.427  23.326  28.286  1.00  0.00     0.010 A 
ATOM     39  C   UNL A   1      40.679  24.450  27.884  1.00  0.00    -0.014 A 
BRANCH  39  40
ATOM     40  C   UNL A   1      41.220  25.816  28.104  1.00  0.00     0.031 A 
ATOM     41  C   UNL A   1      42.613  26.102  27.605  1.00  0.00     0.074 A 
ATOM     42  C   UNL A   1      40.496  26.790  28.684  1.00  0.00     0.049 A 
ATOM     43  N   UNL A   1      43.343  27.179  27.732  1.00  0.00    -0.248 NA
ATOM     44  C   UNL A   1      43.273  25.014  26.864  1.00  0.00     0.031 C 
ATOM     45  C   UNL A   1      39.113  26.661  29.136  1.00  0.00     0.029 A 
ATOM     46  N   UNL A   1      40.834  28.084  28.993  1.00  0.00    -0.354 N 
ATOM     47  C   UNL A   1      44.547  26.897  27.094  1.00  0.00     0.074 A 
ATOM     48  C   UNL A   1      44.463  25.533  26.620  1.00  0.00     0.031 C 
ATOM     49  C   UNL A   1      38.723  27.830  29.678  1.00  0.00     0.029 A 
ATOM     50  C   UNL A   1      39.840  28.774  29.649  1.00  0.00     0.049 A 
ATOM     51  H   UNL A   1      41.705  28.482  28.767  1.00  0.00     0.167 HD
ATOM     52  C   UNL A   1      45.621  27.704  26.911  1.00  0.00     0.034 A 
ATOM     53  C   UNL A   1      39.846  30.012  30.186  1.00  0.00     0.034 A 
ATOM     54  C   UNL A   1      45.697  29.056  27.403  1.00  0.00     0.049 A 
ATOM     55  C   UNL A   1      41.098  30.857  30.070  1.00  0.00     0.074 A 
ATOM     56  C   UNL A   1      46.740  29.957  27.291  1.00  0.00     0.029 A 
ATOM     57  N   UNL A   1      44.690  29.702  28.111  1.00  0.00    -0.354 N 
ATOM     58  N   UNL A   1      42.239  30.574  29.482  1.00  0.00    -0.248 NA
ATOM     59  C   UNL A   1      41.057  32.193  30.680  1.00  0.00     0.031 C 
ATOM     60  C   UNL A   1      46.397  31.116  27.994  1.00  0.00     0.029 A 
ATOM     61  C   UNL A   1      45.100  30.978  28.465  1.00  0.00     0.049 A 
ATOM     62  H   UNL A   1      43.814  29.310  28.330  1.00  0.00     0.167 HD
ATOM     63  C   UNL A   1      43.029  31.717  29.611  1.00  0.00     0.074 A 
ATOM     64  C   UNL A   1      42.232  32.691  30.326  1.00  0.00     0.031 C 
ATOM     65  C   UNL A   1      44.293  31.945  29.172  1.00  0.00     0.034 A 
BRANCH  52  66
ATOM     66  C   UNL A   1      46.815  27.114  26.199  1.00  0.00     0.023 A 
ATOM     67  C   UNL A   1      47.823  26.420  26.891  1.00  0.00     0.031 A 
ATOM     68  C   UNL A   1      46.966  27.283  24.811  1.00  0.00     0.131 A 
ATOM     69  C   UNL A   1      48.968  25.985  26.207  1.00  0.00     0.055 A 
ATOM     70  C   UNL A   1      48.066  26.771  24.123  1.00  0.00     0.041 A 
ATOM     71  F   UNL A   1      46.050  27.961  24.102  1.00  0.00    -0.206 F 
ATOM     72  C   UNL A   1      49.084  26.131  24.823  1.00  0.00     0.022 A 
BRANCH  69  73
ATOM     73  S   UNL A   1      50.371  25.363  27.174  1.00  0.00     0.124 S 
ATOM     74  O   UNL A   1      50.721  26.535  27.974  1.00  0.00    -0.237 OA
ATOM     75  O   UNL A   1      49.783  24.245  27.902  1.00  0.00    -0.237 OA
ATOM     76  O   UNL A   1      51.354  24.997  26.155  1.00  0.00    -0.744 OA
ENDBRANCH  69  73
ENDBRANCH  52  66
BRANCH  53  77
ATOM     77  C   UNL A   1      38.656  30.532  30.925  1.00  0.00     0.023 A 
ATOM     78  C   UNL A   1      37.590  31.146  30.248  1.00  0.00     0.031 A 
ATOM     79  C   UNL A   1      38.609  30.501  32.331  1.00  0.00     0.131 A 
ATOM     80  C   UNL A   1      36.555  31.757  30.975  1.00  0.00     0.055 A 
ATOM     81  C   UNL A   1      37.545  31.052  33.048  1.00  0.00     0.041 A 
ATOM     82  F   UNL A   1      39.606  29.938  33.033  1.00  0.00    -0.206 F 
ATOM     83  C   UNL A   1      36.518  31.699  32.370  1.00  0.00     0.022 A 
BRANCH  80  84
ATOM     84  S   UNL A   1      35.320  32.735  30.075  1.00  0.00     0.124 S 
ATOM     85  O   UNL A   1      34.878  31.788  29.059  1.00  0.00    -0.237 OA
ATOM     86  O   UNL A   1      34.356  33.048  31.124  1.00  0.00    -0.237 OA
ATOM     87  O   UNL A   1      36.086  33.875  29.575  1.00  0.00    -0.744 OA
ENDBRANCH  80  84
ENDBRANCH  53  77
BRANCH  65  88
ATOM     88  C   UNL A   1      44.864  33.330  29.377  1.00  0.00     0.023 A 
ATOM     89  C   UNL A   1      44.652  34.374  28.461  1.00  0.00     0.031 A 
ATOM     90  C   UNL A   1      45.645  33.603  30.517  1.00  0.00     0.131 A 
ATOM     91  C   UNL A   1      45.261  35.622  28.669  1.00  0.00     0.055 A 
ATOM     92  C   UNL A   1      46.190  34.865  30.753  1.00  0.00     0.041 A 
ATOM     93  F   UNL A   1      45.885  32.645  31.427  1.00  0.00    -0.206 F 
ATOM     94  C   UNL A   1      46.013  35.879  29.818  1.00  0.00     0.022 A 
BRANCH  91  95
ATOM     95  S   UNL A   1      45.149  36.877  27.363  1.00  0.00     0.124 S 
ATOM     96  O   UNL A   1      45.379  38.111  28.107  1.00  0.00    -0.237 OA
ATOM     97  O   UNL A   1      46.215  36.474  26.452  1.00  0.00    -0.237 OA
ATOM     98  O   UNL A   1      43.793  36.711  26.841  1.00  0.00    -0.744 OA
ENDBRANCH  91  95
ENDBRANCH  65  88
ENDBRANCH  39  40
ENDBRANCH  32  34
ENDBRANCH  31  32
ENDBRANCH  30  31
ENDBRANCH  29  30
ENDBRANCH  28  29
ENDBRANCH  27  28
ENDBRANCH   1  27
TORSDOF 25
ENDMDL
