MODEL 1
REMARK VINA RESULT:     -10.8      0.000      0.000
REMARK SMILES Cc1c(Br)c(C)c2c(c1Br)O[C@H](C(F)(F)F)C(C(=O)OCCOCCOCCOC(=O)c1ccc(-c3c4nc(c(-c5cc(S(=O)(=O)[O-])ccc5F)c5ccc([nH]5)c(-c5cc(S(=O)(=O)[O-])ccc5F)c5nc(c(-c6cc(S(=O)(=O)[O-])ccc6F)c6ccc3[nH]6)C=C5)C=C4)cc1)=C2
REMARK SMILES IDX 25 1 24 2 23 3 22 4 21 5 20 6 18 7 19 8 17 9 1 10 2 11 3 12
REMARK SMILES IDX 9 13 4 14 5 15 8 16 10 17 6 18 7 19 11 20 95 21 12 22 13 23
REMARK SMILES IDX 14 24 15 25 16 26 26 27 27 28 28 29 29 30 30 31 31 32 32 33
REMARK SMILES IDX 33 34 94 35 34 36 93 37 35 38 36 39 37 40 87 41 38 42 92 43
REMARK SMILES IDX 86 44 88 45 39 46 91 47 85 48 84 49 40 51 72 52 52 53 71 54
REMARK SMILES IDX 53 55 56 56 70 57 89 58 54 59 55 60 69 62 90 63 57 64 41 65
REMARK SMILES IDX 42 66 50 67 43 68 49 69 51 70 48 71 44 72 45 73 46 74 47 75
REMARK SMILES IDX 73 76 74 77 82 78 75 79 81 80 83 81 80 82 76 83 77 84 78 85
REMARK SMILES IDX 79 86 58 87 59 88 67 89 60 90 66 91 68 92 65 93 61 94 62 95
REMARK SMILES IDX 63 96 64 97
REMARK H PARENT 88 50 56 61
REMARK Flexibility Score: inf
ROOT
ATOM      1  C   UNL A   1      49.752  20.898  37.431  1.00  0.00     0.188 C 
ENDROOT
BRANCH   1   2
ATOM      2  C   UNL A   1      48.950  19.639  37.823  1.00  0.00     0.188 C 
BRANCH   2   3
ATOM      3  O   UNL A   1      48.029  19.698  38.910  1.00  0.00    -0.376 OA
BRANCH   3   4
ATOM      4  C   UNL A   1      47.944  18.619  39.833  1.00  0.00     0.202 C 
BRANCH   4   5
ATOM      5  C   UNL A   1      47.477  18.907  41.265  1.00  0.00     0.261 C 
BRANCH   5   6
ATOM      6  O   UNL A   1      46.522  17.957  41.766  1.00  0.00    -0.460 OA
BRANCH   6   7
ATOM      7  C   UNL A   1      45.223  18.288  41.580  1.00  0.00     0.338 C 
ATOM      8  O   UNL A   1      44.789  19.361  41.189  1.00  0.00    -0.246 OA
BRANCH   7   9
ATOM      9  C   UNL A   1      44.369  17.108  41.817  1.00  0.00     0.087 C 
ATOM     10  C   UNL A   1      42.041  11.320  43.662  1.00  0.00     0.047 C 
ATOM     11  C   UNL A   1      42.562  12.737  43.592  1.00  0.00    -0.019 A 
ATOM     12  C   UNL A   1      43.202  13.370  44.684  1.00  0.00     0.025 A 
ATOM     13  C   UNL A   1      42.405  13.473  42.398  1.00  0.00     0.064 A 
ATOM     14  Br  UNL A   1      43.334  12.444  46.360  1.00  0.00    -0.050 Br
ATOM     15  C   UNL A   1      43.755  14.671  44.560  1.00  0.00    -0.026 A 
ATOM     16  C   UNL A   1      42.974  14.749  42.248  1.00  0.00     0.142 A 
ATOM     17  Br  UNL A   1      41.430  12.735  40.917  1.00  0.00    -0.046 Br
ATOM     18  C   UNL A   1      44.423  15.381  45.722  1.00  0.00     0.046 C 
ATOM     19  C   UNL A   1      43.697  15.322  43.301  1.00  0.00     0.022 A 
ATOM     20  O   UNL A   1      42.773  15.381  41.048  1.00  0.00    -0.474 OA
ATOM     21  C   UNL A   1      44.433  16.559  43.036  1.00  0.00     0.027 C 
ATOM     22  C   UNL A   1      43.511  16.580  40.712  1.00  0.00     0.316 C 
BRANCH  22  23
ATOM     23  C   UNL A   1      44.292  16.316  39.418  1.00  0.00     0.430 C 
ATOM     24  F   UNL A   1      43.630  15.447  38.614  1.00  0.00    -0.167 F 
ATOM     25  F   UNL A   1      44.466  17.447  38.693  1.00  0.00    -0.167 F 
ATOM     26  F   UNL A   1      45.516  15.795  39.656  1.00  0.00    -0.167 F 
ENDBRANCH  22  23
ENDBRANCH   7   9
ENDBRANCH   6   7
ENDBRANCH   5   6
ENDBRANCH   4   5
ENDBRANCH   3   4
ENDBRANCH   2   3
ENDBRANCH   1   2
BRANCH   1  27
ATOM     27  O   UNL A   1      49.070  22.105  37.690  1.00  0.00    -0.376 OA
BRANCH  27  28
ATOM     28  C   UNL A   1      49.369  23.237  36.892  1.00  0.00     0.202 C 
BRANCH  28  29
ATOM     29  C   UNL A   1      48.453  23.685  35.738  1.00  0.00     0.261 C 
BRANCH  29  30
ATOM     30  O   UNL A   1      47.649  24.853  35.941  1.00  0.00    -0.460 OA
BRANCH  30  31
ATOM     31  C   UNL A   1      47.980  25.962  35.241  1.00  0.00     0.338 C 
ATOM     32  O   UNL A   1      49.098  26.309  34.910  1.00  0.00    -0.246 OA
BRANCH  31  33
ATOM     33  C   UNL A   1      46.720  26.593  34.786  1.00  0.00     0.060 A 
ATOM     34  C   UNL A   1      45.512  25.905  34.959  1.00  0.00     0.016 A 
ATOM     35  C   UNL A   1      46.733  27.863  34.201  1.00  0.00     0.016 A 
ATOM     36  C   UNL A   1      44.314  26.479  34.526  1.00  0.00     0.010 A 
ATOM     37  C   UNL A   1      45.535  28.425  33.747  1.00  0.00     0.010 A 
ATOM     38  C   UNL A   1      44.323  27.726  33.886  1.00  0.00    -0.014 A 
BRANCH  38  39
ATOM     39  C   UNL A   1      43.104  28.227  33.206  1.00  0.00     0.031 A 
ATOM     40  C   UNL A   1      42.868  27.830  31.774  1.00  0.00     0.074 A 
ATOM     41  C   UNL A   1      42.216  29.010  33.846  1.00  0.00     0.049 A 
ATOM     42  N   UNL A   1      41.928  28.213  30.951  1.00  0.00    -0.248 NA
ATOM     43  C   UNL A   1      43.820  26.867  31.199  1.00  0.00     0.031 C 
ATOM     44  C   UNL A   1      42.297  29.408  35.250  1.00  0.00     0.029 A 
ATOM     45  N   UNL A   1      41.069  29.612  33.391  1.00  0.00    -0.354 N 
ATOM     46  C   UNL A   1      42.168  27.534  29.763  1.00  0.00     0.074 A 
ATOM     47  C   UNL A   1      43.360  26.737  29.964  1.00  0.00     0.031 C 
ATOM     48  C   UNL A   1      41.245  30.194  35.541  1.00  0.00     0.029 A 
ATOM     49  C   UNL A   1      40.439  30.390  34.335  1.00  0.00     0.049 A 
ATOM     50  H   UNL A   1      40.729  29.498  32.474  1.00  0.00     0.167 HD
ATOM     51  C   UNL A   1      41.459  27.569  28.609  1.00  0.00     0.034 A 
ATOM     52  C   UNL A   1      39.356  31.186  34.229  1.00  0.00     0.034 A 
ATOM     53  C   UNL A   1      40.291  28.386  28.406  1.00  0.00     0.049 A 
ATOM     54  C   UNL A   1      38.647  31.298  32.902  1.00  0.00     0.074 A 
ATOM     55  C   UNL A   1      39.523  28.522  27.263  1.00  0.00     0.029 A 
ATOM     56  N   UNL A   1      39.723  29.211  29.366  1.00  0.00    -0.354 N 
ATOM     57  N   UNL A   1      38.921  30.699  31.766  1.00  0.00    -0.248 NA
ATOM     58  C   UNL A   1      37.485  32.196  32.841  1.00  0.00     0.031 C 
ATOM     59  C   UNL A   1      38.525  29.469  27.514  1.00  0.00     0.029 A 
ATOM     60  C   UNL A   1      38.626  29.870  28.837  1.00  0.00     0.049 A 
ATOM     61  H   UNL A   1      40.051  29.311  30.289  1.00  0.00     0.167 HD
ATOM     62  C   UNL A   1      37.946  31.123  30.867  1.00  0.00     0.074 A 
ATOM     63  C   UNL A   1      37.080  32.031  31.590  1.00  0.00     0.031 C 
ATOM     64  C   UNL A   1      37.775  30.780  29.565  1.00  0.00     0.034 A 
BRANCH  51  65
ATOM     65  C   UNL A   1      41.960  26.730  27.464  1.00  0.00     0.023 A 
ATOM     66  C   UNL A   1      41.654  25.362  27.366  1.00  0.00     0.031 A 
ATOM     67  C   UNL A   1      42.752  27.307  26.455  1.00  0.00     0.131 A 
ATOM     68  C   UNL A   1      42.170  24.606  26.302  1.00  0.00     0.055 A 
ATOM     69  C   UNL A   1      43.210  26.563  25.367  1.00  0.00     0.041 A 
ATOM     70  F   UNL A   1      43.093  28.604  26.514  1.00  0.00    -0.206 F 
ATOM     71  C   UNL A   1      42.926  25.204  25.290  1.00  0.00     0.022 A 
BRANCH  68  72
ATOM     72  S   UNL A   1      41.907  22.812  26.301  1.00  0.00     0.124 S 
ATOM     73  O   UNL A   1      42.728  22.396  25.166  1.00  0.00    -0.237 OA
ATOM     74  O   UNL A   1      42.393  22.419  27.618  1.00  0.00    -0.237 OA
ATOM     75  O   UNL A   1      40.466  22.677  26.103  1.00  0.00    -0.744 OA
ENDBRANCH  68  72
ENDBRANCH  51  65
BRANCH  52  76
ATOM     76  C   UNL A   1      38.888  31.971  35.404  1.00  0.00     0.023 A 
ATOM     77  C   UNL A   1      38.254  31.344  36.488  1.00  0.00     0.031 A 
ATOM     78  C   UNL A   1      39.051  33.368  35.450  1.00  0.00     0.131 A 
ATOM     79  C   UNL A   1      37.783  32.115  37.562  1.00  0.00     0.055 A 
ATOM     80  C   UNL A   1      38.616  34.125  36.537  1.00  0.00     0.041 A 
ATOM     81  F   UNL A   1      39.652  34.013  34.438  1.00  0.00    -0.206 F 
ATOM     82  C   UNL A   1      37.971  33.499  37.601  1.00  0.00     0.022 A 
BRANCH  79  83
ATOM     83  S   UNL A   1      36.891  31.285  38.905  1.00  0.00     0.124 S 
ATOM     84  O   UNL A   1      35.642  32.039  38.941  1.00  0.00    -0.237 OA
ATOM     85  O   UNL A   1      36.800  29.915  38.411  1.00  0.00    -0.237 OA
ATOM     86  O   UNL A   1      37.767  31.470  40.060  1.00  0.00    -0.744 OA
ENDBRANCH  79  83
ENDBRANCH  52  76
BRANCH  64  87
ATOM     87  C   UNL A   1      36.576  31.344  28.846  1.00  0.00     0.023 A 
ATOM     88  C   UNL A   1      35.525  30.525  28.402  1.00  0.00     0.031 A 
ATOM     89  C   UNL A   1      36.472  32.732  28.639  1.00  0.00     0.131 A 
ATOM     90  C   UNL A   1      34.427  31.099  27.740  1.00  0.00     0.055 A 
ATOM     91  C   UNL A   1      35.357  33.301  28.024  1.00  0.00     0.041 A 
ATOM     92  F   UNL A   1      37.448  33.558  29.048  1.00  0.00    -0.206 F 
ATOM     93  C   UNL A   1      34.330  32.482  27.564  1.00  0.00     0.022 A 
BRANCH  90  94
ATOM     94  S   UNL A   1      33.143  30.008  27.069  1.00  0.00     0.124 S 
ATOM     95  O   UNL A   1      31.947  30.833  27.200  1.00  0.00    -0.237 OA
ATOM     96  O   UNL A   1      33.610  29.773  25.707  1.00  0.00    -0.237 OA
ATOM     97  O   UNL A   1      33.189  28.840  27.948  1.00  0.00    -0.744 OA
ENDBRANCH  90  94
ENDBRANCH  64  87
ENDBRANCH  38  39
ENDBRANCH  31  33
ENDBRANCH  30  31
ENDBRANCH  29  30
ENDBRANCH  28  29
ENDBRANCH  27  28
ENDBRANCH   1  27
TORSDOF 21
ENDMDL
MODEL 2
REMARK VINA RESULT:     -10.6     10.392     14.781
REMARK SMILES Cc1c(Br)c(C)c2c(c1Br)O[C@H](C(F)(F)F)C(C(=O)OCCOCCOCCOC(=O)c1ccc(-c3c4nc(c(-c5cc(S(=O)(=O)[O-])ccc5F)c5ccc([nH]5)c(-c5cc(S(=O)(=O)[O-])ccc5F)c5nc(c(-c6cc(S(=O)(=O)[O-])ccc6F)c6ccc3[nH]6)C=C5)C=C4)cc1)=C2
REMARK SMILES IDX 25 1 24 2 23 3 22 4 21 5 20 6 18 7 19 8 17 9 1 10 2 11 3 12
REMARK SMILES IDX 9 13 4 14 5 15 8 16 10 17 6 18 7 19 11 20 95 21 12 22 13 23
REMARK SMILES IDX 14 24 15 25 16 26 26 27 27 28 28 29 29 30 30 31 31 32 32 33
REMARK SMILES IDX 33 34 94 35 34 36 93 37 35 38 36 39 37 40 87 41 38 42 92 43
REMARK SMILES IDX 86 44 88 45 39 46 91 47 85 48 84 49 40 51 72 52 52 53 71 54
REMARK SMILES IDX 53 55 56 56 70 57 89 58 54 59 55 60 69 62 90 63 57 64 41 65
REMARK SMILES IDX 42 66 50 67 43 68 49 69 51 70 48 71 44 72 45 73 46 74 47 75
REMARK SMILES IDX 73 76 74 77 82 78 75 79 81 80 83 81 80 82 76 83 77 84 78 85
REMARK SMILES IDX 79 86 58 87 59 88 67 89 60 90 66 91 68 92 65 93 61 94 62 95
REMARK SMILES IDX 63 96 64 97
REMARK H PARENT 88 50 56 61
REMARK Flexibility Score: inf
ROOT
ATOM      1  C   UNL A   1      41.657  21.937  26.811  1.00  0.00     0.188 C 
ENDROOT
BRANCH   1   2
ATOM      2  C   UNL A   1      40.259  22.526  27.092  1.00  0.00     0.188 C 
BRANCH   2   3
ATOM      3  O   UNL A   1      39.234  22.414  26.108  1.00  0.00    -0.376 OA
BRANCH   3   4
ATOM      4  C   UNL A   1      38.119  23.297  26.133  1.00  0.00     0.202 C 
BRANCH   4   5
ATOM      5  C   UNL A   1      36.739  22.755  25.745  1.00  0.00     0.261 C 
BRANCH   5   6
ATOM      6  O   UNL A   1      35.865  23.746  25.177  1.00  0.00    -0.460 OA
BRANCH   6   7
ATOM      7  C   UNL A   1      34.684  23.912  25.816  1.00  0.00     0.338 C 
ATOM      8  O   UNL A   1      34.289  23.299  26.796  1.00  0.00    -0.246 OA
BRANCH   7   9
ATOM      9  C   UNL A   1      33.951  25.047  25.222  1.00  0.00     0.087 C 
ATOM     10  C   UNL A   1      30.216  30.285  24.254  1.00  0.00     0.047 C 
ATOM     11  C   UNL A   1      31.304  29.310  24.642  1.00  0.00    -0.019 A 
ATOM     12  C   UNL A   1      32.174  29.534  25.735  1.00  0.00     0.025 A 
ATOM     13  C   UNL A   1      31.475  28.129  23.888  1.00  0.00     0.064 A 
ATOM     14  Br  UNL A   1      32.047  31.180  26.715  1.00  0.00    -0.050 Br
ATOM     15  C   UNL A   1      33.131  28.561  26.126  1.00  0.00    -0.026 A 
ATOM     16  C   UNL A   1      32.395  27.142  24.280  1.00  0.00     0.142 A 
ATOM     17  Br  UNL A   1      30.425  27.817  22.311  1.00  0.00    -0.046 Br
ATOM     18  C   UNL A   1      34.092  28.786  27.277  1.00  0.00     0.046 C 
ATOM     19  C   UNL A   1      33.177  27.328  25.426  1.00  0.00     0.022 A 
ATOM     20  O   UNL A   1      32.483  26.027  23.488  1.00  0.00    -0.474 OA
ATOM     21  C   UNL A   1      33.976  26.198  25.904  1.00  0.00     0.027 C 
ATOM     22  C   UNL A   1      33.218  24.862  23.931  1.00  0.00     0.316 C 
BRANCH  22  23
ATOM     23  C   UNL A   1      32.254  23.668  23.954  1.00  0.00     0.430 C 
ATOM     24  F   UNL A   1      31.518  23.653  25.093  1.00  0.00    -0.167 F 
ATOM     25  F   UNL A   1      31.368  23.714  22.930  1.00  0.00    -0.167 F 
ATOM     26  F   UNL A   1      32.902  22.485  23.877  1.00  0.00    -0.167 F 
ENDBRANCH  22  23
ENDBRANCH   7   9
ENDBRANCH   6   7
ENDBRANCH   5   6
ENDBRANCH   4   5
ENDBRANCH   3   4
ENDBRANCH   2   3
ENDBRANCH   1   2
BRANCH   1  27
ATOM     27  O   UNL A   1      41.639  20.837  25.928  1.00  0.00    -0.376 OA
BRANCH  27  28
ATOM     28  C   UNL A   1      41.970  19.556  26.435  1.00  0.00     0.202 C 
BRANCH  28  29
ATOM     29  C   UNL A   1      42.997  18.645  25.737  1.00  0.00     0.261 C 
BRANCH  29  30
ATOM     30  O   UNL A   1      44.331  19.144  25.580  1.00  0.00    -0.460 OA
BRANCH  30  31
ATOM     31  C   UNL A   1      44.612  19.813  24.438  1.00  0.00     0.338 C 
ATOM     32  O   UNL A   1      44.481  19.400  23.301  1.00  0.00    -0.246 OA
BRANCH  31  33
ATOM     33  C   UNL A   1      44.937  21.209  24.809  1.00  0.00     0.060 A 
ATOM     34  C   UNL A   1      45.322  21.493  26.125  1.00  0.00     0.016 A 
ATOM     35  C   UNL A   1      44.871  22.230  23.855  1.00  0.00     0.016 A 
ATOM     36  C   UNL A   1      45.622  22.806  26.496  1.00  0.00     0.010 A 
ATOM     37  C   UNL A   1      45.149  23.547  24.235  1.00  0.00     0.010 A 
ATOM     38  C   UNL A   1      45.503  23.845  25.562  1.00  0.00    -0.014 A 
BRANCH  38  39
ATOM     39  C   UNL A   1      45.576  25.260  26.004  1.00  0.00     0.031 A 
ATOM     40  C   UNL A   1      46.913  25.948  25.985  1.00  0.00     0.074 A 
ATOM     41  C   UNL A   1      44.477  25.926  26.404  1.00  0.00     0.049 A 
ATOM     42  N   UNL A   1      47.238  27.142  26.406  1.00  0.00    -0.248 NA
ATOM     43  C   UNL A   1      48.032  25.185  25.409  1.00  0.00     0.031 C 
ATOM     44  C   UNL A   1      43.117  25.392  26.404  1.00  0.00     0.029 A 
ATOM     45  N   UNL A   1      44.338  27.202  26.892  1.00  0.00    -0.354 N 
ATOM     46  C   UNL A   1      48.595  27.280  26.139  1.00  0.00     0.074 A 
ATOM     47  C   UNL A   1      49.038  26.036  25.546  1.00  0.00     0.031 C 
ATOM     48  C   UNL A   1      42.280  26.334  26.874  1.00  0.00     0.029 A 
ATOM     49  C   UNL A   1      43.048  27.521  27.249  1.00  0.00     0.049 A 
ATOM     50  H   UNL A   1      45.091  27.830  26.977  1.00  0.00     0.167 HD
ATOM     51  C   UNL A   1      49.399  28.346  26.365  1.00  0.00     0.034 A 
ATOM     52  C   UNL A   1      42.553  28.630  27.834  1.00  0.00     0.034 A 
ATOM     53  C   UNL A   1      48.958  29.571  26.981  1.00  0.00     0.049 A 
ATOM     54  C   UNL A   1      43.488  29.764  28.181  1.00  0.00     0.074 A 
ATOM     55  C   UNL A   1      49.701  30.697  27.289  1.00  0.00     0.029 A 
ATOM     56  N   UNL A   1      47.657  29.830  27.390  1.00  0.00    -0.354 N 
ATOM     57  N   UNL A   1      44.783  29.857  27.982  1.00  0.00    -0.248 NA
ATOM     58  C   UNL A   1      42.895  30.939  28.835  1.00  0.00     0.031 C 
ATOM     59  C   UNL A   1      48.864  31.613  27.932  1.00  0.00     0.029 A 
ATOM     60  C   UNL A   1      47.581  31.090  27.961  1.00  0.00     0.049 A 
ATOM     61  H   UNL A   1      46.900  29.210  27.287  1.00  0.00     0.167 HD
ATOM     62  C   UNL A   1      45.151  31.114  28.455  1.00  0.00     0.074 A 
ATOM     63  C   UNL A   1      43.945  31.741  28.954  1.00  0.00     0.031 C 
ATOM     64  C   UNL A   1      46.374  31.701  28.463  1.00  0.00     0.034 A 
BRANCH  51  65
ATOM     65  C   UNL A   1      50.849  28.213  25.983  1.00  0.00     0.023 A 
ATOM     66  C   UNL A   1      51.304  28.551  24.697  1.00  0.00     0.031 A 
ATOM     67  C   UNL A   1      51.788  27.744  26.917  1.00  0.00     0.131 A 
ATOM     68  C   UNL A   1      52.657  28.379  24.368  1.00  0.00     0.055 A 
ATOM     69  C   UNL A   1      53.143  27.633  26.603  1.00  0.00     0.041 A 
ATOM     70  F   UNL A   1      51.401  27.384  28.152  1.00  0.00    -0.206 F 
ATOM     71  C   UNL A   1      53.583  27.944  25.320  1.00  0.00     0.022 A 
BRANCH  68  72
ATOM     72  S   UNL A   1      53.178  28.652  22.653  1.00  0.00     0.124 S 
ATOM     73  O   UNL A   1      51.903  28.939  22.000  1.00  0.00    -0.237 OA
ATOM     74  O   UNL A   1      54.100  29.776  22.776  1.00  0.00    -0.237 OA
ATOM     75  O   UNL A   1      53.793  27.381  22.276  1.00  0.00    -0.744 OA
ENDBRANCH  68  72
ENDBRANCH  51  65
BRANCH  52  76
ATOM     76  C   UNL A   1      41.104  28.719  28.163  1.00  0.00     0.023 A 
ATOM     77  C   UNL A   1      40.639  28.448  29.459  1.00  0.00     0.031 A 
ATOM     78  C   UNL A   1      40.160  29.058  27.177  1.00  0.00     0.131 A 
ATOM     79  C   UNL A   1      39.262  28.497  29.731  1.00  0.00     0.055 A 
ATOM     80  C   UNL A   1      38.797  29.142  27.460  1.00  0.00     0.041 A 
ATOM     81  F   UNL A   1      40.557  29.326  25.924  1.00  0.00    -0.206 F 
ATOM     82  C   UNL A   1      38.340  28.854  28.744  1.00  0.00     0.022 A 
BRANCH  79  83
ATOM     83  S   UNL A   1      38.685  28.057  31.392  1.00  0.00     0.124 S 
ATOM     84  O   UNL A   1      37.485  28.877  31.516  1.00  0.00    -0.237 OA
ATOM     85  O   UNL A   1      38.471  26.618  31.270  1.00  0.00    -0.237 OA
ATOM     86  O   UNL A   1      39.801  28.446  32.253  1.00  0.00    -0.744 OA
ENDBRANCH  79  83
ENDBRANCH  52  76
BRANCH  64  87
ATOM     87  C   UNL A   1      46.468  33.114  28.978  1.00  0.00     0.023 A 
ATOM     88  C   UNL A   1      46.752  33.396  30.325  1.00  0.00     0.031 A 
ATOM     89  C   UNL A   1      46.306  34.195  28.092  1.00  0.00     0.131 A 
ATOM     90  C   UNL A   1      46.832  34.729  30.755  1.00  0.00     0.055 A 
ATOM     91  C   UNL A   1      46.435  35.517  28.516  1.00  0.00     0.041 A 
ATOM     92  F   UNL A   1      46.037  33.979  26.795  1.00  0.00    -0.206 F 
ATOM     93  C   UNL A   1      46.692  35.791  29.856  1.00  0.00     0.022 A 
BRANCH  90  94
ATOM     94  S   UNL A   1      47.079  35.065  32.520  1.00  0.00     0.124 S 
ATOM     95  O   UNL A   1      48.167  34.151  32.853  1.00  0.00    -0.237 OA
ATOM     96  O   UNL A   1      47.414  36.485  32.527  1.00  0.00    -0.237 OA
ATOM     97  O   UNL A   1      45.786  34.734  33.118  1.00  0.00    -0.744 OA
ENDBRANCH  90  94
ENDBRANCH  64  87
ENDBRANCH  38  39
ENDBRANCH  31  33
ENDBRANCH  30  31
ENDBRANCH  29  30
ENDBRANCH  28  29
ENDBRANCH  27  28
ENDBRANCH   1  27
TORSDOF 21
ENDMDL
MODEL 3
REMARK VINA RESULT:     -10.6      9.844     14.742
REMARK SMILES Cc1c(Br)c(C)c2c(c1Br)O[C@H](C(F)(F)F)C(C(=O)OCCOCCOCCOC(=O)c1ccc(-c3c4nc(c(-c5cc(S(=O)(=O)[O-])ccc5F)c5ccc([nH]5)c(-c5cc(S(=O)(=O)[O-])ccc5F)c5nc(c(-c6cc(S(=O)(=O)[O-])ccc6F)c6ccc3[nH]6)C=C5)C=C4)cc1)=C2
REMARK SMILES IDX 25 1 24 2 23 3 22 4 21 5 20 6 18 7 19 8 17 9 1 10 2 11 3 12
REMARK SMILES IDX 9 13 4 14 5 15 8 16 10 17 6 18 7 19 11 20 95 21 12 22 13 23
REMARK SMILES IDX 14 24 15 25 16 26 26 27 27 28 28 29 29 30 30 31 31 32 32 33
REMARK SMILES IDX 33 34 94 35 34 36 93 37 35 38 36 39 37 40 87 41 38 42 92 43
REMARK SMILES IDX 86 44 88 45 39 46 91 47 85 48 84 49 40 51 72 52 52 53 71 54
REMARK SMILES IDX 53 55 56 56 70 57 89 58 54 59 55 60 69 62 90 63 57 64 41 65
REMARK SMILES IDX 42 66 50 67 43 68 49 69 51 70 48 71 44 72 45 73 46 74 47 75
REMARK SMILES IDX 73 76 74 77 82 78 75 79 81 80 83 81 80 82 76 83 77 84 78 85
REMARK SMILES IDX 79 86 58 87 59 88 67 89 60 90 66 91 68 92 65 93 61 94 62 95
REMARK SMILES IDX 63 96 64 97
REMARK H PARENT 88 50 56 61
REMARK Flexibility Score: inf
ROOT
ATOM      1  C   UNL A   1      37.062  20.315  25.129  1.00  0.00     0.188 C 
ENDROOT
BRANCH   1   2
ATOM      2  C   UNL A   1      35.771  20.892  24.512  1.00  0.00     0.188 C 
BRANCH   2   3
ATOM      3  O   UNL A   1      34.609  21.046  25.323  1.00  0.00    -0.376 OA
BRANCH   3   4
ATOM      4  C   UNL A   1      33.382  21.470  24.740  1.00  0.00     0.202 C 
BRANCH   4   5
ATOM      5  C   UNL A   1      33.349  22.797  23.972  1.00  0.00     0.261 C 
BRANCH   5   6
ATOM      6  O   UNL A   1      33.937  23.896  24.688  1.00  0.00    -0.460 OA
BRANCH   6   7
ATOM      7  C   UNL A   1      33.202  24.375  25.719  1.00  0.00     0.338 C 
ATOM      8  O   UNL A   1      32.967  23.809  26.775  1.00  0.00    -0.246 OA
BRANCH   7   9
ATOM      9  C   UNL A   1      32.796  25.766  25.438  1.00  0.00     0.087 C 
ATOM     10  C   UNL A   1      31.058  32.015  25.938  1.00  0.00     0.047 C 
ATOM     11  C   UNL A   1      31.788  30.692  25.927  1.00  0.00    -0.019 A 
ATOM     12  C   UNL A   1      32.930  30.444  26.726  1.00  0.00     0.025 A 
ATOM     13  C   UNL A   1      31.328  29.656  25.086  1.00  0.00     0.064 A 
ATOM     14  Br  UNL A   1      33.652  31.862  27.798  1.00  0.00    -0.050 Br
ATOM     15  C   UNL A   1      33.543  29.164  26.757  1.00  0.00    -0.026 A 
ATOM     16  C   UNL A   1      31.904  28.375  25.127  1.00  0.00     0.142 A 
ATOM     17  Br  UNL A   1      29.871  29.958  23.873  1.00  0.00    -0.046 Br
ATOM     18  C   UNL A   1      34.780  28.878  27.584  1.00  0.00     0.046 C 
ATOM     19  C   UNL A   1      32.966  28.111  26.001  1.00  0.00     0.022 A 
ATOM     20  O   UNL A   1      31.383  27.433  24.278  1.00  0.00    -0.474 OA
ATOM     21  C   UNL A   1      33.403  26.722  26.151  1.00  0.00     0.027 C 
ATOM     22  C   UNL A   1      31.741  26.037  24.412  1.00  0.00     0.316 C 
BRANCH  22  23
ATOM     23  C   UNL A   1      30.456  25.233  24.646  1.00  0.00     0.430 C 
ATOM     24  F   UNL A   1      29.369  25.899  24.183  1.00  0.00    -0.167 F 
ATOM     25  F   UNL A   1      30.478  24.045  23.996  1.00  0.00    -0.167 F 
ATOM     26  F   UNL A   1      30.244  24.974  25.955  1.00  0.00    -0.167 F 
ENDBRANCH  22  23
ENDBRANCH   7   9
ENDBRANCH   6   7
ENDBRANCH   5   6
ENDBRANCH   4   5
ENDBRANCH   3   4
ENDBRANCH   2   3
ENDBRANCH   1   2
BRANCH   1  27
ATOM     27  O   UNL A   1      38.217  21.065  24.824  1.00  0.00    -0.376 OA
BRANCH  27  28
ATOM     28  C   UNL A   1      38.987  21.587  25.893  1.00  0.00     0.202 C 
BRANCH  28  29
ATOM     29  C   UNL A   1      40.028  20.732  26.639  1.00  0.00     0.261 C 
BRANCH  29  30
ATOM     30  O   UNL A   1      40.789  19.790  25.873  1.00  0.00    -0.460 OA
BRANCH  30  31
ATOM     31  C   UNL A   1      42.097  19.648  26.188  1.00  0.00     0.338 C 
ATOM     32  O   UNL A   1      42.746  18.619  26.154  1.00  0.00    -0.246 OA
BRANCH  31  33
ATOM     33  C   UNL A   1      42.652  21.002  26.406  1.00  0.00     0.060 A 
ATOM     34  C   UNL A   1      42.888  21.440  27.715  1.00  0.00     0.016 A 
ATOM     35  C   UNL A   1      42.949  21.831  25.319  1.00  0.00     0.016 A 
ATOM     36  C   UNL A   1      43.401  22.720  27.941  1.00  0.00     0.010 A 
ATOM     37  C   UNL A   1      43.441  23.120  25.549  1.00  0.00     0.010 A 
ATOM     38  C   UNL A   1      43.648  23.579  26.861  1.00  0.00    -0.014 A 
BRANCH  38  39
ATOM     39  C   UNL A   1      43.953  25.012  27.100  1.00  0.00     0.031 A 
ATOM     40  C   UNL A   1      45.342  25.507  26.803  1.00  0.00     0.074 A 
ATOM     41  C   UNL A   1      43.016  25.861  27.560  1.00  0.00     0.049 A 
ATOM     42  N   UNL A   1      45.866  26.685  27.014  1.00  0.00    -0.248 NA
ATOM     43  C   UNL A   1      46.261  24.540  26.181  1.00  0.00     0.031 C 
ATOM     44  C   UNL A   1      41.619  25.519  27.819  1.00  0.00     0.029 A 
ATOM     45  N   UNL A   1      43.104  27.190  27.891  1.00  0.00    -0.354 N 
ATOM     46  C   UNL A   1      47.171  26.607  26.545  1.00  0.00     0.074 A 
ATOM     47  C   UNL A   1      47.368  25.256  26.063  1.00  0.00     0.031 C 
ATOM     48  C   UNL A   1      40.981  26.611  28.276  1.00  0.00     0.029 A 
ATOM     49  C   UNL A   1      41.932  27.718  28.380  1.00  0.00     0.049 A 
ATOM     50  H   UNL A   1      43.930  27.717  27.787  1.00  0.00     0.167 HD
ATOM     51  C   UNL A   1      48.120  27.574  26.514  1.00  0.00     0.034 A 
ATOM     52  C   UNL A   1      41.668  28.943  28.879  1.00  0.00     0.034 A 
ATOM     53  C   UNL A   1      47.926  28.908  27.020  1.00  0.00     0.049 A 
ATOM     54  C   UNL A   1      42.771  29.971  28.940  1.00  0.00     0.074 A 
ATOM     55  C   UNL A   1      48.835  29.951  27.071  1.00  0.00     0.029 A 
ATOM     56  N   UNL A   1      46.745  29.384  27.570  1.00  0.00    -0.354 N 
ATOM     57  N   UNL A   1      44.021  29.866  28.551  1.00  0.00    -0.248 NA
ATOM     58  C   UNL A   1      42.429  31.281  29.512  1.00  0.00     0.031 C 
ATOM     59  C   UNL A   1      48.221  31.038  27.700  1.00  0.00     0.029 A 
ATOM     60  C   UNL A   1      46.907  30.699  27.976  1.00  0.00     0.049 A 
ATOM     61  H   UNL A   1      45.913  28.865  27.656  1.00  0.00     0.167 HD
ATOM     62  C   UNL A   1      44.602  31.106  28.799  1.00  0.00     0.074 A 
ATOM     63  C   UNL A   1      43.571  31.942  29.377  1.00  0.00     0.031 C 
ATOM     64  C   UNL A   1      45.872  31.520  28.559  1.00  0.00     0.034 A 
BRANCH  51  65
ATOM     65  C   UNL A   1      49.467  27.204  25.953  1.00  0.00     0.023 A 
ATOM     66  C   UNL A   1      49.817  27.504  24.625  1.00  0.00     0.031 A 
ATOM     67  C   UNL A   1      50.413  26.545  26.756  1.00  0.00     0.131 A 
ATOM     68  C   UNL A   1      51.069  27.111  24.128  1.00  0.00     0.055 A 
ATOM     69  C   UNL A   1      51.679  26.212  26.275  1.00  0.00     0.041 A 
ATOM     70  F   UNL A   1      50.120  26.214  28.024  1.00  0.00    -0.206 F 
ATOM     71  C   UNL A   1      52.011  26.488  24.952  1.00  0.00     0.022 A 
BRANCH  68  72
ATOM     72  S   UNL A   1      51.422  27.351  22.366  1.00  0.00     0.124 S 
ATOM     73  O   UNL A   1      52.588  26.490  22.180  1.00  0.00    -0.237 OA
ATOM     74  O   UNL A   1      50.188  26.902  21.731  1.00  0.00    -0.237 OA
ATOM     75  O   UNL A   1      51.689  28.784  22.262  1.00  0.00    -0.744 OA
ENDBRANCH  68  72
ENDBRANCH  51  65
BRANCH  52  76
ATOM     76  C   UNL A   1      40.308  29.263  29.394  1.00  0.00     0.023 A 
ATOM     77  C   UNL A   1      40.031  29.239  30.770  1.00  0.00     0.031 A 
ATOM     78  C   UNL A   1      39.259  29.578  28.512  1.00  0.00     0.131 A 
ATOM     79  C   UNL A   1      38.729  29.502  31.224  1.00  0.00     0.055 A 
ATOM     80  C   UNL A   1      37.975  29.876  28.971  1.00  0.00     0.041 A 
ATOM     81  F   UNL A   1      39.475  29.614  27.188  1.00  0.00    -0.206 F 
ATOM     82  C   UNL A   1      37.703  29.833  30.335  1.00  0.00     0.022 A 
BRANCH  79  83
ATOM     83  S   UNL A   1      38.384  29.377  33.000  1.00  0.00     0.124 S 
ATOM     84  O   UNL A   1      38.117  30.769  33.348  1.00  0.00    -0.237 OA
ATOM     85  O   UNL A   1      37.236  28.476  33.025  1.00  0.00    -0.237 OA
ATOM     86  O   UNL A   1      39.619  28.821  33.548  1.00  0.00    -0.744 OA
ENDBRANCH  79  83
ENDBRANCH  52  76
BRANCH  64  87
ATOM     87  C   UNL A   1      46.210  32.956  28.867  1.00  0.00     0.023 A 
ATOM     88  C   UNL A   1      46.135  33.962  27.889  1.00  0.00     0.031 A 
ATOM     89  C   UNL A   1      46.575  33.325  30.174  1.00  0.00     0.131 A 
ATOM     90  C   UNL A   1      46.455  35.286  28.226  1.00  0.00     0.055 A 
ATOM     91  C   UNL A   1      46.845  34.650  30.515  1.00  0.00     0.041 A 
ATOM     92  F   UNL A   1      46.658  32.402  31.146  1.00  0.00    -0.206 F 
ATOM     93  C   UNL A   1      46.794  35.639  29.537  1.00  0.00     0.022 A 
BRANCH  90  94
ATOM     94  S   UNL A   1      46.469  36.543  26.919  1.00  0.00     0.124 S 
ATOM     95  O   UNL A   1      45.246  37.288  27.203  1.00  0.00    -0.237 OA
ATOM     96  O   UNL A   1      47.719  37.250  27.174  1.00  0.00    -0.237 OA
ATOM     97  O   UNL A   1      46.444  35.757  25.686  1.00  0.00    -0.744 OA
ENDBRANCH  90  94
ENDBRANCH  64  87
ENDBRANCH  38  39
ENDBRANCH  31  33
ENDBRANCH  30  31
ENDBRANCH  29  30
ENDBRANCH  28  29
ENDBRANCH  27  28
ENDBRANCH   1  27
TORSDOF 21
ENDMDL
