MODEL 1
REMARK VINA RESULT:      -8.8      0.000      0.000
REMARK SMILES C#Cc1cccc(NS(=O)(=O)c2cc(C)c(C(=O)OCCOCCOCCOC(=O)c3ccc(-c4c5nc(c(-c6cc(S(=O)(=O)[O-])ccc6F)c6ccc([nH]6)c(-c6cc(S(=O)(=O)[O-])ccc6F)c6nc(c(-c7cc(S(=O)(=O)[O-])ccc7F)c7ccc4[nH]7)C=C6)C=C5)cc3)s2)c1
REMARK SMILES IDX 23 1 22 2 21 3 20 4 19 5 17 6 18 7 16 8 12 9 13 10 94 11
REMARK SMILES IDX 14 12 15 13 9 14 10 15 11 16 8 17 7 19 3 20 4 21 95 22 5 23
REMARK SMILES IDX 6 24 2 25 1 26 24 27 25 28 26 29 27 30 28 31 29 32 30 33
REMARK SMILES IDX 31 34 32 35 93 36 33 37 92 38 34 39 35 40 36 41 86 42 37 43
REMARK SMILES IDX 91 44 85 45 87 46 38 47 90 48 84 49 83 50 39 52 71 53 51 54
REMARK SMILES IDX 70 55 52 56 55 57 69 58 88 59 53 60 54 61 68 63 89 64 56 65
REMARK SMILES IDX 40 66 41 67 49 68 42 69 48 70 50 71 47 72 43 73 44 74 45 75
REMARK SMILES IDX 46 76 72 77 73 78 81 79 74 80 80 81 82 82 79 83 75 84 76 85
REMARK SMILES IDX 77 86 78 87 57 88 58 89 66 90 59 91 65 92 67 93 64 94 60 95
REMARK SMILES IDX 61 96 62 97 63 98
REMARK H PARENT 8 18 87 51 55 62
REMARK Flexibility Score: inf
ROOT
ATOM      1  C   UNL A   1      32.815  36.439  30.030  1.00  0.00     0.188 C 
ENDROOT
BRANCH   1   2
ATOM      2  O   UNL A   1      33.734  36.090  29.015  1.00  0.00    -0.376 OA
BRANCH   2   3
ATOM      3  C   UNL A   1      34.202  34.763  28.869  1.00  0.00     0.202 C 
BRANCH   3   4
ATOM      4  C   UNL A   1      33.723  33.787  27.781  1.00  0.00     0.261 C 
BRANCH   4   5
ATOM      5  O   UNL A   1      33.395  32.460  28.188  1.00  0.00    -0.459 OA
BRANCH   5   6
ATOM      6  C   UNL A   1      34.193  31.457  27.718  1.00  0.00     0.348 C 
ATOM      7  O   UNL A   1      35.398  31.391  27.921  1.00  0.00    -0.245 OA
BRANCH   6   8
ATOM      8  C   UNL A   1      33.390  30.479  27.000  1.00  0.00     0.116 A 
ATOM      9  C   UNL A   1      32.554  28.336  26.058  1.00  0.00     0.141 A 
ATOM     10  C   UNL A   1      31.972  29.457  25.501  1.00  0.00     0.038 A 
ATOM     11  S   UNL A   1      33.887  28.821  27.024  1.00  0.00    -0.115 S 
ATOM     12  C   UNL A   1      32.175  30.602  26.339  1.00  0.00    -0.024 A 
ATOM     13  C   UNL A   1      31.189  31.722  26.399  1.00  0.00     0.046 C 
BRANCH   9  14
ATOM     14  S   UNL A   1      32.174  26.591  26.006  1.00  0.00     0.271 S 
ATOM     15  O   UNL A   1      31.616  26.385  24.687  1.00  0.00    -0.200 OA
ATOM     16  O   UNL A   1      31.421  26.332  27.213  1.00  0.00    -0.200 OA
BRANCH  14  17
ATOM     17  N   UNL A   1      33.541  25.604  26.120  1.00  0.00    -0.279 N 
ATOM     18  H   UNL A   1      34.171  25.794  26.851  1.00  0.00     0.180 HD
BRANCH  17  19
ATOM     19  C   UNL A   1      33.863  24.523  25.253  1.00  0.00     0.050 A 
ATOM     20  C   UNL A   1      33.945  22.122  24.914  1.00  0.00     0.026 A 
ATOM     21  C   UNL A   1      34.818  22.306  23.843  1.00  0.00     0.017 A 
ATOM     22  C   UNL A   1      33.489  23.229  25.640  1.00  0.00     0.044 A 
ATOM     23  C   UNL A   1      35.078  23.592  23.382  1.00  0.00     0.003 A 
ATOM     24  C   UNL A   1      34.526  24.694  24.038  1.00  0.00     0.027 A 
BRANCH  20  25
ATOM     25  C   UNL A   1      33.480  20.797  25.178  1.00  0.00    -0.070 C 
ATOM     26  C   UNL A   1      32.953  19.721  25.301  1.00  0.00     0.010 C 
ENDBRANCH  20  25
ENDBRANCH  17  19
ENDBRANCH  14  17
ENDBRANCH   9  14
ENDBRANCH   6   8
ENDBRANCH   5   6
ENDBRANCH   4   5
ENDBRANCH   3   4
ENDBRANCH   2   3
ENDBRANCH   1   2
BRANCH   1  27
ATOM     27  C   UNL A   1      33.338  36.799  31.435  1.00  0.00     0.188 C 
BRANCH  27  28
ATOM     28  O   UNL A   1      33.139  35.828  32.435  1.00  0.00    -0.376 OA
BRANCH  28  29
ATOM     29  C   UNL A   1      34.022  34.718  32.518  1.00  0.00     0.202 C 
BRANCH  29  30
ATOM     30  C   UNL A   1      35.570  34.761  32.479  1.00  0.00     0.261 C 
BRANCH  30  31
ATOM     31  O   UNL A   1      36.269  34.011  31.482  1.00  0.00    -0.460 OA
BRANCH  31  32
ATOM     32  C   UNL A   1      36.114  32.662  31.528  1.00  0.00     0.338 C 
ATOM     33  O   UNL A   1      35.093  32.041  31.291  1.00  0.00    -0.246 OA
BRANCH  32  34
ATOM     34  C   UNL A   1      37.438  32.035  31.730  1.00  0.00     0.060 A 
ATOM     35  C   UNL A   1      38.557  32.577  31.079  1.00  0.00     0.016 A 
ATOM     36  C   UNL A   1      37.575  30.910  32.544  1.00  0.00     0.016 A 
ATOM     37  C   UNL A   1      39.813  31.988  31.231  1.00  0.00     0.010 A 
ATOM     38  C   UNL A   1      38.831  30.305  32.673  1.00  0.00     0.010 A 
ATOM     39  C   UNL A   1      39.953  30.825  31.999  1.00  0.00    -0.014 A 
BRANCH  39  40
ATOM     40  C   UNL A   1      41.226  30.055  31.968  1.00  0.00     0.031 A 
ATOM     41  C   UNL A   1      42.285  30.373  32.988  1.00  0.00     0.074 A 
ATOM     42  C   UNL A   1      41.438  29.085  31.058  1.00  0.00     0.049 A 
ATOM     43  N   UNL A   1      43.501  29.904  33.103  1.00  0.00    -0.248 NA
ATOM     44  C   UNL A   1      41.923  31.366  34.012  1.00  0.00     0.031 C 
ATOM     45  C   UNL A   1      40.471  28.644  30.056  1.00  0.00     0.029 A 
ATOM     46  N   UNL A   1      42.545  28.304  30.826  1.00  0.00    -0.354 N 
ATOM     47  C   UNL A   1      44.054  30.552  34.203  1.00  0.00     0.074 A 
ATOM     48  C   UNL A   1      43.054  31.477  34.691  1.00  0.00     0.031 C 
ATOM     49  C   UNL A   1      41.030  27.675  29.310  1.00  0.00     0.029 A 
ATOM     50  C   UNL A   1      42.409  27.462  29.746  1.00  0.00     0.049 A 
ATOM     51  H   UNL A   1      43.357  28.343  31.381  1.00  0.00     0.167 HD
ATOM     52  C   UNL A   1      45.281  30.384  34.757  1.00  0.00     0.034 A 
ATOM     53  C   UNL A   1      43.304  26.640  29.158  1.00  0.00     0.034 A 
ATOM     54  C   UNL A   1      46.272  29.467  34.247  1.00  0.00     0.049 A 
ATOM     55  C   UNL A   1      44.703  26.548  29.725  1.00  0.00     0.074 A 
ATOM     56  C   UNL A   1      47.538  29.208  34.740  1.00  0.00     0.029 A 
ATOM     57  N   UNL A   1      46.119  28.672  33.118  1.00  0.00    -0.354 N 
ATOM     58  N   UNL A   1      45.217  27.166  30.766  1.00  0.00    -0.248 NA
ATOM     59  C   UNL A   1      45.640  25.647  29.042  1.00  0.00     0.031 C 
ATOM     60  C   UNL A   1      48.185  28.338  33.858  1.00  0.00     0.029 A 
ATOM     61  C   UNL A   1      47.285  27.961  32.874  1.00  0.00     0.049 A 
ATOM     62  H   UNL A   1      45.302  28.621  32.571  1.00  0.00     0.167 HD
ATOM     63  C   UNL A   1      46.523  26.692  30.883  1.00  0.00     0.074 A 
ATOM     64  C   UNL A   1      46.713  25.734  29.814  1.00  0.00     0.031 C 
ATOM     65  C   UNL A   1      47.474  27.012  31.799  1.00  0.00     0.034 A 
BRANCH  52  66
ATOM     66  C   UNL A   1      45.639  31.259  35.937  1.00  0.00     0.023 A 
ATOM     67  C   UNL A   1      45.107  31.033  37.219  1.00  0.00     0.031 A 
ATOM     68  C   UNL A   1      46.504  32.355  35.769  1.00  0.00     0.131 A 
ATOM     69  C   UNL A   1      45.382  31.935  38.259  1.00  0.00     0.055 A 
ATOM     70  C   UNL A   1      46.850  33.192  36.832  1.00  0.00     0.041 A 
ATOM     71  F   UNL A   1      47.022  32.639  34.565  1.00  0.00    -0.206 F 
ATOM     72  C   UNL A   1      46.273  32.995  38.083  1.00  0.00     0.022 A 
BRANCH  69  73
ATOM     73  S   UNL A   1      44.426  31.803  39.796  1.00  0.00     0.124 S 
ATOM     74  O   UNL A   1      45.231  30.854  40.563  1.00  0.00    -0.237 OA
ATOM     75  O   UNL A   1      44.419  33.177  40.283  1.00  0.00    -0.237 OA
ATOM     76  O   UNL A   1      43.132  31.290  39.352  1.00  0.00    -0.744 OA
ENDBRANCH  69  73
ENDBRANCH  52  66
BRANCH  53  77
ATOM     77  C   UNL A   1      42.931  25.868  27.935  1.00  0.00     0.023 A 
ATOM     78  C   UNL A   1      42.320  24.607  28.024  1.00  0.00     0.031 A 
ATOM     79  C   UNL A   1      43.239  26.358  26.652  1.00  0.00     0.131 A 
ATOM     80  C   UNL A   1      42.079  23.860  26.860  1.00  0.00     0.055 A 
ATOM     81  C   UNL A   1      42.934  25.641  25.493  1.00  0.00     0.041 A 
ATOM     82  F   UNL A   1      43.840  27.550  26.505  1.00  0.00    -0.206 F 
ATOM     83  C   UNL A   1      42.362  24.377  25.595  1.00  0.00     0.022 A 
BRANCH  80  84
ATOM     84  S   UNL A   1      41.494  22.150  27.027  1.00  0.00     0.124 S 
ATOM     85  O   UNL A   1      40.169  22.347  27.604  1.00  0.00    -0.237 OA
ATOM     86  O   UNL A   1      41.529  21.678  25.647  1.00  0.00    -0.237 OA
ATOM     87  O   UNL A   1      42.477  21.538  27.919  1.00  0.00    -0.744 OA
ENDBRANCH  80  84
ENDBRANCH  53  77
BRANCH  65  88
ATOM     88  C   UNL A   1      48.791  26.274  31.726  1.00  0.00     0.023 A 
ATOM     89  C   UNL A   1      49.037  25.102  32.465  1.00  0.00     0.031 A 
ATOM     90  C   UNL A   1      49.823  26.755  30.897  1.00  0.00     0.131 A 
ATOM     91  C   UNL A   1      50.299  24.489  32.406  1.00  0.00     0.055 A 
ATOM     92  C   UNL A   1      51.048  26.097  30.784  1.00  0.00     0.041 A 
ATOM     93  F   UNL A   1      49.653  27.874  30.173  1.00  0.00    -0.206 F 
ATOM     94  C   UNL A   1      51.297  24.965  31.552  1.00  0.00     0.022 A 
BRANCH  91  95
ATOM     95  S   UNL A   1      50.662  23.127  33.548  1.00  0.00     0.124 S 
ATOM     96  O   UNL A   1      51.513  23.780  34.537  1.00  0.00    -0.237 OA
ATOM     97  O   UNL A   1      49.332  22.742  34.009  1.00  0.00    -0.237 OA
ATOM     98  O   UNL A   1      51.334  22.141  32.704  1.00  0.00    -0.744 OA
ENDBRANCH  91  95
ENDBRANCH  65  88
ENDBRANCH  39  40
ENDBRANCH  32  34
ENDBRANCH  31  32
ENDBRANCH  30  31
ENDBRANCH  29  30
ENDBRANCH  28  29
ENDBRANCH  27  28
ENDBRANCH   1  27
TORSDOF 24
ENDMDL
MODEL 2
REMARK VINA RESULT:      -8.3      6.741     12.741
REMARK SMILES C#Cc1cccc(NS(=O)(=O)c2cc(C)c(C(=O)OCCOCCOCCOC(=O)c3ccc(-c4c5nc(c(-c6cc(S(=O)(=O)[O-])ccc6F)c6ccc([nH]6)c(-c6cc(S(=O)(=O)[O-])ccc6F)c6nc(c(-c7cc(S(=O)(=O)[O-])ccc7F)c7ccc4[nH]7)C=C6)C=C5)cc3)s2)c1
REMARK SMILES IDX 23 1 22 2 21 3 20 4 19 5 17 6 18 7 16 8 12 9 13 10 94 11
REMARK SMILES IDX 14 12 15 13 9 14 10 15 11 16 8 17 7 19 3 20 4 21 95 22 5 23
REMARK SMILES IDX 6 24 2 25 1 26 24 27 25 28 26 29 27 30 28 31 29 32 30 33
REMARK SMILES IDX 31 34 32 35 93 36 33 37 92 38 34 39 35 40 36 41 86 42 37 43
REMARK SMILES IDX 91 44 85 45 87 46 38 47 90 48 84 49 83 50 39 52 71 53 51 54
REMARK SMILES IDX 70 55 52 56 55 57 69 58 88 59 53 60 54 61 68 63 89 64 56 65
REMARK SMILES IDX 40 66 41 67 49 68 42 69 48 70 50 71 47 72 43 73 44 74 45 75
REMARK SMILES IDX 46 76 72 77 73 78 81 79 74 80 80 81 82 82 79 83 75 84 76 85
REMARK SMILES IDX 77 86 78 87 57 88 58 89 66 90 59 91 65 92 67 93 64 94 60 95
REMARK SMILES IDX 61 96 62 97 63 98
REMARK H PARENT 8 18 87 51 55 62
REMARK Flexibility Score: inf
ROOT
ATOM      1  C   UNL A   1      42.915  36.363  36.171  1.00  0.00     0.188 C 
ENDROOT
BRANCH   1   2
ATOM      2  O   UNL A   1      42.878  37.618  35.524  1.00  0.00    -0.376 OA
BRANCH   2   3
ATOM      3  C   UNL A   1      44.016  38.142  34.866  1.00  0.00     0.202 C 
BRANCH   3   4
ATOM      4  C   UNL A   1      44.034  39.468  34.087  1.00  0.00     0.261 C 
BRANCH   4   5
ATOM      5  O   UNL A   1      43.290  39.526  32.872  1.00  0.00    -0.459 OA
BRANCH   5   6
ATOM      6  C   UNL A   1      42.749  40.734  32.538  1.00  0.00     0.348 C 
ATOM      7  O   UNL A   1      41.921  41.323  33.220  1.00  0.00    -0.245 OA
BRANCH   6   8
ATOM      8  C   UNL A   1      43.341  41.218  31.300  1.00  0.00     0.116 A 
ATOM      9  C   UNL A   1      44.514  42.644  29.637  1.00  0.00     0.141 A 
ATOM     10  C   UNL A   1      43.826  41.586  29.079  1.00  0.00     0.038 A 
ATOM     11  S   UNL A   1      44.081  42.783  31.292  1.00  0.00    -0.115 S 
ATOM     12  C   UNL A   1      43.528  40.597  30.073  1.00  0.00    -0.024 A 
ATOM     13  C   UNL A   1      43.423  39.146  29.735  1.00  0.00     0.046 C 
BRANCH   9  14
ATOM     14  S   UNL A   1      45.732  43.792  29.012  1.00  0.00     0.271 S 
ATOM     15  O   UNL A   1      46.902  43.554  29.831  1.00  0.00    -0.200 OA
ATOM     16  O   UNL A   1      45.062  45.073  28.977  1.00  0.00    -0.200 OA
BRANCH  14  17
ATOM     17  N   UNL A   1      46.183  43.488  27.413  1.00  0.00    -0.279 N 
ATOM     18  H   UNL A   1      47.042  43.029  27.268  1.00  0.00     0.180 HD
BRANCH  17  19
ATOM     19  C   UNL A   1      45.433  43.835  26.254  1.00  0.00     0.050 A 
ATOM     20  C   UNL A   1      43.824  43.149  24.573  1.00  0.00     0.026 A 
ATOM     21  C   UNL A   1      44.214  44.218  23.769  1.00  0.00     0.017 A 
ATOM     22  C   UNL A   1      44.454  42.938  25.806  1.00  0.00     0.044 A 
ATOM     23  C   UNL A   1      45.086  45.176  24.274  1.00  0.00     0.003 A 
ATOM     24  C   UNL A   1      45.625  45.025  25.553  1.00  0.00     0.027 A 
BRANCH  20  25
ATOM     25  C   UNL A   1      42.723  42.350  24.137  1.00  0.00    -0.070 C 
ATOM     26  C   UNL A   1      41.698  41.775  23.870  1.00  0.00     0.010 C 
ENDBRANCH  20  25
ENDBRANCH  17  19
ENDBRANCH  14  17
ENDBRANCH   9  14
ENDBRANCH   6   8
ENDBRANCH   5   6
ENDBRANCH   4   5
ENDBRANCH   3   4
ENDBRANCH   2   3
ENDBRANCH   1   2
BRANCH   1  27
ATOM     27  C   UNL A   1      42.628  36.281  37.684  1.00  0.00     0.188 C 
BRANCH  27  28
ATOM     28  O   UNL A   1      41.676  37.192  38.182  1.00  0.00    -0.376 OA
BRANCH  28  29
ATOM     29  C   UNL A   1      40.811  36.793  39.236  1.00  0.00     0.202 C 
BRANCH  29  30
ATOM     30  C   UNL A   1      40.155  35.402  39.420  1.00  0.00     0.261 C 
BRANCH  30  31
ATOM     31  O   UNL A   1      38.886  35.138  38.816  1.00  0.00    -0.460 OA
BRANCH  31  32
ATOM     32  C   UNL A   1      38.446  33.855  38.882  1.00  0.00     0.338 C 
ATOM     33  O   UNL A   1      37.787  33.359  39.778  1.00  0.00    -0.246 OA
BRANCH  32  34
ATOM     34  C   UNL A   1      38.732  33.184  37.594  1.00  0.00     0.060 A 
ATOM     35  C   UNL A   1      38.249  31.885  37.380  1.00  0.00     0.016 A 
ATOM     36  C   UNL A   1      39.485  33.825  36.611  1.00  0.00     0.016 A 
ATOM     37  C   UNL A   1      38.528  31.219  36.185  1.00  0.00     0.010 A 
ATOM     38  C   UNL A   1      39.787  33.145  35.425  1.00  0.00     0.010 A 
ATOM     39  C   UNL A   1      39.331  31.829  35.214  1.00  0.00    -0.014 A 
BRANCH  39  40
ATOM     40  C   UNL A   1      39.835  31.043  34.056  1.00  0.00     0.031 A 
ATOM     41  C   UNL A   1      39.046  31.061  32.775  1.00  0.00     0.074 A 
ATOM     42  C   UNL A   1      40.975  30.332  34.133  1.00  0.00     0.049 A 
ATOM     43  N   UNL A   1      39.234  30.388  31.669  1.00  0.00    -0.248 NA
ATOM     44  C   UNL A   1      37.876  31.953  32.746  1.00  0.00     0.031 C 
ATOM     45  C   UNL A   1      41.859  30.280  35.296  1.00  0.00     0.029 A 
ATOM     46  N   UNL A   1      41.580  29.508  33.213  1.00  0.00    -0.354 N 
ATOM     47  C   UNL A   1      38.202  30.765  30.816  1.00  0.00     0.074 A 
ATOM     48  C   UNL A   1      37.369  31.692  31.551  1.00  0.00     0.031 C 
ATOM     49  C   UNL A   1      42.889  29.460  35.022  1.00  0.00     0.029 A 
ATOM     50  C   UNL A   1      42.713  28.889  33.687  1.00  0.00     0.049 A 
ATOM     51  H   UNL A   1      41.234  29.375  32.301  1.00  0.00     0.167 HD
ATOM     52  C   UNL A   1      37.976  30.379  29.535  1.00  0.00     0.034 A 
ATOM     53  C   UNL A   1      43.499  27.947  33.123  1.00  0.00     0.034 A 
ATOM     54  C   UNL A   1      38.811  29.441  28.822  1.00  0.00     0.049 A 
ATOM     55  C   UNL A   1      43.167  27.448  31.735  1.00  0.00     0.074 A 
ATOM     56  C   UNL A   1      38.682  28.992  27.520  1.00  0.00     0.029 A 
ATOM     57  N   UNL A   1      39.919  28.792  29.355  1.00  0.00    -0.354 N 
ATOM     58  N   UNL A   1      42.188  27.810  30.936  1.00  0.00    -0.248 NA
ATOM     59  C   UNL A   1      44.047  26.416  31.171  1.00  0.00     0.031 C 
ATOM     60  C   UNL A   1      39.644  28.002  27.298  1.00  0.00     0.029 A 
ATOM     61  C   UNL A   1      40.449  27.912  28.422  1.00  0.00     0.049 A 
ATOM     62  H   UNL A   1      40.274  28.934  30.262  1.00  0.00     0.167 HD
ATOM     63  C   UNL A   1      42.365  27.080  29.761  1.00  0.00     0.074 A 
ATOM     64  C   UNL A   1      43.545  26.265  29.955  1.00  0.00     0.031 C 
ATOM     65  C   UNL A   1      41.623  27.092  28.623  1.00  0.00     0.034 A 
BRANCH  52  66
ATOM     66  C   UNL A   1      36.744  30.921  28.850  1.00  0.00     0.023 A 
ATOM     67  C   UNL A   1      35.700  30.083  28.421  1.00  0.00     0.031 A 
ATOM     68  C   UNL A   1      36.625  32.299  28.594  1.00  0.00     0.131 A 
ATOM     69  C   UNL A   1      34.626  30.618  27.694  1.00  0.00     0.055 A 
ATOM     70  C   UNL A   1      35.507  32.838  27.954  1.00  0.00     0.041 A 
ATOM     71  F   UNL A   1      37.600  33.149  28.953  1.00  0.00    -0.206 F 
ATOM     72  C   UNL A   1      34.507  31.994  27.483  1.00  0.00     0.022 A 
BRANCH  69  73
ATOM     73  S   UNL A   1      33.476  29.476  26.878  1.00  0.00     0.124 S 
ATOM     74  O   UNL A   1      34.385  28.675  26.061  1.00  0.00    -0.237 OA
ATOM     75  O   UNL A   1      32.858  28.789  28.007  1.00  0.00    -0.237 OA
ATOM     76  O   UNL A   1      32.591  30.360  26.124  1.00  0.00    -0.744 OA
ENDBRANCH  69  73
ENDBRANCH  52  66
BRANCH  53  77
ATOM     77  C   UNL A   1      44.651  27.371  33.880  1.00  0.00     0.023 A 
ATOM     78  C   UNL A   1      44.506  26.218  34.666  1.00  0.00     0.031 A 
ATOM     79  C   UNL A   1      45.906  28.008  33.875  1.00  0.00     0.131 A 
ATOM     80  C   UNL A   1      45.579  25.763  35.449  1.00  0.00     0.055 A 
ATOM     81  C   UNL A   1      46.990  27.512  34.601  1.00  0.00     0.041 A 
ATOM     82  F   UNL A   1      46.099  29.126  33.155  1.00  0.00    -0.206 F 
ATOM     83  C   UNL A   1      46.826  26.390  35.405  1.00  0.00     0.022 A 
BRANCH  80  84
ATOM     84  S   UNL A   1      45.292  24.404  36.617  1.00  0.00     0.124 S 
ATOM     85  O   UNL A   1      44.301  23.607  35.905  1.00  0.00    -0.237 OA
ATOM     86  O   UNL A   1      46.622  23.817  36.737  1.00  0.00    -0.237 OA
ATOM     87  O   UNL A   1      44.802  25.083  37.816  1.00  0.00    -0.744 OA
ENDBRANCH  80  84
ENDBRANCH  53  77
BRANCH  65  88
ATOM     88  C   UNL A   1      42.102  26.242  27.468  1.00  0.00     0.023 A 
ATOM     89  C   UNL A   1      41.744  24.889  27.332  1.00  0.00     0.031 A 
ATOM     90  C   UNL A   1      42.936  26.802  26.481  1.00  0.00     0.131 A 
ATOM     91  C   UNL A   1      42.264  24.129  26.273  1.00  0.00     0.055 A 
ATOM     92  C   UNL A   1      43.387  26.061  25.388  1.00  0.00     0.041 A 
ATOM     93  F   UNL A   1      43.321  28.086  26.558  1.00  0.00    -0.206 F 
ATOM     94  C   UNL A   1      43.063  24.713  25.286  1.00  0.00     0.022 A 
BRANCH  91  95
ATOM     95  S   UNL A   1      41.978  22.337  26.260  1.00  0.00     0.124 S 
ATOM     96  O   UNL A   1      42.748  21.917  25.094  1.00  0.00    -0.237 OA
ATOM     97  O   UNL A   1      42.510  21.927  27.556  1.00  0.00    -0.237 OA
ATOM     98  O   UNL A   1      40.528  22.221  26.121  1.00  0.00    -0.744 OA
ENDBRANCH  91  95
ENDBRANCH  65  88
ENDBRANCH  39  40
ENDBRANCH  32  34
ENDBRANCH  31  32
ENDBRANCH  30  31
ENDBRANCH  29  30
ENDBRANCH  28  29
ENDBRANCH  27  28
ENDBRANCH   1  27
TORSDOF 24
ENDMDL
MODEL 3
REMARK VINA RESULT:      -8.3      5.323     12.651
REMARK SMILES C#Cc1cccc(NS(=O)(=O)c2cc(C)c(C(=O)OCCOCCOCCOC(=O)c3ccc(-c4c5nc(c(-c6cc(S(=O)(=O)[O-])ccc6F)c6ccc([nH]6)c(-c6cc(S(=O)(=O)[O-])ccc6F)c6nc(c(-c7cc(S(=O)(=O)[O-])ccc7F)c7ccc4[nH]7)C=C6)C=C5)cc3)s2)c1
REMARK SMILES IDX 23 1 22 2 21 3 20 4 19 5 17 6 18 7 16 8 12 9 13 10 94 11
REMARK SMILES IDX 14 12 15 13 9 14 10 15 11 16 8 17 7 19 3 20 4 21 95 22 5 23
REMARK SMILES IDX 6 24 2 25 1 26 24 27 25 28 26 29 27 30 28 31 29 32 30 33
REMARK SMILES IDX 31 34 32 35 93 36 33 37 92 38 34 39 35 40 36 41 86 42 37 43
REMARK SMILES IDX 91 44 85 45 87 46 38 47 90 48 84 49 83 50 39 52 71 53 51 54
REMARK SMILES IDX 70 55 52 56 55 57 69 58 88 59 53 60 54 61 68 63 89 64 56 65
REMARK SMILES IDX 40 66 41 67 49 68 42 69 48 70 50 71 47 72 43 73 44 74 45 75
REMARK SMILES IDX 46 76 72 77 73 78 81 79 74 80 80 81 82 82 79 83 75 84 76 85
REMARK SMILES IDX 77 86 78 87 57 88 58 89 66 90 59 91 65 92 67 93 64 94 60 95
REMARK SMILES IDX 61 96 62 97 63 98
REMARK H PARENT 8 18 87 51 55 62
REMARK Flexibility Score: inf
ROOT
ATOM      1  C   UNL A   1      49.028  31.626  29.576  1.00  0.00     0.188 C 
ENDROOT
BRANCH   1   2
ATOM      2  O   UNL A   1      49.183  32.469  30.700  1.00  0.00    -0.376 OA
BRANCH   2   3
ATOM      3  C   UNL A   1      48.543  32.182  31.929  1.00  0.00     0.202 C 
BRANCH   3   4
ATOM      4  C   UNL A   1      47.247  31.365  32.063  1.00  0.00     0.261 C 
BRANCH   4   5
ATOM      5  O   UNL A   1      46.733  30.752  30.882  1.00  0.00    -0.459 OA
BRANCH   5   6
ATOM      6  C   UNL A   1      46.440  29.421  30.958  1.00  0.00     0.348 C 
ATOM      7  O   UNL A   1      47.285  28.535  30.972  1.00  0.00    -0.245 OA
BRANCH   6   8
ATOM      8  C   UNL A   1      45.002  29.234  31.070  1.00  0.00     0.116 A 
ATOM      9  C   UNL A   1      42.697  29.095  31.990  1.00  0.00     0.141 A 
ATOM     10  C   UNL A   1      42.831  28.543  30.732  1.00  0.00     0.038 A 
ATOM     11  S   UNL A   1      44.257  29.437  32.619  1.00  0.00    -0.115 S 
ATOM     12  C   UNL A   1      44.033  29.006  30.102  1.00  0.00    -0.024 A 
ATOM     13  C   UNL A   1      44.139  29.155  28.620  1.00  0.00     0.046 C 
BRANCH   9  14
ATOM     14  S   UNL A   1      41.293  29.540  33.002  1.00  0.00     0.271 S 
ATOM     15  O   UNL A   1      41.875  30.193  34.155  1.00  0.00    -0.200 OA
ATOM     16  O   UNL A   1      40.510  28.329  33.114  1.00  0.00    -0.200 OA
BRANCH  14  17
ATOM     17  N   UNL A   1      40.266  30.662  32.267  1.00  0.00    -0.279 N 
ATOM     18  H   UNL A   1      40.273  31.579  32.628  1.00  0.00     0.180 HD
BRANCH  17  19
ATOM     19  C   UNL A   1      39.391  30.403  31.176  1.00  0.00     0.050 A 
ATOM     20  C   UNL A   1      39.155  29.886  28.817  1.00  0.00     0.026 A 
ATOM     21  C   UNL A   1      37.819  30.281  28.868  1.00  0.00     0.017 A 
ATOM     22  C   UNL A   1      39.952  29.974  29.965  1.00  0.00     0.044 A 
ATOM     23  C   UNL A   1      37.237  30.577  30.095  1.00  0.00     0.003 A 
ATOM     24  C   UNL A   1      38.008  30.551  31.259  1.00  0.00     0.027 A 
BRANCH  20  25
ATOM     25  C   UNL A   1      39.639  29.320  27.598  1.00  0.00    -0.070 C 
ATOM     26  C   UNL A   1      40.194  28.815  26.655  1.00  0.00     0.010 C 
ENDBRANCH  20  25
ENDBRANCH  17  19
ENDBRANCH  14  17
ENDBRANCH   9  14
ENDBRANCH   6   8
ENDBRANCH   5   6
ENDBRANCH   4   5
ENDBRANCH   3   4
ENDBRANCH   2   3
ENDBRANCH   1   2
BRANCH   1  27
ATOM     27  C   UNL A   1      48.847  32.254  28.179  1.00  0.00     0.188 C 
BRANCH  27  28
ATOM     28  O   UNL A   1      49.043  33.646  28.097  1.00  0.00    -0.376 OA
BRANCH  28  29
ATOM     29  C   UNL A   1      48.111  34.442  27.380  1.00  0.00     0.202 C 
BRANCH  29  30
ATOM     30  C   UNL A   1      47.222  33.987  26.196  1.00  0.00     0.261 C 
BRANCH  30  31
ATOM     31  O   UNL A   1      45.806  33.894  26.374  1.00  0.00    -0.460 OA
BRANCH  31  32
ATOM     32  C   UNL A   1      45.170  35.040  26.730  1.00  0.00     0.338 C 
ATOM     33  O   UNL A   1      45.198  36.101  26.133  1.00  0.00    -0.246 OA
BRANCH  32  34
ATOM     34  C   UNL A   1      44.271  34.755  27.870  1.00  0.00     0.060 A 
ATOM     35  C   UNL A   1      43.875  35.809  28.707  1.00  0.00     0.016 A 
ATOM     36  C   UNL A   1      43.833  33.455  28.122  1.00  0.00     0.016 A 
ATOM     37  C   UNL A   1      43.050  35.563  29.806  1.00  0.00     0.010 A 
ATOM     38  C   UNL A   1      43.029  33.206  29.240  1.00  0.00     0.010 A 
ATOM     39  C   UNL A   1      42.651  34.254  30.104  1.00  0.00    -0.014 A 
BRANCH  39  40
ATOM     40  C   UNL A   1      41.984  33.950  31.397  1.00  0.00     0.031 A 
ATOM     41  C   UNL A   1      40.482  34.018  31.467  1.00  0.00     0.074 A 
ATOM     42  C   UNL A   1      42.692  33.609  32.490  1.00  0.00     0.049 A 
ATOM     43  N   UNL A   1      39.687  33.886  32.498  1.00  0.00    -0.248 NA
ATOM     44  C   UNL A   1      39.785  34.286  30.199  1.00  0.00     0.031 C 
ATOM     45  C   UNL A   1      44.144  33.451  32.537  1.00  0.00     0.029 A 
ATOM     46  N   UNL A   1      42.282  33.345  33.775  1.00  0.00    -0.354 N 
ATOM     47  C   UNL A   1      38.398  34.065  32.007  1.00  0.00     0.074 A 
ATOM     48  C   UNL A   1      38.524  34.358  30.595  1.00  0.00     0.031 C 
ATOM     49  C   UNL A   1      44.505  33.125  33.791  1.00  0.00     0.029 A 
ATOM     50  C   UNL A   1      43.319  33.101  34.646  1.00  0.00     0.049 A 
ATOM     51  H   UNL A   1      41.336  33.331  34.046  1.00  0.00     0.167 HD
ATOM     52  C   UNL A   1      37.218  33.984  32.672  1.00  0.00     0.034 A 
ATOM     53  C   UNL A   1      43.315  32.914  35.983  1.00  0.00     0.034 A 
ATOM     54  C   UNL A   1      37.113  33.705  34.084  1.00  0.00     0.049 A 
ATOM     55  C   UNL A   1      41.998  32.937  36.725  1.00  0.00     0.074 A 
ATOM     56  C   UNL A   1      35.969  33.586  34.854  1.00  0.00     0.029 A 
ATOM     57  N   UNL A   1      38.189  33.519  34.945  1.00  0.00    -0.354 N 
ATOM     58  N   UNL A   1      40.784  33.108  36.252  1.00  0.00    -0.248 NA
ATOM     59  C   UNL A   1      42.051  32.737  38.180  1.00  0.00     0.031 C 
ATOM     60  C   UNL A   1      36.352  33.430  36.190  1.00  0.00     0.029 A 
ATOM     61  C   UNL A   1      37.734  33.336  36.243  1.00  0.00     0.049 A 
ATOM     62  H   UNL A   1      39.134  33.519  34.673  1.00  0.00     0.167 HD
ATOM     63  C   UNL A   1      39.928  32.993  37.348  1.00  0.00     0.074 A 
ATOM     64  C   UNL A   1      40.765  32.731  38.500  1.00  0.00     0.031 C 
ATOM     65  C   UNL A   1      38.574  33.084  37.393  1.00  0.00     0.034 A 
BRANCH  52  66
ATOM     66  C   UNL A   1      35.956  34.266  31.891  1.00  0.00     0.023 A 
ATOM     67  C   UNL A   1      35.610  33.529  30.744  1.00  0.00     0.031 A 
ATOM     68  C   UNL A   1      35.099  35.310  32.283  1.00  0.00     0.131 A 
ATOM     69  C   UNL A   1      34.485  33.897  29.989  1.00  0.00     0.055 A 
ATOM     70  C   UNL A   1      33.930  35.609  31.581  1.00  0.00     0.041 A 
ATOM     71  F   UNL A   1      35.388  36.068  33.352  1.00  0.00    -0.206 F 
ATOM     72  C   UNL A   1      33.626  34.912  30.416  1.00  0.00     0.022 A 
BRANCH  69  73
ATOM     73  S   UNL A   1      34.256  33.146  28.354  1.00  0.00     0.124 S 
ATOM     74  O   UNL A   1      34.233  31.722  28.683  1.00  0.00    -0.237 OA
ATOM     75  O   UNL A   1      32.990  33.721  27.915  1.00  0.00    -0.237 OA
ATOM     76  O   UNL A   1      35.433  33.583  27.607  1.00  0.00    -0.744 OA
ENDBRANCH  69  73
ENDBRANCH  52  66
BRANCH  53  77
ATOM     77  C   UNL A   1      44.600  32.735  36.725  1.00  0.00     0.023 A 
ATOM     78  C   UNL A   1      45.131  31.458  36.967  1.00  0.00     0.031 A 
ATOM     79  C   UNL A   1      45.284  33.842  37.259  1.00  0.00     0.131 A 
ATOM     80  C   UNL A   1      46.282  31.316  37.759  1.00  0.00     0.055 A 
ATOM     81  C   UNL A   1      46.467  33.701  37.987  1.00  0.00     0.041 A 
ATOM     82  F   UNL A   1      44.812  35.087  37.076  1.00  0.00    -0.206 F 
ATOM     83  C   UNL A   1      46.965  32.430  38.252  1.00  0.00     0.022 A 
BRANCH  80  84
ATOM     84  S   UNL A   1      46.814  29.647  38.233  1.00  0.00     0.124 S 
ATOM     85  O   UNL A   1      45.721  29.223  39.099  1.00  0.00    -0.237 OA
ATOM     86  O   UNL A   1      46.906  28.977  36.940  1.00  0.00    -0.237 OA
ATOM     87  O   UNL A   1      48.091  29.875  38.907  1.00  0.00    -0.744 OA
ENDBRANCH  80  84
ENDBRANCH  53  77
BRANCH  65  88
ATOM     88  C   UNL A   1      37.900  32.837  38.724  1.00  0.00     0.023 A 
ATOM     89  C   UNL A   1      37.938  33.777  39.770  1.00  0.00     0.031 A 
ATOM     90  C   UNL A   1      37.205  31.634  38.948  1.00  0.00     0.131 A 
ATOM     91  C   UNL A   1      37.346  33.473  41.006  1.00  0.00     0.055 A 
ATOM     92  C   UNL A   1      36.553  31.370  40.153  1.00  0.00     0.041 A 
ATOM     93  F   UNL A   1      37.140  30.693  37.992  1.00  0.00    -0.206 F 
ATOM     94  C   UNL A   1      36.633  32.286  41.197  1.00  0.00     0.022 A 
BRANCH  91  95
ATOM     95  S   UNL A   1      37.618  34.597  42.405  1.00  0.00     0.124 S 
ATOM     96  O   UNL A   1      36.320  34.569  43.072  1.00  0.00    -0.237 OA
ATOM     97  O   UNL A   1      38.714  33.950  43.118  1.00  0.00    -0.237 OA
ATOM     98  O   UNL A   1      37.959  35.866  41.764  1.00  0.00    -0.744 OA
ENDBRANCH  91  95
ENDBRANCH  65  88
ENDBRANCH  39  40
ENDBRANCH  32  34
ENDBRANCH  31  32
ENDBRANCH  30  31
ENDBRANCH  29  30
ENDBRANCH  28  29
ENDBRANCH  27  28
ENDBRANCH   1  27
TORSDOF 24
ENDMDL
