MODEL 1
REMARK VINA RESULT:     -11.5      0.000      0.000
REMARK SMILES CCOC(=O)c1c(NC(=O)[C@@H]2[C@@H](C(=O)OCCOCCOCCOC(=O)c3ccc(-c4c5nc(c(-c6cc(S(=O)(=O)[O-])ccc6F)c6ccc([nH]6)c(-c6cc(S(=O)(=O)[O-])ccc6F)c6nc(c(-c7cc(S(=O)(=O)[O-])ccc7F)c7ccc4[nH]7)C=C6)C=C5)cc3)[C@@H]3C=C[C@H]2CC3)sc2c1CCC2
REMARK SMILES IDX 19 1 18 2 17 3 16 4 15 5 13 6 14 7 12 8 11 9 93 10 90 11
REMARK SMILES IDX 92 12 94 13 91 14 95 15 9 16 8 17 10 19 7 20 6 21 98 22
REMARK SMILES IDX 96 23 97 24 99 25 101 26 100 27 4 28 5 29 3 30 2 31 1 32
REMARK SMILES IDX 20 33 21 34 22 35 23 36 24 37 25 38 26 39 27 40 28 41 89 42
REMARK SMILES IDX 29 43 88 44 30 45 31 46 32 47 82 48 33 49 87 50 81 51 83 52
REMARK SMILES IDX 34 53 86 54 80 55 79 56 35 58 67 59 47 60 66 61 48 62 51 63
REMARK SMILES IDX 65 64 84 65 49 66 50 67 64 69 85 70 52 71 36 72 37 73 45 74
REMARK SMILES IDX 38 75 44 76 46 77 43 78 39 79 40 80 41 81 42 82 68 83 69 84
REMARK SMILES IDX 77 85 70 86 76 87 78 88 75 89 71 90 72 91 73 92 74 93 53 94
REMARK SMILES IDX 54 95 62 96 55 97 61 98 63 99 60 100 56 101 57 102 58 103
REMARK SMILES IDX 59 104
REMARK H PARENT 8 18 83 57 51 68
REMARK Flexibility Score: inf
ROOT
ATOM      1  C   UNL A   1      40.402  21.545  27.199  1.00  0.00     0.188 C 
ENDROOT
BRANCH   1   2
ATOM      2  O   UNL A   1      39.650  21.355  26.005  1.00  0.00    -0.376 OA
BRANCH   2   3
ATOM      3  C   UNL A   1      38.497  22.135  25.763  1.00  0.00     0.202 C 
BRANCH   3   4
ATOM      4  C   UNL A   1      37.347  21.495  24.964  1.00  0.00     0.261 C 
BRANCH   4   5
ATOM      5  O   UNL A   1      36.769  22.249  23.886  1.00  0.00    -0.463 OA
BRANCH   5   6
ATOM      6  C   UNL A   1      35.923  23.251  24.240  1.00  0.00     0.310 C 
ATOM      7  O   UNL A   1      36.193  24.095  25.083  1.00  0.00    -0.252 OA
BRANCH   6   8
ATOM      8  C   UNL A   1      34.583  23.133  23.511  1.00  0.00     0.119 C 
ATOM      9  C   UNL A   1      33.577  24.355  23.773  1.00  0.00     0.100 C 
ATOM     10  C   UNL A   1      32.382  23.737  24.545  1.00  0.00     0.025 C 
ATOM     11  C   UNL A   1      33.908  21.774  23.915  1.00  0.00     0.026 C 
ATOM     12  C   UNL A   1      31.726  22.729  23.635  1.00  0.00    -0.027 C 
ATOM     13  C   UNL A   1      32.927  23.049  25.822  1.00  0.00     0.009 C 
ATOM     14  C   UNL A   1      32.536  21.729  23.261  1.00  0.00    -0.027 C 
ATOM     15  C   UNL A   1      33.605  21.731  25.433  1.00  0.00     0.009 C 
BRANCH   9  16
ATOM     16  C   UNL A   1      33.285  25.101  22.428  1.00  0.00     0.229 C 
ATOM     17  N   UNL A   1      32.891  26.403  22.262  1.00  0.00    -0.317 N 
ATOM     18  H   UNL A   1      32.779  26.683  21.326  1.00  0.00     0.170 HD
ATOM     19  O   UNL A   1      33.429  24.477  21.363  1.00  0.00    -0.274 OA
BRANCH  17  20
ATOM     20  C   UNL A   1      32.627  27.382  23.189  1.00  0.00     0.110 A 
ATOM     21  C   UNL A   1      31.473  27.612  23.939  1.00  0.00     0.098 A 
ATOM     22  C   UNL A   1      31.902  28.291  25.115  1.00  0.00    -0.017 A 
ATOM     23  S   UNL A   1      33.717  28.707  23.390  1.00  0.00    -0.122 S 
ATOM     24  C   UNL A   1      33.125  28.875  24.952  1.00  0.00     0.011 A 
ATOM     25  C   UNL A   1      31.417  28.419  26.510  1.00  0.00     0.038 C 
ATOM     26  C   UNL A   1      33.717  29.424  26.186  1.00  0.00     0.047 C 
ATOM     27  C   UNL A   1      32.530  29.280  27.191  1.00  0.00     0.010 C 
BRANCH  21  28
ATOM     28  C   UNL A   1      30.147  27.067  23.688  1.00  0.00     0.341 C 
ATOM     29  O   UNL A   1      29.750  25.996  24.122  1.00  0.00    -0.246 OA
BRANCH  28  30
ATOM     30  O   UNL A   1      29.457  27.871  22.826  1.00  0.00    -0.462 OA
BRANCH  30  31
ATOM     31  C   UNL A   1      29.358  29.270  23.133  1.00  0.00     0.230 C 
ATOM     32  C   UNL A   1      28.084  29.886  22.578  1.00  0.00     0.049 C 
ENDBRANCH  30  31
ENDBRANCH  28  30
ENDBRANCH  21  28
ENDBRANCH  17  20
ENDBRANCH   9  16
ENDBRANCH   6   8
ENDBRANCH   5   6
ENDBRANCH   4   5
ENDBRANCH   3   4
ENDBRANCH   2   3
ENDBRANCH   1   2
BRANCH   1  33
ATOM     33  C   UNL A   1      41.890  21.159  27.305  1.00  0.00     0.188 C 
BRANCH  33  34
ATOM     34  O   UNL A   1      42.096  19.751  27.365  1.00  0.00    -0.376 OA
BRANCH  34  35
ATOM     35  C   UNL A   1      42.202  19.094  26.113  1.00  0.00     0.202 C 
BRANCH  35  36
ATOM     36  C   UNL A   1      43.616  18.636  25.773  1.00  0.00     0.261 C 
BRANCH  36  37
ATOM     37  O   UNL A   1      44.560  19.687  25.605  1.00  0.00    -0.460 OA
BRANCH  37  38
ATOM     38  C   UNL A   1      44.607  20.251  24.379  1.00  0.00     0.338 C 
ATOM     39  O   UNL A   1      44.523  19.670  23.313  1.00  0.00    -0.246 OA
BRANCH  38  40
ATOM     40  C   UNL A   1      44.861  21.695  24.545  1.00  0.00     0.060 A 
ATOM     41  C   UNL A   1      45.939  22.066  25.349  1.00  0.00     0.016 A 
ATOM     42  C   UNL A   1      43.908  22.637  24.118  1.00  0.00     0.016 A 
ATOM     43  C   UNL A   1      45.939  23.330  25.904  1.00  0.00     0.010 A 
ATOM     44  C   UNL A   1      43.902  23.896  24.681  1.00  0.00     0.010 A 
ATOM     45  C   UNL A   1      44.865  24.189  25.642  1.00  0.00    -0.014 A 
BRANCH  45  46
ATOM     46  C   UNL A   1      44.707  25.325  26.528  1.00  0.00     0.031 A 
ATOM     47  C   UNL A   1      45.760  26.350  26.504  1.00  0.00     0.074 A 
ATOM     48  C   UNL A   1      43.641  25.448  27.342  1.00  0.00     0.049 A 
ATOM     49  N   UNL A   1      46.601  26.628  27.442  1.00  0.00    -0.248 NA
ATOM     50  C   UNL A   1      45.941  27.121  25.270  1.00  0.00     0.031 C 
ATOM     51  C   UNL A   1      42.386  24.695  27.295  1.00  0.00     0.029 A 
ATOM     52  N   UNL A   1      43.436  26.354  28.339  1.00  0.00    -0.354 N 
ATOM     53  C   UNL A   1      47.293  27.749  27.007  1.00  0.00     0.074 A 
ATOM     54  C   UNL A   1      46.947  27.924  25.618  1.00  0.00     0.031 C 
ATOM     55  C   UNL A   1      41.477  25.311  28.081  1.00  0.00     0.029 A 
ATOM     56  C   UNL A   1      42.125  26.410  28.780  1.00  0.00     0.049 A 
ATOM     57  H   UNL A   1      44.153  26.916  28.711  1.00  0.00     0.167 HD
ATOM     58  C   UNL A   1      47.949  28.559  27.880  1.00  0.00     0.034 A 
ATOM     59  C   UNL A   1      41.585  27.342  29.602  1.00  0.00     0.034 A 
ATOM     60  C   UNL A   1      48.181  27.910  29.147  1.00  0.00     0.049 A 
ATOM     61  C   UNL A   1      42.683  27.927  30.408  1.00  0.00     0.074 A 
ATOM     62  C   UNL A   1      48.820  26.746  29.536  1.00  0.00     0.029 A 
ATOM     63  N   UNL A   1      47.434  28.299  30.235  1.00  0.00    -0.354 N 
ATOM     64  N   UNL A   1      43.363  27.263  31.303  1.00  0.00    -0.248 NA
ATOM     65  C   UNL A   1      43.305  29.164  29.961  1.00  0.00     0.031 C 
ATOM     66  C   UNL A   1      48.071  26.254  30.643  1.00  0.00     0.029 A 
ATOM     67  C   UNL A   1      47.033  27.157  30.886  1.00  0.00     0.049 A 
ATOM     68  H   UNL A   1      47.227  29.225  30.499  1.00  0.00     0.167 HD
ATOM     69  C   UNL A   1      44.653  27.761  31.222  1.00  0.00     0.074 A 
ATOM     70  C   UNL A   1      44.525  29.010  30.481  1.00  0.00     0.031 C 
ATOM     71  C   UNL A   1      45.736  26.981  31.515  1.00  0.00     0.034 A 
BRANCH  58  72
ATOM     72  C   UNL A   1      48.144  30.040  27.680  1.00  0.00     0.023 A 
ATOM     73  C   UNL A   1      47.000  30.833  27.474  1.00  0.00     0.031 A 
ATOM     74  C   UNL A   1      49.385  30.664  27.424  1.00  0.00     0.131 A 
ATOM     75  C   UNL A   1      47.113  32.148  26.994  1.00  0.00     0.055 A 
ATOM     76  C   UNL A   1      49.496  31.998  27.025  1.00  0.00     0.041 A 
ATOM     77  F   UNL A   1      50.544  29.993  27.451  1.00  0.00    -0.206 F 
ATOM     78  C   UNL A   1      48.355  32.743  26.784  1.00  0.00     0.022 A 
BRANCH  75  79
ATOM     79  S   UNL A   1      45.607  33.004  26.466  1.00  0.00     0.124 S 
ATOM     80  O   UNL A   1      46.097  33.821  25.362  1.00  0.00    -0.237 OA
ATOM     81  O   UNL A   1      44.739  31.887  26.106  1.00  0.00    -0.237 OA
ATOM     82  O   UNL A   1      45.204  33.747  27.659  1.00  0.00    -0.744 OA
ENDBRANCH  75  79
ENDBRANCH  58  72
BRANCH  59  83
ATOM     83  C   UNL A   1      40.226  27.925  29.487  1.00  0.00     0.023 A 
ATOM     84  C   UNL A   1      39.442  28.222  30.615  1.00  0.00     0.031 A 
ATOM     85  C   UNL A   1      39.761  28.408  28.241  1.00  0.00     0.131 A 
ATOM     86  C   UNL A   1      38.246  28.959  30.470  1.00  0.00     0.055 A 
ATOM     87  C   UNL A   1      38.567  29.115  28.099  1.00  0.00     0.041 A 
ATOM     88  F   UNL A   1      40.497  28.285  27.125  1.00  0.00    -0.206 F 
ATOM     89  C   UNL A   1      37.805  29.400  29.220  1.00  0.00     0.022 A 
BRANCH  86  90
ATOM     90  S   UNL A   1      37.309  29.467  31.944  1.00  0.00     0.124 S 
ATOM     91  O   UNL A   1      35.971  29.676  31.401  1.00  0.00    -0.237 OA
ATOM     92  O   UNL A   1      37.477  28.322  32.832  1.00  0.00    -0.237 OA
ATOM     93  O   UNL A   1      37.996  30.683  32.380  1.00  0.00    -0.744 OA
ENDBRANCH  86  90
ENDBRANCH  59  83
BRANCH  71  94
ATOM     94  C   UNL A   1      45.523  25.710  32.309  1.00  0.00     0.023 A 
ATOM     95  C   UNL A   1      45.680  25.606  33.707  1.00  0.00     0.031 A 
ATOM     96  C   UNL A   1      45.020  24.587  31.625  1.00  0.00     0.131 A 
ATOM     97  C   UNL A   1      45.355  24.405  34.367  1.00  0.00     0.055 A 
ATOM     98  C   UNL A   1      44.682  23.404  32.283  1.00  0.00     0.041 A 
ATOM     99  F   UNL A   1      44.815  24.633  30.298  1.00  0.00    -0.206 F 
ATOM    100  C   UNL A   1      44.856  23.307  33.659  1.00  0.00     0.022 A 
BRANCH  97 101
ATOM    101  S   UNL A   1      45.585  24.251  36.166  1.00  0.00     0.124 S 
ATOM    102  O   UNL A   1      44.248  24.478  36.703  1.00  0.00    -0.237 OA
ATOM    103  O   UNL A   1      46.107  22.893  36.298  1.00  0.00    -0.237 OA
ATOM    104  O   UNL A   1      46.552  25.306  36.476  1.00  0.00    -0.744 OA
ENDBRANCH  97 101
ENDBRANCH  71  94
ENDBRANCH  45  46
ENDBRANCH  38  40
ENDBRANCH  37  38
ENDBRANCH  36  37
ENDBRANCH  35  36
ENDBRANCH  34  35
ENDBRANCH  33  34
ENDBRANCH   1  33
TORSDOF 25
ENDMDL
MODEL 2
REMARK VINA RESULT:     -11.2      4.698     10.660
REMARK SMILES CCOC(=O)c1c(NC(=O)[C@@H]2[C@@H](C(=O)OCCOCCOCCOC(=O)c3ccc(-c4c5nc(c(-c6cc(S(=O)(=O)[O-])ccc6F)c6ccc([nH]6)c(-c6cc(S(=O)(=O)[O-])ccc6F)c6nc(c(-c7cc(S(=O)(=O)[O-])ccc7F)c7ccc4[nH]7)C=C6)C=C5)cc3)[C@@H]3C=C[C@H]2CC3)sc2c1CCC2
REMARK SMILES IDX 19 1 18 2 17 3 16 4 15 5 13 6 14 7 12 8 11 9 93 10 90 11
REMARK SMILES IDX 92 12 94 13 91 14 95 15 9 16 8 17 10 19 7 20 6 21 98 22
REMARK SMILES IDX 96 23 97 24 99 25 101 26 100 27 4 28 5 29 3 30 2 31 1 32
REMARK SMILES IDX 20 33 21 34 22 35 23 36 24 37 25 38 26 39 27 40 28 41 89 42
REMARK SMILES IDX 29 43 88 44 30 45 31 46 32 47 82 48 33 49 87 50 81 51 83 52
REMARK SMILES IDX 34 53 86 54 80 55 79 56 35 58 67 59 47 60 66 61 48 62 51 63
REMARK SMILES IDX 65 64 84 65 49 66 50 67 64 69 85 70 52 71 36 72 37 73 45 74
REMARK SMILES IDX 38 75 44 76 46 77 43 78 39 79 40 80 41 81 42 82 68 83 69 84
REMARK SMILES IDX 77 85 70 86 76 87 78 88 75 89 71 90 72 91 73 92 74 93 53 94
REMARK SMILES IDX 54 95 62 96 55 97 61 98 63 99 60 100 56 101 57 102 58 103
REMARK SMILES IDX 59 104
REMARK H PARENT 8 18 83 57 51 68
REMARK Flexibility Score: inf
ROOT
ATOM      1  C   UNL A   1      34.473  31.872  28.021  1.00  0.00     0.188 C 
ENDROOT
BRANCH   1   2
ATOM      2  O   UNL A   1      35.157  30.635  27.852  1.00  0.00    -0.376 OA
BRANCH   2   3
ATOM      3  C   UNL A   1      34.462  29.500  27.378  1.00  0.00     0.202 C 
BRANCH   3   4
ATOM      4  C   UNL A   1      33.398  29.709  26.285  1.00  0.00     0.261 C 
BRANCH   4   5
ATOM      5  O   UNL A   1      32.444  28.659  26.057  1.00  0.00    -0.463 OA
BRANCH   5   6
ATOM      6  C   UNL A   1      31.512  28.891  25.096  1.00  0.00     0.310 C 
ATOM      7  O   UNL A   1      30.919  29.953  24.976  1.00  0.00    -0.252 OA
BRANCH   6   8
ATOM      8  C   UNL A   1      31.256  27.640  24.254  1.00  0.00     0.119 C 
ATOM      9  C   UNL A   1      32.135  26.367  24.677  1.00  0.00     0.100 C 
ATOM     10  C   UNL A   1      33.072  26.101  23.469  1.00  0.00     0.025 C 
ATOM     11  C   UNL A   1      31.499  27.993  22.743  1.00  0.00     0.026 C 
ATOM     12  C   UNL A   1      32.202  25.745  22.289  1.00  0.00    -0.027 C 
ATOM     13  C   UNL A   1      33.880  27.392  23.183  1.00  0.00     0.009 C 
ATOM     14  C   UNL A   1      31.341  26.711  21.939  1.00  0.00    -0.027 C 
ATOM     15  C   UNL A   1      32.968  28.415  22.497  1.00  0.00     0.009 C 
BRANCH   9  16
ATOM     16  C   UNL A   1      31.197  25.208  25.156  1.00  0.00     0.229 C 
ATOM     17  N   UNL A   1      31.552  23.927  25.485  1.00  0.00    -0.317 N 
ATOM     18  H   UNL A   1      30.808  23.357  25.783  1.00  0.00     0.170 HD
ATOM     19  O   UNL A   1      29.983  25.444  25.278  1.00  0.00    -0.274 OA
BRANCH  17  20
ATOM     20  C   UNL A   1      32.777  23.306  25.468  1.00  0.00     0.110 A 
ATOM     21  C   UNL A   1      33.318  22.425  24.530  1.00  0.00     0.098 A 
ATOM     22  C   UNL A   1      34.731  22.568  24.631  1.00  0.00    -0.017 A 
ATOM     23  S   UNL A   1      33.807  23.372  26.854  1.00  0.00    -0.122 S 
ATOM     24  C   UNL A   1      35.107  23.119  25.823  1.00  0.00     0.011 A 
ATOM     25  C   UNL A   1      35.889  22.389  23.723  1.00  0.00     0.038 C 
ATOM     26  C   UNL A   1      36.535  23.477  25.915  1.00  0.00     0.047 C 
ATOM     27  C   UNL A   1      37.099  22.849  24.601  1.00  0.00     0.010 C 
BRANCH  21  28
ATOM     28  C   UNL A   1      32.593  21.692  23.504  1.00  0.00     0.341 C 
ATOM     29  O   UNL A   1      32.330  22.136  22.397  1.00  0.00    -0.246 OA
BRANCH  28  30
ATOM     30  O   UNL A   1      32.167  20.488  23.990  1.00  0.00    -0.462 OA
BRANCH  30  31
ATOM     31  C   UNL A   1      33.133  19.436  24.139  1.00  0.00     0.230 C 
ATOM     32  C   UNL A   1      32.474  18.072  24.271  1.00  0.00     0.049 C 
ENDBRANCH  30  31
ENDBRANCH  28  30
ENDBRANCH  21  28
ENDBRANCH  17  20
ENDBRANCH   9  16
ENDBRANCH   6   8
ENDBRANCH   5   6
ENDBRANCH   4   5
ENDBRANCH   3   4
ENDBRANCH   2   3
ENDBRANCH   1   2
BRANCH   1  33
ATOM     33  C   UNL A   1      35.209  33.226  28.015  1.00  0.00     0.188 C 
BRANCH  33  34
ATOM     34  O   UNL A   1      34.356  34.320  27.688  1.00  0.00    -0.376 OA
BRANCH  34  35
ATOM     35  C   UNL A   1      34.393  35.413  28.590  1.00  0.00     0.202 C 
BRANCH  35  36
ATOM     36  C   UNL A   1      33.167  35.514  29.490  1.00  0.00     0.261 C 
BRANCH  36  37
ATOM     37  O   UNL A   1      33.175  34.638  30.612  1.00  0.00    -0.460 OA
BRANCH  37  38
ATOM     38  C   UNL A   1      33.408  35.213  31.811  1.00  0.00     0.338 C 
ATOM     39  O   UNL A   1      32.852  36.198  32.260  1.00  0.00    -0.246 OA
BRANCH  38  40
ATOM     40  C   UNL A   1      34.519  34.491  32.460  1.00  0.00     0.060 A 
ATOM     41  C   UNL A   1      35.652  35.231  32.797  1.00  0.00     0.016 A 
ATOM     42  C   UNL A   1      34.524  33.084  32.499  1.00  0.00     0.016 A 
ATOM     43  C   UNL A   1      36.849  34.561  32.958  1.00  0.00     0.010 A 
ATOM     44  C   UNL A   1      35.722  32.417  32.648  1.00  0.00     0.010 A 
ATOM     45  C   UNL A   1      36.883  33.173  32.778  1.00  0.00    -0.014 A 
BRANCH  45  46
ATOM     46  C   UNL A   1      38.186  32.574  32.572  1.00  0.00     0.031 A 
ATOM     47  C   UNL A   1      39.090  32.514  33.729  1.00  0.00     0.074 A 
ATOM     48  C   UNL A   1      38.561  32.086  31.375  1.00  0.00     0.049 A 
ATOM     49  N   UNL A   1      40.193  33.162  33.893  1.00  0.00    -0.248 NA
ATOM     50  C   UNL A   1      38.697  31.677  34.867  1.00  0.00     0.031 C 
ATOM     51  C   UNL A   1      37.713  31.805  30.215  1.00  0.00     0.029 A 
ATOM     52  N   UNL A   1      39.794  31.654  30.984  1.00  0.00    -0.354 N 
ATOM     53  C   UNL A   1      40.749  32.669  35.065  1.00  0.00     0.074 A 
ATOM     54  C   UNL A   1      39.728  31.866  35.689  1.00  0.00     0.031 C 
ATOM     55  C   UNL A   1      38.412  31.061  29.331  1.00  0.00     0.029 A 
ATOM     56  C   UNL A   1      39.783  30.934  29.802  1.00  0.00     0.049 A 
ATOM     57  H   UNL A   1      40.615  31.837  31.495  1.00  0.00     0.167 HD
ATOM     58  C   UNL A   1      42.075  32.808  35.332  1.00  0.00     0.034 A 
ATOM     59  C   UNL A   1      40.806  30.214  29.281  1.00  0.00     0.034 A 
ATOM     60  C   UNL A   1      42.685  33.831  34.518  1.00  0.00     0.049 A 
ATOM     61  C   UNL A   1      42.071  30.767  29.822  1.00  0.00     0.074 A 
ATOM     62  C   UNL A   1      42.446  35.179  34.318  1.00  0.00     0.029 A 
ATOM     63  N   UNL A   1      43.517  33.449  33.491  1.00  0.00    -0.354 N 
ATOM     64  N   UNL A   1      42.523  31.960  29.544  1.00  0.00    -0.248 NA
ATOM     65  C   UNL A   1      42.668  30.145  30.994  1.00  0.00     0.031 C 
ATOM     66  C   UNL A   1      42.755  35.419  32.948  1.00  0.00     0.029 A 
ATOM     67  C   UNL A   1      43.190  34.213  32.395  1.00  0.00     0.049 A 
ATOM     68  H   UNL A   1      44.216  32.758  33.533  1.00  0.00     0.167 HD
ATOM     69  C   UNL A   1      43.132  32.398  30.708  1.00  0.00     0.074 A 
ATOM     70  C   UNL A   1      43.307  31.197  31.514  1.00  0.00     0.031 C 
ATOM     71  C   UNL A   1      43.181  33.726  31.028  1.00  0.00     0.034 A 
BRANCH  58  72
ATOM     72  C   UNL A   1      42.883  31.827  36.142  1.00  0.00     0.023 A 
ATOM     73  C   UNL A   1      42.823  30.468  35.784  1.00  0.00     0.031 A 
ATOM     74  C   UNL A   1      43.491  32.115  37.385  1.00  0.00     0.131 A 
ATOM     75  C   UNL A   1      43.301  29.473  36.652  1.00  0.00     0.055 A 
ATOM     76  C   UNL A   1      44.039  31.127  38.208  1.00  0.00     0.041 A 
ATOM     77  F   UNL A   1      43.500  33.345  37.912  1.00  0.00    -0.206 F 
ATOM     78  C   UNL A   1      43.925  29.794  37.855  1.00  0.00     0.022 A 
BRANCH  75  79
ATOM     79  S   UNL A   1      42.922  27.744  36.269  1.00  0.00     0.124 S 
ATOM     80  O   UNL A   1      43.929  27.433  35.260  1.00  0.00    -0.237 OA
ATOM     81  O   UNL A   1      43.095  27.104  37.569  1.00  0.00    -0.237 OA
ATOM     82  O   UNL A   1      41.546  27.799  35.779  1.00  0.00    -0.744 OA
ENDBRANCH  75  79
ENDBRANCH  58  72
BRANCH  59  83
ATOM     83  C   UNL A   1      40.690  28.910  28.585  1.00  0.00     0.023 A 
ATOM     84  C   UNL A   1      41.434  28.610  27.431  1.00  0.00     0.031 A 
ATOM     85  C   UNL A   1      39.991  27.839  29.191  1.00  0.00     0.131 A 
ATOM     86  C   UNL A   1      41.446  27.293  26.921  1.00  0.00     0.055 A 
ATOM     87  C   UNL A   1      39.986  26.546  28.669  1.00  0.00     0.041 A 
ATOM     88  F   UNL A   1      39.355  27.994  30.363  1.00  0.00    -0.206 F 
ATOM     89  C   UNL A   1      40.723  26.265  27.531  1.00  0.00     0.022 A 
BRANCH  86  90
ATOM     90  S   UNL A   1      42.520  26.875  25.514  1.00  0.00     0.124 S 
ATOM     91  O   UNL A   1      42.345  28.029  24.639  1.00  0.00    -0.237 OA
ATOM     92  O   UNL A   1      43.826  26.733  26.148  1.00  0.00    -0.237 OA
ATOM     93  O   UNL A   1      41.947  25.626  25.010  1.00  0.00    -0.744 OA
ENDBRANCH  86  90
ENDBRANCH  59  83
BRANCH  71  94
ATOM     94  C   UNL A   1      42.935  34.746  29.935  1.00  0.00     0.023 A 
ATOM     95  C   UNL A   1      43.954  35.411  29.220  1.00  0.00     0.031 A 
ATOM     96  C   UNL A   1      41.606  34.959  29.525  1.00  0.00     0.131 A 
ATOM     97  C   UNL A   1      43.623  36.264  28.149  1.00  0.00     0.055 A 
ATOM     98  C   UNL A   1      41.282  35.791  28.453  1.00  0.00     0.041 A 
ATOM     99  F   UNL A   1      40.593  34.329  30.143  1.00  0.00    -0.206 F 
ATOM    100  C   UNL A   1      42.292  36.454  27.765  1.00  0.00     0.022 A 
BRANCH  97 101
ATOM    101  S   UNL A   1      44.928  37.151  27.241  1.00  0.00     0.124 S 
ATOM    102  O   UNL A   1      45.927  37.433  28.265  1.00  0.00    -0.237 OA
ATOM    103  O   UNL A   1      45.311  36.180  26.220  1.00  0.00    -0.237 OA
ATOM    104  O   UNL A   1      44.236  38.334  26.724  1.00  0.00    -0.744 OA
ENDBRANCH  97 101
ENDBRANCH  71  94
ENDBRANCH  45  46
ENDBRANCH  38  40
ENDBRANCH  37  38
ENDBRANCH  36  37
ENDBRANCH  35  36
ENDBRANCH  34  35
ENDBRANCH  33  34
ENDBRANCH   1  33
TORSDOF 25
ENDMDL
MODEL 3
REMARK VINA RESULT:     -11.2      3.113      9.500
REMARK SMILES CCOC(=O)c1c(NC(=O)[C@@H]2[C@@H](C(=O)OCCOCCOCCOC(=O)c3ccc(-c4c5nc(c(-c6cc(S(=O)(=O)[O-])ccc6F)c6ccc([nH]6)c(-c6cc(S(=O)(=O)[O-])ccc6F)c6nc(c(-c7cc(S(=O)(=O)[O-])ccc7F)c7ccc4[nH]7)C=C6)C=C5)cc3)[C@@H]3C=C[C@H]2CC3)sc2c1CCC2
REMARK SMILES IDX 19 1 18 2 17 3 16 4 15 5 13 6 14 7 12 8 11 9 93 10 90 11
REMARK SMILES IDX 92 12 94 13 91 14 95 15 9 16 8 17 10 19 7 20 6 21 98 22
REMARK SMILES IDX 96 23 97 24 99 25 101 26 100 27 4 28 5 29 3 30 2 31 1 32
REMARK SMILES IDX 20 33 21 34 22 35 23 36 24 37 25 38 26 39 27 40 28 41 89 42
REMARK SMILES IDX 29 43 88 44 30 45 31 46 32 47 82 48 33 49 87 50 81 51 83 52
REMARK SMILES IDX 34 53 86 54 80 55 79 56 35 58 67 59 47 60 66 61 48 62 51 63
REMARK SMILES IDX 65 64 84 65 49 66 50 67 64 69 85 70 52 71 36 72 37 73 45 74
REMARK SMILES IDX 38 75 44 76 46 77 43 78 39 79 40 80 41 81 42 82 68 83 69 84
REMARK SMILES IDX 77 85 70 86 76 87 78 88 75 89 71 90 72 91 73 92 74 93 53 94
REMARK SMILES IDX 54 95 62 96 55 97 61 98 63 99 60 100 56 101 57 102 58 103
REMARK SMILES IDX 59 104
REMARK H PARENT 8 18 83 57 51 68
REMARK Flexibility Score: inf
ROOT
ATOM      1  C   UNL A   1      34.446  31.833  27.624  1.00  0.00     0.188 C 
ENDROOT
BRANCH   1   2
ATOM      2  O   UNL A   1      33.940  30.531  27.347  1.00  0.00    -0.376 OA
BRANCH   2   3
ATOM      3  C   UNL A   1      32.655  30.376  26.783  1.00  0.00     0.202 C 
BRANCH   3   4
ATOM      4  C   UNL A   1      32.375  29.106  25.960  1.00  0.00     0.261 C 
BRANCH   4   5
ATOM      5  O   UNL A   1      32.119  27.882  26.668  1.00  0.00    -0.463 OA
BRANCH   5   6
ATOM      6  C   UNL A   1      32.734  26.770  26.188  1.00  0.00     0.310 C 
ATOM      7  O   UNL A   1      33.948  26.642  26.132  1.00  0.00    -0.252 OA
BRANCH   6   8
ATOM      8  C   UNL A   1      31.717  25.754  25.664  1.00  0.00     0.119 C 
ATOM      9  C   UNL A   1      32.334  24.310  25.334  1.00  0.00     0.100 C 
ATOM     10  C   UNL A   1      32.194  24.151  23.797  1.00  0.00     0.025 C 
ATOM     11  C   UNL A   1      31.018  26.352  24.391  1.00  0.00     0.026 C 
ATOM     12  C   UNL A   1      30.720  24.156  23.474  1.00  0.00    -0.027 C 
ATOM     13  C   UNL A   1      32.909  25.343  23.114  1.00  0.00     0.009 C 
ATOM     14  C   UNL A   1      30.091  25.284  23.830  1.00  0.00    -0.027 C 
ATOM     15  C   UNL A   1      32.042  26.598  23.256  1.00  0.00     0.009 C 
BRANCH   9  16
ATOM     16  C   UNL A   1      31.677  23.228  26.256  1.00  0.00     0.229 C 
ATOM     17  N   UNL A   1      31.836  21.869  26.192  1.00  0.00    -0.317 N 
ATOM     18  H   UNL A   1      31.346  21.365  26.881  1.00  0.00     0.170 HD
ATOM     19  O   UNL A   1      30.929  23.608  27.172  1.00  0.00    -0.274 OA
BRANCH  17  20
ATOM     20  C   UNL A   1      32.566  21.093  25.326  1.00  0.00     0.110 A 
ATOM     21  C   UNL A   1      33.911  20.724  25.375  1.00  0.00     0.098 A 
ATOM     22  C   UNL A   1      34.004  19.496  24.661  1.00  0.00    -0.017 A 
ATOM     23  S   UNL A   1      31.897  20.620  23.804  1.00  0.00    -0.122 S 
ATOM     24  C   UNL A   1      32.944  19.309  23.822  1.00  0.00     0.011 A 
ATOM     25  C   UNL A   1      34.894  18.310  24.688  1.00  0.00     0.038 C 
ATOM     26  C   UNL A   1      32.875  17.973  23.200  1.00  0.00     0.047 C 
ATOM     27  C   UNL A   1      34.245  17.358  23.631  1.00  0.00     0.010 C 
BRANCH  21  28
ATOM     28  C   UNL A   1      34.953  21.337  26.184  1.00  0.00     0.341 C 
ATOM     29  O   UNL A   1      34.782  21.771  27.313  1.00  0.00    -0.246 OA
BRANCH  28  30
ATOM     30  O   UNL A   1      36.111  21.444  25.467  1.00  0.00    -0.462 OA
BRANCH  30  31
ATOM     31  C   UNL A   1      36.196  22.465  24.460  1.00  0.00     0.230 C 
ATOM     32  C   UNL A   1      36.108  23.860  25.057  1.00  0.00     0.049 C 
ENDBRANCH  30  31
ENDBRANCH  28  30
ENDBRANCH  21  28
ENDBRANCH  17  20
ENDBRANCH   9  16
ENDBRANCH   6   8
ENDBRANCH   5   6
ENDBRANCH   4   5
ENDBRANCH   3   4
ENDBRANCH   2   3
ENDBRANCH   1   2
BRANCH   1  33
ATOM     33  C   UNL A   1      33.522  33.023  27.948  1.00  0.00     0.188 C 
BRANCH  33  34
ATOM     34  O   UNL A   1      34.238  34.218  28.244  1.00  0.00    -0.376 OA
BRANCH  34  35
ATOM     35  C   UNL A   1      33.821  34.908  29.410  1.00  0.00     0.202 C 
BRANCH  35  36
ATOM     36  C   UNL A   1      34.475  34.406  30.693  1.00  0.00     0.261 C 
BRANCH  36  37
ATOM     37  O   UNL A   1      35.593  33.548  30.498  1.00  0.00    -0.460 OA
BRANCH  37  38
ATOM     38  C   UNL A   1      35.476  32.299  30.997  1.00  0.00     0.338 C 
ATOM     39  O   UNL A   1      34.741  31.949  31.901  1.00  0.00    -0.246 OA
BRANCH  38  40
ATOM     40  C   UNL A   1      36.457  31.435  30.312  1.00  0.00     0.060 A 
ATOM     41  C   UNL A   1      36.360  30.061  30.529  1.00  0.00     0.016 A 
ATOM     42  C   UNL A   1      37.581  31.999  29.680  1.00  0.00     0.016 A 
ATOM     43  C   UNL A   1      37.480  29.282  30.316  1.00  0.00     0.010 A 
ATOM     44  C   UNL A   1      38.702  31.223  29.478  1.00  0.00     0.010 A 
ATOM     45  C   UNL A   1      38.665  29.895  29.891  1.00  0.00    -0.014 A 
BRANCH  45  46
ATOM     46  C   UNL A   1      39.887  29.133  30.051  1.00  0.00     0.031 A 
ATOM     47  C   UNL A   1      40.401  28.964  31.418  1.00  0.00     0.074 A 
ATOM     48  C   UNL A   1      40.531  28.595  28.999  1.00  0.00     0.049 A 
ATOM     49  N   UNL A   1      41.479  29.467  31.915  1.00  0.00    -0.248 NA
ATOM     50  C   UNL A   1      39.592  28.190  32.365  1.00  0.00     0.031 C 
ATOM     51  C   UNL A   1      40.029  28.419  27.634  1.00  0.00     0.029 A 
ATOM     52  N   UNL A   1      41.761  28.008  28.968  1.00  0.00    -0.354 N 
ATOM     53  C   UNL A   1      41.605  28.913  33.181  1.00  0.00     0.074 A 
ATOM     54  C   UNL A   1      40.355  28.250  33.457  1.00  0.00     0.031 C 
ATOM     55  C   UNL A   1      40.858  27.587  26.967  1.00  0.00     0.029 A 
ATOM     56  C   UNL A   1      42.006  27.289  27.810  1.00  0.00     0.049 A 
ATOM     57  H   UNL A   1      42.414  28.087  29.700  1.00  0.00     0.167 HD
ATOM     58  C   UNL A   1      42.801  28.883  33.825  1.00  0.00     0.034 A 
ATOM     59  C   UNL A   1      43.039  26.442  27.585  1.00  0.00     0.034 A 
ATOM     60  C   UNL A   1      43.744  29.816  33.256  1.00  0.00     0.049 A 
ATOM     61  C   UNL A   1      44.150  26.832  28.487  1.00  0.00     0.074 A 
ATOM     62  C   UNL A   1      43.742  31.182  33.039  1.00  0.00     0.029 A 
ATOM     63  N   UNL A   1      44.785  29.326  32.501  1.00  0.00    -0.354 N 
ATOM     64  N   UNL A   1      44.807  27.955  28.389  1.00  0.00    -0.248 NA
ATOM     65  C   UNL A   1      44.299  26.144  29.760  1.00  0.00     0.031 C 
ATOM     66  C   UNL A   1      44.463  31.374  31.826  1.00  0.00     0.029 A 
ATOM     67  C   UNL A   1      44.888  30.119  31.383  1.00  0.00     0.049 A 
ATOM     68  H   UNL A   1      45.351  28.552  32.722  1.00  0.00     0.167 HD
ATOM     69  C   UNL A   1      45.100  28.319  29.693  1.00  0.00     0.074 A 
ATOM     70  C   UNL A   1      44.883  27.108  30.476  1.00  0.00     0.031 C 
ATOM     71  C   UNL A   1      45.218  29.631  30.057  1.00  0.00     0.034 A 
BRANCH  58  72
ATOM     72  C   UNL A   1      43.211  27.811  34.802  1.00  0.00     0.023 A 
ATOM     73  C   UNL A   1      43.732  26.611  34.284  1.00  0.00     0.031 A 
ATOM     74  C   UNL A   1      42.882  27.803  36.176  1.00  0.00     0.131 A 
ATOM     75  C   UNL A   1      43.857  25.472  35.096  1.00  0.00     0.055 A 
ATOM     76  C   UNL A   1      43.085  26.691  36.998  1.00  0.00     0.041 A 
ATOM     77  F   UNL A   1      42.258  28.827  36.771  1.00  0.00    -0.206 F 
ATOM     78  C   UNL A   1      43.553  25.508  36.455  1.00  0.00     0.022 A 
BRANCH  75  79
ATOM     79  S   UNL A   1      44.243  23.889  34.303  1.00  0.00     0.124 S 
ATOM     80  O   UNL A   1      44.358  24.277  32.901  1.00  0.00    -0.237 OA
ATOM     81  O   UNL A   1      45.485  23.515  34.971  1.00  0.00    -0.237 OA
ATOM     82  O   UNL A   1      43.085  23.058  34.625  1.00  0.00    -0.744 OA
ENDBRANCH  75  79
ENDBRANCH  58  72
BRANCH  59  83
ATOM     83  C   UNL A   1      42.971  25.160  26.843  1.00  0.00     0.023 A 
ATOM     84  C   UNL A   1      42.116  24.114  27.235  1.00  0.00     0.031 A 
ATOM     85  C   UNL A   1      43.601  25.030  25.584  1.00  0.00     0.131 A 
ATOM     86  C   UNL A   1      41.932  22.998  26.390  1.00  0.00     0.055 A 
ATOM     87  C   UNL A   1      43.436  23.914  24.764  1.00  0.00     0.041 A 
ATOM     88  F   UNL A   1      44.336  26.027  25.065  1.00  0.00    -0.206 F 
ATOM     89  C   UNL A   1      42.592  22.892  25.163  1.00  0.00     0.022 A 
BRANCH  86  90
ATOM     90  S   UNL A   1      40.719  21.716  26.831  1.00  0.00     0.124 S 
ATOM     91  O   UNL A   1      41.285  20.528  26.205  1.00  0.00    -0.237 OA
ATOM     92  O   UNL A   1      40.739  21.754  28.289  1.00  0.00    -0.237 OA
ATOM     93  O   UNL A   1      39.478  22.203  26.226  1.00  0.00    -0.744 OA
ENDBRANCH  86  90
ENDBRANCH  59  83
BRANCH  71  94
ATOM     94  C   UNL A   1      45.428  30.668  28.974  1.00  0.00     0.023 A 
ATOM     95  C   UNL A   1      46.692  31.113  28.528  1.00  0.00     0.031 A 
ATOM     96  C   UNL A   1      44.294  31.134  28.284  1.00  0.00     0.131 A 
ATOM     97  C   UNL A   1      46.784  32.003  27.442  1.00  0.00     0.055 A 
ATOM     98  C   UNL A   1      44.389  32.004  27.196  1.00  0.00     0.041 A 
ATOM     99  F   UNL A   1      43.065  30.723  28.636  1.00  0.00    -0.206 F 
ATOM    100  C   UNL A   1      45.637  32.447  26.775  1.00  0.00     0.022 A 
BRANCH  97 101
ATOM    101  S   UNL A   1      48.407  32.607  26.880  1.00  0.00     0.124 S 
ATOM    102  O   UNL A   1      49.118  31.388  26.512  1.00  0.00    -0.237 OA
ATOM    103  O   UNL A   1      48.045  33.496  25.780  1.00  0.00    -0.237 OA
ATOM    104  O   UNL A   1      48.942  33.289  28.061  1.00  0.00    -0.744 OA
ENDBRANCH  97 101
ENDBRANCH  71  94
ENDBRANCH  45  46
ENDBRANCH  38  40
ENDBRANCH  37  38
ENDBRANCH  36  37
ENDBRANCH  35  36
ENDBRANCH  34  35
ENDBRANCH  33  34
ENDBRANCH   1  33
TORSDOF 25
ENDMDL
