MODEL 1
REMARK VINA RESULT:      -8.2      0.000      0.000
REMARK SMILES CCOC(=O)[C@H](C)NC(=O)N1CC[C@H](C(=O)OCCOCCOCCOC(=O)c2ccc(-c3c4nc(c(-c5cc(S(=O)(=O)[O-])ccc5F)c5ccc([nH]5)c(-c5cc(S(=O)(=O)[O-])ccc5F)c5nc(c(-c6cc(S(=O)(=O)[O-])ccc6F)c6ccc3[nH]6)C=C5)C=C4)cc2)[C@@H]1C
REMARK SMILES IDX 21 1 20 2 19 3 18 4 17 5 15 6 16 7 14 8 11 9 12 10 92 11
REMARK SMILES IDX 13 12 93 13 9 14 8 15 10 17 6 18 7 19 4 20 5 21 3 22 2 23
REMARK SMILES IDX 1 24 22 25 23 26 24 27 25 28 26 29 27 30 28 31 29 32 30 33
REMARK SMILES IDX 91 34 31 35 90 36 32 37 33 38 34 39 84 40 35 41 89 42 83 43
REMARK SMILES IDX 85 44 36 45 88 46 82 47 81 48 37 50 69 51 49 52 68 53 50 54
REMARK SMILES IDX 53 55 67 56 86 57 51 58 52 59 66 61 87 62 54 63 38 64 39 65
REMARK SMILES IDX 47 66 40 67 46 68 48 69 45 70 41 71 42 72 43 73 44 74 70 75
REMARK SMILES IDX 71 76 79 77 72 78 78 79 80 80 77 81 73 82 74 83 75 84 76 85
REMARK SMILES IDX 55 86 56 87 64 88 57 89 63 90 65 91 62 92 58 93 59 94 60 95
REMARK SMILES IDX 61 96
REMARK H PARENT 8 16 85 49 53 60
REMARK Flexibility Score: inf
ROOT
ATOM      1  C   UNL A   1      39.436  22.507  26.781  1.00  0.00     0.188 C 
ENDROOT
BRANCH   1   2
ATOM      2  O   UNL A   1      39.324  21.682  25.641  1.00  0.00    -0.376 OA
BRANCH   2   3
ATOM      3  C   UNL A   1      38.060  21.124  25.355  1.00  0.00     0.202 C 
BRANCH   3   4
ATOM      4  C   UNL A   1      36.788  21.972  25.518  1.00  0.00     0.261 C 
BRANCH   4   5
ATOM      5  O   UNL A   1      35.727  21.777  24.569  1.00  0.00    -0.463 OA
BRANCH   5   6
ATOM      6  C   UNL A   1      35.546  22.696  23.579  1.00  0.00     0.311 C 
ATOM      7  O   UNL A   1      36.445  23.148  22.888  1.00  0.00    -0.252 OA
BRANCH   6   8
ATOM      8  C   UNL A   1      34.080  23.109  23.518  1.00  0.00     0.123 C 
ATOM      9  N   UNL A   1      32.526  23.839  25.173  1.00  0.00    -0.321 N 
ATOM     10  C   UNL A   1      32.702  22.418  25.366  1.00  0.00     0.122 C 
ATOM     11  C   UNL A   1      33.612  24.348  24.332  1.00  0.00     0.098 C 
ATOM     12  C   UNL A   1      33.189  21.953  24.008  1.00  0.00     0.039 C 
ATOM     13  C   UNL A   1      34.654  25.039  25.209  1.00  0.00     0.032 C 
BRANCH   9  14
ATOM     14  C   UNL A   1      31.783  24.557  26.067  1.00  0.00     0.318 C 
ATOM     15  N   UNL A   1      31.383  25.811  25.754  1.00  0.00    -0.325 N 
ATOM     16  H   UNL A   1      31.481  26.481  26.468  1.00  0.00     0.166 HD
ATOM     17  O   UNL A   1      31.484  24.108  27.172  1.00  0.00    -0.249 OA
BRANCH  15  18
ATOM     18  C   UNL A   1      30.820  26.306  24.489  1.00  0.00     0.190 C 
ATOM     19  C   UNL A   1      29.295  26.260  24.566  1.00  0.00     0.043 C 
BRANCH  18  20
ATOM     20  C   UNL A   1      31.320  27.737  24.246  1.00  0.00     0.328 C 
ATOM     21  O   UNL A   1      30.589  28.718  24.230  1.00  0.00    -0.250 OA
BRANCH  20  22
ATOM     22  O   UNL A   1      32.674  27.800  24.116  1.00  0.00    -0.464 OA
BRANCH  22  23
ATOM     23  C   UNL A   1      33.294  28.939  24.745  1.00  0.00     0.229 C 
ATOM     24  C   UNL A   1      33.760  28.574  26.143  1.00  0.00     0.049 C 
ENDBRANCH  22  23
ENDBRANCH  20  22
ENDBRANCH  18  20
ENDBRANCH  15  18
ENDBRANCH   9  14
ENDBRANCH   6   8
ENDBRANCH   5   6
ENDBRANCH   4   5
ENDBRANCH   3   4
ENDBRANCH   2   3
ENDBRANCH   1   2
BRANCH   1  25
ATOM     25  C   UNL A   1      40.641  23.473  26.682  1.00  0.00     0.188 C 
BRANCH  25  26
ATOM     26  O   UNL A   1      41.965  22.953  26.755  1.00  0.00    -0.376 OA
BRANCH  26  27
ATOM     27  C   UNL A   1      42.567  22.453  25.571  1.00  0.00     0.202 C 
BRANCH  27  28
ATOM     28  C   UNL A   1      43.965  21.823  25.662  1.00  0.00     0.261 C 
BRANCH  28  29
ATOM     29  O   UNL A   1      45.039  22.703  26.041  1.00  0.00    -0.460 OA
BRANCH  29  30
ATOM     30  C   UNL A   1      45.168  23.825  25.283  1.00  0.00     0.338 C 
ATOM     31  O   UNL A   1      45.436  23.867  24.097  1.00  0.00    -0.246 OA
BRANCH  30  32
ATOM     32  C   UNL A   1      44.758  25.026  26.057  1.00  0.00     0.060 A 
ATOM     33  C   UNL A   1      44.305  26.139  25.343  1.00  0.00     0.016 A 
ATOM     34  C   UNL A   1      44.875  25.100  27.447  1.00  0.00     0.016 A 
ATOM     35  C   UNL A   1      43.974  27.321  26.012  1.00  0.00     0.010 A 
ATOM     36  C   UNL A   1      44.583  26.307  28.109  1.00  0.00     0.010 A 
ATOM     37  C   UNL A   1      44.150  27.436  27.391  1.00  0.00    -0.014 A 
BRANCH  37  38
ATOM     38  C   UNL A   1      44.048  28.783  28.019  1.00  0.00     0.031 A 
ATOM     39  C   UNL A   1      45.246  29.696  27.969  1.00  0.00     0.074 A 
ATOM     40  C   UNL A   1      42.898  29.232  28.558  1.00  0.00     0.049 A 
ATOM     41  N   UNL A   1      45.421  30.873  28.513  1.00  0.00    -0.248 NA
ATOM     42  C   UNL A   1      46.399  29.214  27.192  1.00  0.00     0.031 C 
ATOM     43  C   UNL A   1      41.628  28.508  28.561  1.00  0.00     0.029 A 
ATOM     44  N   UNL A   1      42.613  30.410  29.211  1.00  0.00    -0.354 N 
ATOM     45  C   UNL A   1      46.707  31.269  28.159  1.00  0.00     0.074 A 
ATOM     46  C   UNL A   1      47.270  30.197  27.364  1.00  0.00     0.031 C 
ATOM     47  C   UNL A   1      40.709  29.244  29.212  1.00  0.00     0.029 A 
ATOM     48  C   UNL A   1      41.332  30.468  29.717  1.00  0.00     0.049 A 
ATOM     49  H   UNL A   1      43.264  31.142  29.309  1.00  0.00     0.167 HD
ATOM     50  C   UNL A   1      47.360  32.414  28.475  1.00  0.00     0.034 A 
ATOM     51  C   UNL A   1      40.748  31.376  30.528  1.00  0.00     0.034 A 
ATOM     52  C   UNL A   1      46.794  33.474  29.275  1.00  0.00     0.049 A 
ATOM     53  C   UNL A   1      41.543  32.585  30.978  1.00  0.00     0.074 A 
ATOM     54  C   UNL A   1      47.377  34.672  29.650  1.00  0.00     0.029 A 
ATOM     55  N   UNL A   1      45.524  33.459  29.836  1.00  0.00    -0.354 N 
ATOM     56  N   UNL A   1      42.768  32.936  30.662  1.00  0.00    -0.248 NA
ATOM     57  C   UNL A   1      40.874  33.523  31.893  1.00  0.00     0.031 C 
ATOM     58  C   UNL A   1      46.498  35.338  30.512  1.00  0.00     0.029 A 
ATOM     59  C   UNL A   1      45.326  34.604  30.594  1.00  0.00     0.049 A 
ATOM     60  H   UNL A   1      44.861  32.741  29.715  1.00  0.00     0.167 HD
ATOM     61  C   UNL A   1      42.998  34.150  31.310  1.00  0.00     0.074 A 
ATOM     62  C   UNL A   1      41.783  34.477  32.022  1.00  0.00     0.031 C 
ATOM     63  C   UNL A   1      44.112  34.927  31.308  1.00  0.00     0.034 A 
BRANCH  50  64
ATOM     64  C   UNL A   1      48.796  32.546  28.026  1.00  0.00     0.023 A 
ATOM     65  C   UNL A   1      49.875  32.155  28.838  1.00  0.00     0.031 A 
ATOM     66  C   UNL A   1      49.084  33.083  26.758  1.00  0.00     0.131 A 
ATOM     67  C   UNL A   1      51.190  32.360  28.394  1.00  0.00     0.055 A 
ATOM     68  C   UNL A   1      50.393  33.211  26.292  1.00  0.00     0.041 A 
ATOM     69  F   UNL A   1      48.094  33.496  25.951  1.00  0.00    -0.206 F 
ATOM     70  C   UNL A   1      51.456  32.860  27.116  1.00  0.00     0.022 A 
BRANCH  67  71
ATOM     71  S   UNL A   1      52.556  32.084  29.557  1.00  0.00     0.124 S 
ATOM     72  O   UNL A   1      52.604  30.625  29.617  1.00  0.00    -0.237 OA
ATOM     73  O   UNL A   1      53.678  32.731  28.887  1.00  0.00    -0.237 OA
ATOM     74  O   UNL A   1      52.101  32.735  30.783  1.00  0.00    -0.744 OA
ENDBRANCH  67  71
ENDBRANCH  50  64
BRANCH  51  75
ATOM     75  C   UNL A   1      39.367  31.150  31.061  1.00  0.00     0.023 A 
ATOM     76  C   UNL A   1      38.230  31.667  30.414  1.00  0.00     0.031 A 
ATOM     77  C   UNL A   1      39.176  30.499  32.294  1.00  0.00     0.131 A 
ATOM     78  C   UNL A   1      36.971  31.581  31.033  1.00  0.00     0.055 A 
ATOM     79  C   UNL A   1      37.913  30.353  32.869  1.00  0.00     0.041 A 
ATOM     80  F   UNL A   1      40.224  30.001  32.971  1.00  0.00    -0.206 F 
ATOM     81  C   UNL A   1      36.802  30.911  32.246  1.00  0.00     0.022 A 
BRANCH  78  82
ATOM     82  S   UNL A   1      35.573  32.475  30.296  1.00  0.00     0.124 S 
ATOM     83  O   UNL A   1      35.349  31.717  29.071  1.00  0.00    -0.237 OA
ATOM     84  O   UNL A   1      34.550  32.347  31.328  1.00  0.00    -0.237 OA
ATOM     85  O   UNL A   1      36.095  33.827  30.106  1.00  0.00    -0.744 OA
ENDBRANCH  78  82
ENDBRANCH  51  75
BRANCH  63  86
ATOM     86  C   UNL A   1      44.051  36.242  32.054  1.00  0.00     0.023 A 
ATOM     87  C   UNL A   1      43.716  37.451  31.417  1.00  0.00     0.031 A 
ATOM     88  C   UNL A   1      44.327  36.282  33.435  1.00  0.00     0.131 A 
ATOM     89  C   UNL A   1      43.716  38.651  32.148  1.00  0.00     0.055 A 
ATOM     90  C   UNL A   1      44.261  37.467  34.168  1.00  0.00     0.041 A 
ATOM     91  F   UNL A   1      44.656  35.162  34.098  1.00  0.00    -0.206 F 
ATOM     92  C   UNL A   1      43.965  38.663  33.521  1.00  0.00     0.022 A 
BRANCH  89  93
ATOM     93  S   UNL A   1      43.471  40.215  31.261  1.00  0.00     0.124 S 
ATOM     94  O   UNL A   1      43.284  39.761  29.887  1.00  0.00    -0.237 OA
ATOM     95  O   UNL A   1      42.290  40.767  31.916  1.00  0.00    -0.237 OA
ATOM     96  O   UNL A   1      44.713  40.947  31.507  1.00  0.00    -0.744 OA
ENDBRANCH  89  93
ENDBRANCH  63  86
ENDBRANCH  37  38
ENDBRANCH  30  32
ENDBRANCH  29  30
ENDBRANCH  28  29
ENDBRANCH  27  28
ENDBRANCH  26  27
ENDBRANCH  25  26
ENDBRANCH   1  25
TORSDOF 25
ENDMDL
MODEL 2
REMARK VINA RESULT:      -8.2      7.125     10.563
REMARK SMILES CCOC(=O)[C@H](C)NC(=O)N1CC[C@H](C(=O)OCCOCCOCCOC(=O)c2ccc(-c3c4nc(c(-c5cc(S(=O)(=O)[O-])ccc5F)c5ccc([nH]5)c(-c5cc(S(=O)(=O)[O-])ccc5F)c5nc(c(-c6cc(S(=O)(=O)[O-])ccc6F)c6ccc3[nH]6)C=C5)C=C4)cc2)[C@@H]1C
REMARK SMILES IDX 21 1 20 2 19 3 18 4 17 5 15 6 16 7 14 8 11 9 12 10 92 11
REMARK SMILES IDX 13 12 93 13 9 14 8 15 10 17 6 18 7 19 4 20 5 21 3 22 2 23
REMARK SMILES IDX 1 24 22 25 23 26 24 27 25 28 26 29 27 30 28 31 29 32 30 33
REMARK SMILES IDX 91 34 31 35 90 36 32 37 33 38 34 39 84 40 35 41 89 42 83 43
REMARK SMILES IDX 85 44 36 45 88 46 82 47 81 48 37 50 69 51 49 52 68 53 50 54
REMARK SMILES IDX 53 55 67 56 86 57 51 58 52 59 66 61 87 62 54 63 38 64 39 65
REMARK SMILES IDX 47 66 40 67 46 68 48 69 45 70 41 71 42 72 43 73 44 74 70 75
REMARK SMILES IDX 71 76 79 77 72 78 78 79 80 80 77 81 73 82 74 83 75 84 76 85
REMARK SMILES IDX 55 86 56 87 64 88 57 89 63 90 65 91 62 92 58 93 59 94 60 95
REMARK SMILES IDX 61 96
REMARK H PARENT 8 16 85 49 53 60
REMARK Flexibility Score: inf
ROOT
ATOM      1  C   UNL A   1      38.099  20.614  25.253  1.00  0.00     0.188 C 
ENDROOT
BRANCH   1   2
ATOM      2  O   UNL A   1      36.769  20.975  24.948  1.00  0.00    -0.376 OA
BRANCH   2   3
ATOM      3  C   UNL A   1      36.080  21.790  25.871  1.00  0.00     0.202 C 
BRANCH   3   4
ATOM      4  C   UNL A   1      35.108  22.871  25.370  1.00  0.00     0.261 C 
BRANCH   4   5
ATOM      5  O   UNL A   1      34.085  22.473  24.443  1.00  0.00    -0.463 OA
BRANCH   5   6
ATOM      6  C   UNL A   1      33.970  23.135  23.257  1.00  0.00     0.311 C 
ATOM      7  O   UNL A   1      34.854  23.199  22.418  1.00  0.00    -0.252 OA
BRANCH   6   8
ATOM      8  C   UNL A   1      32.613  23.824  23.178  1.00  0.00     0.123 C 
ATOM      9  N   UNL A   1      31.417  25.238  24.679  1.00  0.00    -0.321 N 
ATOM     10  C   UNL A   1      31.338  23.900  25.216  1.00  0.00     0.122 C 
ATOM     11  C   UNL A   1      32.483  25.290  23.676  1.00  0.00     0.098 C 
ATOM     12  C   UNL A   1      31.576  23.033  23.996  1.00  0.00     0.039 C 
ATOM     13  C   UNL A   1      33.726  25.932  24.286  1.00  0.00     0.032 C 
BRANCH   9  14
ATOM     14  C   UNL A   1      30.927  26.289  25.403  1.00  0.00     0.318 C 
ATOM     15  N   UNL A   1      30.639  27.456  24.781  1.00  0.00    -0.325 N 
ATOM     16  H   UNL A   1      30.936  28.271  25.245  1.00  0.00     0.166 HD
ATOM     17  O   UNL A   1      30.762  26.220  26.619  1.00  0.00    -0.249 OA
BRANCH  15  18
ATOM     18  C   UNL A   1      29.939  27.668  23.505  1.00  0.00     0.190 C 
ATOM     19  C   UNL A   1      28.551  27.035  23.581  1.00  0.00     0.043 C 
BRANCH  18  20
ATOM     20  C   UNL A   1      29.846  29.176  23.231  1.00  0.00     0.328 C 
ATOM     21  O   UNL A   1      30.337  30.030  23.957  1.00  0.00    -0.250 OA
BRANCH  20  22
ATOM     22  O   UNL A   1      29.215  29.452  22.056  1.00  0.00    -0.464 OA
BRANCH  22  23
ATOM     23  C   UNL A   1      28.969  30.850  21.811  1.00  0.00     0.229 C 
ATOM     24  C   UNL A   1      27.996  31.016  20.657  1.00  0.00     0.049 C 
ENDBRANCH  22  23
ENDBRANCH  20  22
ENDBRANCH  18  20
ENDBRANCH  15  18
ENDBRANCH   9  14
ENDBRANCH   6   8
ENDBRANCH   5   6
ENDBRANCH   4   5
ENDBRANCH   3   4
ENDBRANCH   2   3
ENDBRANCH   1   2
BRANCH   1  25
ATOM     25  C   UNL A   1      38.931  21.823  25.742  1.00  0.00     0.188 C 
BRANCH  25  26
ATOM     26  O   UNL A   1      39.988  21.616  26.673  1.00  0.00    -0.376 OA
BRANCH  26  27
ATOM     27  C   UNL A   1      40.293  22.648  27.599  1.00  0.00     0.202 C 
BRANCH  27  28
ATOM     28  C   UNL A   1      40.089  24.109  27.171  1.00  0.00     0.261 C 
BRANCH  28  29
ATOM     29  O   UNL A   1      41.101  24.672  26.316  1.00  0.00    -0.460 OA
BRANCH  29  30
ATOM     30  C   UNL A   1      41.375  25.988  26.524  1.00  0.00     0.338 C 
ATOM     31  O   UNL A   1      40.584  26.841  26.883  1.00  0.00    -0.246 OA
BRANCH  30  32
ATOM     32  C   UNL A   1      42.837  26.236  26.430  1.00  0.00     0.060 A 
ATOM     33  C   UNL A   1      43.682  25.126  26.344  1.00  0.00     0.016 A 
ATOM     34  C   UNL A   1      43.387  27.518  26.494  1.00  0.00     0.016 A 
ATOM     35  C   UNL A   1      45.070  25.294  26.325  1.00  0.00     0.010 A 
ATOM     36  C   UNL A   1      44.786  27.677  26.521  1.00  0.00     0.010 A 
ATOM     37  C   UNL A   1      45.639  26.561  26.458  1.00  0.00    -0.014 A 
BRANCH  37  38
ATOM     38  C   UNL A   1      47.104  26.669  26.708  1.00  0.00     0.031 A 
ATOM     39  C   UNL A   1      48.019  26.929  25.539  1.00  0.00     0.074 A 
ATOM     40  C   UNL A   1      47.619  26.618  27.952  1.00  0.00     0.049 A 
ATOM     41  N   UNL A   1      49.326  26.981  25.499  1.00  0.00    -0.248 NA
ATOM     42  C   UNL A   1      47.366  27.169  24.243  1.00  0.00     0.031 C 
ATOM     43  C   UNL A   1      46.841  26.501  29.184  1.00  0.00     0.029 A 
ATOM     44  N   UNL A   1      48.925  26.658  28.384  1.00  0.00    -0.354 N 
ATOM     45  C   UNL A   1      49.656  27.245  24.173  1.00  0.00     0.074 A 
ATOM     46  C   UNL A   1      48.409  27.329  23.441  1.00  0.00     0.031 C 
ATOM     47  C   UNL A   1      47.686  26.448  30.229  1.00  0.00     0.029 A 
ATOM     48  C   UNL A   1      49.066  26.476  29.742  1.00  0.00     0.049 A 
ATOM     49  H   UNL A   1      49.688  26.802  27.778  1.00  0.00     0.167 HD
ATOM     50  C   UNL A   1      50.883  27.394  23.617  1.00  0.00     0.034 A 
ATOM     51  C   UNL A   1      50.174  26.305  30.496  1.00  0.00     0.034 A 
ATOM     52  C   UNL A   1      52.121  27.301  24.353  1.00  0.00     0.049 A 
ATOM     53  C   UNL A   1      51.534  26.344  29.831  1.00  0.00     0.074 A 
ATOM     54  C   UNL A   1      53.414  27.436  23.879  1.00  0.00     0.029 A 
ATOM     55  N   UNL A   1      52.224  27.034  25.712  1.00  0.00    -0.354 N 
ATOM     56  N   UNL A   1      51.835  26.564  28.571  1.00  0.00    -0.248 NA
ATOM     57  C   UNL A   1      52.706  26.112  30.689  1.00  0.00     0.031 C 
ATOM     58  C   UNL A   1      54.299  27.160  24.927  1.00  0.00     0.029 A 
ATOM     59  C   UNL A   1      53.560  26.953  26.081  1.00  0.00     0.049 A 
ATOM     60  H   UNL A   1      51.462  26.919  26.325  1.00  0.00     0.167 HD
ATOM     61  C   UNL A   1      53.228  26.534  28.500  1.00  0.00     0.074 A 
ATOM     62  C   UNL A   1      53.708  26.288  29.841  1.00  0.00     0.031 C 
ATOM     63  C   UNL A   1      54.037  26.703  27.421  1.00  0.00     0.034 A 
BRANCH  50  64
ATOM     64  C   UNL A   1      50.953  27.589  22.122  1.00  0.00     0.023 A 
ATOM     65  C   UNL A   1      50.839  26.517  21.219  1.00  0.00     0.031 A 
ATOM     66  C   UNL A   1      51.145  28.879  21.594  1.00  0.00     0.131 A 
ATOM     67  C   UNL A   1      50.976  26.749  19.841  1.00  0.00     0.055 A 
ATOM     68  C   UNL A   1      51.201  29.113  20.220  1.00  0.00     0.041 A 
ATOM     69  F   UNL A   1      51.285  29.936  22.410  1.00  0.00    -0.206 F 
ATOM     70  C   UNL A   1      51.129  28.043  19.334  1.00  0.00     0.022 A 
BRANCH  67  71
ATOM     71  S   UNL A   1      51.079  25.324  18.723  1.00  0.00     0.124 S 
ATOM     72  O   UNL A   1      52.234  24.608  19.261  1.00  0.00    -0.237 OA
ATOM     73  O   UNL A   1      49.786  24.679  18.912  1.00  0.00    -0.237 OA
ATOM     74  O   UNL A   1      51.289  25.931  17.411  1.00  0.00    -0.744 OA
ENDBRANCH  67  71
ENDBRANCH  50  64
BRANCH  51  75
ATOM     75  C   UNL A   1      50.065  25.984  31.955  1.00  0.00     0.023 A 
ATOM     76  C   UNL A   1      50.135  24.662  32.429  1.00  0.00     0.031 A 
ATOM     77  C   UNL A   1      49.779  26.998  32.889  1.00  0.00     0.131 A 
ATOM     78  C   UNL A   1      49.859  24.385  33.779  1.00  0.00     0.055 A 
ATOM     79  C   UNL A   1      49.576  26.724  34.243  1.00  0.00     0.041 A 
ATOM     80  F   UNL A   1      49.678  28.278  32.495  1.00  0.00    -0.206 F 
ATOM     81  C   UNL A   1      49.599  25.408  34.692  1.00  0.00     0.022 A 
BRANCH  78  82
ATOM     82  S   UNL A   1      49.710  22.653  34.303  1.00  0.00     0.124 S 
ATOM     83  O   UNL A   1      50.313  21.950  33.177  1.00  0.00    -0.237 OA
ATOM     84  O   UNL A   1      50.468  22.643  35.549  1.00  0.00    -0.237 OA
ATOM     85  O   UNL A   1      48.267  22.466  34.454  1.00  0.00    -0.744 OA
ENDBRANCH  78  82
ENDBRANCH  51  75
BRANCH  63  86
ATOM     86  C   UNL A   1      55.530  26.687  27.656  1.00  0.00     0.023 A 
ATOM     87  C   UNL A   1      56.294  25.510  27.546  1.00  0.00     0.031 A 
ATOM     88  C   UNL A   1      56.204  27.878  27.989  1.00  0.00     0.131 A 
ATOM     89  C   UNL A   1      57.673  25.542  27.816  1.00  0.00     0.055 A 
ATOM     90  C   UNL A   1      57.584  27.915  28.191  1.00  0.00     0.041 A 
ATOM     91  F   UNL A   1      55.529  29.032  28.112  1.00  0.00    -0.206 F 
ATOM     92  C   UNL A   1      58.325  26.739  28.117  1.00  0.00     0.022 A 
BRANCH  89  93
ATOM     93  S   UNL A   1      58.593  23.978  27.856  1.00  0.00     0.124 S 
ATOM     94  O   UNL A   1      58.520  23.545  26.465  1.00  0.00    -0.237 OA
ATOM     95  O   UNL A   1      59.909  24.400  28.324  1.00  0.00    -0.237 OA
ATOM     96  O   UNL A   1      57.835  23.159  28.801  1.00  0.00    -0.744 OA
ENDBRANCH  89  93
ENDBRANCH  63  86
ENDBRANCH  37  38
ENDBRANCH  30  32
ENDBRANCH  29  30
ENDBRANCH  28  29
ENDBRANCH  27  28
ENDBRANCH  26  27
ENDBRANCH  25  26
ENDBRANCH   1  25
TORSDOF 25
ENDMDL
MODEL 3
REMARK VINA RESULT:      -7.8      4.445      8.655
REMARK SMILES CCOC(=O)[C@H](C)NC(=O)N1CC[C@H](C(=O)OCCOCCOCCOC(=O)c2ccc(-c3c4nc(c(-c5cc(S(=O)(=O)[O-])ccc5F)c5ccc([nH]5)c(-c5cc(S(=O)(=O)[O-])ccc5F)c5nc(c(-c6cc(S(=O)(=O)[O-])ccc6F)c6ccc3[nH]6)C=C5)C=C4)cc2)[C@@H]1C
REMARK SMILES IDX 21 1 20 2 19 3 18 4 17 5 15 6 16 7 14 8 11 9 12 10 92 11
REMARK SMILES IDX 13 12 93 13 9 14 8 15 10 17 6 18 7 19 4 20 5 21 3 22 2 23
REMARK SMILES IDX 1 24 22 25 23 26 24 27 25 28 26 29 27 30 28 31 29 32 30 33
REMARK SMILES IDX 91 34 31 35 90 36 32 37 33 38 34 39 84 40 35 41 89 42 83 43
REMARK SMILES IDX 85 44 36 45 88 46 82 47 81 48 37 50 69 51 49 52 68 53 50 54
REMARK SMILES IDX 53 55 67 56 86 57 51 58 52 59 66 61 87 62 54 63 38 64 39 65
REMARK SMILES IDX 47 66 40 67 46 68 48 69 45 70 41 71 42 72 43 73 44 74 70 75
REMARK SMILES IDX 71 76 79 77 72 78 78 79 80 80 77 81 73 82 74 83 75 84 76 85
REMARK SMILES IDX 55 86 56 87 64 88 57 89 63 90 65 91 62 92 58 93 59 94 60 95
REMARK SMILES IDX 61 96
REMARK H PARENT 8 16 85 49 53 60
REMARK Flexibility Score: inf
ROOT
ATOM      1  C   UNL A   1      40.167  24.920  28.234  1.00  0.00     0.188 C 
ENDROOT
BRANCH   1   2
ATOM      2  O   UNL A   1      41.230  25.747  27.810  1.00  0.00    -0.376 OA
BRANCH   2   3
ATOM      3  C   UNL A   1      41.285  27.061  28.320  1.00  0.00     0.202 C 
BRANCH   3   4
ATOM      4  C   UNL A   1      40.369  27.476  29.484  1.00  0.00     0.261 C 
BRANCH   4   5
ATOM      5  O   UNL A   1      40.989  27.833  30.729  1.00  0.00    -0.463 OA
BRANCH   5   6
ATOM      6  C   UNL A   1      41.212  29.149  31.005  1.00  0.00     0.311 C 
ATOM      7  O   UNL A   1      42.244  29.743  30.734  1.00  0.00    -0.252 OA
BRANCH   6   8
ATOM      8  C   UNL A   1      40.018  29.731  31.752  1.00  0.00     0.123 C 
ATOM      9  N   UNL A   1      39.078  31.919  31.864  1.00  0.00    -0.321 N 
ATOM     10  C   UNL A   1      40.296  31.949  32.641  1.00  0.00     0.122 C 
ATOM     11  C   UNL A   1      39.080  30.726  31.015  1.00  0.00     0.098 C 
ATOM     12  C   UNL A   1      40.501  30.491  33.001  1.00  0.00     0.039 C 
ATOM     13  C   UNL A   1      39.462  31.117  29.589  1.00  0.00     0.032 C 
BRANCH   9  14
ATOM     14  C   UNL A   1      38.388  33.077  31.642  1.00  0.00     0.318 C 
ATOM     15  N   UNL A   1      37.064  33.027  31.364  1.00  0.00    -0.325 N 
ATOM     16  H   UNL A   1      36.761  33.608  30.631  1.00  0.00     0.166 HD
ATOM     17  O   UNL A   1      38.939  34.176  31.659  1.00  0.00    -0.249 OA
BRANCH  15  18
ATOM     18  C   UNL A   1      36.020  32.221  32.012  1.00  0.00     0.190 C 
ATOM     19  C   UNL A   1      36.233  32.243  33.524  1.00  0.00     0.043 C 
BRANCH  18  20
ATOM     20  C   UNL A   1      34.644  32.790  31.638  1.00  0.00     0.328 C 
ATOM     21  O   UNL A   1      33.889  33.323  32.440  1.00  0.00    -0.250 OA
BRANCH  20  22
ATOM     22  O   UNL A   1      34.389  32.697  30.303  1.00  0.00    -0.464 OA
BRANCH  22  23
ATOM     23  C   UNL A   1      34.500  33.935  29.574  1.00  0.00     0.229 C 
ATOM     24  C   UNL A   1      33.381  34.043  28.553  1.00  0.00     0.049 C 
ENDBRANCH  22  23
ENDBRANCH  20  22
ENDBRANCH  18  20
ENDBRANCH  15  18
ENDBRANCH   9  14
ENDBRANCH   6   8
ENDBRANCH   5   6
ENDBRANCH   4   5
ENDBRANCH   3   4
ENDBRANCH   2   3
ENDBRANCH   1   2
BRANCH   1  25
ATOM     25  C   UNL A   1      40.009  23.671  27.335  1.00  0.00     0.188 C 
BRANCH  25  26
ATOM     26  O   UNL A   1      40.907  23.469  26.249  1.00  0.00    -0.376 OA
BRANCH  26  27
ATOM     27  C   UNL A   1      41.485  22.186  26.072  1.00  0.00     0.202 C 
BRANCH  27  28
ATOM     28  C   UNL A   1      42.920  21.947  26.564  1.00  0.00     0.261 C 
BRANCH  28  29
ATOM     29  O   UNL A   1      43.889  21.589  25.562  1.00  0.00    -0.460 OA
BRANCH  29  30
ATOM     30  C   UNL A   1      44.199  22.571  24.672  1.00  0.00     0.338 C 
ATOM     31  O   UNL A   1      44.118  22.497  23.461  1.00  0.00    -0.246 OA
BRANCH  30  32
ATOM     32  C   UNL A   1      44.487  23.843  25.383  1.00  0.00     0.060 A 
ATOM     33  C   UNL A   1      45.452  23.821  26.394  1.00  0.00     0.016 A 
ATOM     34  C   UNL A   1      43.789  25.024  25.124  1.00  0.00     0.016 A 
ATOM     35  C   UNL A   1      45.716  24.970  27.146  1.00  0.00     0.010 A 
ATOM     36  C   UNL A   1      44.026  26.164  25.915  1.00  0.00     0.010 A 
ATOM     37  C   UNL A   1      44.979  26.138  26.948  1.00  0.00    -0.014 A 
BRANCH  37  38
ATOM     38  C   UNL A   1      45.099  27.241  27.943  1.00  0.00     0.031 A 
ATOM     39  C   UNL A   1      44.794  26.946  29.389  1.00  0.00     0.074 A 
ATOM     40  C   UNL A   1      45.545  28.465  27.598  1.00  0.00     0.049 A 
ATOM     41  N   UNL A   1      44.750  27.758  30.415  1.00  0.00    -0.248 NA
ATOM     42  C   UNL A   1      44.506  25.542  29.720  1.00  0.00     0.031 C 
ATOM     43  C   UNL A   1      45.998  28.853  26.264  1.00  0.00     0.029 A 
ATOM     44  N   UNL A   1      45.688  29.611  28.347  1.00  0.00    -0.354 N 
ATOM     45  C   UNL A   1      44.415  26.969  31.511  1.00  0.00     0.074 A 
ATOM     46  C   UNL A   1      44.256  25.616  31.019  1.00  0.00     0.031 C 
ATOM     47  C   UNL A   1      46.339  30.154  26.282  1.00  0.00     0.029 A 
ATOM     48  C   UNL A   1      46.083  30.707  27.612  1.00  0.00     0.049 A 
ATOM     49  H   UNL A   1      45.521  29.644  29.316  1.00  0.00     0.167 HD
ATOM     50  C   UNL A   1      44.249  27.340  32.804  1.00  0.00     0.034 A 
ATOM     51  C   UNL A   1      46.181  32.009  27.959  1.00  0.00     0.034 A 
ATOM     52  C   UNL A   1      44.403  28.692  33.284  1.00  0.00     0.049 A 
ATOM     53  C   UNL A   1      45.861  32.421  29.381  1.00  0.00     0.074 A 
ATOM     54  C   UNL A   1      44.254  29.167  34.575  1.00  0.00     0.029 A 
ATOM     55  N   UNL A   1      44.724  29.788  32.494  1.00  0.00    -0.354 N 
ATOM     56  N   UNL A   1      45.516  31.672  30.404  1.00  0.00    -0.248 NA
ATOM     57  C   UNL A   1      45.944  33.856  29.697  1.00  0.00     0.031 C 
ATOM     58  C   UNL A   1      44.392  30.559  34.551  1.00  0.00     0.029 A 
ATOM     59  C   UNL A   1      44.728  30.943  33.263  1.00  0.00     0.049 A 
ATOM     60  H   UNL A   1      44.919  29.752  31.530  1.00  0.00     0.167 HD
ATOM     61  C   UNL A   1      45.380  32.542  31.486  1.00  0.00     0.074 A 
ATOM     62  C   UNL A   1      45.691  33.867  30.998  1.00  0.00     0.031 C 
ATOM     63  C   UNL A   1      45.036  32.267  32.771  1.00  0.00     0.034 A 
BRANCH  50  64
ATOM     64  C   UNL A   1      43.796  26.281  33.780  1.00  0.00     0.023 A 
ATOM     65  C   UNL A   1      44.646  25.252  34.221  1.00  0.00     0.031 A 
ATOM     66  C   UNL A   1      42.477  26.304  34.272  1.00  0.00     0.131 A 
ATOM     67  C   UNL A   1      44.151  24.259  35.080  1.00  0.00     0.055 A 
ATOM     68  C   UNL A   1      42.015  25.357  35.187  1.00  0.00     0.041 A 
ATOM     69  F   UNL A   1      41.614  27.248  33.866  1.00  0.00    -0.206 F 
ATOM     70  C   UNL A   1      42.850  24.319  35.587  1.00  0.00     0.022 A 
BRANCH  67  71
ATOM     71  S   UNL A   1      45.188  22.812  35.429  1.00  0.00     0.124 S 
ATOM     72  O   UNL A   1      44.399  21.732  34.841  1.00  0.00    -0.237 OA
ATOM     73  O   UNL A   1      46.431  23.139  34.740  1.00  0.00    -0.237 OA
ATOM     74  O   UNL A   1      45.270  22.790  36.887  1.00  0.00    -0.744 OA
ENDBRANCH  67  71
ENDBRANCH  50  64
BRANCH  51  75
ATOM     75  C   UNL A   1      46.507  33.052  26.935  1.00  0.00     0.023 A 
ATOM     76  C   UNL A   1      47.834  33.358  26.586  1.00  0.00     0.031 A 
ATOM     77  C   UNL A   1      45.485  33.837  26.367  1.00  0.00     0.131 A 
ATOM     78  C   UNL A   1      48.104  34.456  25.750  1.00  0.00     0.055 A 
ATOM     79  C   UNL A   1      45.756  34.881  25.482  1.00  0.00     0.041 A 
ATOM     80  F   UNL A   1      44.198  33.609  26.677  1.00  0.00    -0.206 F 
ATOM     81  C   UNL A   1      47.074  35.207  25.182  1.00  0.00     0.022 A 
BRANCH  78  82
ATOM     82  S   UNL A   1      49.829  34.977  25.523  1.00  0.00     0.124 S 
ATOM     83  O   UNL A   1      50.485  33.708  25.230  1.00  0.00    -0.237 OA
ATOM     84  O   UNL A   1      49.721  35.917  24.412  1.00  0.00    -0.237 OA
ATOM     85  O   UNL A   1      50.176  35.576  26.810  1.00  0.00    -0.744 OA
ENDBRANCH  78  82
ENDBRANCH  51  75
BRANCH  63  86
ATOM     86  C   UNL A   1      45.035  33.413  33.758  1.00  0.00     0.023 A 
ATOM     87  C   UNL A   1      43.899  34.213  33.977  1.00  0.00     0.031 A 
ATOM     88  C   UNL A   1      46.196  33.704  34.500  1.00  0.00     0.131 A 
ATOM     89  C   UNL A   1      43.964  35.292  34.875  1.00  0.00     0.055 A 
ATOM     90  C   UNL A   1      46.235  34.737  35.438  1.00  0.00     0.041 A 
ATOM     91  F   UNL A   1      47.314  32.979  34.332  1.00  0.00    -0.206 F 
ATOM     92  C   UNL A   1      45.117  35.546  35.620  1.00  0.00     0.022 A 
BRANCH  89  93
ATOM     93  S   UNL A   1      42.548  36.420  34.991  1.00  0.00     0.124 S 
ATOM     94  O   UNL A   1      42.810  37.353  33.900  1.00  0.00    -0.237 OA
ATOM     95  O   UNL A   1      41.414  35.521  34.801  1.00  0.00    -0.237 OA
ATOM     96  O   UNL A   1      42.669  36.987  36.333  1.00  0.00    -0.744 OA
ENDBRANCH  89  93
ENDBRANCH  63  86
ENDBRANCH  37  38
ENDBRANCH  30  32
ENDBRANCH  29  30
ENDBRANCH  28  29
ENDBRANCH  27  28
ENDBRANCH  26  27
ENDBRANCH  25  26
ENDBRANCH   1  25
TORSDOF 25
ENDMDL
