MODEL 1
REMARK VINA RESULT:      -9.8      0.000      0.000
REMARK SMILES CCSc1ccc(-c2cc(Cl)cc3c2O[C@@H](C(F)(F)F)C(C(=O)OCCOCCOCCOCCOC(=O)c2ccc(-c4c5nc(c(-c6cc(S(=O)(=O)[O-])ccc6F)c6ccc([nH]6)c(-c6cc(S(=O)(=O)[O-])ccc6F)c6nc(c(-c7cc(S(=O)(=O)[O-])ccc7F)c7ccc4[nH]7)C=C6)C=C5)cc2)=C3)cc1
REMARK SMILES IDX 30 1 29 2 28 3 27 4 26 5 25 6 24 7 22 8 23 9 21 10 8 11 9 12
REMARK SMILES IDX 14 13 10 14 13 15 15 16 11 17 12 18 102 19 16 20 7 21 4 22
REMARK SMILES IDX 5 23 104 24 6 25 103 26 3 27 2 28 1 29 17 30 18 31 19 32
REMARK SMILES IDX 20 33 31 34 32 35 33 36 34 37 35 38 36 39 37 40 38 41 39 42
REMARK SMILES IDX 40 43 101 44 41 45 100 46 42 47 43 48 44 49 94 50 45 51
REMARK SMILES IDX 99 52 93 53 95 54 46 55 98 56 92 57 91 58 47 60 79 61 59 62
REMARK SMILES IDX 78 63 60 64 63 65 77 66 96 67 61 68 62 69 76 71 97 72 64 73
REMARK SMILES IDX 48 74 49 75 57 76 50 77 56 78 58 79 55 80 51 81 52 82 53 83
REMARK SMILES IDX 54 84 80 85 81 86 89 87 82 88 88 89 90 90 87 91 83 92 84 93
REMARK SMILES IDX 85 94 86 95 65 96 66 97 74 98 67 99 73 100 75 101 72 102
REMARK SMILES IDX 68 103 69 104 70 105 71 106
REMARK H PARENT 95 59 63 70
REMARK Flexibility Score: inf
ROOT
ATOM      1  O   UNL A   1      37.280  22.231  25.694  1.00  0.00    -0.377 OA
ENDROOT
BRANCH   1   2
ATOM      2  C   UNL A   1      36.468  21.533  24.771  1.00  0.00     0.188 C 
BRANCH   2   3
ATOM      3  C   UNL A   1      35.627  20.442  25.446  1.00  0.00     0.188 C 
BRANCH   3   4
ATOM      4  O   UNL A   1      34.728  19.770  24.572  1.00  0.00    -0.376 OA
BRANCH   4   5
ATOM      5  C   UNL A   1      33.408  19.493  25.039  1.00  0.00     0.202 C 
BRANCH   5   6
ATOM      6  C   UNL A   1      32.364  20.620  25.010  1.00  0.00     0.261 C 
BRANCH   6   7
ATOM      7  O   UNL A   1      32.748  21.644  24.063  1.00  0.00    -0.460 OA
BRANCH   7   8
ATOM      8  C   UNL A   1      32.181  22.847  24.234  1.00  0.00     0.338 C 
ATOM      9  O   UNL A   1      31.341  23.340  23.492  1.00  0.00    -0.246 OA
BRANCH   8  10
ATOM     10  C   UNL A   1      32.533  23.461  25.540  1.00  0.00     0.087 C 
ATOM     11  C   UNL A   1      32.475  27.610  25.574  1.00  0.00     0.026 A 
ATOM     12  C   UNL A   1      32.777  28.038  24.258  1.00  0.00     0.033 A 
ATOM     13  C   UNL A   1      32.554  26.219  25.798  1.00  0.00     0.135 A 
ATOM     14  C   UNL A   1      33.438  27.200  23.363  1.00  0.00     0.042 A 
ATOM     15  C   UNL A   1      33.413  25.454  24.993  1.00  0.00     0.019 A 
ATOM     16  O   UNL A   1      31.632  25.572  26.616  1.00  0.00    -0.475 OA
ATOM     17  Cl  UNL A   1      33.838  27.775  21.794  1.00  0.00    -0.084 Cl
ATOM     18  C   UNL A   1      33.851  25.939  23.765  1.00  0.00     0.032 A 
ATOM     19  C   UNL A   1      33.725  24.074  25.421  1.00  0.00     0.027 C 
ATOM     20  C   UNL A   1      31.615  24.075  26.582  1.00  0.00     0.316 C 
BRANCH  11  21
ATOM     21  C   UNL A   1      32.791  28.645  26.622  1.00  0.00    -0.015 A 
ATOM     22  C   UNL A   1      33.918  31.061  27.688  1.00  0.00     0.007 A 
ATOM     23  C   UNL A   1      32.589  31.019  27.268  1.00  0.00     0.015 A 
ATOM     24  C   UNL A   1      34.641  29.862  27.678  1.00  0.00     0.015 A 
ATOM     25  C   UNL A   1      32.028  29.824  26.760  1.00  0.00     0.010 A 
ATOM     26  C   UNL A   1      34.086  28.674  27.170  1.00  0.00     0.010 A 
BRANCH  22  27
ATOM     27  S   UNL A   1      34.846  32.533  28.121  1.00  0.00    -0.126 SA
BRANCH  27  28
ATOM     28  C   UNL A   1      35.078  32.462  29.928  1.00  0.00     0.071 C 
ATOM     29  C   UNL A   1      36.397  31.814  30.320  1.00  0.00     0.016 C 
ENDBRANCH  27  28
ENDBRANCH  22  27
ENDBRANCH  11  21
BRANCH  20  30
ATOM     30  C   UNL A   1      30.231  23.417  26.819  1.00  0.00     0.430 C 
ATOM     31  F   UNL A   1      29.269  24.381  26.820  1.00  0.00    -0.167 F 
ATOM     32  F   UNL A   1      29.915  22.566  25.814  1.00  0.00    -0.167 F 
ATOM     33  F   UNL A   1      30.086  22.742  27.968  1.00  0.00    -0.167 F 
ENDBRANCH  20  30
ENDBRANCH   8  10
ENDBRANCH   7   8
ENDBRANCH   6   7
ENDBRANCH   5   6
ENDBRANCH   4   5
ENDBRANCH   3   4
ENDBRANCH   2   3
ENDBRANCH   1   2
BRANCH   1  34
ATOM     34  C   UNL A   1      38.658  21.873  25.737  1.00  0.00     0.188 C 
BRANCH  34  35
ATOM     35  C   UNL A   1      39.592  22.496  26.797  1.00  0.00     0.188 C 
BRANCH  35  36
ATOM     36  O   UNL A   1      39.678  23.921  26.735  1.00  0.00    -0.376 OA
BRANCH  36  37
ATOM     37  C   UNL A   1      40.977  24.490  26.836  1.00  0.00     0.202 C 
BRANCH  37  38
ATOM     38  C   UNL A   1      41.082  25.916  26.278  1.00  0.00     0.261 C 
BRANCH  38  39
ATOM     39  O   UNL A   1      41.981  26.071  25.170  1.00  0.00    -0.460 OA
BRANCH  39  40
ATOM     40  C   UNL A   1      42.590  27.270  25.036  1.00  0.00     0.338 C 
ATOM     41  O   UNL A   1      42.059  28.330  24.747  1.00  0.00    -0.246 OA
BRANCH  40  42
ATOM     42  C   UNL A   1      43.982  27.127  25.504  1.00  0.00     0.060 A 
ATOM     43  C   UNL A   1      44.612  28.231  26.094  1.00  0.00     0.016 A 
ATOM     44  C   UNL A   1      44.653  25.906  25.386  1.00  0.00     0.016 A 
ATOM     45  C   UNL A   1      45.934  28.128  26.528  1.00  0.00     0.010 A 
ATOM     46  C   UNL A   1      45.981  25.810  25.804  1.00  0.00     0.010 A 
ATOM     47  C   UNL A   1      46.638  26.931  26.341  1.00  0.00    -0.014 A 
BRANCH  47  48
ATOM     48  C   UNL A   1      48.113  26.915  26.486  1.00  0.00     0.031 A 
ATOM     49  C   UNL A   1      48.940  27.037  25.234  1.00  0.00     0.074 A 
ATOM     50  C   UNL A   1      48.704  26.799  27.687  1.00  0.00     0.049 A 
ATOM     51  N   UNL A   1      50.237  26.993  25.084  1.00  0.00    -0.248 NA
ATOM     52  C   UNL A   1      48.192  27.230  23.981  1.00  0.00     0.031 C 
ATOM     53  C   UNL A   1      48.008  26.710  28.968  1.00  0.00     0.029 A 
ATOM     54  N   UNL A   1      50.034  26.724  28.019  1.00  0.00    -0.354 N 
ATOM     55  C   UNL A   1      50.463  27.158  23.722  1.00  0.00     0.074 A 
ATOM     56  C   UNL A   1      49.167  27.257  23.088  1.00  0.00     0.031 C 
ATOM     57  C   UNL A   1      48.918  26.575  29.949  1.00  0.00     0.029 A 
ATOM     58  C   UNL A   1      50.258  26.533  29.363  1.00  0.00     0.049 A 
ATOM     59  H   UNL A   1      50.759  26.800  27.358  1.00  0.00     0.167 HD
ATOM     60  C   UNL A   1      51.644  27.232  23.061  1.00  0.00     0.034 A 
ATOM     61  C   UNL A   1      51.410  26.321  30.032  1.00  0.00     0.034 A 
ATOM     62  C   UNL A   1      52.927  27.097  23.703  1.00  0.00     0.049 A 
ATOM     63  C   UNL A   1      52.712  26.307  29.263  1.00  0.00     0.074 A 
ATOM     64  C   UNL A   1      54.187  27.147  23.134  1.00  0.00     0.029 A 
ATOM     65  N   UNL A   1      53.114  26.867  25.061  1.00  0.00    -0.354 N 
ATOM     66  N   UNL A   1      52.916  26.476  27.976  1.00  0.00    -0.248 NA
ATOM     67  C   UNL A   1      53.939  26.083  30.040  1.00  0.00     0.031 C 
ATOM     68  C   UNL A   1      55.130  26.878  24.132  1.00  0.00     0.029 A 
ATOM     69  C   UNL A   1      54.465  26.741  25.341  1.00  0.00     0.049 A 
ATOM     70  H   UNL A   1      52.392  26.802  25.726  1.00  0.00     0.167 HD
ATOM     71  C   UNL A   1      54.297  26.408  27.797  1.00  0.00     0.074 A 
ATOM     72  C   UNL A   1      54.874  26.196  29.109  1.00  0.00     0.031 C 
ATOM     73  C   UNL A   1      55.024  26.519  26.656  1.00  0.00     0.034 A 
BRANCH  60  74
ATOM     74  C   UNL A   1      51.581  27.412  21.564  1.00  0.00     0.023 A 
ATOM     75  C   UNL A   1      51.580  26.310  20.690  1.00  0.00     0.031 A 
ATOM     76  C   UNL A   1      51.577  28.699  21.001  1.00  0.00     0.131 A 
ATOM     77  C   UNL A   1      51.655  26.517  19.304  1.00  0.00     0.055 A 
ATOM     78  C   UNL A   1      51.569  28.899  19.620  1.00  0.00     0.041 A 
ATOM     79  F   UNL A   1      51.606  29.788  21.785  1.00  0.00    -0.206 F 
ATOM     80  C   UNL A   1      51.623  27.803  18.762  1.00  0.00     0.022 A 
BRANCH  77  81
ATOM     81  S   UNL A   1      51.949  25.085  18.229  1.00  0.00     0.124 S 
ATOM     82  O   UNL A   1      53.395  25.153  18.036  1.00  0.00    -0.237 OA
ATOM     83  O   UNL A   1      51.463  23.975  19.041  1.00  0.00    -0.237 OA
ATOM     84  O   UNL A   1      51.155  25.383  17.038  1.00  0.00    -0.744 OA
ENDBRANCH  77  81
ENDBRANCH  60  74
BRANCH  61  85
ATOM     85  C   UNL A   1      51.395  26.054  31.500  1.00  0.00     0.023 A 
ATOM     86  C   UNL A   1      51.214  24.757  32.005  1.00  0.00     0.031 A 
ATOM     87  C   UNL A   1      51.499  27.111  32.422  1.00  0.00     0.131 A 
ATOM     88  C   UNL A   1      51.097  24.556  33.391  1.00  0.00     0.055 A 
ATOM     89  C   UNL A   1      51.435  26.900  33.800  1.00  0.00     0.041 A 
ATOM     90  F   UNL A   1      51.668  28.372  31.994  1.00  0.00    -0.206 F 
ATOM     91  C   UNL A   1      51.219  25.616  34.291  1.00  0.00     0.022 A 
BRANCH  88  92
ATOM     92  S   UNL A   1      50.693  22.894  33.997  1.00  0.00     0.124 S 
ATOM     93  O   UNL A   1      51.300  22.048  32.975  1.00  0.00    -0.237 OA
ATOM     94  O   UNL A   1      51.337  22.883  35.305  1.00  0.00    -0.237 OA
ATOM     95  O   UNL A   1      49.232  22.888  34.024  1.00  0.00    -0.744 OA
ENDBRANCH  88  92
ENDBRANCH  61  85
BRANCH  73  96
ATOM     96  C   UNL A   1      56.528  26.462  26.785  1.00  0.00     0.023 A 
ATOM     97  C   UNL A   1      57.237  25.252  26.694  1.00  0.00     0.031 A 
ATOM     98  C   UNL A   1      57.260  27.642  27.003  1.00  0.00     0.131 A 
ATOM     99  C   UNL A   1      58.629  25.243  26.872  1.00  0.00     0.055 A 
ATOM    100  C   UNL A   1      58.651  27.635  27.120  1.00  0.00     0.041 A 
ATOM    101  F   UNL A   1      56.635  28.827  27.100  1.00  0.00    -0.206 F 
ATOM    102  C   UNL A   1      59.342  26.429  27.067  1.00  0.00     0.022 A 
BRANCH  99 103
ATOM    103  S   UNL A   1      59.492  23.648  26.929  1.00  0.00     0.124 S 
ATOM    104  O   UNL A   1      58.380  22.702  26.956  1.00  0.00    -0.237 OA
ATOM    105  O   UNL A   1      60.278  23.672  25.700  1.00  0.00    -0.237 OA
ATOM    106  O   UNL A   1      60.271  23.723  28.164  1.00  0.00    -0.744 OA
ENDBRANCH  99 103
ENDBRANCH  73  96
ENDBRANCH  47  48
ENDBRANCH  40  42
ENDBRANCH  39  40
ENDBRANCH  38  39
ENDBRANCH  37  38
ENDBRANCH  36  37
ENDBRANCH  35  36
ENDBRANCH  34  35
ENDBRANCH   1  34
TORSDOF 27
ENDMDL
MODEL 2
REMARK VINA RESULT:      -9.7      3.502      8.369
REMARK SMILES CCSc1ccc(-c2cc(Cl)cc3c2O[C@@H](C(F)(F)F)C(C(=O)OCCOCCOCCOCCOC(=O)c2ccc(-c4c5nc(c(-c6cc(S(=O)(=O)[O-])ccc6F)c6ccc([nH]6)c(-c6cc(S(=O)(=O)[O-])ccc6F)c6nc(c(-c7cc(S(=O)(=O)[O-])ccc7F)c7ccc4[nH]7)C=C6)C=C5)cc2)=C3)cc1
REMARK SMILES IDX 30 1 29 2 28 3 27 4 26 5 25 6 24 7 22 8 23 9 21 10 8 11 9 12
REMARK SMILES IDX 14 13 10 14 13 15 15 16 11 17 12 18 102 19 16 20 7 21 4 22
REMARK SMILES IDX 5 23 104 24 6 25 103 26 3 27 2 28 1 29 17 30 18 31 19 32
REMARK SMILES IDX 20 33 31 34 32 35 33 36 34 37 35 38 36 39 37 40 38 41 39 42
REMARK SMILES IDX 40 43 101 44 41 45 100 46 42 47 43 48 44 49 94 50 45 51
REMARK SMILES IDX 99 52 93 53 95 54 46 55 98 56 92 57 91 58 47 60 79 61 59 62
REMARK SMILES IDX 78 63 60 64 63 65 77 66 96 67 61 68 62 69 76 71 97 72 64 73
REMARK SMILES IDX 48 74 49 75 57 76 50 77 56 78 58 79 55 80 51 81 52 82 53 83
REMARK SMILES IDX 54 84 80 85 81 86 89 87 82 88 88 89 90 90 87 91 83 92 84 93
REMARK SMILES IDX 85 94 86 95 65 96 66 97 74 98 67 99 73 100 75 101 72 102
REMARK SMILES IDX 68 103 69 104 70 105 71 106
REMARK H PARENT 95 59 63 70
REMARK Flexibility Score: inf
ROOT
ATOM      1  O   UNL A   1      36.864  22.397  25.675  1.00  0.00    -0.377 OA
ENDROOT
BRANCH   1   2
ATOM      2  C   UNL A   1      36.156  21.603  24.745  1.00  0.00     0.188 C 
BRANCH   2   3
ATOM      3  C   UNL A   1      35.516  20.373  25.399  1.00  0.00     0.188 C 
BRANCH   3   4
ATOM      4  O   UNL A   1      34.551  19.713  24.589  1.00  0.00    -0.376 OA
BRANCH   4   5
ATOM      5  C   UNL A   1      33.245  19.503  25.124  1.00  0.00     0.202 C 
BRANCH   5   6
ATOM      6  C   UNL A   1      32.233  20.658  25.072  1.00  0.00     0.261 C 
BRANCH   6   7
ATOM      7  O   UNL A   1      32.617  21.626  24.068  1.00  0.00    -0.460 OA
BRANCH   7   8
ATOM      8  C   UNL A   1      32.113  22.859  24.217  1.00  0.00     0.338 C 
ATOM      9  O   UNL A   1      31.314  23.389  23.454  1.00  0.00    -0.246 OA
BRANCH   8  10
ATOM     10  C   UNL A   1      32.475  23.468  25.522  1.00  0.00     0.087 C 
ATOM     11  C   UNL A   1      32.441  27.618  25.565  1.00  0.00     0.026 A 
ATOM     12  C   UNL A   1      32.738  28.047  24.249  1.00  0.00     0.033 A 
ATOM     13  C   UNL A   1      32.512  26.226  25.786  1.00  0.00     0.135 A 
ATOM     14  C   UNL A   1      33.391  27.207  23.348  1.00  0.00     0.042 A 
ATOM     15  C   UNL A   1      33.363  25.458  24.975  1.00  0.00     0.019 A 
ATOM     16  O   UNL A   1      31.590  25.582  26.607  1.00  0.00    -0.475 OA
ATOM     17  Cl  UNL A   1      33.786  27.784  21.779  1.00  0.00    -0.084 Cl
ATOM     18  C   UNL A   1      33.798  25.943  23.746  1.00  0.00     0.032 A 
ATOM     19  C   UNL A   1      33.670  24.075  25.399  1.00  0.00     0.027 C 
ATOM     20  C   UNL A   1      31.565  24.086  26.570  1.00  0.00     0.316 C 
BRANCH  11  21
ATOM     21  C   UNL A   1      32.767  28.649  26.614  1.00  0.00    -0.015 A 
ATOM     22  C   UNL A   1      33.909  31.058  27.679  1.00  0.00     0.007 A 
ATOM     23  C   UNL A   1      32.577  31.021  27.270  1.00  0.00     0.015 A 
ATOM     24  C   UNL A   1      34.629  29.857  27.659  1.00  0.00     0.015 A 
ATOM     25  C   UNL A   1      32.009  29.829  26.762  1.00  0.00     0.010 A 
ATOM     26  C   UNL A   1      34.067  28.673  27.151  1.00  0.00     0.010 A 
BRANCH  22  27
ATOM     27  S   UNL A   1      34.844  32.526  28.109  1.00  0.00    -0.126 SA
BRANCH  27  28
ATOM     28  C   UNL A   1      33.638  33.893  28.143  1.00  0.00     0.071 C 
ATOM     29  C   UNL A   1      34.030  34.991  29.119  1.00  0.00     0.016 C 
ENDBRANCH  27  28
ENDBRANCH  22  27
ENDBRANCH  11  21
BRANCH  20  30
ATOM     30  C   UNL A   1      30.179  23.435  26.812  1.00  0.00     0.430 C 
ATOM     31  F   UNL A   1      29.219  24.401  26.792  1.00  0.00    -0.167 F 
ATOM     32  F   UNL A   1      29.865  22.567  25.820  1.00  0.00    -0.167 F 
ATOM     33  F   UNL A   1      30.027  22.780  27.971  1.00  0.00    -0.167 F 
ENDBRANCH  20  30
ENDBRANCH   8  10
ENDBRANCH   7   8
ENDBRANCH   6   7
ENDBRANCH   5   6
ENDBRANCH   4   5
ENDBRANCH   3   4
ENDBRANCH   2   3
ENDBRANCH   1   2
BRANCH   1  34
ATOM     34  C   UNL A   1      38.283  22.271  25.682  1.00  0.00     0.188 C 
BRANCH  34  35
ATOM     35  C   UNL A   1      39.125  22.994  26.755  1.00  0.00     0.188 C 
BRANCH  35  36
ATOM     36  O   UNL A   1      39.351  24.379  26.484  1.00  0.00    -0.376 OA
BRANCH  36  37
ATOM     37  C   UNL A   1      40.694  24.838  26.570  1.00  0.00     0.202 C 
BRANCH  37  38
ATOM     38  C   UNL A   1      40.883  26.303  26.154  1.00  0.00     0.261 C 
BRANCH  38  39
ATOM     39  O   UNL A   1      41.779  26.512  25.052  1.00  0.00    -0.460 OA
BRANCH  39  40
ATOM     40  C   UNL A   1      42.508  27.650  25.060  1.00  0.00     0.338 C 
ATOM     41  O   UNL A   1      42.175  28.734  24.611  1.00  0.00    -0.246 OA
BRANCH  40  42
ATOM     42  C   UNL A   1      43.703  27.416  25.895  1.00  0.00     0.060 A 
ATOM     43  C   UNL A   1      44.350  26.176  25.814  1.00  0.00     0.016 A 
ATOM     44  C   UNL A   1      44.197  28.421  26.730  1.00  0.00     0.016 A 
ATOM     45  C   UNL A   1      45.470  25.923  26.606  1.00  0.00     0.010 A 
ATOM     46  C   UNL A   1      45.306  28.160  27.536  1.00  0.00     0.010 A 
ATOM     47  C   UNL A   1      45.924  26.897  27.504  1.00  0.00    -0.014 A 
BRANCH  47  48
ATOM     48  C   UNL A   1      46.884  26.525  28.571  1.00  0.00     0.031 A 
ATOM     49  C   UNL A   1      46.323  26.115  29.905  1.00  0.00     0.074 A 
ATOM     50  C   UNL A   1      48.212  26.546  28.364  1.00  0.00     0.049 A 
ATOM     51  N   UNL A   1      46.945  25.802  31.010  1.00  0.00    -0.248 NA
ATOM     52  C   UNL A   1      44.855  26.059  30.000  1.00  0.00     0.031 C 
ATOM     53  C   UNL A   1      48.868  26.890  27.105  1.00  0.00     0.029 A 
ATOM     54  N   UNL A   1      49.249  26.280  29.224  1.00  0.00    -0.354 N 
ATOM     55  C   UNL A   1      45.947  25.505  31.931  1.00  0.00     0.074 A 
ATOM     56  C   UNL A   1      44.680  25.722  31.267  1.00  0.00     0.031 C 
ATOM     57  C   UNL A   1      50.200  26.831  27.279  1.00  0.00     0.029 A 
ATOM     58  C   UNL A   1      50.491  26.479  28.669  1.00  0.00     0.049 A 
ATOM     59  H   UNL A   1      49.115  25.975  30.150  1.00  0.00     0.167 HD
ATOM     60  C   UNL A   1      46.073  25.080  33.212  1.00  0.00     0.034 A 
ATOM     61  C   UNL A   1      51.717  26.413  29.230  1.00  0.00     0.034 A 
ATOM     62  C   UNL A   1      47.342  24.902  33.871  1.00  0.00     0.049 A 
ATOM     63  C   UNL A   1      51.834  26.033  30.689  1.00  0.00     0.074 A 
ATOM     64  C   UNL A   1      47.592  24.483  35.166  1.00  0.00     0.029 A 
ATOM     65  N   UNL A   1      48.580  25.150  33.289  1.00  0.00    -0.354 N 
ATOM     66  N   UNL A   1      50.884  25.743  31.549  1.00  0.00    -0.248 NA
ATOM     67  C   UNL A   1      53.190  25.964  31.249  1.00  0.00     0.031 C 
ATOM     68  C   UNL A   1      48.972  24.546  35.389  1.00  0.00     0.029 A 
ATOM     69  C   UNL A   1      49.592  24.925  34.209  1.00  0.00     0.049 A 
ATOM     70  H   UNL A   1      48.717  25.443  32.360  1.00  0.00     0.167 HD
ATOM     71  C   UNL A   1      51.533  25.428  32.741  1.00  0.00     0.074 A 
ATOM     72  C   UNL A   1      52.953  25.551  32.485  1.00  0.00     0.031 C 
ATOM     73  C   UNL A   1      51.006  25.062  33.938  1.00  0.00     0.034 A 
BRANCH  60  74
ATOM     74  C   UNL A   1      44.799  24.840  33.984  1.00  0.00     0.023 A 
ATOM     75  C   UNL A   1      44.148  25.879  34.674  1.00  0.00     0.031 A 
ATOM     76  C   UNL A   1      44.257  23.546  34.077  1.00  0.00     0.131 A 
ATOM     77  C   UNL A   1      43.041  25.592  35.487  1.00  0.00     0.055 A 
ATOM     78  C   UNL A   1      43.107  23.283  34.823  1.00  0.00     0.041 A 
ATOM     79  F   UNL A   1      44.850  22.510  33.464  1.00  0.00    -0.206 F 
ATOM     80  C   UNL A   1      42.501  24.306  35.547  1.00  0.00     0.022 A 
BRANCH  77  81
ATOM     81  S   UNL A   1      42.414  26.894  36.585  1.00  0.00     0.124 S 
ATOM     82  O   UNL A   1      43.614  27.698  36.805  1.00  0.00    -0.237 OA
ATOM     83  O   UNL A   1      41.369  27.512  35.778  1.00  0.00    -0.237 OA
ATOM     84  O   UNL A   1      41.945  26.156  37.756  1.00  0.00    -0.744 OA
ENDBRANCH  77  81
ENDBRANCH  60  74
BRANCH  61  85
ATOM     85  C   UNL A   1      52.933  26.756  28.436  1.00  0.00     0.023 A 
ATOM     86  C   UNL A   1      53.555  25.810  27.606  1.00  0.00     0.031 A 
ATOM     87  C   UNL A   1      53.528  28.026  28.549  1.00  0.00     0.131 A 
ATOM     88  C   UNL A   1      54.758  26.133  26.958  1.00  0.00     0.055 A 
ATOM     89  C   UNL A   1      54.695  28.359  27.861  1.00  0.00     0.041 A 
ATOM     90  F   UNL A   1      52.977  28.966  29.333  1.00  0.00    -0.206 F 
ATOM     91  C   UNL A   1      55.325  27.404  27.070  1.00  0.00     0.022 A 
BRANCH  88  92
ATOM     92  S   UNL A   1      55.622  24.834  26.032  1.00  0.00     0.124 S 
ATOM     93  O   UNL A   1      56.800  25.545  25.549  1.00  0.00    -0.237 OA
ATOM     94  O   UNL A   1      55.857  23.831  27.064  1.00  0.00    -0.237 OA
ATOM     95  O   UNL A   1      54.658  24.451  25.002  1.00  0.00    -0.744 OA
ENDBRANCH  88  92
ENDBRANCH  61  85
BRANCH  73  96
ATOM     96  C   UNL A   1      51.975  24.721  35.046  1.00  0.00     0.023 A 
ATOM     97  C   UNL A   1      52.445  25.690  35.948  1.00  0.00     0.031 A 
ATOM     98  C   UNL A   1      52.432  23.400  35.197  1.00  0.00     0.131 A 
ATOM     99  C   UNL A   1      53.384  25.335  36.928  1.00  0.00     0.055 A 
ATOM    100  C   UNL A   1      53.321  23.040  36.212  1.00  0.00     0.041 A 
ATOM    101  F   UNL A   1      52.017  22.432  34.364  1.00  0.00    -0.206 F 
ATOM    102  C   UNL A   1      53.811  24.013  37.077  1.00  0.00     0.022 A 
BRANCH  99 103
ATOM    103  S   UNL A   1      54.108  26.642  37.958  1.00  0.00     0.124 S 
ATOM    104  O   UNL A   1      53.352  26.505  39.199  1.00  0.00    -0.237 OA
ATOM    105  O   UNL A   1      55.512  26.250  38.020  1.00  0.00    -0.237 OA
ATOM    106  O   UNL A   1      53.840  27.864  37.201  1.00  0.00    -0.744 OA
ENDBRANCH  99 103
ENDBRANCH  73  96
ENDBRANCH  47  48
ENDBRANCH  40  42
ENDBRANCH  39  40
ENDBRANCH  38  39
ENDBRANCH  37  38
ENDBRANCH  36  37
ENDBRANCH  35  36
ENDBRANCH  34  35
ENDBRANCH   1  34
TORSDOF 27
ENDMDL
MODEL 3
REMARK VINA RESULT:      -9.0      8.092     11.891
REMARK SMILES CCSc1ccc(-c2cc(Cl)cc3c2O[C@@H](C(F)(F)F)C(C(=O)OCCOCCOCCOCCOC(=O)c2ccc(-c4c5nc(c(-c6cc(S(=O)(=O)[O-])ccc6F)c6ccc([nH]6)c(-c6cc(S(=O)(=O)[O-])ccc6F)c6nc(c(-c7cc(S(=O)(=O)[O-])ccc7F)c7ccc4[nH]7)C=C6)C=C5)cc2)=C3)cc1
REMARK SMILES IDX 30 1 29 2 28 3 27 4 26 5 25 6 24 7 22 8 23 9 21 10 8 11 9 12
REMARK SMILES IDX 14 13 10 14 13 15 15 16 11 17 12 18 102 19 16 20 7 21 4 22
REMARK SMILES IDX 5 23 104 24 6 25 103 26 3 27 2 28 1 29 17 30 18 31 19 32
REMARK SMILES IDX 20 33 31 34 32 35 33 36 34 37 35 38 36 39 37 40 38 41 39 42
REMARK SMILES IDX 40 43 101 44 41 45 100 46 42 47 43 48 44 49 94 50 45 51
REMARK SMILES IDX 99 52 93 53 95 54 46 55 98 56 92 57 91 58 47 60 79 61 59 62
REMARK SMILES IDX 78 63 60 64 63 65 77 66 96 67 61 68 62 69 76 71 97 72 64 73
REMARK SMILES IDX 48 74 49 75 57 76 50 77 56 78 58 79 55 80 51 81 52 82 53 83
REMARK SMILES IDX 54 84 80 85 81 86 89 87 82 88 88 89 90 90 87 91 83 92 84 93
REMARK SMILES IDX 85 94 86 95 65 96 66 97 74 98 67 99 73 100 75 101 72 102
REMARK SMILES IDX 68 103 69 104 70 105 71 106
REMARK H PARENT 95 59 63 70
REMARK Flexibility Score: inf
ROOT
ATOM      1  O   UNL A   1      32.373  36.601  31.388  1.00  0.00    -0.377 OA
ENDROOT
BRANCH   1   2
ATOM      2  C   UNL A   1      32.936  37.198  30.237  1.00  0.00     0.188 C 
BRANCH   2   3
ATOM      3  C   UNL A   1      33.430  36.157  29.225  1.00  0.00     0.188 C 
BRANCH   3   4
ATOM      4  O   UNL A   1      33.053  34.819  29.529  1.00  0.00    -0.376 OA
BRANCH   4   5
ATOM      5  C   UNL A   1      33.626  33.762  28.761  1.00  0.00     0.202 C 
BRANCH   5   6
ATOM      6  C   UNL A   1      32.926  33.329  27.464  1.00  0.00     0.261 C 
BRANCH   6   7
ATOM      7  O   UNL A   1      33.312  31.983  27.102  1.00  0.00    -0.460 OA
BRANCH   7   8
ATOM      8  C   UNL A   1      32.322  31.082  27.046  1.00  0.00     0.338 C 
ATOM      9  O   UNL A   1      31.242  31.257  26.494  1.00  0.00    -0.246 OA
BRANCH   8  10
ATOM     10  C   UNL A   1      32.733  29.751  27.562  1.00  0.00     0.087 C 
ATOM     11  C   UNL A   1      33.614  26.953  24.627  1.00  0.00     0.026 A 
ATOM     12  C   UNL A   1      32.835  27.285  23.492  1.00  0.00     0.033 A 
ATOM     13  C   UNL A   1      33.376  27.728  25.781  1.00  0.00     0.135 A 
ATOM     14  C   UNL A   1      31.687  28.067  23.611  1.00  0.00     0.042 A 
ATOM     15  C   UNL A   1      32.112  28.317  25.948  1.00  0.00     0.019 A 
ATOM     16  O   UNL A   1      34.422  28.115  26.614  1.00  0.00    -0.475 OA
ATOM     17  Cl  UNL A   1      30.737  28.401  22.219  1.00  0.00    -0.084 Cl
ATOM     18  C   UNL A   1      31.266  28.498  24.859  1.00  0.00     0.032 A 
ATOM     19  C   UNL A   1      31.766  28.860  27.279  1.00  0.00     0.027 C 
ATOM     20  C   UNL A   1      34.127  29.154  27.651  1.00  0.00     0.316 C 
BRANCH  11  21
ATOM     21  C   UNL A   1      34.023  25.504  24.662  1.00  0.00    -0.015 A 
ATOM     22  C   UNL A   1      35.753  23.241  24.300  1.00  0.00     0.007 A 
ATOM     23  C   UNL A   1      35.643  23.863  25.543  1.00  0.00     0.015 A 
ATOM     24  C   UNL A   1      34.909  23.685  23.275  1.00  0.00     0.015 A 
ATOM     25  C   UNL A   1      34.776  24.966  25.726  1.00  0.00     0.010 A 
ATOM     26  C   UNL A   1      34.051  24.783  23.454  1.00  0.00     0.010 A 
BRANCH  22  27
ATOM     27  S   UNL A   1      36.968  22.007  23.838  1.00  0.00    -0.126 SA
BRANCH  27  28
ATOM     28  C   UNL A   1      37.302  21.045  25.350  1.00  0.00     0.071 C 
ATOM     29  C   UNL A   1      38.779  21.023  25.712  1.00  0.00     0.016 C 
ENDBRANCH  27  28
ENDBRANCH  22  27
ENDBRANCH  11  21
BRANCH  20  30
ATOM     30  C   UNL A   1      35.307  30.095  28.008  1.00  0.00     0.430 C 
ATOM     31  F   UNL A   1      36.384  29.346  28.372  1.00  0.00    -0.167 F 
ATOM     32  F   UNL A   1      35.696  30.822  26.933  1.00  0.00    -0.167 F 
ATOM     33  F   UNL A   1      35.093  30.958  29.011  1.00  0.00    -0.167 F 
ENDBRANCH  20  30
ENDBRANCH   8  10
ENDBRANCH   7   8
ENDBRANCH   6   7
ENDBRANCH   5   6
ENDBRANCH   4   5
ENDBRANCH   3   4
ENDBRANCH   2   3
ENDBRANCH   1   2
BRANCH   1  34
ATOM     34  C   UNL A   1      33.095  36.748  32.607  1.00  0.00     0.188 C 
BRANCH  34  35
ATOM     35  C   UNL A   1      34.054  35.635  33.083  1.00  0.00     0.188 C 
BRANCH  35  36
ATOM     36  O   UNL A   1      33.641  34.315  32.724  1.00  0.00    -0.376 OA
BRANCH  36  37
ATOM     37  C   UNL A   1      34.659  33.420  32.293  1.00  0.00     0.202 C 
BRANCH  37  38
ATOM     38  C   UNL A   1      36.085  33.946  32.500  1.00  0.00     0.261 C 
BRANCH  38  39
ATOM     39  O   UNL A   1      36.857  34.102  31.299  1.00  0.00    -0.460 OA
BRANCH  39  40
ATOM     40  C   UNL A   1      37.699  33.097  30.975  1.00  0.00     0.338 C 
ATOM     41  O   UNL A   1      37.425  31.911  30.898  1.00  0.00    -0.246 OA
BRANCH  40  42
ATOM     42  C   UNL A   1      38.969  33.699  30.521  1.00  0.00     0.060 A 
ATOM     43  C   UNL A   1      39.038  34.230  29.226  1.00  0.00     0.016 A 
ATOM     44  C   UNL A   1      40.073  33.763  31.375  1.00  0.00     0.016 A 
ATOM     45  C   UNL A   1      40.231  34.787  28.766  1.00  0.00     0.010 A 
ATOM     46  C   UNL A   1      41.272  34.303  30.907  1.00  0.00     0.010 A 
ATOM     47  C   UNL A   1      41.366  34.783  29.589  1.00  0.00    -0.014 A 
BRANCH  47  48
ATOM     48  C   UNL A   1      42.700  35.058  29.003  1.00  0.00     0.031 A 
ATOM     49  C   UNL A   1      43.591  33.882  28.709  1.00  0.00     0.074 A 
ATOM     50  C   UNL A   1      43.110  36.310  28.737  1.00  0.00     0.049 A 
ATOM     51  N   UNL A   1      44.815  33.857  28.254  1.00  0.00    -0.248 NA
ATOM     52  C   UNL A   1      43.016  32.553  28.973  1.00  0.00     0.031 C 
ATOM     53  C   UNL A   1      42.321  37.522  28.946  1.00  0.00     0.029 A 
ATOM     54  N   UNL A   1      44.306  36.767  28.242  1.00  0.00    -0.354 N 
ATOM     55  C   UNL A   1      45.156  32.512  28.171  1.00  0.00     0.074 A 
ATOM     56  C   UNL A   1      44.026  31.757  28.666  1.00  0.00     0.031 C 
ATOM     57  C   UNL A   1      43.061  38.588  28.596  1.00  0.00     0.029 A 
ATOM     58  C   UNL A   1      44.388  38.138  28.172  1.00  0.00     0.049 A 
ATOM     59  H   UNL A   1      45.036  36.169  27.962  1.00  0.00     0.167 HD
ATOM     60  C   UNL A   1      46.304  31.954  27.713  1.00  0.00     0.034 A 
ATOM     61  C   UNL A   1      45.424  38.933  27.834  1.00  0.00     0.034 A 
ATOM     62  C   UNL A   1      47.435  32.721  27.255  1.00  0.00     0.049 A 
ATOM     63  C   UNL A   1      46.731  38.295  27.420  1.00  0.00     0.074 A 
ATOM     64  C   UNL A   1      48.651  32.266  26.776  1.00  0.00     0.029 A 
ATOM     65  N   UNL A   1      47.496  34.110  27.235  1.00  0.00    -0.354 N 
ATOM     66  N   UNL A   1      47.041  37.020  27.333  1.00  0.00    -0.248 NA
ATOM     67  C   UNL A   1      47.825  39.203  27.050  1.00  0.00     0.031 C 
ATOM     68  C   UNL A   1      49.470  33.374  26.534  1.00  0.00     0.029 A 
ATOM     69  C   UNL A   1      48.739  34.525  26.783  1.00  0.00     0.049 A 
ATOM     70  H   UNL A   1      46.764  34.710  27.502  1.00  0.00     0.167 HD
ATOM     71  C   UNL A   1      48.354  36.978  26.870  1.00  0.00     0.074 A 
ATOM     72  C   UNL A   1      48.772  38.352  26.685  1.00  0.00     0.031 C 
ATOM     73  C   UNL A   1      49.143  35.903  26.613  1.00  0.00     0.034 A 
BRANCH  60  74
ATOM     74  C   UNL A   1      46.396  30.449  27.746  1.00  0.00     0.023 A 
ATOM     75  C   UNL A   1      45.938  29.659  26.676  1.00  0.00     0.031 A 
ATOM     76  C   UNL A   1      46.897  29.791  28.883  1.00  0.00     0.131 A 
ATOM     77  C   UNL A   1      45.918  28.261  26.797  1.00  0.00     0.055 A 
ATOM     78  C   UNL A   1      46.950  28.399  28.964  1.00  0.00     0.041 A 
ATOM     79  F   UNL A   1      47.322  30.492  29.946  1.00  0.00    -0.206 F 
ATOM     80  C   UNL A   1      46.445  27.625  27.923  1.00  0.00     0.022 A 
BRANCH  77  81
ATOM     81  S   UNL A   1      45.053  27.294  25.529  1.00  0.00     0.124 S 
ATOM     82  O   UNL A   1      44.786  26.046  26.239  1.00  0.00    -0.237 OA
ATOM     83  O   UNL A   1      43.891  28.125  25.236  1.00  0.00    -0.237 OA
ATOM     84  O   UNL A   1      46.034  27.190  24.450  1.00  0.00    -0.744 OA
ENDBRANCH  77  81
ENDBRANCH  60  74
BRANCH  61  85
ATOM     85  C   UNL A   1      45.298  40.417  27.914  1.00  0.00     0.023 A 
ATOM     86  C   UNL A   1      45.402  41.094  29.139  1.00  0.00     0.031 A 
ATOM     87  C   UNL A   1      45.008  41.176  26.765  1.00  0.00     0.131 A 
ATOM     88  C   UNL A   1      45.172  42.479  29.195  1.00  0.00     0.055 A 
ATOM     89  C   UNL A   1      44.831  42.559  26.817  1.00  0.00     0.041 A 
ATOM     90  F   UNL A   1      44.892  40.578  25.568  1.00  0.00    -0.206 F 
ATOM     91  C   UNL A   1      44.900  43.216  28.042  1.00  0.00     0.022 A 
BRANCH  88  92
ATOM     92  S   UNL A   1      45.145  43.291  30.817  1.00  0.00     0.124 S 
ATOM     93  O   UNL A   1      44.487  44.555  30.507  1.00  0.00    -0.237 OA
ATOM     94  O   UNL A   1      44.375  42.346  31.617  1.00  0.00    -0.237 OA
ATOM     95  O   UNL A   1      46.560  43.394  31.169  1.00  0.00    -0.744 OA
ENDBRANCH  88  92
ENDBRANCH  61  85
BRANCH  73  96
ATOM     96  C   UNL A   1      50.521  36.173  26.056  1.00  0.00     0.023 A 
ATOM     97  C   UNL A   1      51.674  36.105  26.856  1.00  0.00     0.031 A 
ATOM     98  C   UNL A   1      50.678  36.502  24.698  1.00  0.00     0.131 A 
ATOM     99  C   UNL A   1      52.927  36.414  26.305  1.00  0.00     0.055 A 
ATOM    100  C   UNL A   1      51.933  36.751  24.140  1.00  0.00     0.041 A 
ATOM    101  F   UNL A   1      49.612  36.583  23.885  1.00  0.00    -0.206 F 
ATOM    102  C   UNL A   1      53.066  36.720  24.948  1.00  0.00     0.022 A 
BRANCH  99 103
ATOM    103  S   UNL A   1      54.368  36.496  27.404  1.00  0.00     0.124 S 
ATOM    104  O   UNL A   1      55.369  37.124  26.547  1.00  0.00    -0.237 OA
ATOM    105  O   UNL A   1      53.874  37.310  28.509  1.00  0.00    -0.237 OA
ATOM    106  O   UNL A   1      54.627  35.095  27.734  1.00  0.00    -0.744 OA
ENDBRANCH  99 103
ENDBRANCH  73  96
ENDBRANCH  47  48
ENDBRANCH  40  42
ENDBRANCH  39  40
ENDBRANCH  38  39
ENDBRANCH  37  38
ENDBRANCH  36  37
ENDBRANCH  35  36
ENDBRANCH  34  35
ENDBRANCH   1  34
TORSDOF 27
ENDMDL
