MODEL 1
REMARK VINA RESULT:      -9.8      0.000      0.000
REMARK SMILES CC1=C2C(CSc3c(Cl)cccc3Cl)=CC(=O)N=C2S[C@H]1C(=O)OCCOCCOCCOCCOC(=O)c1ccc(-c2c3nc(c(-c4cc(S(=O)(=O)[O-])ccc4F)c4ccc([nH]4)c(-c4cc(S(=O)(=O)[O-])ccc4F)c4nc(c(-c5cc(S(=O)(=O)[O-])ccc5F)c5ccc2[nH]5)C=C4)C=C3)cc1
REMARK SMILES IDX 30 1 29 2 28 3 27 4 26 5 25 6 24 7 22 8 23 9 21 10 1 11 2 12
REMARK SMILES IDX 3 13 4 14 19 15 20 16 15 17 18 18 16 19 17 20 5 21 6 22 7 23
REMARK SMILES IDX 8 24 13 25 9 26 10 27 12 28 14 29 11 30 31 31 32 32 33 33
REMARK SMILES IDX 34 34 35 35 36 36 37 37 38 38 39 39 40 40 101 41 41 42
REMARK SMILES IDX 100 43 42 44 43 45 44 46 94 47 45 48 99 49 93 50 95 51 46 52
REMARK SMILES IDX 98 53 92 54 91 55 47 57 79 58 59 59 78 60 60 61 63 62 77 63
REMARK SMILES IDX 96 64 61 65 62 66 76 68 97 69 64 70 48 71 49 72 57 73 50 74
REMARK SMILES IDX 56 75 58 76 55 77 51 78 52 79 53 80 54 81 80 82 81 83 89 84
REMARK SMILES IDX 82 85 88 86 90 87 87 88 83 89 84 90 85 91 86 92 65 93 66 94
REMARK SMILES IDX 74 95 67 96 73 97 75 98 72 99 68 100 69 101 70 102 71 103
REMARK H PARENT 95 56 63 67
REMARK Flexibility Score: inf
ROOT
ATOM      1  O   UNL A   1      34.791  31.364  27.409  1.00  0.00    -0.377 OA
ENDROOT
BRANCH   1   2
ATOM      2  C   UNL A   1      33.761  30.394  27.319  1.00  0.00     0.188 C 
BRANCH   2   3
ATOM      3  C   UNL A   1      32.365  30.890  26.940  1.00  0.00     0.188 C 
BRANCH   3   4
ATOM      4  O   UNL A   1      31.789  30.533  25.699  1.00  0.00    -0.376 OA
BRANCH   4   5
ATOM      5  C   UNL A   1      31.791  29.165  25.316  1.00  0.00     0.202 C 
BRANCH   5   6
ATOM      6  C   UNL A   1      32.989  28.618  24.515  1.00  0.00     0.261 C 
BRANCH   6   7
ATOM      7  O   UNL A   1      32.767  28.228  23.136  1.00  0.00    -0.462 OA
BRANCH   7   8
ATOM      8  C   UNL A   1      31.532  28.415  22.594  1.00  0.00     0.323 C 
ATOM      9  O   UNL A   1      31.079  29.516  22.290  1.00  0.00    -0.251 OA
BRANCH   8  10
ATOM     10  C   UNL A   1      30.711  27.113  22.383  1.00  0.00     0.189 C 
ATOM     11  C   UNL A   1      32.246  25.428  21.218  1.00  0.00     0.042 C 
ATOM     12  C   UNL A   1      31.398  25.745  22.412  1.00  0.00    -0.039 C 
ATOM     13  C   UNL A   1      31.127  24.949  23.470  1.00  0.00     0.012 C 
ATOM     14  C   UNL A   1      31.470  23.588  23.914  1.00  0.00    -0.022 C 
ATOM     15  C   UNL A   1      30.226  25.680  24.408  1.00  0.00     0.109 C 
ATOM     16  S   UNL A   1      29.395  26.990  23.629  1.00  0.00    -0.086 SA
ATOM     17  C   UNL A   1      31.238  23.341  25.224  1.00  0.00     0.079 C 
ATOM     18  N   UNL A   1      30.032  25.413  25.646  1.00  0.00    -0.202 NA
ATOM     19  C   UNL A   1      30.791  24.401  26.172  1.00  0.00     0.271 C 
ATOM     20  O   UNL A   1      31.084  24.301  27.355  1.00  0.00    -0.267 OA
BRANCH  14  21
ATOM     21  C   UNL A   1      32.058  22.499  23.018  1.00  0.00     0.111 C 
BRANCH  21  22
ATOM     22  S   UNL A   1      33.116  21.204  23.897  1.00  0.00    -0.118 SA
BRANCH  22  23
ATOM     23  C   UNL A   1      34.553  22.114  24.526  1.00  0.00     0.045 A 
ATOM     24  C   UNL A   1      35.436  22.752  23.662  1.00  0.00     0.056 A 
ATOM     25  C   UNL A   1      34.818  22.324  25.886  1.00  0.00     0.056 A 
ATOM     26  Cl  UNL A   1      34.760  23.505  22.289  1.00  0.00    -0.083 Cl
ATOM     27  C   UNL A   1      36.703  23.207  24.039  1.00  0.00     0.022 A 
ATOM     28  C   UNL A   1      36.014  22.949  26.307  1.00  0.00     0.022 A 
ATOM     29  Cl  UNL A   1      33.667  21.948  27.119  1.00  0.00    -0.083 Cl
ATOM     30  C   UNL A   1      36.995  23.311  25.386  1.00  0.00     0.003 A 
ENDBRANCH  22  23
ENDBRANCH  21  22
ENDBRANCH  14  21
ENDBRANCH   8  10
ENDBRANCH   7   8
ENDBRANCH   6   7
ENDBRANCH   5   6
ENDBRANCH   4   5
ENDBRANCH   3   4
ENDBRANCH   2   3
ENDBRANCH   1   2
BRANCH   1  31
ATOM     31  C   UNL A   1      34.717  32.335  28.455  1.00  0.00     0.188 C 
BRANCH  31  32
ATOM     32  C   UNL A   1      35.776  33.446  28.405  1.00  0.00     0.188 C 
BRANCH  32  33
ATOM     33  O   UNL A   1      35.183  34.723  28.208  1.00  0.00    -0.376 OA
BRANCH  33  34
ATOM     34  C   UNL A   1      33.773  34.857  28.234  1.00  0.00     0.202 C 
BRANCH  34  35
ATOM     35  C   UNL A   1      32.995  34.905  29.557  1.00  0.00     0.261 C 
BRANCH  35  36
ATOM     36  O   UNL A   1      33.566  35.667  30.612  1.00  0.00    -0.460 OA
BRANCH  36  37
ATOM     37  C   UNL A   1      33.606  35.062  31.812  1.00  0.00     0.338 C 
ATOM     38  O   UNL A   1      32.701  35.010  32.635  1.00  0.00    -0.246 OA
BRANCH  37  39
ATOM     39  C   UNL A   1      34.859  34.301  31.876  1.00  0.00     0.060 A 
ATOM     40  C   UNL A   1      34.777  32.954  32.239  1.00  0.00     0.016 A 
ATOM     41  C   UNL A   1      36.090  34.904  31.595  1.00  0.00     0.016 A 
ATOM     42  C   UNL A   1      35.940  32.210  32.379  1.00  0.00     0.010 A 
ATOM     43  C   UNL A   1      37.258  34.160  31.758  1.00  0.00     0.010 A 
ATOM     44  C   UNL A   1      37.184  32.827  32.194  1.00  0.00    -0.014 A 
BRANCH  44  45
ATOM     45  C   UNL A   1      38.390  32.132  32.689  1.00  0.00     0.031 A 
ATOM     46  C   UNL A   1      38.989  31.064  31.818  1.00  0.00     0.074 A 
ATOM     47  C   UNL A   1      38.969  32.501  33.843  1.00  0.00     0.049 A 
ATOM     48  N   UNL A   1      40.023  30.297  32.031  1.00  0.00    -0.248 NA
ATOM     49  C   UNL A   1      38.324  30.832  30.523  1.00  0.00     0.031 C 
ATOM     50  C   UNL A   1      38.491  33.572  34.717  1.00  0.00     0.029 A 
ATOM     51  N   UNL A   1      40.084  32.019  34.475  1.00  0.00    -0.354 N 
ATOM     52  C   UNL A   1      40.129  29.485  30.906  1.00  0.00     0.074 A 
ATOM     53  C   UNL A   1      39.036  29.832  30.026  1.00  0.00     0.031 C 
ATOM     54  C   UNL A   1      39.310  33.662  35.779  1.00  0.00     0.029 A 
ATOM     55  C   UNL A   1      40.332  32.622  35.685  1.00  0.00     0.049 A 
ATOM     56  H   UNL A   1      40.653  31.308  34.101  1.00  0.00     0.167 HD
ATOM     57  C   UNL A   1      41.060  28.539  30.639  1.00  0.00     0.034 A 
ATOM     58  C   UNL A   1      41.256  32.333  36.623  1.00  0.00     0.034 A 
ATOM     59  C   UNL A   1      42.123  28.204  31.553  1.00  0.00     0.049 A 
ATOM     60  C   UNL A   1      42.218  31.199  36.351  1.00  0.00     0.074 A 
ATOM     61  C   UNL A   1      43.123  27.260  31.406  1.00  0.00     0.029 A 
ATOM     62  N   UNL A   1      42.311  28.795  32.799  1.00  0.00    -0.354 N 
ATOM     63  N   UNL A   1      42.307  30.426  35.290  1.00  0.00    -0.248 NA
ATOM     64  C   UNL A   1      43.204  30.899  37.397  1.00  0.00     0.031 C 
ATOM     65  C   UNL A   1      43.861  27.222  32.594  1.00  0.00     0.029 A 
ATOM     66  C   UNL A   1      43.387  28.210  33.444  1.00  0.00     0.049 A 
ATOM     67  H   UNL A   1      41.760  29.523  33.166  1.00  0.00     0.167 HD
ATOM     68  C   UNL A   1      43.383  29.574  35.529  1.00  0.00     0.074 A 
ATOM     69  C   UNL A   1      43.912  29.934  36.829  1.00  0.00     0.031 C 
ATOM     70  C   UNL A   1      43.894  28.590  34.744  1.00  0.00     0.034 A 
BRANCH  57  71
ATOM     71  C   UNL A   1      40.917  27.763  29.350  1.00  0.00     0.023 A 
ATOM     72  C   UNL A   1      41.783  27.960  28.259  1.00  0.00     0.031 A 
ATOM     73  C   UNL A   1      39.868  26.839  29.196  1.00  0.00     0.131 A 
ATOM     74  C   UNL A   1      41.542  27.299  27.045  1.00  0.00     0.055 A 
ATOM     75  C   UNL A   1      39.685  26.121  28.013  1.00  0.00     0.041 A 
ATOM     76  F   UNL A   1      38.989  26.630  30.189  1.00  0.00    -0.206 F 
ATOM     77  C   UNL A   1      40.516  26.359  26.923  1.00  0.00     0.022 A 
BRANCH  74  78
ATOM     78  S   UNL A   1      42.494  27.793  25.581  1.00  0.00     0.124 S 
ATOM     79  O   UNL A   1      43.825  27.995  26.148  1.00  0.00    -0.237 OA
ATOM     80  O   UNL A   1      42.342  26.641  24.701  1.00  0.00    -0.237 OA
ATOM     81  O   UNL A   1      41.825  29.013  25.132  1.00  0.00    -0.744 OA
ENDBRANCH  74  78
ENDBRANCH  57  71
BRANCH  58  82
ATOM     82  C   UNL A   1      41.288  33.080  37.912  1.00  0.00     0.023 A 
ATOM     83  C   UNL A   1      40.392  32.782  38.951  1.00  0.00     0.031 A 
ATOM     84  C   UNL A   1      42.191  34.142  38.109  1.00  0.00     0.131 A 
ATOM     85  C   UNL A   1      40.389  33.562  40.120  1.00  0.00     0.055 A 
ATOM     86  C   UNL A   1      42.227  34.873  39.298  1.00  0.00     0.041 A 
ATOM     87  F   UNL A   1      43.059  34.484  37.143  1.00  0.00    -0.206 F 
ATOM     88  C   UNL A   1      41.314  34.593  40.307  1.00  0.00     0.022 A 
BRANCH  85  89
ATOM     89  S   UNL A   1      39.089  33.277  41.351  1.00  0.00     0.124 S 
ATOM     90  O   UNL A   1      39.571  32.074  42.020  1.00  0.00    -0.237 OA
ATOM     91  O   UNL A   1      39.133  34.508  42.132  1.00  0.00    -0.237 OA
ATOM     92  O   UNL A   1      37.885  33.098  40.540  1.00  0.00    -0.744 OA
ENDBRANCH  85  89
ENDBRANCH  58  82
BRANCH  70  93
ATOM     93  C   UNL A   1      45.128  27.880  35.243  1.00  0.00     0.023 A 
ATOM     94  C   UNL A   1      45.055  26.680  35.971  1.00  0.00     0.031 A 
ATOM     95  C   UNL A   1      46.401  28.409  34.961  1.00  0.00     0.131 A 
ATOM     96  C   UNL A   1      46.233  26.073  36.431  1.00  0.00     0.055 A 
ATOM     97  C   UNL A   1      47.570  27.765  35.362  1.00  0.00     0.041 A 
ATOM     98  F   UNL A   1      46.527  29.555  34.272  1.00  0.00    -0.206 F 
ATOM     99  C   UNL A   1      47.490  26.595  36.112  1.00  0.00     0.022 A 
BRANCH  96 100
ATOM    100  S   UNL A   1      46.103  24.633  37.525  1.00  0.00     0.124 S 
ATOM    101  O   UNL A   1      44.826  24.871  38.188  1.00  0.00    -0.237 OA
ATOM    102  O   UNL A   1      46.136  23.519  36.584  1.00  0.00    -0.237 OA
ATOM    103  O   UNL A   1      47.279  24.749  38.386  1.00  0.00    -0.744 OA
ENDBRANCH  96 100
ENDBRANCH  70  93
ENDBRANCH  44  45
ENDBRANCH  37  39
ENDBRANCH  36  37
ENDBRANCH  35  36
ENDBRANCH  34  35
ENDBRANCH  33  34
ENDBRANCH  32  33
ENDBRANCH  31  32
ENDBRANCH   1  31
TORSDOF 26
ENDMDL
MODEL 2
REMARK VINA RESULT:      -8.9      2.384      2.875
REMARK SMILES CC1=C2C(CSc3c(Cl)cccc3Cl)=CC(=O)N=C2S[C@H]1C(=O)OCCOCCOCCOCCOC(=O)c1ccc(-c2c3nc(c(-c4cc(S(=O)(=O)[O-])ccc4F)c4ccc([nH]4)c(-c4cc(S(=O)(=O)[O-])ccc4F)c4nc(c(-c5cc(S(=O)(=O)[O-])ccc5F)c5ccc2[nH]5)C=C4)C=C3)cc1
REMARK SMILES IDX 30 1 29 2 28 3 27 4 26 5 25 6 24 7 22 8 23 9 21 10 1 11 2 12
REMARK SMILES IDX 3 13 4 14 19 15 20 16 15 17 18 18 16 19 17 20 5 21 6 22 7 23
REMARK SMILES IDX 8 24 13 25 9 26 10 27 12 28 14 29 11 30 31 31 32 32 33 33
REMARK SMILES IDX 34 34 35 35 36 36 37 37 38 38 39 39 40 40 101 41 41 42
REMARK SMILES IDX 100 43 42 44 43 45 44 46 94 47 45 48 99 49 93 50 95 51 46 52
REMARK SMILES IDX 98 53 92 54 91 55 47 57 79 58 59 59 78 60 60 61 63 62 77 63
REMARK SMILES IDX 96 64 61 65 62 66 76 68 97 69 64 70 48 71 49 72 57 73 50 74
REMARK SMILES IDX 56 75 58 76 55 77 51 78 52 79 53 80 54 81 80 82 81 83 89 84
REMARK SMILES IDX 82 85 88 86 90 87 87 88 83 89 84 90 85 91 86 92 65 93 66 94
REMARK SMILES IDX 74 95 67 96 73 97 75 98 72 99 68 100 69 101 70 102 71 103
REMARK H PARENT 95 56 63 67
REMARK Flexibility Score: inf
ROOT
ATOM      1  O   UNL A   1      32.968  30.373  26.023  1.00  0.00    -0.377 OA
ENDROOT
BRANCH   1   2
ATOM      2  C   UNL A   1      31.726  29.887  25.543  1.00  0.00     0.188 C 
BRANCH   2   3
ATOM      3  C   UNL A   1      30.623  30.916  25.287  1.00  0.00     0.188 C 
BRANCH   3   4
ATOM      4  O   UNL A   1      30.127  31.125  23.980  1.00  0.00    -0.376 OA
BRANCH   4   5
ATOM      5  C   UNL A   1      29.557  30.025  23.283  1.00  0.00     0.202 C 
BRANCH   5   6
ATOM      6  C   UNL A   1      30.478  29.118  22.444  1.00  0.00     0.261 C 
BRANCH   6   7
ATOM      7  O   UNL A   1      30.027  27.772  22.150  1.00  0.00    -0.462 OA
BRANCH   7   8
ATOM      8  C   UNL A   1      29.891  26.889  23.177  1.00  0.00     0.323 C 
ATOM      9  O   UNL A   1      28.808  26.466  23.577  1.00  0.00    -0.251 OA
BRANCH   8  10
ATOM     10  C   UNL A   1      31.227  26.441  23.832  1.00  0.00     0.189 C 
ATOM     11  C   UNL A   1      30.705  25.793  26.253  1.00  0.00     0.042 C 
ATOM     12  C   UNL A   1      31.237  25.363  24.920  1.00  0.00    -0.039 C 
ATOM     13  C   UNL A   1      31.775  24.168  24.589  1.00  0.00     0.012 C 
ATOM     14  C   UNL A   1      32.062  22.890  25.259  1.00  0.00    -0.022 C 
ATOM     15  C   UNL A   1      32.183  24.201  23.154  1.00  0.00     0.109 C 
ATOM     16  S   UNL A   1      32.373  25.824  22.566  1.00  0.00    -0.086 SA
ATOM     17  C   UNL A   1      32.299  21.850  24.427  1.00  0.00     0.079 C 
ATOM     18  N   UNL A   1      32.399  23.191  22.398  1.00  0.00    -0.202 NA
ATOM     19  C   UNL A   1      32.154  21.960  22.947  1.00  0.00     0.271 C 
ATOM     20  O   UNL A   1      31.865  20.961  22.303  1.00  0.00    -0.267 OA
BRANCH  14  21
ATOM     21  C   UNL A   1      32.092  22.685  26.774  1.00  0.00     0.111 C 
BRANCH  21  22
ATOM     22  S   UNL A   1      33.789  22.304  27.510  1.00  0.00    -0.118 SA
BRANCH  22  23
ATOM     23  C   UNL A   1      34.955  22.481  26.133  1.00  0.00     0.045 A 
ATOM     24  C   UNL A   1      35.474  21.366  25.483  1.00  0.00     0.056 A 
ATOM     25  C   UNL A   1      35.329  23.708  25.570  1.00  0.00     0.056 A 
ATOM     26  Cl  UNL A   1      34.419  20.046  25.255  1.00  0.00    -0.083 Cl
ATOM     27  C   UNL A   1      36.583  21.407  24.632  1.00  0.00     0.022 A 
ATOM     28  C   UNL A   1      36.325  23.778  24.570  1.00  0.00     0.022 A 
ATOM     29  Cl  UNL A   1      34.529  25.188  25.968  1.00  0.00    -0.083 Cl
ATOM     30  C   UNL A   1      37.014  22.635  24.165  1.00  0.00     0.003 A 
ENDBRANCH  22  23
ENDBRANCH  21  22
ENDBRANCH  14  21
ENDBRANCH   8  10
ENDBRANCH   7   8
ENDBRANCH   6   7
ENDBRANCH   5   6
ENDBRANCH   4   5
ENDBRANCH   3   4
ENDBRANCH   2   3
ENDBRANCH   1   2
BRANCH   1  31
ATOM     31  C   UNL A   1      32.998  31.001  27.306  1.00  0.00     0.188 C 
BRANCH  31  32
ATOM     32  C   UNL A   1      34.395  31.336  27.848  1.00  0.00     0.188 C 
BRANCH  32  33
ATOM     33  O   UNL A   1      34.698  32.717  27.694  1.00  0.00    -0.376 OA
BRANCH  33  34
ATOM     34  C   UNL A   1      33.648  33.659  27.571  1.00  0.00     0.202 C 
BRANCH  34  35
ATOM     35  C   UNL A   1      33.004  34.310  28.803  1.00  0.00     0.261 C 
BRANCH  35  36
ATOM     36  O   UNL A   1      33.839  35.135  29.606  1.00  0.00    -0.460 OA
BRANCH  36  37
ATOM     37  C   UNL A   1      34.000  34.737  30.879  1.00  0.00     0.338 C 
ATOM     38  O   UNL A   1      33.199  34.876  31.795  1.00  0.00    -0.246 OA
BRANCH  37  39
ATOM     39  C   UNL A   1      35.221  33.926  30.933  1.00  0.00     0.060 A 
ATOM     40  C   UNL A   1      35.162  32.717  31.632  1.00  0.00     0.016 A 
ATOM     41  C   UNL A   1      36.403  34.351  30.317  1.00  0.00     0.016 A 
ATOM     42  C   UNL A   1      36.309  31.947  31.769  1.00  0.00     0.010 A 
ATOM     43  C   UNL A   1      37.559  33.586  30.474  1.00  0.00     0.010 A 
ATOM     44  C   UNL A   1      37.520  32.408  31.238  1.00  0.00    -0.014 A 
BRANCH  44  45
ATOM     45  C   UNL A   1      38.772  31.769  31.694  1.00  0.00     0.031 A 
ATOM     46  C   UNL A   1      39.377  30.711  30.815  1.00  0.00     0.074 A 
ATOM     47  C   UNL A   1      39.381  32.180  32.817  1.00  0.00     0.049 A 
ATOM     48  N   UNL A   1      40.448  29.988  30.998  1.00  0.00    -0.248 NA
ATOM     49  C   UNL A   1      38.670  30.432  29.552  1.00  0.00     0.031 C 
ATOM     50  C   UNL A   1      38.897  33.245  33.694  1.00  0.00     0.029 A 
ATOM     51  N   UNL A   1      40.539  31.752  33.411  1.00  0.00    -0.354 N 
ATOM     52  C   UNL A   1      40.541  29.162  29.881  1.00  0.00     0.074 A 
ATOM     53  C   UNL A   1      39.401  29.453  29.042  1.00  0.00     0.031 C 
ATOM     54  C   UNL A   1      39.754  33.385  34.720  1.00  0.00     0.029 A 
ATOM     55  C   UNL A   1      40.812  32.384  34.601  1.00  0.00     0.049 A 
ATOM     56  H   UNL A   1      41.120  31.057  33.024  1.00  0.00     0.167 HD
ATOM     57  C   UNL A   1      41.497  28.249  29.590  1.00  0.00     0.034 A 
ATOM     58  C   UNL A   1      41.783  32.147  35.503  1.00  0.00     0.034 A 
ATOM     59  C   UNL A   1      42.608  27.971  30.465  1.00  0.00     0.049 A 
ATOM     60  C   UNL A   1      42.778  31.046  35.210  1.00  0.00     0.074 A 
ATOM     61  C   UNL A   1      43.637  27.064  30.292  1.00  0.00     0.029 A 
ATOM     62  N   UNL A   1      42.823  28.590  31.693  1.00  0.00    -0.354 N 
ATOM     63  N   UNL A   1      42.855  30.260  34.158  1.00  0.00    -0.248 NA
ATOM     64  C   UNL A   1      43.816  30.802  36.219  1.00  0.00     0.031 C 
ATOM     65  C   UNL A   1      44.424  27.074  31.449  1.00  0.00     0.029 A 
ATOM     66  C   UNL A   1      43.946  28.058  32.303  1.00  0.00     0.049 A 
ATOM     67  H   UNL A   1      42.258  29.301  32.072  1.00  0.00     0.167 HD
ATOM     68  C   UNL A   1      43.972  29.455  34.365  1.00  0.00     0.074 A 
ATOM     69  C   UNL A   1      44.539  29.856  35.637  1.00  0.00     0.031 C 
ATOM     70  C   UNL A   1      44.489  28.479  33.575  1.00  0.00     0.034 A 
BRANCH  57  71
ATOM     71  C   UNL A   1      41.333  27.447  28.320  1.00  0.00     0.023 A 
ATOM     72  C   UNL A   1      40.772  26.158  28.317  1.00  0.00     0.031 A 
ATOM     73  C   UNL A   1      41.786  27.968  27.094  1.00  0.00     0.131 A 
ATOM     74  C   UNL A   1      40.742  25.408  27.131  1.00  0.00     0.055 A 
ATOM     75  C   UNL A   1      41.676  27.250  25.902  1.00  0.00     0.041 A 
ATOM     76  F   UNL A   1      42.359  29.180  27.036  1.00  0.00    -0.206 F 
ATOM     77  C   UNL A   1      41.165  25.956  25.918  1.00  0.00     0.022 A 
BRANCH  74  78
ATOM     78  S   UNL A   1      40.285  23.654  27.221  1.00  0.00     0.124 S 
ATOM     79  O   UNL A   1      40.909  23.250  28.478  1.00  0.00    -0.237 OA
ATOM     80  O   UNL A   1      38.828  23.707  27.219  1.00  0.00    -0.237 OA
ATOM     81  O   UNL A   1      40.890  23.080  26.021  1.00  0.00    -0.744 OA
ENDBRANCH  74  78
ENDBRANCH  57  71
BRANCH  58  82
ATOM     82  C   UNL A   1      41.838  32.916  36.780  1.00  0.00     0.023 A 
ATOM     83  C   UNL A   1      40.987  32.610  37.853  1.00  0.00     0.031 A 
ATOM     84  C   UNL A   1      42.716  34.006  36.928  1.00  0.00     0.131 A 
ATOM     85  C   UNL A   1      41.002  33.409  39.009  1.00  0.00     0.055 A 
ATOM     86  C   UNL A   1      42.772  34.757  38.103  1.00  0.00     0.041 A 
ATOM     87  F   UNL A   1      43.541  34.356  35.928  1.00  0.00    -0.206 F 
ATOM     88  C   UNL A   1      41.902  34.469  39.148  1.00  0.00     0.022 A 
BRANCH  85  89
ATOM     89  S   UNL A   1      39.752  33.108  40.288  1.00  0.00     0.124 S 
ATOM     90  O   UNL A   1      38.931  32.076  39.664  1.00  0.00    -0.237 OA
ATOM     91  O   UNL A   1      40.569  32.682  41.419  1.00  0.00    -0.237 OA
ATOM     92  O   UNL A   1      39.104  34.409  40.444  1.00  0.00    -0.744 OA
ENDBRANCH  85  89
ENDBRANCH  58  82
BRANCH  70  93
ATOM     93  C   UNL A   1      45.769  27.825  34.034  1.00  0.00     0.023 A 
ATOM     94  C   UNL A   1      47.032  28.321  33.669  1.00  0.00     0.031 A 
ATOM     95  C   UNL A   1      45.716  26.696  34.871  1.00  0.00     0.131 A 
ATOM     96  C   UNL A   1      48.192  27.661  34.104  1.00  0.00     0.055 A 
ATOM     97  C   UNL A   1      46.872  26.085  35.357  1.00  0.00     0.041 A 
ATOM     98  F   UNL A   1      44.535  26.179  35.248  1.00  0.00    -0.206 F 
ATOM     99  C   UNL A   1      48.119  26.561  34.964  1.00  0.00     0.022 A 
BRANCH  96 100
ATOM    100  S   UNL A   1      49.798  28.207  33.467  1.00  0.00     0.124 S 
ATOM    101  O   UNL A   1      50.126  29.305  34.370  1.00  0.00    -0.237 OA
ATOM    102  O   UNL A   1      50.615  27.005  33.600  1.00  0.00    -0.237 OA
ATOM    103  O   UNL A   1      49.504  28.604  32.091  1.00  0.00    -0.744 OA
ENDBRANCH  96 100
ENDBRANCH  70  93
ENDBRANCH  44  45
ENDBRANCH  37  39
ENDBRANCH  36  37
ENDBRANCH  35  36
ENDBRANCH  34  35
ENDBRANCH  33  34
ENDBRANCH  32  33
ENDBRANCH  31  32
ENDBRANCH   1  31
TORSDOF 26
ENDMDL
MODEL 3
REMARK VINA RESULT:      -8.8      5.371      8.624
REMARK SMILES CC1=C2C(CSc3c(Cl)cccc3Cl)=CC(=O)N=C2S[C@H]1C(=O)OCCOCCOCCOCCOC(=O)c1ccc(-c2c3nc(c(-c4cc(S(=O)(=O)[O-])ccc4F)c4ccc([nH]4)c(-c4cc(S(=O)(=O)[O-])ccc4F)c4nc(c(-c5cc(S(=O)(=O)[O-])ccc5F)c5ccc2[nH]5)C=C4)C=C3)cc1
REMARK SMILES IDX 30 1 29 2 28 3 27 4 26 5 25 6 24 7 22 8 23 9 21 10 1 11 2 12
REMARK SMILES IDX 3 13 4 14 19 15 20 16 15 17 18 18 16 19 17 20 5 21 6 22 7 23
REMARK SMILES IDX 8 24 13 25 9 26 10 27 12 28 14 29 11 30 31 31 32 32 33 33
REMARK SMILES IDX 34 34 35 35 36 36 37 37 38 38 39 39 40 40 101 41 41 42
REMARK SMILES IDX 100 43 42 44 43 45 44 46 94 47 45 48 99 49 93 50 95 51 46 52
REMARK SMILES IDX 98 53 92 54 91 55 47 57 79 58 59 59 78 60 60 61 63 62 77 63
REMARK SMILES IDX 96 64 61 65 62 66 76 68 97 69 64 70 48 71 49 72 57 73 50 74
REMARK SMILES IDX 56 75 58 76 55 77 51 78 52 79 53 80 54 81 80 82 81 83 89 84
REMARK SMILES IDX 82 85 88 86 90 87 87 88 83 89 84 90 85 91 86 92 65 93 66 94
REMARK SMILES IDX 74 95 67 96 73 97 75 98 72 99 68 100 69 101 70 102 71 103
REMARK H PARENT 95 56 63 67
REMARK Flexibility Score: inf
ROOT
ATOM      1  O   UNL A   1      30.910  31.388  25.120  1.00  0.00    -0.377 OA
ENDROOT
BRANCH   1   2
ATOM      2  C   UNL A   1      29.636  31.934  24.823  1.00  0.00     0.188 C 
BRANCH   2   3
ATOM      3  C   UNL A   1      29.425  32.493  23.415  1.00  0.00     0.188 C 
BRANCH   3   4
ATOM      4  O   UNL A   1      28.258  32.176  22.684  1.00  0.00    -0.376 OA
BRANCH   4   5
ATOM      5  C   UNL A   1      27.398  31.158  23.181  1.00  0.00     0.202 C 
BRANCH   5   6
ATOM      6  C   UNL A   1      27.552  29.724  22.638  1.00  0.00     0.261 C 
BRANCH   6   7
ATOM      7  O   UNL A   1      28.538  28.861  23.259  1.00  0.00    -0.462 OA
BRANCH   7   8
ATOM      8  C   UNL A   1      29.803  28.844  22.756  1.00  0.00     0.323 C 
ATOM      9  O   UNL A   1      30.128  29.397  21.707  1.00  0.00    -0.251 OA
BRANCH   8  10
ATOM     10  C   UNL A   1      30.834  28.058  23.612  1.00  0.00     0.189 C 
ATOM     11  C   UNL A   1      29.556  26.193  24.812  1.00  0.00     0.042 C 
ATOM     12  C   UNL A   1      30.655  26.558  23.861  1.00  0.00    -0.039 C 
ATOM     13  C   UNL A   1      31.533  25.730  23.253  1.00  0.00     0.012 C 
ATOM     14  C   UNL A   1      31.811  24.285  23.220  1.00  0.00    -0.022 C 
ATOM     15  C   UNL A   1      32.457  26.541  22.407  1.00  0.00     0.109 C 
ATOM     16  S   UNL A   1      32.494  28.207  22.892  1.00  0.00    -0.086 SA
ATOM     17  C   UNL A   1      32.585  23.877  22.189  1.00  0.00     0.079 C 
ATOM     18  N   UNL A   1      33.176  26.114  21.437  1.00  0.00    -0.202 NA
ATOM     19  C   UNL A   1      33.017  24.797  21.099  1.00  0.00     0.271 C 
ATOM     20  O   UNL A   1      33.240  24.337  19.987  1.00  0.00    -0.267 OA
BRANCH  14  21
ATOM     21  C   UNL A   1      31.285  23.271  24.236  1.00  0.00     0.111 C 
BRANCH  21  22
ATOM     22  S   UNL A   1      32.282  23.124  25.833  1.00  0.00    -0.118 SA
BRANCH  22  23
ATOM     23  C   UNL A   1      33.952  22.655  25.307  1.00  0.00     0.045 A 
ATOM     24  C   UNL A   1      34.277  21.329  25.042  1.00  0.00     0.056 A 
ATOM     25  C   UNL A   1      34.980  23.569  25.038  1.00  0.00     0.056 A 
ATOM     26  Cl  UNL A   1      33.083  20.382  24.277  1.00  0.00    -0.083 Cl
ATOM     27  C   UNL A   1      35.588  20.855  24.928  1.00  0.00     0.022 A 
ATOM     28  C   UNL A   1      36.288  23.128  24.738  1.00  0.00     0.022 A 
ATOM     29  Cl  UNL A   1      34.697  25.271  24.939  1.00  0.00    -0.083 Cl
ATOM     30  C   UNL A   1      36.611  21.772  24.770  1.00  0.00     0.003 A 
ENDBRANCH  22  23
ENDBRANCH  21  22
ENDBRANCH  14  21
ENDBRANCH   8  10
ENDBRANCH   7   8
ENDBRANCH   6   7
ENDBRANCH   5   6
ENDBRANCH   4   5
ENDBRANCH   3   4
ENDBRANCH   2   3
ENDBRANCH   1   2
BRANCH   1  31
ATOM     31  C   UNL A   1      31.416  31.536  26.448  1.00  0.00     0.188 C 
BRANCH  31  32
ATOM     32  C   UNL A   1      32.372  30.431  26.920  1.00  0.00     0.188 C 
BRANCH  32  33
ATOM     33  O   UNL A   1      33.720  30.885  26.954  1.00  0.00    -0.376 OA
BRANCH  33  34
ATOM     34  C   UNL A   1      34.099  31.894  27.871  1.00  0.00     0.202 C 
BRANCH  34  35
ATOM     35  C   UNL A   1      34.662  31.550  29.258  1.00  0.00     0.261 C 
BRANCH  35  36
ATOM     36  O   UNL A   1      35.635  32.435  29.796  1.00  0.00    -0.460 OA
BRANCH  36  37
ATOM     37  C   UNL A   1      36.137  32.091  30.994  1.00  0.00     0.338 C 
ATOM     38  O   UNL A   1      35.502  31.728  31.976  1.00  0.00    -0.246 OA
BRANCH  37  39
ATOM     39  C   UNL A   1      37.597  32.034  30.856  1.00  0.00     0.060 A 
ATOM     40  C   UNL A   1      38.141  32.385  29.618  1.00  0.00     0.016 A 
ATOM     41  C   UNL A   1      38.412  31.634  31.921  1.00  0.00     0.016 A 
ATOM     42  C   UNL A   1      39.510  32.283  29.417  1.00  0.00     0.010 A 
ATOM     43  C   UNL A   1      39.785  31.511  31.709  1.00  0.00     0.010 A 
ATOM     44  C   UNL A   1      40.327  31.792  30.444  1.00  0.00    -0.014 A 
BRANCH  44  45
ATOM     45  C   UNL A   1      41.697  31.358  30.102  1.00  0.00     0.031 A 
ATOM     46  C   UNL A   1      42.747  32.421  29.938  1.00  0.00     0.074 A 
ATOM     47  C   UNL A   1      42.001  30.053  30.018  1.00  0.00     0.049 A 
ATOM     48  N   UNL A   1      44.007  32.305  29.618  1.00  0.00    -0.248 NA
ATOM     49  C   UNL A   1      42.309  33.809  30.168  1.00  0.00     0.031 C 
ATOM     50  C   UNL A   1      41.058  28.956  30.227  1.00  0.00     0.029 A 
ATOM     51  N   UNL A   1      43.189  29.431  29.737  1.00  0.00    -0.354 N 
ATOM     52  C   UNL A   1      44.512  33.601  29.599  1.00  0.00     0.074 A 
ATOM     53  C   UNL A   1      43.415  34.489  29.909  1.00  0.00     0.031 C 
ATOM     54  C   UNL A   1      41.706  27.790  30.063  1.00  0.00     0.029 A 
ATOM     55  C   UNL A   1      43.090  28.061  29.683  1.00  0.00     0.049 A 
ATOM     56  H   UNL A   1      44.031  29.917  29.587  1.00  0.00     0.167 HD
ATOM     57  C   UNL A   1      45.780  34.005  29.347  1.00  0.00     0.034 A 
ATOM     58  C   UNL A   1      44.009  27.141  29.327  1.00  0.00     0.034 A 
ATOM     59  C   UNL A   1      46.843  33.089  29.018  1.00  0.00     0.049 A 
ATOM     60  C   UNL A   1      45.389  27.623  28.942  1.00  0.00     0.074 A 
ATOM     61  C   UNL A   1      48.166  33.369  28.732  1.00  0.00     0.029 A 
ATOM     62  N   UNL A   1      46.695  31.709  28.915  1.00  0.00    -0.354 N 
ATOM     63  N   UNL A   1      45.859  28.851  28.914  1.00  0.00    -0.248 NA
ATOM     64  C   UNL A   1      46.363  26.598  28.545  1.00  0.00     0.031 C 
ATOM     65  C   UNL A   1      48.796  32.172  28.373  1.00  0.00     0.029 A 
ATOM     66  C   UNL A   1      47.894  31.130  28.533  1.00  0.00     0.049 A 
ATOM     67  H   UNL A   1      45.861  31.217  29.088  1.00  0.00     0.167 HD
ATOM     68  C   UNL A   1      47.194  28.740  28.532  1.00  0.00     0.074 A 
ATOM     69  C   UNL A   1      47.453  27.326  28.348  1.00  0.00     0.031 C 
ATOM     70  C   UNL A   1      48.124  29.714  28.356  1.00  0.00     0.034 A 
BRANCH  57  71
ATOM     71  C   UNL A   1      46.052  35.491  29.346  1.00  0.00     0.023 A 
ATOM     72  C   UNL A   1      45.953  36.268  28.178  1.00  0.00     0.031 A 
ATOM     73  C   UNL A   1      46.459  36.133  30.529  1.00  0.00     0.131 A 
ATOM     74  C   UNL A   1      46.324  37.622  28.204  1.00  0.00     0.055 A 
ATOM     75  C   UNL A   1      46.745  37.500  30.566  1.00  0.00     0.041 A 
ATOM     76  F   UNL A   1      46.603  35.440  31.670  1.00  0.00    -0.206 F 
ATOM     77  C   UNL A   1      46.692  38.249  29.395  1.00  0.00     0.022 A 
BRANCH  74  78
ATOM     78  S   UNL A   1      46.464  38.515  26.630  1.00  0.00     0.124 S 
ATOM     79  O   UNL A   1      47.432  39.556  26.966  1.00  0.00    -0.237 OA
ATOM     80  O   UNL A   1      46.932  37.478  25.718  1.00  0.00    -0.237 OA
ATOM     81  O   UNL A   1      45.105  38.994  26.385  1.00  0.00    -0.744 OA
ENDBRANCH  74  78
ENDBRANCH  57  71
BRANCH  58  82
ATOM     82  C   UNL A   1      43.650  25.695  29.264  1.00  0.00     0.023 A 
ATOM     83  C   UNL A   1      42.894  25.176  28.201  1.00  0.00     0.031 A 
ATOM     84  C   UNL A   1      44.022  24.814  30.297  1.00  0.00     0.131 A 
ATOM     85  C   UNL A   1      42.497  23.829  28.216  1.00  0.00     0.055 A 
ATOM     86  C   UNL A   1      43.680  23.461  30.274  1.00  0.00     0.041 A 
ATOM     87  F   UNL A   1      44.731  25.258  31.347  1.00  0.00    -0.206 F 
ATOM     88  C   UNL A   1      42.901  22.963  29.236  1.00  0.00     0.022 A 
BRANCH  85  89
ATOM     89  S   UNL A   1      41.355  23.246  26.934  1.00  0.00     0.124 S 
ATOM     90  O   UNL A   1      42.206  23.260  25.749  1.00  0.00    -0.237 OA
ATOM     91  O   UNL A   1      40.976  21.930  27.437  1.00  0.00    -0.237 OA
ATOM     92  O   UNL A   1      40.289  24.246  26.946  1.00  0.00    -0.744 OA
ENDBRANCH  85  89
ENDBRANCH  58  82
BRANCH  70  93
ATOM     93  C   UNL A   1      49.525  29.276  28.011  1.00  0.00     0.023 A 
ATOM     94  C   UNL A   1      49.973  29.186  26.682  1.00  0.00     0.031 A 
ATOM     95  C   UNL A   1      50.434  28.964  29.039  1.00  0.00     0.131 A 
ATOM     96  C   UNL A   1      51.280  28.751  26.415  1.00  0.00     0.055 A 
ATOM     97  C   UNL A   1      51.752  28.599  28.770  1.00  0.00     0.041 A 
ATOM     98  F   UNL A   1      50.057  29.030  30.326  1.00  0.00    -0.206 F 
ATOM     99  C   UNL A   1      52.178  28.479  27.451  1.00  0.00     0.022 A 
BRANCH  96 100
ATOM    100  S   UNL A   1      51.770  28.464  24.693  1.00  0.00     0.124 S 
ATOM    101  O   UNL A   1      52.535  27.227  24.797  1.00  0.00    -0.237 OA
ATOM    102  O   UNL A   1      50.483  28.364  24.013  1.00  0.00    -0.237 OA
ATOM    103  O   UNL A   1      52.554  29.652  24.357  1.00  0.00    -0.744 OA
ENDBRANCH  96 100
ENDBRANCH  70  93
ENDBRANCH  44  45
ENDBRANCH  37  39
ENDBRANCH  36  37
ENDBRANCH  35  36
ENDBRANCH  34  35
ENDBRANCH  33  34
ENDBRANCH  32  33
ENDBRANCH  31  32
ENDBRANCH   1  31
TORSDOF 26
ENDMDL
