MODEL 1
REMARK VINA RESULT:      -7.2      0.000      0.000
REMARK SMILES COCC(=O)N1[C@@H](C(=O)OCCOCCOCCOCCOC(=O)c2ccc(-c3c4nc(c(-c5cc(S(=O)(=O)[O-])ccc5F)c5ccc([nH]5)c(-c5cc(S(=O)(=O)[O-])ccc5F)c5nc(c(-c6cc(S(=O)(=O)[O-])ccc6F)c6ccc3[nH]6)C=C5)C=C4)cc2)CC[C@@H]2CCCC[C@H]21
REMARK SMILES IDX 16 1 15 2 14 3 13 4 12 5 11 6 10 7 8 8 9 9 7 10 6 11 95 12
REMARK SMILES IDX 88 13 90 14 94 15 89 16 91 17 93 18 92 19 4 20 5 21 3 22
REMARK SMILES IDX 2 23 1 24 17 25 18 26 19 27 20 28 21 29 22 30 23 31 24 32
REMARK SMILES IDX 25 33 26 34 87 35 27 36 86 37 28 38 29 39 30 40 80 41 31 42
REMARK SMILES IDX 85 43 79 44 81 45 32 46 84 47 78 48 77 49 33 51 65 52 45 53
REMARK SMILES IDX 64 54 46 55 49 56 63 57 82 58 47 59 48 60 62 62 83 63 50 64
REMARK SMILES IDX 34 65 35 66 43 67 36 68 42 69 44 70 41 71 37 72 38 73 39 74
REMARK SMILES IDX 40 75 66 76 67 77 75 78 68 79 74 80 76 81 73 82 69 83 70 84
REMARK SMILES IDX 71 85 72 86 51 87 52 88 60 89 53 90 59 91 61 92 58 93 54 94
REMARK SMILES IDX 55 95 56 96 57 97
REMARK H PARENT 81 50 49 61
REMARK Flexibility Score: inf
ROOT
ATOM      1  O   UNL A   1      39.435  28.604  32.658  1.00  0.00    -0.377 OA
ENDROOT
BRANCH   1   2
ATOM      2  C   UNL A   1      40.692  28.176  33.167  1.00  0.00     0.188 C 
BRANCH   2   3
ATOM      3  C   UNL A   1      41.934  29.062  32.982  1.00  0.00     0.188 C 
BRANCH   3   4
ATOM      4  O   UNL A   1      42.016  29.677  31.711  1.00  0.00    -0.376 OA
BRANCH   4   5
ATOM      5  C   UNL A   1      42.685  28.946  30.705  1.00  0.00     0.202 C 
BRANCH   5   6
ATOM      6  C   UNL A   1      41.846  28.198  29.665  1.00  0.00     0.261 C 
BRANCH   6   7
ATOM      7  O   UNL A   1      42.184  26.839  29.343  1.00  0.00    -0.462 OA
BRANCH   7   8
ATOM      8  C   UNL A   1      41.301  26.124  28.606  1.00  0.00     0.328 C 
ATOM      9  O   UNL A   1      40.099  26.365  28.542  1.00  0.00    -0.250 OA
BRANCH   8  10
ATOM     10  C   UNL A   1      41.958  24.915  27.897  1.00  0.00     0.195 C 
ATOM     11  N   UNL A   1      42.730  25.225  26.668  1.00  0.00    -0.324 N 
ATOM     12  C   UNL A   1      43.599  24.120  26.227  1.00  0.00     0.089 C 
ATOM     13  C   UNL A   1      41.082  23.675  27.642  1.00  0.00     0.037 C 
ATOM     14  C   UNL A   1      42.827  22.793  26.045  1.00  0.00     0.012 C 
ATOM     15  C   UNL A   1      44.429  24.433  24.968  1.00  0.00     0.025 C 
ATOM     16  C   UNL A   1      41.974  22.478  27.282  1.00  0.00     0.008 C 
ATOM     17  C   UNL A   1      43.810  21.651  25.745  1.00  0.00     0.006 C 
ATOM     18  C   UNL A   1      45.374  23.287  24.613  1.00  0.00     0.002 C 
ATOM     19  C   UNL A   1      44.637  21.954  24.497  1.00  0.00     0.000 C 
BRANCH  11  20
ATOM     20  C   UNL A   1      42.071  25.983  25.693  1.00  0.00     0.249 C 
ATOM     21  O   UNL A   1      41.089  25.579  25.074  1.00  0.00    -0.272 OA
BRANCH  20  22
ATOM     22  C   UNL A   1      42.741  27.331  25.358  1.00  0.00     0.259 C 
BRANCH  22  23
ATOM     23  O   UNL A   1      41.912  28.426  25.027  1.00  0.00    -0.375 OA
ATOM     24  C   UNL A   1      41.230  28.984  26.140  1.00  0.00     0.195 C 
ENDBRANCH  22  23
ENDBRANCH  20  22
ENDBRANCH  11  20
ENDBRANCH   8  10
ENDBRANCH   7   8
ENDBRANCH   6   7
ENDBRANCH   5   6
ENDBRANCH   4   5
ENDBRANCH   3   4
ENDBRANCH   2   3
ENDBRANCH   1   2
BRANCH   1  25
ATOM     25  C   UNL A   1      38.778  27.837  31.647  1.00  0.00     0.188 C 
BRANCH  25  26
ATOM     26  C   UNL A   1      37.995  28.574  30.541  1.00  0.00     0.188 C 
BRANCH  26  27
ATOM     27  O   UNL A   1      38.018  29.987  30.661  1.00  0.00    -0.376 OA
BRANCH  27  28
ATOM     28  C   UNL A   1      37.475  30.734  29.583  1.00  0.00     0.202 C 
BRANCH  28  29
ATOM     29  C   UNL A   1      36.457  31.840  29.909  1.00  0.00     0.261 C 
BRANCH  29  30
ATOM     30  O   UNL A   1      36.976  33.164  30.127  1.00  0.00    -0.460 OA
BRANCH  30  31
ATOM     31  C   UNL A   1      37.810  33.351  31.175  1.00  0.00     0.338 C 
ATOM     32  O   UNL A   1      37.657  32.956  32.313  1.00  0.00    -0.246 OA
BRANCH  31  33
ATOM     33  C   UNL A   1      39.038  33.993  30.656  1.00  0.00     0.060 A 
ATOM     34  C   UNL A   1      39.083  34.417  29.321  1.00  0.00     0.016 A 
ATOM     35  C   UNL A   1      40.150  34.145  31.485  1.00  0.00     0.016 A 
ATOM     36  C   UNL A   1      40.261  34.956  28.800  1.00  0.00     0.010 A 
ATOM     37  C   UNL A   1      41.333  34.668  30.956  1.00  0.00     0.010 A 
ATOM     38  C   UNL A   1      41.406  35.038  29.602  1.00  0.00    -0.014 A 
BRANCH  38  39
ATOM     39  C   UNL A   1      42.729  35.286  28.975  1.00  0.00     0.031 A 
ATOM     40  C   UNL A   1      43.736  34.167  28.984  1.00  0.00     0.074 A 
ATOM     41  C   UNL A   1      43.033  36.466  28.407  1.00  0.00     0.049 A 
ATOM     42  N   UNL A   1      44.977  34.156  28.573  1.00  0.00    -0.248 NA
ATOM     43  C   UNL A   1      43.274  32.888  29.546  1.00  0.00     0.031 C 
ATOM     44  C   UNL A   1      42.128  37.608  28.297  1.00  0.00     0.029 A 
ATOM     45  N   UNL A   1      44.199  36.902  27.826  1.00  0.00    -0.354 N 
ATOM     46  C   UNL A   1      45.451  32.874  28.840  1.00  0.00     0.074 A 
ATOM     47  C   UNL A   1      44.371  32.152  29.478  1.00  0.00     0.031 C 
ATOM     48  C   UNL A   1      42.780  38.625  27.707  1.00  0.00     0.029 A 
ATOM     49  C   UNL A   1      44.158  38.220  27.434  1.00  0.00     0.049 A 
ATOM     50  H   UNL A   1      44.988  36.327  27.704  1.00  0.00     0.167 HD
ATOM     51  C   UNL A   1      46.672  32.350  28.574  1.00  0.00     0.034 A 
ATOM     52  C   UNL A   1      45.133  39.015  26.945  1.00  0.00     0.034 A 
ATOM     53  C   UNL A   1      47.740  33.092  27.950  1.00  0.00     0.049 A 
ATOM     54  C   UNL A   1      46.512  38.437  26.728  1.00  0.00     0.074 A 
ATOM     55  C   UNL A   1      49.007  32.655  27.606  1.00  0.00     0.029 A 
ATOM     56  N   UNL A   1      47.675  34.435  27.596  1.00  0.00    -0.354 N 
ATOM     57  N   UNL A   1      46.946  37.220  26.963  1.00  0.00    -0.248 NA
ATOM     58  C   UNL A   1      47.529  39.338  26.171  1.00  0.00     0.031 C 
ATOM     59  C   UNL A   1      49.733  33.752  27.125  1.00  0.00     0.029 A 
ATOM     60  C   UNL A   1      48.892  34.853  27.079  1.00  0.00     0.049 A 
ATOM     61  H   UNL A   1      46.879  35.006  27.696  1.00  0.00     0.167 HD
ATOM     62  C   UNL A   1      48.280  37.203  26.558  1.00  0.00     0.074 A 
ATOM     63  C   UNL A   1      48.572  38.528  26.051  1.00  0.00     0.031 C 
ATOM     64  C   UNL A   1      49.178  36.185  26.593  1.00  0.00     0.034 A 
BRANCH  51  65
ATOM     65  C   UNL A   1      46.929  30.931  29.027  1.00  0.00     0.023 A 
ATOM     66  C   UNL A   1      46.765  29.831  28.167  1.00  0.00     0.031 A 
ATOM     67  C   UNL A   1      47.291  30.672  30.362  1.00  0.00     0.131 A 
ATOM     68  C   UNL A   1      46.878  28.525  28.671  1.00  0.00     0.055 A 
ATOM     69  C   UNL A   1      47.488  29.373  30.834  1.00  0.00     0.041 A 
ATOM     70  F   UNL A   1      47.436  31.678  31.238  1.00  0.00    -0.206 F 
ATOM     71  C   UNL A   1      47.264  28.290  29.992  1.00  0.00     0.022 A 
BRANCH  68  72
ATOM     72  S   UNL A   1      46.346  27.142  27.622  1.00  0.00     0.124 S 
ATOM     73  O   UNL A   1      47.581  26.370  27.502  1.00  0.00    -0.237 OA
ATOM     74  O   UNL A   1      45.287  26.533  28.419  1.00  0.00    -0.237 OA
ATOM     75  O   UNL A   1      45.906  27.795  26.391  1.00  0.00    -0.744 OA
ENDBRANCH  68  72
ENDBRANCH  51  65
BRANCH  52  76
ATOM     76  C   UNL A   1      44.860  40.458  26.679  1.00  0.00     0.023 A 
ATOM     77  C   UNL A   1      44.292  40.888  25.470  1.00  0.00     0.031 A 
ATOM     78  C   UNL A   1      45.201  41.436  27.632  1.00  0.00     0.131 A 
ATOM     79  C   UNL A   1      44.111  42.262  25.232  1.00  0.00     0.055 A 
ATOM     80  C   UNL A   1      44.971  42.794  27.412  1.00  0.00     0.041 A 
ATOM     81  F   UNL A   1      45.752  41.079  28.803  1.00  0.00    -0.206 F 
ATOM     82  C   UNL A   1      44.432  43.215  26.200  1.00  0.00     0.022 A 
BRANCH  79  83
ATOM     83  S   UNL A   1      43.505  42.792  23.605  1.00  0.00     0.124 S 
ATOM     84  O   UNL A   1      42.431  41.837  23.362  1.00  0.00    -0.237 OA
ATOM     85  O   UNL A   1      43.096  44.167  23.868  1.00  0.00    -0.237 OA
ATOM     86  O   UNL A   1      44.676  42.648  22.743  1.00  0.00    -0.744 OA
ENDBRANCH  79  83
ENDBRANCH  52  76
BRANCH  64  87
ATOM     87  C   UNL A   1      50.553  36.453  26.026  1.00  0.00     0.023 A 
ATOM     88  C   UNL A   1      51.640  36.806  26.844  1.00  0.00     0.031 A 
ATOM     89  C   UNL A   1      50.776  36.355  24.640  1.00  0.00     0.131 A 
ATOM     90  C   UNL A   1      52.885  37.102  26.265  1.00  0.00     0.055 A 
ATOM     91  C   UNL A   1      52.032  36.586  24.077  1.00  0.00     0.041 A 
ATOM     92  F   UNL A   1      49.775  36.027  23.808  1.00  0.00    -0.206 F 
ATOM     93  C   UNL A   1      53.092  36.975  24.889  1.00  0.00     0.022 A 
BRANCH  90  94
ATOM     94  S   UNL A   1      54.207  37.753  27.323  1.00  0.00     0.124 S 
ATOM     95  O   UNL A   1      53.451  38.375  28.405  1.00  0.00    -0.237 OA
ATOM     96  O   UNL A   1      54.949  36.547  27.675  1.00  0.00    -0.237 OA
ATOM     97  O   UNL A   1      54.919  38.685  26.449  1.00  0.00    -0.744 OA
ENDBRANCH  90  94
ENDBRANCH  64  87
ENDBRANCH  38  39
ENDBRANCH  31  33
ENDBRANCH  30  31
ENDBRANCH  29  30
ENDBRANCH  28  29
ENDBRANCH  27  28
ENDBRANCH  26  27
ENDBRANCH  25  26
ENDBRANCH   1  25
TORSDOF 26
ENDMDL
MODEL 2
REMARK VINA RESULT:      -7.0      5.989     10.858
REMARK SMILES COCC(=O)N1[C@@H](C(=O)OCCOCCOCCOCCOC(=O)c2ccc(-c3c4nc(c(-c5cc(S(=O)(=O)[O-])ccc5F)c5ccc([nH]5)c(-c5cc(S(=O)(=O)[O-])ccc5F)c5nc(c(-c6cc(S(=O)(=O)[O-])ccc6F)c6ccc3[nH]6)C=C5)C=C4)cc2)CC[C@@H]2CCCC[C@H]21
REMARK SMILES IDX 16 1 15 2 14 3 13 4 12 5 11 6 10 7 8 8 9 9 7 10 6 11 95 12
REMARK SMILES IDX 88 13 90 14 94 15 89 16 91 17 93 18 92 19 4 20 5 21 3 22
REMARK SMILES IDX 2 23 1 24 17 25 18 26 19 27 20 28 21 29 22 30 23 31 24 32
REMARK SMILES IDX 25 33 26 34 87 35 27 36 86 37 28 38 29 39 30 40 80 41 31 42
REMARK SMILES IDX 85 43 79 44 81 45 32 46 84 47 78 48 77 49 33 51 65 52 45 53
REMARK SMILES IDX 64 54 46 55 49 56 63 57 82 58 47 59 48 60 62 62 83 63 50 64
REMARK SMILES IDX 34 65 35 66 43 67 36 68 42 69 44 70 41 71 37 72 38 73 39 74
REMARK SMILES IDX 40 75 66 76 67 77 75 78 68 79 74 80 76 81 73 82 69 83 70 84
REMARK SMILES IDX 71 85 72 86 51 87 52 88 60 89 53 90 59 91 61 92 58 93 54 94
REMARK SMILES IDX 55 95 56 96 57 97
REMARK H PARENT 81 50 49 61
REMARK Flexibility Score: inf
ROOT
ATOM      1  O   UNL A   1      40.354  23.115  26.608  1.00  0.00    -0.377 OA
ENDROOT
BRANCH   1   2
ATOM      2  C   UNL A   1      39.761  21.854  26.896  1.00  0.00     0.188 C 
BRANCH   2   3
ATOM      3  C   UNL A   1      39.894  20.699  25.892  1.00  0.00     0.188 C 
BRANCH   3   4
ATOM      4  O   UNL A   1      38.667  20.297  25.314  1.00  0.00    -0.376 OA
BRANCH   4   5
ATOM      5  C   UNL A   1      37.731  21.323  25.057  1.00  0.00     0.202 C 
BRANCH   5   6
ATOM      6  C   UNL A   1      36.251  21.048  25.337  1.00  0.00     0.261 C 
BRANCH   6   7
ATOM      7  O   UNL A   1      35.284  22.069  25.038  1.00  0.00    -0.462 OA
BRANCH   7   8
ATOM      8  C   UNL A   1      34.057  21.676  24.622  1.00  0.00     0.328 C 
ATOM      9  O   UNL A   1      33.715  20.505  24.484  1.00  0.00    -0.250 OA
BRANCH   8  10
ATOM     10  C   UNL A   1      33.137  22.869  24.266  1.00  0.00     0.195 C 
ATOM     11  N   UNL A   1      32.831  23.805  25.377  1.00  0.00    -0.324 N 
ATOM     12  C   UNL A   1      32.247  25.080  24.925  1.00  0.00     0.089 C 
ATOM     13  C   UNL A   1      31.842  22.567  23.491  1.00  0.00     0.037 C 
ATOM     14  C   UNL A   1      30.994  24.880  24.042  1.00  0.00     0.012 C 
ATOM     15  C   UNL A   1      31.947  26.075  26.062  1.00  0.00     0.025 C 
ATOM     16  C   UNL A   1      31.267  23.871  22.918  1.00  0.00     0.008 C 
ATOM     17  C   UNL A   1      30.531  26.230  23.474  1.00  0.00     0.006 C 
ATOM     18  C   UNL A   1      31.429  27.408  25.525  1.00  0.00     0.002 C 
ATOM     19  C   UNL A   1      30.232  27.222  24.595  1.00  0.00     0.000 C 
BRANCH  11  20
ATOM     20  C   UNL A   1      32.346  23.233  26.558  1.00  0.00     0.249 C 
ATOM     21  O   UNL A   1      33.047  23.030  27.547  1.00  0.00    -0.272 OA
BRANCH  20  22
ATOM     22  C   UNL A   1      30.880  22.760  26.494  1.00  0.00     0.259 C 
BRANCH  22  23
ATOM     23  O   UNL A   1      30.059  22.969  27.625  1.00  0.00    -0.375 OA
ATOM     24  C   UNL A   1      28.763  22.402  27.504  1.00  0.00     0.195 C 
ENDBRANCH  22  23
ENDBRANCH  20  22
ENDBRANCH  11  20
ENDBRANCH   8  10
ENDBRANCH   7   8
ENDBRANCH   6   7
ENDBRANCH   5   6
ENDBRANCH   4   5
ENDBRANCH   3   4
ENDBRANCH   2   3
ENDBRANCH   1   2
BRANCH   1  25
ATOM     25  C   UNL A   1      41.524  23.528  27.315  1.00  0.00     0.188 C 
BRANCH  25  26
ATOM     26  C   UNL A   1      42.348  22.471  28.080  1.00  0.00     0.188 C 
BRANCH  26  27
ATOM     27  O   UNL A   1      43.049  21.568  27.240  1.00  0.00    -0.376 OA
BRANCH  27  28
ATOM     28  C   UNL A   1      43.513  22.074  25.997  1.00  0.00     0.202 C 
BRANCH  28  29
ATOM     29  C   UNL A   1      44.734  23.008  26.006  1.00  0.00     0.261 C 
BRANCH  29  30
ATOM     30  O   UNL A   1      44.732  24.096  25.066  1.00  0.00    -0.460 OA
BRANCH  30  31
ATOM     31  C   UNL A   1      45.776  24.956  25.091  1.00  0.00     0.338 C 
ATOM     32  O   UNL A   1      46.766  24.927  24.389  1.00  0.00    -0.246 OA
BRANCH  31  33
ATOM     33  C   UNL A   1      45.428  26.050  26.024  1.00  0.00     0.060 A 
ATOM     34  C   UNL A   1      46.451  26.754  26.674  1.00  0.00     0.016 A 
ATOM     35  C   UNL A   1      44.089  26.355  26.274  1.00  0.00     0.016 A 
ATOM     36  C   UNL A   1      46.133  27.738  27.611  1.00  0.00     0.010 A 
ATOM     37  C   UNL A   1      43.774  27.327  27.227  1.00  0.00     0.010 A 
ATOM     38  C   UNL A   1      44.793  27.995  27.929  1.00  0.00    -0.014 A 
BRANCH  38  39
ATOM     39  C   UNL A   1      44.461  28.780  29.145  1.00  0.00     0.031 A 
ATOM     40  C   UNL A   1      44.355  28.044  30.454  1.00  0.00     0.074 A 
ATOM     41  C   UNL A   1      44.263  30.109  29.097  1.00  0.00     0.049 A 
ATOM     42  N   UNL A   1      44.005  28.484  31.634  1.00  0.00    -0.248 NA
ATOM     43  C   UNL A   1      44.681  26.610  30.416  1.00  0.00     0.031 C 
ATOM     44  C   UNL A   1      44.380  30.937  27.899  1.00  0.00     0.029 A 
ATOM     45  N   UNL A   1      43.905  30.993  30.085  1.00  0.00    -0.354 N 
ATOM     46  C   UNL A   1      44.054  27.378  32.478  1.00  0.00     0.074 A 
ATOM     47  C   UNL A   1      44.434  26.244  31.663  1.00  0.00     0.031 C 
ATOM     48  C   UNL A   1      44.077  32.207  28.216  1.00  0.00     0.029 A 
ATOM     49  C   UNL A   1      43.705  32.276  29.629  1.00  0.00     0.049 A 
ATOM     50  H   UNL A   1      43.801  30.734  31.028  1.00  0.00     0.167 HD
ATOM     51  C   UNL A   1      43.808  27.316  33.810  1.00  0.00     0.034 A 
ATOM     52  C   UNL A   1      43.241  33.367  30.272  1.00  0.00     0.034 A 
ATOM     53  C   UNL A   1      43.416  28.456  34.601  1.00  0.00     0.049 A 
ATOM     54  C   UNL A   1      42.894  33.263  31.739  1.00  0.00     0.074 A 
ATOM     55  C   UNL A   1      43.168  28.517  35.961  1.00  0.00     0.029 A 
ATOM     56  N   UNL A   1      43.190  29.733  34.101  1.00  0.00    -0.354 N 
ATOM     57  N   UNL A   1      42.963  32.220  32.534  1.00  0.00    -0.248 NA
ATOM     58  C   UNL A   1      42.416  34.486  32.396  1.00  0.00     0.031 C 
ATOM     59  C   UNL A   1      42.713  29.806  36.266  1.00  0.00     0.029 A 
ATOM     60  C   UNL A   1      42.765  30.577  35.116  1.00  0.00     0.049 A 
ATOM     61  H   UNL A   1      43.316  30.001  33.161  1.00  0.00     0.167 HD
ATOM     62  C   UNL A   1      42.562  32.669  33.792  1.00  0.00     0.074 A 
ATOM     63  C   UNL A   1      42.267  34.080  33.650  1.00  0.00     0.031 C 
ATOM     64  C   UNL A   1      42.455  31.981  34.958  1.00  0.00     0.034 A 
BRANCH  51  65
ATOM     65  C   UNL A   1      43.887  25.956  34.465  1.00  0.00     0.023 A 
ATOM     66  C   UNL A   1      45.112  25.306  34.691  1.00  0.00     0.031 A 
ATOM     67  C   UNL A   1      42.707  25.275  34.820  1.00  0.00     0.131 A 
ATOM     68  C   UNL A   1      45.127  23.987  35.172  1.00  0.00     0.055 A 
ATOM     69  C   UNL A   1      42.734  23.998  35.381  1.00  0.00     0.041 A 
ATOM     70  F   UNL A   1      41.505  25.832  34.604  1.00  0.00    -0.206 F 
ATOM     71  C   UNL A   1      43.948  23.339  35.543  1.00  0.00     0.022 A 
BRANCH  68  72
ATOM     72  S   UNL A   1      46.694  23.072  35.145  1.00  0.00     0.124 S 
ATOM     73  O   UNL A   1      47.305  23.492  36.403  1.00  0.00    -0.237 OA
ATOM     74  O   UNL A   1      46.247  21.685  35.084  1.00  0.00    -0.237 OA
ATOM     75  O   UNL A   1      47.360  23.567  33.941  1.00  0.00    -0.744 OA
ENDBRANCH  68  72
ENDBRANCH  51  65
BRANCH  52  76
ATOM     76  C   UNL A   1      43.021  34.640  29.524  1.00  0.00     0.023 A 
ATOM     77  C   UNL A   1      44.080  35.512  29.229  1.00  0.00     0.031 A 
ATOM     78  C   UNL A   1      41.725  35.017  29.123  1.00  0.00     0.131 A 
ATOM     79  C   UNL A   1      43.822  36.731  28.580  1.00  0.00     0.055 A 
ATOM     80  C   UNL A   1      41.482  36.205  28.434  1.00  0.00     0.041 A 
ATOM     81  F   UNL A   1      40.675  34.222  29.385  1.00  0.00    -0.206 F 
ATOM     82  C   UNL A   1      42.533  37.076  28.168  1.00  0.00     0.022 A 
BRANCH  79  83
ATOM     83  S   UNL A   1      45.192  37.897  28.339  1.00  0.00     0.124 S 
ATOM     84  O   UNL A   1      45.806  37.912  29.661  1.00  0.00    -0.237 OA
ATOM     85  O   UNL A   1      45.958  37.249  27.280  1.00  0.00    -0.237 OA
ATOM     86  O   UNL A   1      44.520  39.135  27.948  1.00  0.00    -0.744 OA
ENDBRANCH  79  83
ENDBRANCH  52  76
BRANCH  64  87
ATOM     87  C   UNL A   1      42.042  32.759  36.187  1.00  0.00     0.023 A 
ATOM     88  C   UNL A   1      40.747  32.665  36.727  1.00  0.00     0.031 A 
ATOM     89  C   UNL A   1      42.962  33.611  36.824  1.00  0.00     0.131 A 
ATOM     90  C   UNL A   1      40.393  33.451  37.835  1.00  0.00     0.055 A 
ATOM     91  C   UNL A   1      42.624  34.340  37.965  1.00  0.00     0.041 A 
ATOM     92  F   UNL A   1      44.211  33.746  36.351  1.00  0.00    -0.206 F 
ATOM     93  C   UNL A   1      41.328  34.273  38.469  1.00  0.00     0.022 A 
BRANCH  90  94
ATOM     94  S   UNL A   1      38.663  33.462  38.380  1.00  0.00     0.124 S 
ATOM     95  O   UNL A   1      37.948  33.266  37.123  1.00  0.00    -0.237 OA
ATOM     96  O   UNL A   1      38.622  32.346  39.318  1.00  0.00    -0.237 OA
ATOM     97  O   UNL A   1      38.501  34.785  38.983  1.00  0.00    -0.744 OA
ENDBRANCH  90  94
ENDBRANCH  64  87
ENDBRANCH  38  39
ENDBRANCH  31  33
ENDBRANCH  30  31
ENDBRANCH  29  30
ENDBRANCH  28  29
ENDBRANCH  27  28
ENDBRANCH  26  27
ENDBRANCH  25  26
ENDBRANCH   1  25
TORSDOF 26
ENDMDL
MODEL 3
REMARK VINA RESULT:      -6.8      5.549      9.907
REMARK SMILES COCC(=O)N1[C@@H](C(=O)OCCOCCOCCOCCOC(=O)c2ccc(-c3c4nc(c(-c5cc(S(=O)(=O)[O-])ccc5F)c5ccc([nH]5)c(-c5cc(S(=O)(=O)[O-])ccc5F)c5nc(c(-c6cc(S(=O)(=O)[O-])ccc6F)c6ccc3[nH]6)C=C5)C=C4)cc2)CC[C@@H]2CCCC[C@H]21
REMARK SMILES IDX 16 1 15 2 14 3 13 4 12 5 11 6 10 7 8 8 9 9 7 10 6 11 95 12
REMARK SMILES IDX 88 13 90 14 94 15 89 16 91 17 93 18 92 19 4 20 5 21 3 22
REMARK SMILES IDX 2 23 1 24 17 25 18 26 19 27 20 28 21 29 22 30 23 31 24 32
REMARK SMILES IDX 25 33 26 34 87 35 27 36 86 37 28 38 29 39 30 40 80 41 31 42
REMARK SMILES IDX 85 43 79 44 81 45 32 46 84 47 78 48 77 49 33 51 65 52 45 53
REMARK SMILES IDX 64 54 46 55 49 56 63 57 82 58 47 59 48 60 62 62 83 63 50 64
REMARK SMILES IDX 34 65 35 66 43 67 36 68 42 69 44 70 41 71 37 72 38 73 39 74
REMARK SMILES IDX 40 75 66 76 67 77 75 78 68 79 74 80 76 81 73 82 69 83 70 84
REMARK SMILES IDX 71 85 72 86 51 87 52 88 60 89 53 90 59 91 61 92 58 93 54 94
REMARK SMILES IDX 55 95 56 96 57 97
REMARK H PARENT 81 50 49 61
REMARK Flexibility Score: inf
ROOT
ATOM      1  O   UNL A   1      40.577  23.203  26.677  1.00  0.00    -0.377 OA
ENDROOT
BRANCH   1   2
ATOM      2  C   UNL A   1      40.067  21.936  27.077  1.00  0.00     0.188 C 
BRANCH   2   3
ATOM      3  C   UNL A   1      40.260  20.712  26.169  1.00  0.00     0.188 C 
BRANCH   3   4
ATOM      4  O   UNL A   1      39.069  20.259  25.556  1.00  0.00    -0.376 OA
BRANCH   4   5
ATOM      5  C   UNL A   1      38.118  21.250  25.229  1.00  0.00     0.202 C 
BRANCH   5   6
ATOM      6  C   UNL A   1      36.642  20.974  25.534  1.00  0.00     0.261 C 
BRANCH   6   7
ATOM      7  O   UNL A   1      35.656  21.940  25.135  1.00  0.00    -0.462 OA
BRANCH   7   8
ATOM      8  C   UNL A   1      34.480  21.480  24.647  1.00  0.00     0.328 C 
ATOM      9  O   UNL A   1      34.249  20.301  24.394  1.00  0.00    -0.250 OA
BRANCH   8  10
ATOM     10  C   UNL A   1      33.463  22.615  24.373  1.00  0.00     0.195 C 
ATOM     11  N   UNL A   1      33.354  23.655  25.426  1.00  0.00    -0.324 N 
ATOM     12  C   UNL A   1      32.642  24.867  24.981  1.00  0.00     0.089 C 
ATOM     13  C   UNL A   1      32.050  22.212  23.915  1.00  0.00     0.037 C 
ATOM     14  C   UNL A   1      31.244  24.555  24.399  1.00  0.00     0.012 C 
ATOM     15  C   UNL A   1      32.542  25.970  26.052  1.00  0.00     0.025 C 
ATOM     16  C   UNL A   1      31.322  23.440  23.347  1.00  0.00     0.008 C 
ATOM     17  C   UNL A   1      30.626  25.831  23.808  1.00  0.00     0.006 C 
ATOM     18  C   UNL A   1      31.876  27.230  25.505  1.00  0.00     0.002 C 
ATOM     19  C   UNL A   1      30.523  26.930  24.864  1.00  0.00     0.000 C 
BRANCH  11  20
ATOM     20  C   UNL A   1      33.140  23.201  26.732  1.00  0.00     0.249 C 
ATOM     21  O   UNL A   1      33.987  23.276  27.620  1.00  0.00    -0.272 OA
BRANCH  20  22
ATOM     22  C   UNL A   1      31.793  22.484  26.956  1.00  0.00     0.259 C 
BRANCH  22  23
ATOM     23  O   UNL A   1      30.739  23.211  27.553  1.00  0.00    -0.375 OA
ATOM     24  C   UNL A   1      29.455  22.874  27.050  1.00  0.00     0.195 C 
ENDBRANCH  22  23
ENDBRANCH  20  22
ENDBRANCH  11  20
ENDBRANCH   8  10
ENDBRANCH   7   8
ENDBRANCH   6   7
ENDBRANCH   5   6
ENDBRANCH   4   5
ENDBRANCH   3   4
ENDBRANCH   2   3
ENDBRANCH   1   2
BRANCH   1  25
ATOM     25  C   UNL A   1      41.686  23.774  27.374  1.00  0.00     0.188 C 
BRANCH  25  26
ATOM     26  C   UNL A   1      42.811  22.846  27.877  1.00  0.00     0.188 C 
BRANCH  26  27
ATOM     27  O   UNL A   1      43.570  22.246  26.840  1.00  0.00    -0.376 OA
BRANCH  27  28
ATOM     28  C   UNL A   1      43.882  23.058  25.717  1.00  0.00     0.202 C 
BRANCH  28  29
ATOM     29  C   UNL A   1      45.092  24.002  25.820  1.00  0.00     0.261 C 
BRANCH  29  30
ATOM     30  O   UNL A   1      45.194  25.045  24.835  1.00  0.00    -0.460 OA
BRANCH  30  31
ATOM     31  C   UNL A   1      46.335  25.769  24.796  1.00  0.00     0.338 C 
ATOM     32  O   UNL A   1      47.308  25.565  24.099  1.00  0.00    -0.246 OA
BRANCH  31  33
ATOM     33  C   UNL A   1      46.133  26.964  25.645  1.00  0.00     0.060 A 
ATOM     34  C   UNL A   1      47.226  27.523  26.321  1.00  0.00     0.016 A 
ATOM     35  C   UNL A   1      44.856  27.509  25.790  1.00  0.00     0.016 A 
ATOM     36  C   UNL A   1      47.034  28.605  27.182  1.00  0.00     0.010 A 
ATOM     37  C   UNL A   1      44.664  28.580  26.666  1.00  0.00     0.010 A 
ATOM     38  C   UNL A   1      45.744  29.107  27.396  1.00  0.00    -0.014 A 
BRANCH  38  39
ATOM     39  C   UNL A   1      45.487  30.014  28.544  1.00  0.00     0.031 A 
ATOM     40  C   UNL A   1      45.286  29.396  29.901  1.00  0.00     0.074 A 
ATOM     41  C   UNL A   1      45.439  31.349  28.394  1.00  0.00     0.049 A 
ATOM     42  N   UNL A   1      44.974  29.959  31.038  1.00  0.00    -0.248 NA
ATOM     43  C   UNL A   1      45.450  27.935  29.976  1.00  0.00     0.031 C 
ATOM     44  C   UNL A   1      45.661  32.065  27.140  1.00  0.00     0.029 A 
ATOM     45  N   UNL A   1      45.170  32.340  29.306  1.00  0.00    -0.354 N 
ATOM     46  C   UNL A   1      44.890  28.922  31.963  1.00  0.00     0.074 A 
ATOM     47  C   UNL A   1      45.151  27.695  31.242  1.00  0.00     0.031 C 
ATOM     48  C   UNL A   1      45.497  33.382  27.356  1.00  0.00     0.029 A 
ATOM     49  C   UNL A   1      45.119  33.598  28.753  1.00  0.00     0.049 A 
ATOM     50  H   UNL A   1      45.028  32.166  30.264  1.00  0.00     0.167 HD
ATOM     51  C   UNL A   1      44.623  28.990  33.291  1.00  0.00     0.034 A 
ATOM     52  C   UNL A   1      44.772  34.780  29.304  1.00  0.00     0.034 A 
ATOM     53  C   UNL A   1      44.352  30.222  33.988  1.00  0.00     0.049 A 
ATOM     54  C   UNL A   1      44.400  34.826  30.767  1.00  0.00     0.074 A 
ATOM     55  C   UNL A   1      44.097  30.414  35.334  1.00  0.00     0.029 A 
ATOM     56  N   UNL A   1      44.275  31.475  33.389  1.00  0.00    -0.354 N 
ATOM     57  N   UNL A   1      44.343  33.845  31.639  1.00  0.00    -0.248 NA
ATOM     58  C   UNL A   1      44.053  36.141  31.322  1.00  0.00     0.031 C 
ATOM     59  C   UNL A   1      43.785  31.763  35.534  1.00  0.00     0.029 A 
ATOM     60  C   UNL A   1      43.935  32.435  34.330  1.00  0.00     0.049 A 
ATOM     61  H   UNL A   1      44.440  31.655  32.436  1.00  0.00     0.167 HD
ATOM     62  C   UNL A   1      43.980  34.430  32.851  1.00  0.00     0.074 A 
ATOM     63  C   UNL A   1      43.846  35.850  32.599  1.00  0.00     0.031 C 
ATOM     64  C   UNL A   1      43.785  33.848  34.063  1.00  0.00     0.034 A 
BRANCH  51  65
ATOM     65  C   UNL A   1      44.543  27.683  34.047  1.00  0.00     0.023 A 
ATOM     66  C   UNL A   1      43.315  27.105  34.412  1.00  0.00     0.031 A 
ATOM     67  C   UNL A   1      45.722  27.033  34.458  1.00  0.00     0.131 A 
ATOM     68  C   UNL A   1      43.292  25.967  35.233  1.00  0.00     0.055 A 
ATOM     69  C   UNL A   1      45.691  25.851  35.200  1.00  0.00     0.041 A 
ATOM     70  F   UNL A   1      46.925  27.549  34.163  1.00  0.00    -0.206 F 
ATOM     71  C   UNL A   1      44.472  25.322  35.608  1.00  0.00     0.022 A 
BRANCH  68  72
ATOM     72  S   UNL A   1      41.708  25.443  35.947  1.00  0.00     0.124 S 
ATOM     73  O   UNL A   1      41.794  25.993  37.297  1.00  0.00    -0.237 OA
ATOM     74  O   UNL A   1      40.739  26.077  35.059  1.00  0.00    -0.237 OA
ATOM     75  O   UNL A   1      41.764  23.984  35.871  1.00  0.00    -0.744 OA
ENDBRANCH  68  72
ENDBRANCH  51  65
BRANCH  52  76
ATOM     76  C   UNL A   1      44.703  36.008  28.459  1.00  0.00     0.023 A 
ATOM     77  C   UNL A   1      45.845  36.777  28.185  1.00  0.00     0.031 A 
ATOM     78  C   UNL A   1      43.471  36.449  27.940  1.00  0.00     0.131 A 
ATOM     79  C   UNL A   1      45.727  37.963  27.439  1.00  0.00     0.055 A 
ATOM     80  C   UNL A   1      43.368  37.600  27.158  1.00  0.00     0.041 A 
ATOM     81  F   UNL A   1      42.347  35.755  28.177  1.00  0.00    -0.206 F 
ATOM     82  C   UNL A   1      44.500  38.371  26.912  1.00  0.00     0.022 A 
BRANCH  79  83
ATOM     83  S   UNL A   1      47.197  39.005  27.222  1.00  0.00     0.124 S 
ATOM     84  O   UNL A   1      47.118  39.337  25.804  1.00  0.00    -0.237 OA
ATOM     85  O   UNL A   1      46.935  40.097  28.153  1.00  0.00    -0.237 OA
ATOM     86  O   UNL A   1      48.299  38.121  27.597  1.00  0.00    -0.744 OA
ENDBRANCH  79  83
ENDBRANCH  52  76
BRANCH  64  87
ATOM     87  C   UNL A   1      43.447  34.758  35.222  1.00  0.00     0.023 A 
ATOM     88  C   UNL A   1      42.126  34.929  35.674  1.00  0.00     0.031 A 
ATOM     89  C   UNL A   1      44.467  35.468  35.882  1.00  0.00     0.131 A 
ATOM     90  C   UNL A   1      41.855  35.829  36.717  1.00  0.00     0.055 A 
ATOM     91  C   UNL A   1      44.199  36.310  36.962  1.00  0.00     0.041 A 
ATOM     92  F   UNL A   1      45.745  35.349  35.492  1.00  0.00    -0.206 F 
ATOM     93  C   UNL A   1      42.884  36.506  37.376  1.00  0.00     0.022 A 
BRANCH  90  94
ATOM     94  S   UNL A   1      40.126  36.182  37.138  1.00  0.00     0.124 S 
ATOM     95  O   UNL A   1      39.648  34.874  37.575  1.00  0.00    -0.237 OA
ATOM     96  O   UNL A   1      40.257  37.193  38.181  1.00  0.00    -0.237 OA
ATOM     97  O   UNL A   1      39.557  36.660  35.879  1.00  0.00    -0.744 OA
ENDBRANCH  90  94
ENDBRANCH  64  87
ENDBRANCH  38  39
ENDBRANCH  31  33
ENDBRANCH  30  31
ENDBRANCH  29  30
ENDBRANCH  28  29
ENDBRANCH  27  28
ENDBRANCH  26  27
ENDBRANCH  25  26
ENDBRANCH   1  25
TORSDOF 26
ENDMDL
