MODEL 1
REMARK VINA RESULT:      -9.2      0.000      0.000
REMARK SMILES CCCc1cc(OC(F)(F)F)cc2c1O[C@@H](C(F)(F)F)C(C(=O)OCCOCCOCCOCCOC(=O)c1ccc(-c3c4nc(c(-c5cc(S(=O)(=O)[O-])ccc5F)c5ccc([nH]5)c(-c5cc(S(=O)(=O)[O-])ccc5F)c5nc(c(-c6cc(S(=O)(=O)[O-])ccc6F)c6ccc3[nH]6)C=C5)C=C4)cc1)=C2
REMARK SMILES IDX 31 1 30 2 29 3 28 4 27 5 26 6 25 7 24 8 22 9 23 10 21 11
REMARK SMILES IDX 4 12 5 13 14 14 6 15 13 16 15 17 12 18 102 19 16 20 3 21
REMARK SMILES IDX 2 22 1 23 7 24 8 25 9 26 10 27 11 28 17 29 18 30 19 31 20 32
REMARK SMILES IDX 32 33 33 34 34 35 35 36 36 37 37 38 38 39 39 40 40 41 101 42
REMARK SMILES IDX 41 43 100 44 42 45 43 46 44 47 94 48 45 49 99 50 93 51 95 52
REMARK SMILES IDX 46 53 98 54 92 55 91 56 47 58 79 59 59 60 78 61 60 62 63 63
REMARK SMILES IDX 77 64 96 65 61 66 62 67 76 69 97 70 64 71 48 72 49 73 57 74
REMARK SMILES IDX 50 75 56 76 58 77 55 78 51 79 52 80 53 81 54 82 80 83 81 84
REMARK SMILES IDX 89 85 82 86 88 87 90 88 87 89 83 90 84 91 85 92 86 93 65 94
REMARK SMILES IDX 66 95 74 96 67 97 73 98 75 99 72 100 68 101 69 102 70 103
REMARK SMILES IDX 71 104
REMARK H PARENT 95 57 63 68
REMARK Flexibility Score: inf
ROOT
ATOM      1  C   UNL A   1      30.437  32.606  25.283  1.00  0.00     0.188 C 
ENDROOT
BRANCH   1   2
ATOM      2  O   UNL A   1      29.615  31.613  24.672  1.00  0.00    -0.377 OA
BRANCH   2   3
ATOM      3  C   UNL A   1      28.895  31.953  23.504  1.00  0.00     0.188 C 
BRANCH   3   4
ATOM      4  C   UNL A   1      27.420  31.519  23.514  1.00  0.00     0.188 C 
BRANCH   4   5
ATOM      5  O   UNL A   1      27.178  30.281  22.849  1.00  0.00    -0.376 OA
BRANCH   5   6
ATOM      6  C   UNL A   1      27.342  29.103  23.629  1.00  0.00     0.202 C 
BRANCH   6   7
ATOM      7  C   UNL A   1      28.126  27.975  22.945  1.00  0.00     0.261 C 
BRANCH   7   8
ATOM      8  O   UNL A   1      29.372  27.654  23.585  1.00  0.00    -0.460 OA
BRANCH   8   9
ATOM      9  C   UNL A   1      30.396  27.249  22.804  1.00  0.00     0.338 C 
ATOM     10  O   UNL A   1      30.677  27.671  21.698  1.00  0.00    -0.246 OA
BRANCH   9  11
ATOM     11  C   UNL A   1      31.232  26.303  23.563  1.00  0.00     0.087 C 
ATOM     12  C   UNL A   1      33.990  23.707  25.335  1.00  0.00    -0.002 A 
ATOM     13  C   UNL A   1      33.610  22.373  25.555  1.00  0.00     0.054 A 
ATOM     14  C   UNL A   1      33.061  24.561  24.720  1.00  0.00     0.131 A 
ATOM     15  C   UNL A   1      32.378  21.887  25.101  1.00  0.00     0.130 A 
ATOM     16  C   UNL A   1      31.817  24.090  24.273  1.00  0.00     0.021 A 
ATOM     17  O   UNL A   1      33.439  25.866  24.516  1.00  0.00    -0.475 OA
ATOM     18  C   UNL A   1      31.476  22.753  24.478  1.00  0.00     0.058 A 
ATOM     19  C   UNL A   1      30.950  24.989  23.518  1.00  0.00     0.027 C 
ATOM     20  C   UNL A   1      32.336  26.810  24.459  1.00  0.00     0.316 C 
BRANCH  12  21
ATOM     21  C   UNL A   1      35.337  24.266  25.749  1.00  0.00     0.039 C 
BRANCH  21  22
ATOM     22  C   UNL A   1      36.602  23.708  25.086  1.00  0.00     0.001 C 
ATOM     23  C   UNL A   1      37.838  23.790  25.972  1.00  0.00     0.004 C 
ENDBRANCH  21  22
ENDBRANCH  12  21
BRANCH  15  24
ATOM     24  O   UNL A   1      31.953  20.593  25.216  1.00  0.00    -0.406 OA
BRANCH  24  25
ATOM     25  C   UNL A   1      32.625  19.633  24.415  1.00  0.00     0.573 C 
ATOM     26  F   UNL A   1      33.836  19.318  24.926  1.00  0.00    -0.132 F 
ATOM     27  F   UNL A   1      31.888  18.506  24.294  1.00  0.00    -0.132 F 
ATOM     28  F   UNL A   1      32.814  20.144  23.179  1.00  0.00    -0.132 F 
ENDBRANCH  24  25
ENDBRANCH  15  24
BRANCH  20  29
ATOM     29  C   UNL A   1      32.925  28.207  24.204  1.00  0.00     0.430 C 
ATOM     30  F   UNL A   1      32.102  29.191  24.634  1.00  0.00    -0.167 F 
ATOM     31  F   UNL A   1      34.076  28.359  24.917  1.00  0.00    -0.167 F 
ATOM     32  F   UNL A   1      33.232  28.430  22.911  1.00  0.00    -0.167 F 
ENDBRANCH  20  29
ENDBRANCH   9  11
ENDBRANCH   8   9
ENDBRANCH   7   8
ENDBRANCH   6   7
ENDBRANCH   5   6
ENDBRANCH   4   5
ENDBRANCH   3   4
ENDBRANCH   2   3
ENDBRANCH   1   2
BRANCH   1  33
ATOM     33  C   UNL A   1      31.316  32.309  26.519  1.00  0.00     0.188 C 
BRANCH  33  34
ATOM     34  O   UNL A   1      32.439  33.175  26.677  1.00  0.00    -0.376 OA
BRANCH  34  35
ATOM     35  C   UNL A   1      32.729  33.592  28.004  1.00  0.00     0.202 C 
BRANCH  35  36
ATOM     36  C   UNL A   1      34.134  33.187  28.466  1.00  0.00     0.261 C 
BRANCH  36  37
ATOM     37  O   UNL A   1      34.862  32.386  27.524  1.00  0.00    -0.460 OA
BRANCH  37  38
ATOM     38  C   UNL A   1      34.798  31.046  27.698  1.00  0.00     0.338 C 
ATOM     39  O   UNL A   1      33.979  30.284  27.216  1.00  0.00    -0.246 OA
BRANCH  38  40
ATOM     40  C   UNL A   1      36.012  30.624  28.423  1.00  0.00     0.060 A 
ATOM     41  C   UNL A   1      37.230  31.238  28.108  1.00  0.00     0.016 A 
ATOM     42  C   UNL A   1      35.942  29.634  29.406  1.00  0.00     0.016 A 
ATOM     43  C   UNL A   1      38.398  30.823  28.746  1.00  0.00     0.010 A 
ATOM     44  C   UNL A   1      37.115  29.209  30.032  1.00  0.00     0.010 A 
ATOM     45  C   UNL A   1      38.351  29.775  29.675  1.00  0.00    -0.014 A 
BRANCH  45  46
ATOM     46  C   UNL A   1      39.609  29.116  30.098  1.00  0.00     0.031 A 
ATOM     47  C   UNL A   1      40.322  29.671  31.301  1.00  0.00     0.074 A 
ATOM     48  C   UNL A   1      40.099  28.049  29.443  1.00  0.00     0.049 A 
ATOM     49  N   UNL A   1      41.446  29.292  31.852  1.00  0.00    -0.248 NA
ATOM     50  C   UNL A   1      39.678  30.814  31.967  1.00  0.00     0.031 C 
ATOM     51  C   UNL A   1      39.478  27.410  28.285  1.00  0.00     0.029 A 
ATOM     52  N   UNL A   1      41.241  27.322  29.659  1.00  0.00    -0.354 N 
ATOM     53  C   UNL A   1      41.640  30.146  32.933  1.00  0.00     0.074 A 
ATOM     54  C   UNL A   1      40.542  31.088  32.931  1.00  0.00     0.031 C 
ATOM     55  C   UNL A   1      40.256  26.388  27.885  1.00  0.00     0.029 A 
ATOM     56  C   UNL A   1      41.441  26.320  28.739  1.00  0.00     0.049 A 
ATOM     57  H   UNL A   1      41.861  27.501  30.403  1.00  0.00     0.167 HD
ATOM     58  C   UNL A   1      42.637  30.137  33.851  1.00  0.00     0.034 A 
ATOM     59  C   UNL A   1      42.473  25.464  28.596  1.00  0.00     0.034 A 
ATOM     60  C   UNL A   1      43.741  29.211  33.823  1.00  0.00     0.049 A 
ATOM     61  C   UNL A   1      43.618  25.528  29.580  1.00  0.00     0.074 A 
ATOM     62  C   UNL A   1      44.806  29.111  34.699  1.00  0.00     0.029 A 
ATOM     63  N   UNL A   1      43.929  28.233  32.855  1.00  0.00    -0.354 N 
ATOM     64  N   UNL A   1      43.783  26.326  30.611  1.00  0.00    -0.248 NA
ATOM     65  C   UNL A   1      44.710  24.566  29.387  1.00  0.00     0.031 C 
ATOM     66  C   UNL A   1      45.672  28.119  34.224  1.00  0.00     0.029 A 
ATOM     67  C   UNL A   1      45.110  27.545  33.095  1.00  0.00     0.049 A 
ATOM     68  H   UNL A   1      43.314  28.052  32.107  1.00  0.00     0.167 HD
ATOM     69  C   UNL A   1      44.982  25.938  31.205  1.00  0.00     0.074 A 
ATOM     70  C   UNL A   1      45.489  24.827  30.427  1.00  0.00     0.031 C 
ATOM     71  C   UNL A   1      45.607  26.447  32.299  1.00  0.00     0.034 A 
BRANCH  58  72
ATOM     72  C   UNL A   1      42.592  31.201  34.920  1.00  0.00     0.023 A 
ATOM     73  C   UNL A   1      43.426  32.334  34.868  1.00  0.00     0.031 A 
ATOM     74  C   UNL A   1      41.745  31.056  36.032  1.00  0.00     0.131 A 
ATOM     75  C   UNL A   1      43.447  33.236  35.942  1.00  0.00     0.055 A 
ATOM     76  C   UNL A   1      41.714  32.000  37.061  1.00  0.00     0.041 A 
ATOM     77  F   UNL A   1      40.948  29.983  36.148  1.00  0.00    -0.206 F 
ATOM     78  C   UNL A   1      42.579  33.090  37.028  1.00  0.00     0.022 A 
BRANCH  75  79
ATOM     79  S   UNL A   1      44.728  34.520  35.973  1.00  0.00     0.124 S 
ATOM     80  O   UNL A   1      44.800  34.831  37.399  1.00  0.00    -0.237 OA
ATOM     81  O   UNL A   1      45.882  33.827  35.411  1.00  0.00    -0.237 OA
ATOM     82  O   UNL A   1      44.171  35.582  35.138  1.00  0.00    -0.744 OA
ENDBRANCH  75  79
ENDBRANCH  58  72
BRANCH  59  83
ATOM     83  C   UNL A   1      42.504  24.495  27.463  1.00  0.00     0.023 A 
ATOM     84  C   UNL A   1      41.885  23.239  27.562  1.00  0.00     0.031 A 
ATOM     85  C   UNL A   1      43.214  24.789  26.286  1.00  0.00     0.131 A 
ATOM     86  C   UNL A   1      42.028  22.304  26.524  1.00  0.00     0.055 A 
ATOM     87  C   UNL A   1      43.311  23.875  25.234  1.00  0.00     0.041 A 
ATOM     88  F   UNL A   1      43.826  25.975  26.139  1.00  0.00    -0.206 F 
ATOM     89  C   UNL A   1      42.728  22.619  25.356  1.00  0.00     0.022 A 
BRANCH  86  90
ATOM     90  S   UNL A   1      41.356  20.635  26.758  1.00  0.00     0.124 S 
ATOM     91  O   UNL A   1      40.004  20.922  27.222  1.00  0.00    -0.237 OA
ATOM     92  O   UNL A   1      41.469  20.073  25.417  1.00  0.00    -0.237 OA
ATOM     93  O   UNL A   1      42.248  20.047  27.754  1.00  0.00    -0.744 OA
ENDBRANCH  86  90
ENDBRANCH  59  83
BRANCH  71  94
ATOM     94  C   UNL A   1      46.883  25.770  32.739  1.00  0.00     0.023 A 
ATOM     95  C   UNL A   1      48.118  26.049  32.130  1.00  0.00     0.031 A 
ATOM     96  C   UNL A   1      46.857  24.819  33.775  1.00  0.00     0.131 A 
ATOM     97  C   UNL A   1      49.267  25.343  32.521  1.00  0.00     0.055 A 
ATOM     98  C   UNL A   1      48.012  24.164  34.202  1.00  0.00     0.041 A 
ATOM     99  F   UNL A   1      45.704  24.513  34.392  1.00  0.00    -0.206 F 
ATOM    100  C   UNL A   1      49.223  24.413  33.564  1.00  0.00     0.022 A 
BRANCH  97 101
ATOM    101  S   UNL A   1      50.800  25.581  31.581  1.00  0.00     0.124 S 
ATOM    102  O   UNL A   1      50.377  25.256  30.222  1.00  0.00    -0.237 OA
ATOM    103  O   UNL A   1      51.106  26.984  31.835  1.00  0.00    -0.237 OA
ATOM    104  O   UNL A   1      51.726  24.626  32.187  1.00  0.00    -0.744 OA
ENDBRANCH  97 101
ENDBRANCH  71  94
ENDBRANCH  45  46
ENDBRANCH  38  40
ENDBRANCH  37  38
ENDBRANCH  36  37
ENDBRANCH  35  36
ENDBRANCH  34  35
ENDBRANCH  33  34
ENDBRANCH   1  33
TORSDOF 28
ENDMDL
MODEL 2
REMARK VINA RESULT:      -8.2      3.648     10.178
REMARK SMILES CCCc1cc(OC(F)(F)F)cc2c1O[C@@H](C(F)(F)F)C(C(=O)OCCOCCOCCOCCOC(=O)c1ccc(-c3c4nc(c(-c5cc(S(=O)(=O)[O-])ccc5F)c5ccc([nH]5)c(-c5cc(S(=O)(=O)[O-])ccc5F)c5nc(c(-c6cc(S(=O)(=O)[O-])ccc6F)c6ccc3[nH]6)C=C5)C=C4)cc1)=C2
REMARK SMILES IDX 31 1 30 2 29 3 28 4 27 5 26 6 25 7 24 8 22 9 23 10 21 11
REMARK SMILES IDX 4 12 5 13 14 14 6 15 13 16 15 17 12 18 102 19 16 20 3 21
REMARK SMILES IDX 2 22 1 23 7 24 8 25 9 26 10 27 11 28 17 29 18 30 19 31 20 32
REMARK SMILES IDX 32 33 33 34 34 35 35 36 36 37 37 38 38 39 39 40 40 41 101 42
REMARK SMILES IDX 41 43 100 44 42 45 43 46 44 47 94 48 45 49 99 50 93 51 95 52
REMARK SMILES IDX 46 53 98 54 92 55 91 56 47 58 79 59 59 60 78 61 60 62 63 63
REMARK SMILES IDX 77 64 96 65 61 66 62 67 76 69 97 70 64 71 48 72 49 73 57 74
REMARK SMILES IDX 50 75 56 76 58 77 55 78 51 79 52 80 53 81 54 82 80 83 81 84
REMARK SMILES IDX 89 85 82 86 88 87 90 88 87 89 83 90 84 91 85 92 86 93 65 94
REMARK SMILES IDX 66 95 74 96 67 97 73 98 75 99 72 100 68 101 69 102 70 103
REMARK SMILES IDX 71 104
REMARK H PARENT 95 57 63 68
REMARK Flexibility Score: inf
ROOT
ATOM      1  C   UNL A   1      43.609  22.144  25.838  1.00  0.00     0.188 C 
ENDROOT
BRANCH   1   2
ATOM      2  O   UNL A   1      42.317  21.594  25.583  1.00  0.00    -0.377 OA
BRANCH   2   3
ATOM      3  C   UNL A   1      41.943  20.405  26.248  1.00  0.00     0.188 C 
BRANCH   3   4
ATOM      4  C   UNL A   1      40.559  20.455  26.917  1.00  0.00     0.188 C 
BRANCH   4   5
ATOM      5  O   UNL A   1      40.274  21.694  27.561  1.00  0.00    -0.376 OA
BRANCH   5   6
ATOM      6  C   UNL A   1      39.533  22.643  26.803  1.00  0.00     0.202 C 
BRANCH   6   7
ATOM      7  C   UNL A   1      38.592  22.042  25.751  1.00  0.00     0.261 C 
BRANCH   7   8
ATOM      8  O   UNL A   1      37.286  22.641  25.718  1.00  0.00    -0.460 OA
BRANCH   8   9
ATOM      9  C   UNL A   1      36.640  22.681  24.534  1.00  0.00     0.338 C 
ATOM     10  O   UNL A   1      36.997  22.163  23.492  1.00  0.00    -0.246 OA
BRANCH   9  11
ATOM     11  C   UNL A   1      35.334  23.337  24.723  1.00  0.00     0.087 C 
ATOM     12  C   UNL A   1      31.430  24.822  24.913  1.00  0.00    -0.002 A 
ATOM     13  C   UNL A   1      31.208  26.169  24.586  1.00  0.00     0.054 A 
ATOM     14  C   UNL A   1      32.743  24.332  24.823  1.00  0.00     0.131 A 
ATOM     15  C   UNL A   1      32.245  26.978  24.107  1.00  0.00     0.130 A 
ATOM     16  C   UNL A   1      33.794  25.136  24.358  1.00  0.00     0.021 A 
ATOM     17  O   UNL A   1      32.950  23.014  25.153  1.00  0.00    -0.475 OA
ATOM     18  C   UNL A   1      33.541  26.464  24.013  1.00  0.00     0.058 A 
ATOM     19  C   UNL A   1      35.109  24.535  24.156  1.00  0.00     0.027 C 
ATOM     20  C   UNL A   1      34.293  22.716  25.622  1.00  0.00     0.316 C 
BRANCH  12  21
ATOM     21  C   UNL A   1      30.329  23.886  25.374  1.00  0.00     0.039 C 
BRANCH  21  22
ATOM     22  C   UNL A   1      29.910  23.914  26.849  1.00  0.00     0.001 C 
ATOM     23  C   UNL A   1      29.436  22.563  27.371  1.00  0.00     0.004 C 
ENDBRANCH  21  22
ENDBRANCH  12  21
BRANCH  15  24
ATOM     24  O   UNL A   1      32.108  28.278  23.707  1.00  0.00    -0.406 OA
BRANCH  24  25
ATOM     25  C   UNL A   1      31.013  28.996  24.255  1.00  0.00     0.573 C 
ATOM     26  F   UNL A   1      29.842  28.353  24.050  1.00  0.00    -0.132 F 
ATOM     27  F   UNL A   1      31.184  29.198  25.580  1.00  0.00    -0.132 F 
ATOM     28  F   UNL A   1      30.935  30.205  23.655  1.00  0.00    -0.132 F 
ENDBRANCH  24  25
ENDBRANCH  15  24
BRANCH  20  29
ATOM     29  C   UNL A   1      34.364  21.210  25.921  1.00  0.00     0.430 C 
ATOM     30  F   UNL A   1      33.264  20.554  25.485  1.00  0.00    -0.167 F 
ATOM     31  F   UNL A   1      35.410  20.655  25.247  1.00  0.00    -0.167 F 
ATOM     32  F   UNL A   1      34.548  20.933  27.227  1.00  0.00    -0.167 F 
ENDBRANCH  20  29
ENDBRANCH   9  11
ENDBRANCH   8   9
ENDBRANCH   7   8
ENDBRANCH   6   7
ENDBRANCH   5   6
ENDBRANCH   4   5
ENDBRANCH   3   4
ENDBRANCH   2   3
ENDBRANCH   1   2
BRANCH   1  33
ATOM     33  C   UNL A   1      44.842  21.801  24.971  1.00  0.00     0.188 C 
BRANCH  33  34
ATOM     34  O   UNL A   1      45.060  22.682  23.869  1.00  0.00    -0.376 OA
BRANCH  34  35
ATOM     35  C   UNL A   1      46.323  23.333  23.827  1.00  0.00     0.202 C 
BRANCH  35  36
ATOM     36  C   UNL A   1      46.881  23.651  25.219  1.00  0.00     0.261 C 
BRANCH  36  37
ATOM     37  O   UNL A   1      46.063  24.531  26.002  1.00  0.00    -0.460 OA
BRANCH  37  38
ATOM     38  C   UNL A   1      45.858  25.770  25.498  1.00  0.00     0.338 C 
ATOM     39  O   UNL A   1      46.272  26.207  24.440  1.00  0.00    -0.246 OA
BRANCH  38  40
ATOM     40  C   UNL A   1      44.876  26.453  26.362  1.00  0.00     0.060 A 
ATOM     41  C   UNL A   1      44.857  27.853  26.381  1.00  0.00     0.016 A 
ATOM     42  C   UNL A   1      43.984  25.714  27.143  1.00  0.00     0.016 A 
ATOM     43  C   UNL A   1      43.970  28.521  27.225  1.00  0.00     0.010 A 
ATOM     44  C   UNL A   1      43.109  26.384  27.999  1.00  0.00     0.010 A 
ATOM     45  C   UNL A   1      43.127  27.788  28.072  1.00  0.00    -0.014 A 
BRANCH  45  46
ATOM     46  C   UNL A   1      42.437  28.474  29.189  1.00  0.00     0.031 A 
ATOM     47  C   UNL A   1      43.159  28.573  30.505  1.00  0.00     0.074 A 
ATOM     48  C   UNL A   1      41.212  29.007  29.038  1.00  0.00     0.049 A 
ATOM     49  N   UNL A   1      42.764  29.097  31.635  1.00  0.00    -0.248 NA
ATOM     50  C   UNL A   1      44.510  27.992  30.548  1.00  0.00     0.031 C 
ATOM     51  C   UNL A   1      40.432  28.998  27.802  1.00  0.00     0.029 A 
ATOM     52  N   UNL A   1      40.407  29.653  29.941  1.00  0.00    -0.354 N 
ATOM     53  C   UNL A   1      43.819  28.916  32.522  1.00  0.00     0.074 A 
ATOM     54  C   UNL A   1      44.852  28.194  31.811  1.00  0.00     0.031 C 
ATOM     55  C   UNL A   1      39.252  29.603  28.029  1.00  0.00     0.029 A 
ATOM     56  C   UNL A   1      39.183  30.015  29.430  1.00  0.00     0.049 A 
ATOM     57  H   UNL A   1      40.681  29.841  30.868  1.00  0.00     0.167 HD
ATOM     58  C   UNL A   1      43.924  29.324  33.810  1.00  0.00     0.034 A 
ATOM     59  C   UNL A   1      38.125  30.593  30.035  1.00  0.00     0.034 A 
ATOM     60  C   UNL A   1      42.875  30.017  34.517  1.00  0.00     0.049 A 
ATOM     61  C   UNL A   1      38.231  30.963  31.497  1.00  0.00     0.074 A 
ATOM     62  C   UNL A   1      42.869  30.477  35.821  1.00  0.00     0.029 A 
ATOM     63  N   UNL A   1      41.634  30.334  33.979  1.00  0.00    -0.354 N 
ATOM     64  N   UNL A   1      39.241  30.806  32.322  1.00  0.00    -0.248 NA
ATOM     65  C   UNL A   1      37.055  31.601  32.103  1.00  0.00     0.031 C 
ATOM     66  C   UNL A   1      41.605  31.011  36.092  1.00  0.00     0.029 A 
ATOM     67  C   UNL A   1      40.844  30.956  34.934  1.00  0.00     0.049 A 
ATOM     68  H   UNL A   1      41.355  30.146  33.053  1.00  0.00     0.167 HD
ATOM     69  C   UNL A   1      38.831  31.355  33.535  1.00  0.00     0.074 A 
ATOM     70  C   UNL A   1      37.489  31.859  33.328  1.00  0.00     0.031 C 
ATOM     71  C   UNL A   1      39.502  31.442  34.713  1.00  0.00     0.034 A 
BRANCH  58  72
ATOM     72  C   UNL A   1      45.198  28.976  34.539  1.00  0.00     0.023 A 
ATOM     73  C   UNL A   1      45.332  27.774  35.258  1.00  0.00     0.031 A 
ATOM     74  C   UNL A   1      46.275  29.879  34.559  1.00  0.00     0.131 A 
ATOM     75  C   UNL A   1      46.483  27.543  36.026  1.00  0.00     0.055 A 
ATOM     76  C   UNL A   1      47.451  29.607  35.261  1.00  0.00     0.041 A 
ATOM     77  F   UNL A   1      46.194  31.053  33.913  1.00  0.00    -0.206 F 
ATOM     78  C   UNL A   1      47.554  28.440  36.013  1.00  0.00     0.022 A 
BRANCH  75  79
ATOM     79  S   UNL A   1      46.500  26.125  37.158  1.00  0.00     0.124 S 
ATOM     80  O   UNL A   1      47.934  25.881  37.303  1.00  0.00    -0.237 OA
ATOM     81  O   UNL A   1      45.820  26.654  38.335  1.00  0.00    -0.237 OA
ATOM     82  O   UNL A   1      45.771  25.092  36.427  1.00  0.00    -0.744 OA
ENDBRANCH  75  79
ENDBRANCH  58  72
BRANCH  59  83
ATOM     83  C   UNL A   1      36.858  30.828  29.286  1.00  0.00     0.023 A 
ATOM     84  C   UNL A   1      36.257  32.097  29.253  1.00  0.00     0.031 A 
ATOM     85  C   UNL A   1      36.194  29.768  28.645  1.00  0.00     0.131 A 
ATOM     86  C   UNL A   1      35.006  32.262  28.636  1.00  0.00     0.055 A 
ATOM     87  C   UNL A   1      34.975  29.948  27.989  1.00  0.00     0.041 A 
ATOM     88  F   UNL A   1      36.724  28.535  28.647  1.00  0.00    -0.206 F 
ATOM     89  C   UNL A   1      34.367  31.199  27.994  1.00  0.00     0.022 A 
BRANCH  86  90
ATOM     90  S   UNL A   1      34.183  33.875  28.758  1.00  0.00     0.124 S 
ATOM     91  O   UNL A   1      33.047  33.697  27.862  1.00  0.00    -0.237 OA
ATOM     92  O   UNL A   1      33.874  33.950  30.182  1.00  0.00    -0.237 OA
ATOM     93  O   UNL A   1      35.204  34.813  28.296  1.00  0.00    -0.744 OA
ENDBRANCH  86  90
ENDBRANCH  59  83
BRANCH  71  94
ATOM     94  C   UNL A   1      38.806  32.151  35.850  1.00  0.00     0.023 A 
ATOM     95  C   UNL A   1      38.252  31.448  36.934  1.00  0.00     0.031 A 
ATOM     96  C   UNL A   1      38.683  33.552  35.839  1.00  0.00     0.131 A 
ATOM     97  C   UNL A   1      37.549  32.142  37.932  1.00  0.00     0.055 A 
ATOM     98  C   UNL A   1      38.037  34.242  36.864  1.00  0.00     0.041 A 
ATOM     99  F   UNL A   1      39.194  34.274  34.828  1.00  0.00    -0.206 F 
ATOM    100  C   UNL A   1      37.452  33.537  37.911  1.00  0.00     0.022 A 
BRANCH  97 101
ATOM    101  S   UNL A   1      36.676  31.191  39.206  1.00  0.00     0.124 S 
ATOM    102  O   UNL A   1      35.386  31.872  39.263  1.00  0.00    -0.237 OA
ATOM    103  O   UNL A   1      36.664  29.848  38.638  1.00  0.00    -0.237 OA
ATOM    104  O   UNL A   1      37.515  31.355  40.391  1.00  0.00    -0.744 OA
ENDBRANCH  97 101
ENDBRANCH  71  94
ENDBRANCH  45  46
ENDBRANCH  38  40
ENDBRANCH  37  38
ENDBRANCH  36  37
ENDBRANCH  35  36
ENDBRANCH  34  35
ENDBRANCH  33  34
ENDBRANCH   1  33
TORSDOF 28
ENDMDL
MODEL 3
REMARK VINA RESULT:      -7.7      2.902      3.589
REMARK SMILES CCCc1cc(OC(F)(F)F)cc2c1O[C@@H](C(F)(F)F)C(C(=O)OCCOCCOCCOCCOC(=O)c1ccc(-c3c4nc(c(-c5cc(S(=O)(=O)[O-])ccc5F)c5ccc([nH]5)c(-c5cc(S(=O)(=O)[O-])ccc5F)c5nc(c(-c6cc(S(=O)(=O)[O-])ccc6F)c6ccc3[nH]6)C=C5)C=C4)cc1)=C2
REMARK SMILES IDX 31 1 30 2 29 3 28 4 27 5 26 6 25 7 24 8 22 9 23 10 21 11
REMARK SMILES IDX 4 12 5 13 14 14 6 15 13 16 15 17 12 18 102 19 16 20 3 21
REMARK SMILES IDX 2 22 1 23 7 24 8 25 9 26 10 27 11 28 17 29 18 30 19 31 20 32
REMARK SMILES IDX 32 33 33 34 34 35 35 36 36 37 37 38 38 39 39 40 40 41 101 42
REMARK SMILES IDX 41 43 100 44 42 45 43 46 44 47 94 48 45 49 99 50 93 51 95 52
REMARK SMILES IDX 46 53 98 54 92 55 91 56 47 58 79 59 59 60 78 61 60 62 63 63
REMARK SMILES IDX 77 64 96 65 61 66 62 67 76 69 97 70 64 71 48 72 49 73 57 74
REMARK SMILES IDX 50 75 56 76 58 77 55 78 51 79 52 80 53 81 54 82 80 83 81 84
REMARK SMILES IDX 89 85 82 86 88 87 90 88 87 89 83 90 84 91 85 92 86 93 65 94
REMARK SMILES IDX 66 95 74 96 67 97 73 98 75 99 72 100 68 101 69 102 70 103
REMARK SMILES IDX 71 104
REMARK H PARENT 95 57 63 68
REMARK Flexibility Score: inf
ROOT
ATOM      1  C   UNL A   1      30.408  32.579  25.496  1.00  0.00     0.188 C 
ENDROOT
BRANCH   1   2
ATOM      2  O   UNL A   1      29.745  31.600  24.698  1.00  0.00    -0.377 OA
BRANCH   2   3
ATOM      3  C   UNL A   1      28.804  32.033  23.735  1.00  0.00     0.188 C 
BRANCH   3   4
ATOM      4  C   UNL A   1      27.704  31.009  23.411  1.00  0.00     0.188 C 
BRANCH   4   5
ATOM      5  O   UNL A   1      28.112  29.989  22.504  1.00  0.00    -0.376 OA
BRANCH   5   6
ATOM      6  C   UNL A   1      28.149  28.663  23.019  1.00  0.00     0.202 C 
BRANCH   6   7
ATOM      7  C   UNL A   1      29.467  27.913  22.790  1.00  0.00     0.261 C 
BRANCH   7   8
ATOM      8  O   UNL A   1      29.850  27.051  23.875  1.00  0.00    -0.460 OA
BRANCH   8   9
ATOM      9  C   UNL A   1      30.866  27.450  24.668  1.00  0.00     0.338 C 
ATOM     10  O   UNL A   1      31.065  28.576  25.085  1.00  0.00    -0.246 OA
BRANCH   9  11
ATOM     11  C   UNL A   1      31.638  26.267  25.088  1.00  0.00     0.087 C 
ATOM     12  C   UNL A   1      34.207  23.074  25.920  1.00  0.00    -0.002 A 
ATOM     13  C   UNL A   1      33.719  21.766  25.777  1.00  0.00     0.054 A 
ATOM     14  C   UNL A   1      33.339  24.135  25.616  1.00  0.00     0.131 A 
ATOM     15  C   UNL A   1      32.438  21.522  25.267  1.00  0.00     0.130 A 
ATOM     16  C   UNL A   1      32.047  23.906  25.119  1.00  0.00     0.021 A 
ATOM     17  O   UNL A   1      33.824  25.413  25.768  1.00  0.00    -0.475 OA
ATOM     18  C   UNL A   1      31.598  22.595  24.958  1.00  0.00     0.058 A 
ATOM     19  C   UNL A   1      31.241  25.045  24.691  1.00  0.00     0.027 C 
ATOM     20  C   UNL A   1      32.805  26.414  26.033  1.00  0.00     0.316 C 
BRANCH  12  21
ATOM     21  C   UNL A   1      35.608  23.390  26.406  1.00  0.00     0.039 C 
BRANCH  21  22
ATOM     22  C   UNL A   1      36.803  22.876  25.593  1.00  0.00     0.001 C 
ATOM     23  C   UNL A   1      36.695  23.174  24.103  1.00  0.00     0.004 C 
ENDBRANCH  21  22
ENDBRANCH  12  21
BRANCH  15  24
ATOM     24  O   UNL A   1      31.905  20.285  25.036  1.00  0.00    -0.406 OA
BRANCH  24  25
ATOM     25  C   UNL A   1      32.437  19.563  23.936  1.00  0.00     0.573 C 
ATOM     26  F   UNL A   1      32.155  20.166  22.760  1.00  0.00    -0.132 F 
ATOM     27  F   UNL A   1      33.776  19.424  24.055  1.00  0.00    -0.132 F 
ATOM     28  F   UNL A   1      31.889  18.328  23.913  1.00  0.00    -0.132 F 
ENDBRANCH  24  25
ENDBRANCH  15  24
BRANCH  20  29
ATOM     29  C   UNL A   1      33.506  27.778  26.150  1.00  0.00     0.430 C 
ATOM     30  F   UNL A   1      32.838  28.622  26.969  1.00  0.00    -0.167 F 
ATOM     31  F   UNL A   1      34.734  27.617  26.717  1.00  0.00    -0.167 F 
ATOM     32  F   UNL A   1      33.698  28.383  24.962  1.00  0.00    -0.167 F 
ENDBRANCH  20  29
ENDBRANCH   9  11
ENDBRANCH   8   9
ENDBRANCH   7   8
ENDBRANCH   6   7
ENDBRANCH   5   6
ENDBRANCH   4   5
ENDBRANCH   3   4
ENDBRANCH   2   3
ENDBRANCH   1   2
BRANCH   1  33
ATOM     33  C   UNL A   1      31.390  32.199  26.627  1.00  0.00     0.188 C 
BRANCH  33  34
ATOM     34  O   UNL A   1      32.513  33.068  26.761  1.00  0.00    -0.376 OA
BRANCH  34  35
ATOM     35  C   UNL A   1      32.635  33.752  28.001  1.00  0.00     0.202 C 
BRANCH  35  36
ATOM     36  C   UNL A   1      33.996  33.536  28.673  1.00  0.00     0.261 C 
BRANCH  36  37
ATOM     37  O   UNL A   1      35.018  33.032  27.801  1.00  0.00    -0.460 OA
BRANCH  37  38
ATOM     38  C   UNL A   1      35.229  31.696  27.830  1.00  0.00     0.338 C 
ATOM     39  O   UNL A   1      34.757  30.864  27.077  1.00  0.00    -0.246 OA
BRANCH  38  40
ATOM     40  C   UNL A   1      36.292  31.427  28.818  1.00  0.00     0.060 A 
ATOM     41  C   UNL A   1      37.425  32.248  28.827  1.00  0.00     0.016 A 
ATOM     42  C   UNL A   1      36.164  30.374  29.727  1.00  0.00     0.016 A 
ATOM     43  C   UNL A   1      38.463  31.985  29.720  1.00  0.00     0.010 A 
ATOM     44  C   UNL A   1      37.211  30.101  30.609  1.00  0.00     0.010 A 
ATOM     45  C   UNL A   1      38.380  30.882  30.581  1.00  0.00    -0.014 A 
BRANCH  45  46
ATOM     46  C   UNL A   1      39.596  30.407  31.280  1.00  0.00     0.031 A 
ATOM     47  C   UNL A   1      39.862  30.933  32.664  1.00  0.00     0.074 A 
ATOM     48  C   UNL A   1      40.436  29.524  30.710  1.00  0.00     0.049 A 
ATOM     49  N   UNL A   1      40.863  30.695  33.469  1.00  0.00    -0.248 NA
ATOM     50  C   UNL A   1      38.859  31.863  33.207  1.00  0.00     0.031 C 
ATOM     51  C   UNL A   1      40.262  28.924  29.388  1.00  0.00     0.029 A 
ATOM     52  N   UNL A   1      41.608  28.986  31.175  1.00  0.00    -0.354 N 
ATOM     53  C   UNL A   1      40.609  31.438  34.616  1.00  0.00     0.074 A 
ATOM     54  C   UNL A   1      39.382  32.170  34.383  1.00  0.00     0.031 C 
ATOM     55  C   UNL A   1      41.302  28.106  29.145  1.00  0.00     0.029 A 
ATOM     56  C   UNL A   1      42.225  28.147  30.278  1.00  0.00     0.049 A 
ATOM     57  H   UNL A   1      41.973  29.182  32.068  1.00  0.00     0.167 HD
ATOM     58  C   UNL A   1      41.326  31.496  35.765  1.00  0.00     0.034 A 
ATOM     59  C   UNL A   1      43.408  27.505  30.360  1.00  0.00     0.034 A 
ATOM     60  C   UNL A   1      42.562  30.785  35.972  1.00  0.00     0.049 A 
ATOM     61  C   UNL A   1      44.235  27.652  31.617  1.00  0.00     0.074 A 
ATOM     62  C   UNL A   1      43.373  30.771  37.093  1.00  0.00     0.029 A 
ATOM     63  N   UNL A   1      43.176  29.973  35.027  1.00  0.00    -0.354 N 
ATOM     64  N   UNL A   1      43.975  28.342  32.704  1.00  0.00    -0.248 NA
ATOM     65  C   UNL A   1      45.508  26.923  31.659  1.00  0.00     0.031 C 
ATOM     66  C   UNL A   1      44.508  30.006  36.802  1.00  0.00     0.029 A 
ATOM     67  C   UNL A   1      44.371  29.477  35.528  1.00  0.00     0.049 A 
ATOM     68  H   UNL A   1      42.816  29.776  34.132  1.00  0.00     0.167 HD
ATOM     69  C   UNL A   1      45.040  28.102  33.570  1.00  0.00     0.074 A 
ATOM     70  C   UNL A   1      45.935  27.193  32.884  1.00  0.00     0.031 C 
ATOM     71  C   UNL A   1      45.258  28.581  34.823  1.00  0.00     0.034 A 
BRANCH  58  72
ATOM     72  C   UNL A   1      40.806  32.406  36.851  1.00  0.00     0.023 A 
ATOM     73  C   UNL A   1      39.640  32.098  37.576  1.00  0.00     0.031 A 
ATOM     74  C   UNL A   1      41.455  33.621  37.130  1.00  0.00     0.131 A 
ATOM     75  C   UNL A   1      39.119  33.027  38.488  1.00  0.00     0.055 A 
ATOM     76  C   UNL A   1      40.974  34.506  38.098  1.00  0.00     0.041 A 
ATOM     77  F   UNL A   1      42.556  33.979  36.452  1.00  0.00    -0.206 F 
ATOM     78  C   UNL A   1      39.790  34.219  38.772  1.00  0.00     0.022 A 
BRANCH  75  79
ATOM     79  S   UNL A   1      37.473  32.725  39.189  1.00  0.00     0.124 S 
ATOM     80  O   UNL A   1      36.609  32.989  38.040  1.00  0.00    -0.237 OA
ATOM     81  O   UNL A   1      37.562  31.332  39.614  1.00  0.00    -0.237 OA
ATOM     82  O   UNL A   1      37.375  33.703  40.270  1.00  0.00    -0.744 OA
ENDBRANCH  75  79
ENDBRANCH  58  72
BRANCH  59  83
ATOM     83  C   UNL A   1      43.913  26.694  29.215  1.00  0.00     0.023 A 
ATOM     84  C   UNL A   1      44.535  27.299  28.112  1.00  0.00     0.031 A 
ATOM     85  C   UNL A   1      43.718  25.302  29.180  1.00  0.00     0.131 A 
ATOM     86  C   UNL A   1      44.897  26.522  26.999  1.00  0.00     0.055 A 
ATOM     87  C   UNL A   1      44.125  24.526  28.092  1.00  0.00     0.041 A 
ATOM     88  F   UNL A   1      43.127  24.672  30.207  1.00  0.00    -0.206 F 
ATOM     89  C   UNL A   1      44.706  25.139  26.987  1.00  0.00     0.022 A 
BRANCH  86  90
ATOM     90  S   UNL A   1      45.546  27.362  25.527  1.00  0.00     0.124 S 
ATOM     91  O   UNL A   1      44.385  28.125  25.084  1.00  0.00    -0.237 OA
ATOM     92  O   UNL A   1      46.650  28.136  26.083  1.00  0.00    -0.237 OA
ATOM     93  O   UNL A   1      45.940  26.259  24.653  1.00  0.00    -0.744 OA
ENDBRANCH  86  90
ENDBRANCH  59  83
BRANCH  71  94
ATOM     94  C   UNL A   1      46.491  28.090  35.542  1.00  0.00     0.023 A 
ATOM     95  C   UNL A   1      47.717  28.775  35.466  1.00  0.00     0.031 A 
ATOM     96  C   UNL A   1      46.441  26.908  36.303  1.00  0.00     0.131 A 
ATOM     97  C   UNL A   1      48.856  28.242  36.091  1.00  0.00     0.055 A 
ATOM     98  C   UNL A   1      47.561  26.415  36.972  1.00  0.00     0.041 A 
ATOM     99  F   UNL A   1      45.297  26.213  36.409  1.00  0.00    -0.206 F 
ATOM    100  C   UNL A   1      48.781  27.074  36.856  1.00  0.00     0.022 A 
BRANCH  97 101
ATOM    101  S   UNL A   1      50.460  29.041  35.807  1.00  0.00     0.124 S 
ATOM    102  O   UNL A   1      50.066  30.301  35.184  1.00  0.00    -0.237 OA
ATOM    103  O   UNL A   1      51.001  29.139  37.158  1.00  0.00    -0.237 OA
ATOM    104  O   UNL A   1      51.158  28.106  34.928  1.00  0.00    -0.744 OA
ENDBRANCH  97 101
ENDBRANCH  71  94
ENDBRANCH  45  46
ENDBRANCH  38  40
ENDBRANCH  37  38
ENDBRANCH  36  37
ENDBRANCH  35  36
ENDBRANCH  34  35
ENDBRANCH  33  34
ENDBRANCH   1  33
TORSDOF 28
ENDMDL
