MODEL 1
REMARK VINA RESULT:      -9.4      0.000      0.000
REMARK SMILES CC1=C(CC(=O)OCCOCCOCCOCCOC(=O)c2ccc(-c3c4nc(c(-c5cc(S(=O)(=O)[O-])ccc5F)c5ccc([nH]5)c(-c5cc(S(=O)(=O)[O-])ccc5F)c5nc(c(-c6cc(S(=O)(=O)[O-])ccc6F)c6ccc3[nH]6)C=C5)C=C4)cc2)c2cc(F)ccc2/C1=C\c1ccc([S@@+](C)[O-])cc1
REMARK SMILES IDX 13 1 12 2 11 3 10 4 9 5 8 6 7 7 5 8 6 9 4 10 3 11 1 12 2 13
REMARK SMILES IDX 92 14 85 15 91 16 93 17 86 18 90 19 87 20 89 21 88 22 94 23
REMARK SMILES IDX 95 24 102 25 96 26 101 27 97 28 98 29 99 30 100 31 14 32
REMARK SMILES IDX 15 33 16 34 17 35 18 36 19 37 20 38 21 39 22 40 23 41 84 42
REMARK SMILES IDX 24 43 83 44 25 45 26 46 27 47 77 48 28 49 82 50 76 51 78 52
REMARK SMILES IDX 29 53 81 54 75 55 74 56 30 58 62 59 42 60 61 61 43 62 46 63
REMARK SMILES IDX 60 64 79 65 44 66 45 67 59 69 80 70 47 71 31 72 32 73 40 74
REMARK SMILES IDX 33 75 39 76 41 77 38 78 34 79 35 80 36 81 37 82 63 83 64 84
REMARK SMILES IDX 72 85 65 86 71 87 73 88 70 89 66 90 67 91 68 92 69 93 48 94
REMARK SMILES IDX 49 95 57 96 50 97 56 98 58 99 55 100 51 101 52 102 53 103
REMARK SMILES IDX 54 104
REMARK H PARENT 78 57 46 68
REMARK Flexibility Score: inf
ROOT
ATOM      1  O   UNL A   1      36.285  23.706  25.126  1.00  0.00    -0.377 OA
ENDROOT
BRANCH   1   2
ATOM      2  C   UNL A   1      34.987  24.230  25.343  1.00  0.00     0.188 C 
BRANCH   2   3
ATOM      3  C   UNL A   1      34.640  25.731  25.394  1.00  0.00     0.188 C 
BRANCH   3   4
ATOM      4  O   UNL A   1      33.489  26.065  26.126  1.00  0.00    -0.376 OA
BRANCH   4   5
ATOM      5  C   UNL A   1      33.128  27.410  26.356  1.00  0.00     0.202 C 
BRANCH   5   6
ATOM      6  C   UNL A   1      31.806  28.073  25.919  1.00  0.00     0.261 C 
BRANCH   6   7
ATOM      7  O   UNL A   1      31.648  28.498  24.555  1.00  0.00    -0.463 OA
BRANCH   7   8
ATOM      8  C   UNL A   1      30.613  27.987  23.849  1.00  0.00     0.310 C 
ATOM      9  O   UNL A   1      30.151  28.516  22.842  1.00  0.00    -0.252 OA
BRANCH   8  10
ATOM     10  C   UNL A   1      30.030  26.677  24.406  1.00  0.00     0.159 C 
BRANCH  10  11
ATOM     11  C   UNL A   1      30.756  25.361  24.321  1.00  0.00    -0.025 C 
ATOM     12  C   UNL A   1      29.994  24.307  26.490  1.00  0.00     0.045 C 
ATOM     13  C   UNL A   1      30.741  24.325  25.198  1.00  0.00    -0.039 C 
ATOM     14  C   UNL A   1      31.551  23.202  24.679  1.00  0.00    -0.014 C 
ATOM     15  C   UNL A   1      31.515  24.912  23.133  1.00  0.00    -0.011 A 
ATOM     16  C   UNL A   1      32.037  23.622  23.349  1.00  0.00    -0.010 A 
ATOM     17  C   UNL A   1      31.786  22.036  25.319  1.00  0.00     0.017 C 
ATOM     18  C   UNL A   1      31.777  25.584  21.942  1.00  0.00     0.048 A 
ATOM     19  C   UNL A   1      32.839  23.013  22.388  1.00  0.00     0.012 A 
ATOM     20  C   UNL A   1      32.596  24.966  20.997  1.00  0.00     0.123 A 
ATOM     21  C   UNL A   1      33.130  23.697  21.209  1.00  0.00     0.040 A 
ATOM     22  F   UNL A   1      32.905  25.619  19.869  1.00  0.00    -0.207 F 
BRANCH  17  23
ATOM     23  C   UNL A   1      32.619  20.938  24.805  1.00  0.00    -0.025 A 
ATOM     24  C   UNL A   1      32.072  19.992  23.929  1.00  0.00     0.013 A 
ATOM     25  C   UNL A   1      33.912  20.743  25.301  1.00  0.00     0.013 A 
ATOM     26  C   UNL A   1      32.761  18.804  23.650  1.00  0.00     0.061 A 
ATOM     27  C   UNL A   1      34.604  19.560  25.013  1.00  0.00     0.061 A 
ATOM     28  C   UNL A   1      34.016  18.563  24.223  1.00  0.00     0.152 A 
BRANCH  28  29
ATOM     29  S   UNL A   1      34.772  16.917  24.144  1.00  0.00    -0.018 S 
ATOM     30  C   UNL A   1      33.825  16.069  25.421  1.00  0.00     0.346 C 
ATOM     31  O   UNL A   1      34.391  16.294  22.753  1.00  0.00    -0.612 OA
ENDBRANCH  28  29
ENDBRANCH  17  23
ENDBRANCH  10  11
ENDBRANCH   8  10
ENDBRANCH   7   8
ENDBRANCH   6   7
ENDBRANCH   5   6
ENDBRANCH   4   5
ENDBRANCH   3   4
ENDBRANCH   2   3
ENDBRANCH   1   2
BRANCH   1  32
ATOM     32  C   UNL A   1      36.988  23.131  26.203  1.00  0.00     0.188 C 
BRANCH  32  33
ATOM     33  C   UNL A   1      38.518  23.183  26.126  1.00  0.00     0.188 C 
BRANCH  33  34
ATOM     34  O   UNL A   1      39.129  21.932  25.818  1.00  0.00    -0.376 OA
BRANCH  34  35
ATOM     35  C   UNL A   1      40.240  21.560  26.626  1.00  0.00     0.202 C 
BRANCH  35  36
ATOM     36  C   UNL A   1      41.624  21.984  26.115  1.00  0.00     0.261 C 
BRANCH  36  37
ATOM     37  O   UNL A   1      41.759  23.354  25.720  1.00  0.00    -0.460 OA
BRANCH  37  38
ATOM     38  C   UNL A   1      42.952  23.955  25.908  1.00  0.00     0.338 C 
ATOM     39  O   UNL A   1      43.942  23.865  25.203  1.00  0.00    -0.246 OA
BRANCH  38  40
ATOM     40  C   UNL A   1      42.773  24.902  27.027  1.00  0.00     0.060 A 
ATOM     41  C   UNL A   1      41.573  24.924  27.745  1.00  0.00     0.016 A 
ATOM     42  C   UNL A   1      43.788  25.825  27.306  1.00  0.00     0.016 A 
ATOM     43  C   UNL A   1      41.394  25.867  28.756  1.00  0.00     0.010 A 
ATOM     44  C   UNL A   1      43.600  26.781  28.305  1.00  0.00     0.010 A 
ATOM     45  C   UNL A   1      42.412  26.790  29.053  1.00  0.00    -0.014 A 
BRANCH  45  46
ATOM     46  C   UNL A   1      42.344  27.569  30.310  1.00  0.00     0.031 A 
ATOM     47  C   UNL A   1      43.106  27.197  31.542  1.00  0.00     0.074 A 
ATOM     48  C   UNL A   1      41.528  28.640  30.304  1.00  0.00     0.049 A 
ATOM     49  N   UNL A   1      43.194  27.850  32.671  1.00  0.00    -0.248 NA
ATOM     50  C   UNL A   1      43.852  25.932  31.514  1.00  0.00     0.031 C 
ATOM     51  C   UNL A   1      40.711  29.046  29.158  1.00  0.00     0.029 A 
ATOM     52  N   UNL A   1      41.247  29.572  31.266  1.00  0.00    -0.354 N 
ATOM     53  C   UNL A   1      44.024  27.093  33.488  1.00  0.00     0.074 A 
ATOM     54  C   UNL A   1      44.371  25.903  32.737  1.00  0.00     0.031 C 
ATOM     55  C   UNL A   1      40.037  30.157  29.476  1.00  0.00     0.029 A 
ATOM     56  C   UNL A   1      40.349  30.527  30.853  1.00  0.00     0.049 A 
ATOM     57  H   UNL A   1      41.648  29.560  32.165  1.00  0.00     0.167 HD
ATOM     58  C   UNL A   1      44.461  27.386  34.739  1.00  0.00     0.034 A 
ATOM     59  C   UNL A   1      39.836  31.589  31.503  1.00  0.00     0.034 A 
ATOM     60  C   UNL A   1      44.068  28.571  35.468  1.00  0.00     0.049 A 
ATOM     61  C   UNL A   1      40.327  31.885  32.892  1.00  0.00     0.074 A 
ATOM     62  C   UNL A   1      44.495  28.989  36.717  1.00  0.00     0.029 A 
ATOM     63  N   UNL A   1      43.149  29.518  35.031  1.00  0.00    -0.354 N 
ATOM     64  N   UNL A   1      41.209  31.227  33.609  1.00  0.00    -0.248 NA
ATOM     65  C   UNL A   1      39.776  33.072  33.556  1.00  0.00     0.031 C 
ATOM     66  C   UNL A   1      43.782  30.139  37.065  1.00  0.00     0.029 A 
ATOM     67  C   UNL A   1      42.967  30.493  36.001  1.00  0.00     0.049 A 
ATOM     68  H   UNL A   1      42.692  29.500  34.158  1.00  0.00     0.167 HD
ATOM     69  C   UNL A   1      41.328  31.926  34.806  1.00  0.00     0.074 A 
ATOM     70  C   UNL A   1      40.455  33.079  34.695  1.00  0.00     0.031 C 
ATOM     71  C   UNL A   1      42.084  31.634  35.894  1.00  0.00     0.034 A 
BRANCH  58  72
ATOM     72  C   UNL A   1      45.433  26.442  35.412  1.00  0.00     0.023 A 
ATOM     73  C   UNL A   1      46.803  26.476  35.085  1.00  0.00     0.031 A 
ATOM     74  C   UNL A   1      44.982  25.412  36.256  1.00  0.00     0.131 A 
ATOM     75  C   UNL A   1      47.663  25.481  35.571  1.00  0.00     0.055 A 
ATOM     76  C   UNL A   1      45.850  24.447  36.772  1.00  0.00     0.041 A 
ATOM     77  F   UNL A   1      43.684  25.324  36.593  1.00  0.00    -0.206 F 
ATOM     78  C   UNL A   1      47.195  24.472  36.418  1.00  0.00     0.022 A 
BRANCH  75  79
ATOM     79  S   UNL A   1      49.406  25.411  35.068  1.00  0.00     0.124 S 
ATOM     80  O   UNL A   1      49.814  24.110  35.592  1.00  0.00    -0.237 OA
ATOM     81  O   UNL A   1      49.306  25.493  33.613  1.00  0.00    -0.237 OA
ATOM     82  O   UNL A   1      50.008  26.564  35.727  1.00  0.00    -0.744 OA
ENDBRANCH  75  79
ENDBRANCH  58  72
BRANCH  59  83
ATOM     83  C   UNL A   1      38.882  32.475  30.777  1.00  0.00     0.023 A 
ATOM     84  C   UNL A   1      37.502  32.198  30.777  1.00  0.00     0.031 A 
ATOM     85  C   UNL A   1      39.353  33.501  29.943  1.00  0.00     0.131 A 
ATOM     86  C   UNL A   1      36.657  32.880  29.894  1.00  0.00     0.055 A 
ATOM     87  C   UNL A   1      38.493  34.233  29.123  1.00  0.00     0.041 A 
ATOM     88  F   UNL A   1      40.663  33.784  29.893  1.00  0.00    -0.206 F 
ATOM     89  C   UNL A   1      37.140  33.908  29.079  1.00  0.00     0.022 A 
BRANCH  86  90
ATOM     90  S   UNL A   1      34.939  32.344  29.653  1.00  0.00     0.124 S 
ATOM     91  O   UNL A   1      35.111  31.007  29.095  1.00  0.00    -0.237 OA
ATOM     92  O   UNL A   1      34.419  32.398  31.017  1.00  0.00    -0.237 OA
ATOM     93  O   UNL A   1      34.391  33.343  28.741  1.00  0.00    -0.744 OA
ENDBRANCH  86  90
ENDBRANCH  59  83
BRANCH  71  94
ATOM     94  C   UNL A   1      41.994  32.556  37.090  1.00  0.00     0.023 A 
ATOM     95  C   UNL A   1      40.879  32.500  37.949  1.00  0.00     0.031 A 
ATOM     96  C   UNL A   1      42.945  33.568  37.307  1.00  0.00     0.131 A 
ATOM     97  C   UNL A   1      40.725  33.460  38.956  1.00  0.00     0.055 A 
ATOM     98  C   UNL A   1      42.816  34.489  38.347  1.00  0.00     0.041 A 
ATOM     99  F   UNL A   1      44.022  33.673  36.511  1.00  0.00    -0.206 F 
ATOM    100  C   UNL A   1      41.693  34.446  39.168  1.00  0.00     0.022 A 
BRANCH  97 101
ATOM    101  S   UNL A   1      39.223  33.522  39.971  1.00  0.00     0.124 S 
ATOM    102  O   UNL A   1      39.150  32.156  40.486  1.00  0.00    -0.237 OA
ATOM    103  O   UNL A   1      39.562  34.543  40.960  1.00  0.00    -0.237 OA
ATOM    104  O   UNL A   1      38.173  33.888  39.027  1.00  0.00    -0.744 OA
ENDBRANCH  97 101
ENDBRANCH  71  94
ENDBRANCH  45  46
ENDBRANCH  38  40
ENDBRANCH  37  38
ENDBRANCH  36  37
ENDBRANCH  35  36
ENDBRANCH  34  35
ENDBRANCH  33  34
ENDBRANCH  32  33
ENDBRANCH   1  32
TORSDOF 26
ENDMDL
MODEL 2
REMARK VINA RESULT:      -9.3      4.610     10.311
REMARK SMILES CC1=C(CC(=O)OCCOCCOCCOCCOC(=O)c2ccc(-c3c4nc(c(-c5cc(S(=O)(=O)[O-])ccc5F)c5ccc([nH]5)c(-c5cc(S(=O)(=O)[O-])ccc5F)c5nc(c(-c6cc(S(=O)(=O)[O-])ccc6F)c6ccc3[nH]6)C=C5)C=C4)cc2)c2cc(F)ccc2/C1=C\c1ccc([S@@+](C)[O-])cc1
REMARK SMILES IDX 13 1 12 2 11 3 10 4 9 5 8 6 7 7 5 8 6 9 4 10 3 11 1 12 2 13
REMARK SMILES IDX 92 14 85 15 91 16 93 17 86 18 90 19 87 20 89 21 88 22 94 23
REMARK SMILES IDX 95 24 102 25 96 26 101 27 97 28 98 29 99 30 100 31 14 32
REMARK SMILES IDX 15 33 16 34 17 35 18 36 19 37 20 38 21 39 22 40 23 41 84 42
REMARK SMILES IDX 24 43 83 44 25 45 26 46 27 47 77 48 28 49 82 50 76 51 78 52
REMARK SMILES IDX 29 53 81 54 75 55 74 56 30 58 62 59 42 60 61 61 43 62 46 63
REMARK SMILES IDX 60 64 79 65 44 66 45 67 59 69 80 70 47 71 31 72 32 73 40 74
REMARK SMILES IDX 33 75 39 76 41 77 38 78 34 79 35 80 36 81 37 82 63 83 64 84
REMARK SMILES IDX 72 85 65 86 71 87 73 88 70 89 66 90 67 91 68 92 69 93 48 94
REMARK SMILES IDX 49 95 57 96 50 97 56 98 58 99 55 100 51 101 52 102 53 103
REMARK SMILES IDX 54 104
REMARK H PARENT 78 57 46 68
REMARK Flexibility Score: inf
ROOT
ATOM      1  O   UNL A   1      44.388  27.764  26.959  1.00  0.00    -0.377 OA
ENDROOT
BRANCH   1   2
ATOM      2  C   UNL A   1      43.830  27.740  25.657  1.00  0.00     0.188 C 
BRANCH   2   3
ATOM      3  C   UNL A   1      42.387  27.312  25.324  1.00  0.00     0.188 C 
BRANCH   3   4
ATOM      4  O   UNL A   1      42.193  25.937  25.114  1.00  0.00    -0.376 OA
BRANCH   4   5
ATOM      5  C   UNL A   1      43.283  25.047  25.008  1.00  0.00     0.202 C 
BRANCH   5   6
ATOM      6  C   UNL A   1      43.218  23.518  25.202  1.00  0.00     0.261 C 
BRANCH   6   7
ATOM      7  O   UNL A   1      44.235  22.862  25.977  1.00  0.00    -0.463 OA
BRANCH   7   8
ATOM      8  C   UNL A   1      44.024  22.717  27.305  1.00  0.00     0.310 C 
ATOM      9  O   UNL A   1      44.738  23.225  28.166  1.00  0.00    -0.252 OA
BRANCH   8  10
ATOM     10  C   UNL A   1      42.812  21.847  27.680  1.00  0.00     0.159 C 
BRANCH  10  11
ATOM     11  C   UNL A   1      41.437  22.078  27.113  1.00  0.00    -0.025 C 
ATOM     12  C   UNL A   1      41.026  19.823  26.044  1.00  0.00     0.045 C 
ATOM     13  C   UNL A   1      40.648  21.217  26.422  1.00  0.00    -0.039 C 
ATOM     14  C   UNL A   1      39.346  21.847  26.115  1.00  0.00    -0.014 C 
ATOM     15  C   UNL A   1      40.632  23.294  27.369  1.00  0.00    -0.011 A 
ATOM     16  C   UNL A   1      39.378  23.187  26.737  1.00  0.00    -0.010 A 
ATOM     17  C   UNL A   1      38.346  21.287  25.401  1.00  0.00     0.017 C 
ATOM     18  C   UNL A   1      40.966  24.446  28.074  1.00  0.00     0.048 A 
ATOM     19  C   UNL A   1      38.467  24.238  26.790  1.00  0.00     0.012 A 
ATOM     20  C   UNL A   1      40.049  25.497  28.102  1.00  0.00     0.123 A 
ATOM     21  C   UNL A   1      38.812  25.406  27.468  1.00  0.00     0.040 A 
ATOM     22  F   UNL A   1      40.375  26.635  28.729  1.00  0.00    -0.207 F 
BRANCH  17  23
ATOM     23  C   UNL A   1      37.066  21.936  25.077  1.00  0.00    -0.025 A 
ATOM     24  C   UNL A   1      35.941  21.711  25.881  1.00  0.00     0.013 A 
ATOM     25  C   UNL A   1      36.923  22.658  23.888  1.00  0.00     0.013 A 
ATOM     26  C   UNL A   1      34.668  22.095  25.439  1.00  0.00     0.061 A 
ATOM     27  C   UNL A   1      35.652  23.050  23.452  1.00  0.00     0.061 A 
ATOM     28  C   UNL A   1      34.511  22.733  24.202  1.00  0.00     0.152 A 
BRANCH  28  29
ATOM     29  S   UNL A   1      32.867  22.942  23.468  1.00  0.00    -0.018 S 
ATOM     30  C   UNL A   1      32.668  24.725  23.635  1.00  0.00     0.346 C 
ATOM     31  O   UNL A   1      32.990  22.602  21.939  1.00  0.00    -0.612 OA
ENDBRANCH  28  29
ENDBRANCH  17  23
ENDBRANCH  10  11
ENDBRANCH   8  10
ENDBRANCH   7   8
ENDBRANCH   6   7
ENDBRANCH   5   6
ENDBRANCH   4   5
ENDBRANCH   3   4
ENDBRANCH   2   3
ENDBRANCH   1   2
BRANCH   1  32
ATOM     32  C   UNL A   1      45.683  28.286  27.146  1.00  0.00     0.188 C 
BRANCH  32  33
ATOM     33  C   UNL A   1      46.494  28.573  25.878  1.00  0.00     0.188 C 
BRANCH  33  34
ATOM     34  O   UNL A   1      46.377  29.910  25.400  1.00  0.00    -0.376 OA
BRANCH  34  35
ATOM     35  C   UNL A   1      46.155  30.912  26.386  1.00  0.00     0.202 C 
BRANCH  35  36
ATOM     36  C   UNL A   1      44.936  31.820  26.171  1.00  0.00     0.261 C 
BRANCH  36  37
ATOM     37  O   UNL A   1      45.171  33.229  26.277  1.00  0.00    -0.460 OA
BRANCH  37  38
ATOM     38  C   UNL A   1      44.102  34.052  26.303  1.00  0.00     0.338 C 
ATOM     39  O   UNL A   1      43.505  34.516  25.347  1.00  0.00    -0.246 OA
BRANCH  38  40
ATOM     40  C   UNL A   1      43.666  34.126  27.712  1.00  0.00     0.060 A 
ATOM     41  C   UNL A   1      43.366  35.362  28.292  1.00  0.00     0.016 A 
ATOM     42  C   UNL A   1      43.631  32.953  28.476  1.00  0.00     0.016 A 
ATOM     43  C   UNL A   1      43.018  35.423  29.640  1.00  0.00     0.010 A 
ATOM     44  C   UNL A   1      43.302  33.017  29.830  1.00  0.00     0.010 A 
ATOM     45  C   UNL A   1      42.967  34.249  30.413  1.00  0.00    -0.014 A 
BRANCH  45  46
ATOM     46  C   UNL A   1      42.306  34.278  31.737  1.00  0.00     0.031 A 
ATOM     47  C   UNL A   1      40.821  34.326  31.905  1.00  0.00     0.074 A 
ATOM     48  C   UNL A   1      43.120  34.283  32.810  1.00  0.00     0.049 A 
ATOM     49  N   UNL A   1      40.126  34.265  33.011  1.00  0.00    -0.248 NA
ATOM     50  C   UNL A   1      40.011  34.471  30.689  1.00  0.00     0.031 C 
ATOM     51  C   UNL A   1      44.582  34.286  32.734  1.00  0.00     0.029 A 
ATOM     52  N   UNL A   1      42.852  34.287  34.152  1.00  0.00    -0.354 N 
ATOM     53  C   UNL A   1      38.792  34.341  32.631  1.00  0.00     0.074 A 
ATOM     54  C   UNL A   1      38.781  34.505  31.191  1.00  0.00     0.031 C 
ATOM     55  C   UNL A   1      45.083  34.270  33.974  1.00  0.00     0.029 A 
ATOM     56  C   UNL A   1      43.982  34.284  34.933  1.00  0.00     0.049 A 
ATOM     57  H   UNL A   1      41.939  34.291  34.522  1.00  0.00     0.167 HD
ATOM     58  C   UNL A   1      37.691  34.264  33.420  1.00  0.00     0.034 A 
ATOM     59  C   UNL A   1      44.124  34.285  36.272  1.00  0.00     0.034 A 
ATOM     60  C   UNL A   1      37.743  34.131  34.859  1.00  0.00     0.049 A 
ATOM     61  C   UNL A   1      42.888  34.211  37.124  1.00  0.00     0.074 A 
ATOM     62  C   UNL A   1      36.689  33.988  35.745  1.00  0.00     0.029 A 
ATOM     63  N   UNL A   1      38.902  34.140  35.627  1.00  0.00    -0.354 N 
ATOM     64  N   UNL A   1      41.632  34.158  36.746  1.00  0.00    -0.248 NA
ATOM     65  C   UNL A   1      43.081  34.174  38.578  1.00  0.00     0.031 C 
ATOM     66  C   UNL A   1      37.201  33.989  37.043  1.00  0.00     0.029 A 
ATOM     67  C   UNL A   1      38.584  34.047  36.974  1.00  0.00     0.049 A 
ATOM     68  H   UNL A   1      39.816  34.203  35.267  1.00  0.00     0.167 HD
ATOM     69  C   UNL A   1      40.883  34.071  37.914  1.00  0.00     0.074 A 
ATOM     70  C   UNL A   1      41.834  34.038  39.009  1.00  0.00     0.031 C 
ATOM     71  C   UNL A   1      39.535  34.030  38.064  1.00  0.00     0.034 A 
BRANCH  58  72
ATOM     72  C   UNL A   1      36.325  34.291  32.770  1.00  0.00     0.023 A 
ATOM     73  C   UNL A   1      35.572  35.481  32.740  1.00  0.00     0.031 A 
ATOM     74  C   UNL A   1      35.709  33.109  32.320  1.00  0.00     0.131 A 
ATOM     75  C   UNL A   1      34.239  35.455  32.304  1.00  0.00     0.055 A 
ATOM     76  C   UNL A   1      34.395  33.095  31.847  1.00  0.00     0.041 A 
ATOM     77  F   UNL A   1      36.376  31.943  32.336  1.00  0.00    -0.206 F 
ATOM     78  C   UNL A   1      33.650  34.270  31.851  1.00  0.00     0.022 A 
BRANCH  75  79
ATOM     79  S   UNL A   1      33.193  36.936  32.375  1.00  0.00     0.124 S 
ATOM     80  O   UNL A   1      32.678  37.002  31.009  1.00  0.00    -0.237 OA
ATOM     81  O   UNL A   1      32.214  36.569  33.394  1.00  0.00    -0.237 OA
ATOM     82  O   UNL A   1      34.119  38.002  32.742  1.00  0.00    -0.744 OA
ENDBRANCH  75  79
ENDBRANCH  58  72
BRANCH  59  83
ATOM     83  C   UNL A   1      45.502  34.259  36.842  1.00  0.00     0.023 A 
ATOM     84  C   UNL A   1      46.234  35.450  37.005  1.00  0.00     0.031 A 
ATOM     85  C   UNL A   1      46.158  33.040  37.070  1.00  0.00     0.131 A 
ATOM     86  C   UNL A   1      47.602  35.389  37.298  1.00  0.00     0.055 A 
ATOM     87  C   UNL A   1      47.502  32.988  37.440  1.00  0.00     0.041 A 
ATOM     88  F   UNL A   1      45.506  31.879  36.904  1.00  0.00    -0.206 F 
ATOM     89  C   UNL A   1      48.237  34.167  37.534  1.00  0.00     0.022 A 
BRANCH  86  90
ATOM     90  S   UNL A   1      48.635  36.880  37.218  1.00  0.00     0.124 S 
ATOM     91  O   UNL A   1      48.602  37.349  38.599  1.00  0.00    -0.237 OA
ATOM     92  O   UNL A   1      49.912  36.329  36.768  1.00  0.00    -0.237 OA
ATOM     93  O   UNL A   1      47.948  37.724  36.247  1.00  0.00    -0.744 OA
ENDBRANCH  86  90
ENDBRANCH  59  83
BRANCH  71  94
ATOM     94  C   UNL A   1      38.977  33.974  39.469  1.00  0.00     0.023 A 
ATOM     95  C   UNL A   1      38.568  32.745  40.023  1.00  0.00     0.031 A 
ATOM     96  C   UNL A   1      38.736  35.145  40.209  1.00  0.00     0.131 A 
ATOM     97  C   UNL A   1      37.907  32.721  41.257  1.00  0.00     0.055 A 
ATOM     98  C   UNL A   1      38.127  35.111  41.463  1.00  0.00     0.041 A 
ATOM     99  F   UNL A   1      39.097  36.344  39.723  1.00  0.00    -0.206 F 
ATOM    100  C   UNL A   1      37.695  33.895  41.986  1.00  0.00     0.022 A 
BRANCH  97 101
ATOM    101  S   UNL A   1      37.217  31.181  41.922  1.00  0.00     0.124 S 
ATOM    102  O   UNL A   1      37.925  30.170  41.140  1.00  0.00    -0.237 OA
ATOM    103  O   UNL A   1      37.596  31.257  43.331  1.00  0.00    -0.237 OA
ATOM    104  O   UNL A   1      35.787  31.288  41.651  1.00  0.00    -0.744 OA
ENDBRANCH  97 101
ENDBRANCH  71  94
ENDBRANCH  45  46
ENDBRANCH  38  40
ENDBRANCH  37  38
ENDBRANCH  36  37
ENDBRANCH  35  36
ENDBRANCH  34  35
ENDBRANCH  33  34
ENDBRANCH  32  33
ENDBRANCH   1  32
TORSDOF 26
ENDMDL
MODEL 3
REMARK VINA RESULT:      -9.3      2.266      2.840
REMARK SMILES CC1=C(CC(=O)OCCOCCOCCOCCOC(=O)c2ccc(-c3c4nc(c(-c5cc(S(=O)(=O)[O-])ccc5F)c5ccc([nH]5)c(-c5cc(S(=O)(=O)[O-])ccc5F)c5nc(c(-c6cc(S(=O)(=O)[O-])ccc6F)c6ccc3[nH]6)C=C5)C=C4)cc2)c2cc(F)ccc2/C1=C\c1ccc([S@@+](C)[O-])cc1
REMARK SMILES IDX 13 1 12 2 11 3 10 4 9 5 8 6 7 7 5 8 6 9 4 10 3 11 1 12 2 13
REMARK SMILES IDX 92 14 85 15 91 16 93 17 86 18 90 19 87 20 89 21 88 22 94 23
REMARK SMILES IDX 95 24 102 25 96 26 101 27 97 28 98 29 99 30 100 31 14 32
REMARK SMILES IDX 15 33 16 34 17 35 18 36 19 37 20 38 21 39 22 40 23 41 84 42
REMARK SMILES IDX 24 43 83 44 25 45 26 46 27 47 77 48 28 49 82 50 76 51 78 52
REMARK SMILES IDX 29 53 81 54 75 55 74 56 30 58 62 59 42 60 61 61 43 62 46 63
REMARK SMILES IDX 60 64 79 65 44 66 45 67 59 69 80 70 47 71 31 72 32 73 40 74
REMARK SMILES IDX 33 75 39 76 41 77 38 78 34 79 35 80 36 81 37 82 63 83 64 84
REMARK SMILES IDX 72 85 65 86 71 87 73 88 70 89 66 90 67 91 68 92 69 93 48 94
REMARK SMILES IDX 49 95 57 96 50 97 56 98 58 99 55 100 51 101 52 102 53 103
REMARK SMILES IDX 54 104
REMARK H PARENT 78 57 46 68
REMARK Flexibility Score: inf
ROOT
ATOM      1  O   UNL A   1      36.329  23.634  24.920  1.00  0.00    -0.377 OA
ENDROOT
BRANCH   1   2
ATOM      2  C   UNL A   1      35.012  24.156  24.896  1.00  0.00     0.188 C 
BRANCH   2   3
ATOM      3  C   UNL A   1      34.645  25.634  25.132  1.00  0.00     0.188 C 
BRANCH   3   4
ATOM      4  O   UNL A   1      33.598  25.865  26.040  1.00  0.00    -0.376 OA
BRANCH   4   5
ATOM      5  C   UNL A   1      33.186  27.174  26.370  1.00  0.00     0.202 C 
BRANCH   5   6
ATOM      6  C   UNL A   1      31.831  27.809  25.999  1.00  0.00     0.261 C 
BRANCH   6   7
ATOM      7  O   UNL A   1      31.683  28.457  24.724  1.00  0.00    -0.463 OA
BRANCH   7   8
ATOM      8  C   UNL A   1      30.721  27.999  23.890  1.00  0.00     0.310 C 
ATOM      9  O   UNL A   1      30.380  28.579  22.863  1.00  0.00    -0.252 OA
BRANCH   8  10
ATOM     10  C   UNL A   1      30.058  26.680  24.324  1.00  0.00     0.159 C 
BRANCH  10  11
ATOM     11  C   UNL A   1      30.761  25.351  24.247  1.00  0.00    -0.025 C 
ATOM     12  C   UNL A   1      29.968  24.317  26.414  1.00  0.00     0.045 C 
ATOM     13  C   UNL A   1      30.722  24.318  25.126  1.00  0.00    -0.039 C 
ATOM     14  C   UNL A   1      31.515  23.179  24.615  1.00  0.00    -0.014 C 
ATOM     15  C   UNL A   1      31.519  24.886  23.064  1.00  0.00    -0.011 A 
ATOM     16  C   UNL A   1      32.017  23.587  23.286  1.00  0.00    -0.010 A 
ATOM     17  C   UNL A   1      31.726  22.011  25.259  1.00  0.00     0.017 C 
ATOM     18  C   UNL A   1      31.799  25.549  21.873  1.00  0.00     0.048 A 
ATOM     19  C   UNL A   1      32.813  22.961  22.332  1.00  0.00     0.012 A 
ATOM     20  C   UNL A   1      32.613  24.915  20.934  1.00  0.00     0.123 A 
ATOM     21  C   UNL A   1      33.123  23.637  21.153  1.00  0.00     0.040 A 
ATOM     22  F   UNL A   1      32.940  25.559  19.807  1.00  0.00    -0.207 F 
BRANCH  17  23
ATOM     23  C   UNL A   1      32.542  20.897  24.753  1.00  0.00    -0.025 A 
ATOM     24  C   UNL A   1      31.976  19.943  23.897  1.00  0.00     0.013 A 
ATOM     25  C   UNL A   1      33.839  20.696  25.237  1.00  0.00     0.013 A 
ATOM     26  C   UNL A   1      32.650  18.744  23.629  1.00  0.00     0.061 A 
ATOM     27  C   UNL A   1      34.516  19.502  24.960  1.00  0.00     0.061 A 
ATOM     28  C   UNL A   1      33.909  18.500  24.192  1.00  0.00     0.152 A 
BRANCH  28  29
ATOM     29  S   UNL A   1      34.647  16.845  24.129  1.00  0.00    -0.018 S 
ATOM     30  C   UNL A   1      33.699  16.023  25.423  1.00  0.00     0.346 C 
ATOM     31  O   UNL A   1      34.252  16.208  22.749  1.00  0.00    -0.612 OA
ENDBRANCH  28  29
ENDBRANCH  17  23
ENDBRANCH  10  11
ENDBRANCH   8  10
ENDBRANCH   7   8
ENDBRANCH   6   7
ENDBRANCH   5   6
ENDBRANCH   4   5
ENDBRANCH   3   4
ENDBRANCH   2   3
ENDBRANCH   1   2
BRANCH   1  32
ATOM     32  C   UNL A   1      36.870  23.179  26.138  1.00  0.00     0.188 C 
BRANCH  32  33
ATOM     33  C   UNL A   1      38.391  23.001  26.186  1.00  0.00     0.188 C 
BRANCH  33  34
ATOM     34  O   UNL A   1      38.838  21.697  25.822  1.00  0.00    -0.376 OA
BRANCH  34  35
ATOM     35  C   UNL A   1      39.958  21.193  26.540  1.00  0.00     0.202 C 
BRANCH  35  36
ATOM     36  C   UNL A   1      41.341  21.516  25.956  1.00  0.00     0.261 C 
BRANCH  36  37
ATOM     37  O   UNL A   1      41.551  22.872  25.543  1.00  0.00    -0.460 OA
BRANCH  37  38
ATOM     38  C   UNL A   1      42.819  23.328  25.481  1.00  0.00     0.338 C 
ATOM     39  O   UNL A   1      43.593  23.227  24.545  1.00  0.00    -0.246 OA
BRANCH  38  40
ATOM     40  C   UNL A   1      43.028  24.148  26.690  1.00  0.00     0.060 A 
ATOM     41  C   UNL A   1      41.971  24.382  27.574  1.00  0.00     0.016 A 
ATOM     42  C   UNL A   1      44.277  24.747  26.898  1.00  0.00     0.016 A 
ATOM     43  C   UNL A   1      42.167  25.211  28.678  1.00  0.00     0.010 A 
ATOM     44  C   UNL A   1      44.467  25.593  27.992  1.00  0.00     0.010 A 
ATOM     45  C   UNL A   1      43.420  25.808  28.902  1.00  0.00    -0.014 A 
BRANCH  45  46
ATOM     46  C   UNL A   1      43.708  26.422  30.218  1.00  0.00     0.031 A 
ATOM     47  C   UNL A   1      44.273  25.653  31.370  1.00  0.00     0.074 A 
ATOM     48  C   UNL A   1      43.412  27.729  30.344  1.00  0.00     0.049 A 
ATOM     49  N   UNL A   1      44.648  26.101  32.540  1.00  0.00    -0.248 NA
ATOM     50  C   UNL A   1      44.425  24.202  31.200  1.00  0.00     0.031 C 
ATOM     51  C   UNL A   1      42.814  28.543  29.284  1.00  0.00     0.029 A 
ATOM     52  N   UNL A   1      43.564  28.598  31.391  1.00  0.00    -0.354 N 
ATOM     53  C   UNL A   1      45.105  24.995  33.245  1.00  0.00     0.074 A 
ATOM     54  C   UNL A   1      44.910  23.845  32.385  1.00  0.00     0.031 C 
ATOM     55  C   UNL A   1      42.670  29.797  29.726  1.00  0.00     0.029 A 
ATOM     56  C   UNL A   1      43.136  29.872  31.107  1.00  0.00     0.049 A 
ATOM     57  H   UNL A   1      43.943  28.335  32.261  1.00  0.00     0.167 HD
ATOM     58  C   UNL A   1      45.650  24.960  34.488  1.00  0.00     0.034 A 
ATOM     59  C   UNL A   1      43.125  30.984  31.867  1.00  0.00     0.034 A 
ATOM     60  C   UNL A   1      45.801  26.127  35.329  1.00  0.00     0.049 A 
ATOM     61  C   UNL A   1      43.723  30.917  33.244  1.00  0.00     0.074 A 
ATOM     62  C   UNL A   1      46.390  26.210  36.579  1.00  0.00     0.029 A 
ATOM     63  N   UNL A   1      45.350  27.405  35.021  1.00  0.00    -0.354 N 
ATOM     64  N   UNL A   1      44.267  29.889  33.854  1.00  0.00    -0.248 NA
ATOM     65  C   UNL A   1      43.730  32.156  34.030  1.00  0.00     0.031 C 
ATOM     66  C   UNL A   1      46.227  27.512  37.057  1.00  0.00     0.029 A 
ATOM     67  C   UNL A   1      45.611  28.271  36.074  1.00  0.00     0.049 A 
ATOM     68  H   UNL A   1      44.909  27.660  34.178  1.00  0.00     0.167 HD
ATOM     69  C   UNL A   1      44.691  30.359  35.092  1.00  0.00     0.074 A 
ATOM     70  C   UNL A   1      44.375  31.774  35.124  1.00  0.00     0.031 C 
ATOM     71  C   UNL A   1      45.280  29.679  36.108  1.00  0.00     0.034 A 
BRANCH  58  72
ATOM     72  C   UNL A   1      46.156  23.640  35.026  1.00  0.00     0.023 A 
ATOM     73  C   UNL A   1      47.460  23.199  34.725  1.00  0.00     0.031 A 
ATOM     74  C   UNL A   1      45.300  22.754  35.703  1.00  0.00     0.131 A 
ATOM     75  C   UNL A   1      47.855  21.899  35.070  1.00  0.00     0.055 A 
ATOM     76  C   UNL A   1      45.712  21.475  36.082  1.00  0.00     0.041 A 
ATOM     77  F   UNL A   1      44.042  23.117  36.007  1.00  0.00    -0.206 F 
ATOM     78  C   UNL A   1      46.991  21.038  35.753  1.00  0.00     0.022 A 
BRANCH  75  79
ATOM     79  S   UNL A   1      49.477  21.244  34.584  1.00  0.00     0.124 S 
ATOM     80  O   UNL A   1      49.139  20.460  33.399  1.00  0.00    -0.237 OA
ATOM     81  O   UNL A   1      50.234  22.466  34.328  1.00  0.00    -0.237 OA
ATOM     82  O   UNL A   1      49.903  20.468  35.743  1.00  0.00    -0.744 OA
ENDBRANCH  75  79
ENDBRANCH  58  72
BRANCH  59  83
ATOM     83  C   UNL A   1      42.610  32.249  31.270  1.00  0.00     0.023 A 
ATOM     84  C   UNL A   1      41.254  32.602  31.394  1.00  0.00     0.031 A 
ATOM     85  C   UNL A   1      43.425  33.027  30.432  1.00  0.00     0.131 A 
ATOM     86  C   UNL A   1      40.736  33.650  30.622  1.00  0.00     0.055 A 
ATOM     87  C   UNL A   1      42.920  34.120  29.727  1.00  0.00     0.041 A 
ATOM     88  F   UNL A   1      44.718  32.713  30.265  1.00  0.00    -0.206 F 
ATOM     89  C   UNL A   1      41.563  34.422  29.803  1.00  0.00     0.022 A 
BRANCH  86  90
ATOM     90  S   UNL A   1      38.945  33.937  30.529  1.00  0.00     0.124 S 
ATOM     91  O   UNL A   1      38.441  32.612  30.182  1.00  0.00    -0.237 OA
ATOM     92  O   UNL A   1      38.649  34.391  31.886  1.00  0.00    -0.237 OA
ATOM     93  O   UNL A   1      38.813  34.954  29.493  1.00  0.00    -0.744 OA
ENDBRANCH  86  90
ENDBRANCH  59  83
BRANCH  71  94
ATOM     94  C   UNL A   1      45.607  30.437  37.376  1.00  0.00     0.023 A 
ATOM     95  C   UNL A   1      44.636  30.586  38.385  1.00  0.00     0.031 A 
ATOM     96  C   UNL A   1      46.830  31.114  37.529  1.00  0.00     0.131 A 
ATOM     97  C   UNL A   1      44.890  31.422  39.480  1.00  0.00     0.055 A 
ATOM     98  C   UNL A   1      47.100  31.901  38.649  1.00  0.00     0.041 A 
ATOM     99  F   UNL A   1      47.785  31.014  36.592  1.00  0.00    -0.206 F 
ATOM    100  C   UNL A   1      46.121  32.069  39.624  1.00  0.00     0.022 A 
BRANCH  97 101
ATOM    101  S   UNL A   1      43.605  31.771  40.712  1.00  0.00     0.124 S 
ATOM    102  O   UNL A   1      43.813  30.696  41.679  1.00  0.00    -0.237 OA
ATOM    103  O   UNL A   1      43.977  33.106  41.174  1.00  0.00    -0.237 OA
ATOM    104  O   UNL A   1      42.360  31.695  39.955  1.00  0.00    -0.744 OA
ENDBRANCH  97 101
ENDBRANCH  71  94
ENDBRANCH  45  46
ENDBRANCH  38  40
ENDBRANCH  37  38
ENDBRANCH  36  37
ENDBRANCH  35  36
ENDBRANCH  34  35
ENDBRANCH  33  34
ENDBRANCH  32  33
ENDBRANCH   1  32
TORSDOF 26
ENDMDL
