MODEL 1
REMARK VINA RESULT:     -10.0      0.000      0.000
REMARK SMILES O=C(OCCOCCOCCOCCOC(=O)[C@@H](Cc1ccccc1)N1C(=O)/C(=C/c2ccncc2)SC1=S)c1ccc(-c2c3nc(c(-c4cc(S(=O)(=O)[O-])ccc4F)c4ccc([nH]4)c(-c4cc(S(=O)(=O)[O-])ccc4F)c4nc(c(-c5cc(S(=O)(=O)[O-])ccc5F)c5ccc2[nH]5)C=C4)C=C3)cc1
REMARK SMILES IDX 8 1 7 2 6 3 5 4 4 5 3 6 2 7 1 8 40 9 41 10 102 11 42 12
REMARK SMILES IDX 101 13 43 14 44 15 45 16 95 17 46 18 100 19 94 20 96 21
REMARK SMILES IDX 47 22 99 23 93 24 92 25 48 27 80 28 60 29 79 30 61 31 64 32
REMARK SMILES IDX 78 33 97 34 62 35 63 36 77 38 98 39 65 40 49 41 50 42 58 43
REMARK SMILES IDX 51 44 57 45 59 46 56 47 52 48 53 49 54 50 55 51 81 52 82 53
REMARK SMILES IDX 90 54 83 55 89 56 91 57 88 58 84 59 85 60 86 61 87 62 66 63
REMARK SMILES IDX 67 64 75 65 68 66 74 67 76 68 73 69 69 70 70 71 71 72 72 73
REMARK SMILES IDX 9 74 10 75 11 76 12 77 13 78 14 79 15 80 16 81 17 82 18 83
REMARK SMILES IDX 19 84 20 85 21 86 25 87 22 88 24 89 23 90 26 91 27 92 38 93
REMARK SMILES IDX 28 94 29 95 37 96 39 97 30 98 31 99 32 100 36 101 33 102
REMARK SMILES IDX 35 103 34 104
REMARK H PARENT 96 26 64 37
REMARK Flexibility Score: inf
ROOT
ATOM      1  C   UNL A   1      39.692  21.323  26.613  1.00  0.00     0.188 C 
ENDROOT
BRANCH   1   2
ATOM      2  C   UNL A   1      41.101  21.266  26.058  1.00  0.00     0.188 C 
BRANCH   2   3
ATOM      3  O   UNL A   1      41.941  20.812  27.105  1.00  0.00    -0.376 OA
BRANCH   3   4
ATOM      4  C   UNL A   1      42.272  19.433  27.085  1.00  0.00     0.202 C 
BRANCH   4   5
ATOM      5  C   UNL A   1      42.610  18.932  25.680  1.00  0.00     0.261 C 
BRANCH   5   6
ATOM      6  O   UNL A   1      43.976  19.201  25.308  1.00  0.00    -0.460 OA
BRANCH   6   7
ATOM      7  C   UNL A   1      44.443  20.211  24.525  1.00  0.00     0.338 C 
ATOM      8  O   UNL A   1      44.763  19.940  23.368  1.00  0.00    -0.246 OA
BRANCH   7   9
ATOM      9  C   UNL A   1      44.645  21.624  24.988  1.00  0.00     0.060 A 
ATOM     10  C   UNL A   1      44.328  22.760  24.248  1.00  0.00     0.016 A 
ATOM     11  C   UNL A   1      45.119  21.827  26.298  1.00  0.00     0.016 A 
ATOM     12  C   UNL A   1      44.465  24.038  24.749  1.00  0.00     0.010 A 
ATOM     13  C   UNL A   1      45.293  23.122  26.814  1.00  0.00     0.010 A 
ATOM     14  C   UNL A   1      44.979  24.231  26.022  1.00  0.00    -0.014 A 
BRANCH  14  15
ATOM     15  C   UNL A   1      45.406  25.609  26.318  1.00  0.00     0.031 A 
ATOM     16  C   UNL A   1      44.407  26.492  27.006  1.00  0.00     0.074 A 
ATOM     17  C   UNL A   1      46.709  25.934  26.240  1.00  0.00     0.049 A 
ATOM     18  N   UNL A   1      44.523  27.728  27.402  1.00  0.00    -0.248 NA
ATOM     19  C   UNL A   1      43.103  25.878  27.321  1.00  0.00     0.031 C 
ATOM     20  C   UNL A   1      47.775  25.030  25.791  1.00  0.00     0.029 A 
ATOM     21  N   UNL A   1      47.371  27.078  26.593  1.00  0.00    -0.354 N 
ATOM     22  C   UNL A   1      43.306  28.044  27.997  1.00  0.00     0.074 A 
ATOM     23  C   UNL A   1      42.460  26.878  27.896  1.00  0.00     0.031 C 
ATOM     24  C   UNL A   1      48.958  25.656  25.909  1.00  0.00     0.029 A 
ATOM     25  C   UNL A   1      48.727  27.022  26.361  1.00  0.00     0.049 A 
ATOM     26  H   UNL A   1      46.921  27.866  26.975  1.00  0.00     0.167 HD
ATOM     27  C   UNL A   1      42.937  29.213  28.571  1.00  0.00     0.034 A 
ATOM     28  C   UNL A   1      49.656  27.994  26.461  1.00  0.00     0.034 A 
ATOM     29  C   UNL A   1      43.815  30.353  28.619  1.00  0.00     0.049 A 
ATOM     30  C   UNL A   1      49.179  29.344  26.944  1.00  0.00     0.074 A 
ATOM     31  C   UNL A   1      43.542  31.650  29.005  1.00  0.00     0.029 A 
ATOM     32  N   UNL A   1      45.158  30.314  28.256  1.00  0.00    -0.354 N 
ATOM     33  N   UNL A   1      47.980  29.696  27.361  1.00  0.00    -0.248 NA
ATOM     34  C   UNL A   1      50.164  30.429  26.962  1.00  0.00     0.031 C 
ATOM     35  C   UNL A   1      44.707  32.407  28.823  1.00  0.00     0.029 A 
ATOM     36  C   UNL A   1      45.726  31.567  28.395  1.00  0.00     0.049 A 
ATOM     37  H   UNL A   1      45.635  29.511  27.945  1.00  0.00     0.167 HD
ATOM     38  C   UNL A   1      48.073  31.039  27.703  1.00  0.00     0.074 A 
ATOM     39  C   UNL A   1      49.455  31.421  27.478  1.00  0.00     0.031 C 
ATOM     40  C   UNL A   1      47.113  31.891  28.151  1.00  0.00     0.034 A 
BRANCH  27  41
ATOM     41  C   UNL A   1      41.512  29.308  29.054  1.00  0.00     0.023 A 
ATOM     42  C   UNL A   1      41.184  29.244  30.422  1.00  0.00     0.031 A 
ATOM     43  C   UNL A   1      40.456  29.328  28.125  1.00  0.00     0.131 A 
ATOM     44  C   UNL A   1      39.842  29.112  30.813  1.00  0.00     0.055 A 
ATOM     45  C   UNL A   1      39.120  29.279  28.527  1.00  0.00     0.041 A 
ATOM     46  F   UNL A   1      40.708  29.348  26.806  1.00  0.00    -0.206 F 
ATOM     47  C   UNL A   1      38.807  29.153  29.877  1.00  0.00     0.022 A 
BRANCH  44  48
ATOM     48  S   UNL A   1      39.475  28.718  32.548  1.00  0.00     0.124 S 
ATOM     49  O   UNL A   1      38.563  27.584  32.404  1.00  0.00    -0.237 OA
ATOM     50  O   UNL A   1      40.792  28.412  33.090  1.00  0.00    -0.237 OA
ATOM     51  O   UNL A   1      38.859  29.942  33.055  1.00  0.00    -0.744 OA
ENDBRANCH  44  48
ENDBRANCH  27  41
BRANCH  28  52
ATOM     52  C   UNL A   1      51.063  27.776  25.999  1.00  0.00     0.023 A 
ATOM     53  C   UNL A   1      51.446  27.970  24.662  1.00  0.00     0.031 A 
ATOM     54  C   UNL A   1      52.038  27.279  26.888  1.00  0.00     0.131 A 
ATOM     55  C   UNL A   1      52.742  27.620  24.243  1.00  0.00     0.055 A 
ATOM     56  C   UNL A   1      53.344  26.997  26.482  1.00  0.00     0.041 A 
ATOM     57  F   UNL A   1      51.736  27.053  28.177  1.00  0.00    -0.206 F 
ATOM     58  C   UNL A   1      53.697  27.149  25.147  1.00  0.00     0.022 A 
BRANCH  55  59
ATOM     59  S   UNL A   1      53.131  27.666  22.471  1.00  0.00     0.124 S 
ATOM     60  O   UNL A   1      51.802  27.610  21.873  1.00  0.00    -0.237 OA
ATOM     61  O   UNL A   1      53.837  28.936  22.350  1.00  0.00    -0.237 OA
ATOM     62  O   UNL A   1      53.955  26.475  22.272  1.00  0.00    -0.744 OA
ENDBRANCH  55  59
ENDBRANCH  28  52
BRANCH  40  63
ATOM     63  C   UNL A   1      47.559  33.297  28.452  1.00  0.00     0.023 A 
ATOM     64  C   UNL A   1      47.354  34.342  27.536  1.00  0.00     0.031 A 
ATOM     65  C   UNL A   1      48.210  33.586  29.663  1.00  0.00     0.131 A 
ATOM     66  C   UNL A   1      47.858  35.618  27.817  1.00  0.00     0.055 A 
ATOM     67  C   UNL A   1      48.647  34.873  29.967  1.00  0.00     0.041 A 
ATOM     68  F   UNL A   1      48.428  32.620  30.570  1.00  0.00    -0.206 F 
ATOM     69  C   UNL A   1      48.487  35.894  29.034  1.00  0.00     0.022 A 
BRANCH  66  70
ATOM     70  S   UNL A   1      47.778  36.882  26.521  1.00  0.00     0.124 S 
ATOM     71  O   UNL A   1      48.944  36.555  25.706  1.00  0.00    -0.237 OA
ATOM     72  O   UNL A   1      46.479  36.618  25.909  1.00  0.00    -0.237 OA
ATOM     73  O   UNL A   1      47.870  38.138  27.263  1.00  0.00    -0.744 OA
ENDBRANCH  66  70
ENDBRANCH  40  63
ENDBRANCH  14  15
ENDBRANCH   7   9
ENDBRANCH   6   7
ENDBRANCH   5   6
ENDBRANCH   4   5
ENDBRANCH   3   4
ENDBRANCH   2   3
ENDBRANCH   1   2
BRANCH   1  74
ATOM     74  O   UNL A   1      38.702  21.396  25.583  1.00  0.00    -0.377 OA
BRANCH  74  75
ATOM     75  C   UNL A   1      37.527  22.173  25.795  1.00  0.00     0.188 C 
BRANCH  75  76
ATOM     76  C   UNL A   1      37.192  23.274  24.779  1.00  0.00     0.188 C 
BRANCH  76  77
ATOM     77  O   UNL A   1      35.812  23.430  24.550  1.00  0.00    -0.376 OA
BRANCH  77  78
ATOM     78  C   UNL A   1      35.250  22.909  23.352  1.00  0.00     0.202 C 
BRANCH  78  79
ATOM     79  C   UNL A   1      34.076  23.568  22.594  1.00  0.00     0.261 C 
BRANCH  79  80
ATOM     80  O   UNL A   1      33.641  24.872  23.028  1.00  0.00    -0.462 OA
BRANCH  80  81
ATOM     81  C   UNL A   1      32.311  25.100  22.931  1.00  0.00     0.329 C 
ATOM     82  O   UNL A   1      31.728  25.222  21.849  1.00  0.00    -0.250 OA
BRANCH  81  83
ATOM     83  C   UNL A   1      31.516  25.339  24.230  1.00  0.00     0.206 C 
BRANCH  83  84
ATOM     84  C   UNL A   1      31.703  24.790  25.675  1.00  0.00     0.073 C 
BRANCH  84  85
ATOM     85  C   UNL A   1      32.316  23.456  26.045  1.00  0.00    -0.045 A 
ATOM     86  C   UNL A   1      33.086  23.239  27.185  1.00  0.00     0.004 A 
ATOM     87  C   UNL A   1      32.015  22.328  25.268  1.00  0.00     0.004 A 
ATOM     88  C   UNL A   1      33.728  22.016  27.405  1.00  0.00     0.000 A 
ATOM     89  C   UNL A   1      32.646  21.098  25.475  1.00  0.00     0.000 A 
ATOM     90  C   UNL A   1      33.542  20.957  26.525  1.00  0.00     0.000 A 
ENDBRANCH  84  85
ENDBRANCH  83  84
BRANCH  83  91
ATOM     91  N   UNL A   1      31.171  26.763  24.193  1.00  0.00    -0.278 N 
ATOM     92  C   UNL A   1      29.872  27.083  23.875  1.00  0.00     0.267 C 
ATOM     93  C   UNL A   1      31.985  27.816  24.548  1.00  0.00     0.149 C 
ATOM     94  O   UNL A   1      28.912  26.334  23.832  1.00  0.00    -0.268 OA
ATOM     95  C   UNL A   1      29.787  28.520  23.586  1.00  0.00     0.081 C 
ATOM     96  S   UNL A   1      31.118  29.332  24.285  1.00  0.00    -0.054 SA
ATOM     97  S   UNL A   1      33.565  27.788  25.077  1.00  0.00    -0.052 S 
ATOM     98  C   UNL A   1      28.793  28.954  22.806  1.00  0.00     0.029 C 
BRANCH  98  99
ATOM     99  C   UNL A   1      28.513  30.336  22.447  1.00  0.00    -0.021 A 
ATOM    100  C   UNL A   1      28.331  30.767  21.136  1.00  0.00     0.028 A 
ATOM    101  C   UNL A   1      28.432  31.255  23.490  1.00  0.00     0.028 A 
ATOM    102  C   UNL A   1      28.145  32.120  20.922  1.00  0.00     0.111 A 
ATOM    103  C   UNL A   1      28.234  32.583  23.174  1.00  0.00     0.111 A 
ATOM    104  N   UNL A   1      28.093  33.039  21.910  1.00  0.00    -0.265 NA
ENDBRANCH  98  99
ENDBRANCH  83  91
ENDBRANCH  81  83
ENDBRANCH  80  81
ENDBRANCH  79  80
ENDBRANCH  78  79
ENDBRANCH  77  78
ENDBRANCH  76  77
ENDBRANCH  75  76
ENDBRANCH  74  75
ENDBRANCH   1  74
TORSDOF 27
ENDMDL
MODEL 2
REMARK VINA RESULT:      -9.5      1.683      3.370
REMARK SMILES O=C(OCCOCCOCCOCCOC(=O)[C@@H](Cc1ccccc1)N1C(=O)/C(=C/c2ccncc2)SC1=S)c1ccc(-c2c3nc(c(-c4cc(S(=O)(=O)[O-])ccc4F)c4ccc([nH]4)c(-c4cc(S(=O)(=O)[O-])ccc4F)c4nc(c(-c5cc(S(=O)(=O)[O-])ccc5F)c5ccc2[nH]5)C=C4)C=C3)cc1
REMARK SMILES IDX 8 1 7 2 6 3 5 4 4 5 3 6 2 7 1 8 40 9 41 10 102 11 42 12
REMARK SMILES IDX 101 13 43 14 44 15 45 16 95 17 46 18 100 19 94 20 96 21
REMARK SMILES IDX 47 22 99 23 93 24 92 25 48 27 80 28 60 29 79 30 61 31 64 32
REMARK SMILES IDX 78 33 97 34 62 35 63 36 77 38 98 39 65 40 49 41 50 42 58 43
REMARK SMILES IDX 51 44 57 45 59 46 56 47 52 48 53 49 54 50 55 51 81 52 82 53
REMARK SMILES IDX 90 54 83 55 89 56 91 57 88 58 84 59 85 60 86 61 87 62 66 63
REMARK SMILES IDX 67 64 75 65 68 66 74 67 76 68 73 69 69 70 70 71 71 72 72 73
REMARK SMILES IDX 9 74 10 75 11 76 12 77 13 78 14 79 15 80 16 81 17 82 18 83
REMARK SMILES IDX 19 84 20 85 21 86 25 87 22 88 24 89 23 90 26 91 27 92 38 93
REMARK SMILES IDX 28 94 29 95 37 96 39 97 30 98 31 99 32 100 36 101 33 102
REMARK SMILES IDX 35 103 34 104
REMARK H PARENT 96 26 64 37
REMARK Flexibility Score: inf
ROOT
ATOM      1  C   UNL A   1      38.628  22.057  26.108  1.00  0.00     0.188 C 
ENDROOT
BRANCH   1   2
ATOM      2  C   UNL A   1      40.142  22.001  26.067  1.00  0.00     0.188 C 
BRANCH   2   3
ATOM      3  O   UNL A   1      40.532  20.835  26.772  1.00  0.00    -0.376 OA
BRANCH   3   4
ATOM      4  C   UNL A   1      40.517  19.626  26.031  1.00  0.00     0.202 C 
BRANCH   4   5
ATOM      5  C   UNL A   1      41.876  18.925  26.023  1.00  0.00     0.261 C 
BRANCH   5   6
ATOM      6  O   UNL A   1      42.968  19.826  26.292  1.00  0.00    -0.460 OA
BRANCH   6   7
ATOM      7  C   UNL A   1      43.811  20.405  25.395  1.00  0.00     0.338 C 
ATOM      8  O   UNL A   1      44.167  19.735  24.425  1.00  0.00    -0.246 OA
BRANCH   7   9
ATOM      9  C   UNL A   1      44.381  21.787  25.530  1.00  0.00     0.060 A 
ATOM     10  C   UNL A   1      45.235  22.203  26.547  1.00  0.00     0.016 A 
ATOM     11  C   UNL A   1      44.095  22.719  24.515  1.00  0.00     0.016 A 
ATOM     12  C   UNL A   1      45.790  23.466  26.585  1.00  0.00     0.010 A 
ATOM     13  C   UNL A   1      44.627  24.018  24.552  1.00  0.00     0.010 A 
ATOM     14  C   UNL A   1      45.465  24.393  25.607  1.00  0.00    -0.014 A 
BRANCH  14  15
ATOM     15  C   UNL A   1      45.823  25.785  25.928  1.00  0.00     0.031 A 
ATOM     16  C   UNL A   1      44.762  26.622  26.579  1.00  0.00     0.074 A 
ATOM     17  C   UNL A   1      47.114  26.163  25.906  1.00  0.00     0.049 A 
ATOM     18  N   UNL A   1      44.810  27.859  26.987  1.00  0.00    -0.248 NA
ATOM     19  C   UNL A   1      43.472  25.954  26.837  1.00  0.00     0.031 C 
ATOM     20  C   UNL A   1      48.234  25.307  25.496  1.00  0.00     0.029 A 
ATOM     21  N   UNL A   1      47.714  27.331  26.293  1.00  0.00    -0.354 N 
ATOM     22  C   UNL A   1      43.558  28.121  27.533  1.00  0.00     0.074 A 
ATOM     23  C   UNL A   1      42.765  26.922  27.390  1.00  0.00     0.031 C 
ATOM     24  C   UNL A   1      49.384  25.980  25.667  1.00  0.00     0.029 A 
ATOM     25  C   UNL A   1      49.079  27.332  26.117  1.00  0.00     0.049 A 
ATOM     26  H   UNL A   1      47.217  28.097  26.660  1.00  0.00     0.167 HD
ATOM     27  C   UNL A   1      43.119  29.269  28.098  1.00  0.00     0.034 A 
ATOM     28  C   UNL A   1      49.963  28.340  26.261  1.00  0.00     0.034 A 
ATOM     29  C   UNL A   1      43.946  30.443  28.188  1.00  0.00     0.049 A 
ATOM     30  C   UNL A   1      49.412  29.666  26.731  1.00  0.00     0.074 A 
ATOM     31  C   UNL A   1      43.605  31.726  28.571  1.00  0.00     0.029 A 
ATOM     32  N   UNL A   1      45.304  30.462  27.881  1.00  0.00    -0.354 N 
ATOM     33  N   UNL A   1      48.183  29.965  27.100  1.00  0.00    -0.248 NA
ATOM     34  C   UNL A   1      50.349  30.790  26.796  1.00  0.00     0.031 C 
ATOM     35  C   UNL A   1      44.744  32.531  28.442  1.00  0.00     0.029 A 
ATOM     36  C   UNL A   1      45.814  31.736  28.051  1.00  0.00     0.049 A 
ATOM     37  H   UNL A   1      45.826  29.682  27.586  1.00  0.00     0.167 HD
ATOM     38  C   UNL A   1      48.207  31.309  27.454  1.00  0.00     0.074 A 
ATOM     39  C   UNL A   1      49.580  31.748  27.288  1.00  0.00     0.031 C 
ATOM     40  C   UNL A   1      47.195  32.118  27.866  1.00  0.00     0.034 A 
BRANCH  27  41
ATOM     41  C   UNL A   1      41.672  29.303  28.522  1.00  0.00     0.023 A 
ATOM     42  C   UNL A   1      41.292  29.225  29.876  1.00  0.00     0.031 A 
ATOM     43  C   UNL A   1      40.655  29.276  27.551  1.00  0.00     0.131 A 
ATOM     44  C   UNL A   1      39.942  29.035  30.213  1.00  0.00     0.055 A 
ATOM     45  C   UNL A   1      39.307  29.170  27.898  1.00  0.00     0.041 A 
ATOM     46  F   UNL A   1      40.960  29.308  26.244  1.00  0.00    -0.206 F 
ATOM     47  C   UNL A   1      38.945  29.031  29.234  1.00  0.00     0.022 A 
BRANCH  44  48
ATOM     48  S   UNL A   1      39.521  28.626  31.931  1.00  0.00     0.124 S 
ATOM     49  O   UNL A   1      38.966  29.892  32.407  1.00  0.00    -0.237 OA
ATOM     50  O   UNL A   1      38.571  27.532  31.774  1.00  0.00    -0.237 OA
ATOM     51  O   UNL A   1      40.806  28.258  32.521  1.00  0.00    -0.744 OA
ENDBRANCH  44  48
ENDBRANCH  27  41
BRANCH  28  52
ATOM     52  C   UNL A   1      51.395  28.182  25.856  1.00  0.00     0.023 A 
ATOM     53  C   UNL A   1      51.787  28.138  24.508  1.00  0.00     0.031 A 
ATOM     54  C   UNL A   1      52.395  27.985  26.830  1.00  0.00     0.131 A 
ATOM     55  C   UNL A   1      53.122  27.849  24.173  1.00  0.00     0.055 A 
ATOM     56  C   UNL A   1      53.733  27.767  26.493  1.00  0.00     0.041 A 
ATOM     57  F   UNL A   1      52.088  27.998  28.137  1.00  0.00    -0.206 F 
ATOM     58  C   UNL A   1      54.099  27.678  25.156  1.00  0.00     0.022 A 
BRANCH  55  59
ATOM     59  S   UNL A   1      53.546  27.572  22.430  1.00  0.00     0.124 S 
ATOM     60  O   UNL A   1      54.932  28.020  22.385  1.00  0.00    -0.237 OA
ATOM     61  O   UNL A   1      53.330  26.135  22.293  1.00  0.00    -0.237 OA
ATOM     62  O   UNL A   1      52.593  28.415  21.709  1.00  0.00    -0.744 OA
ENDBRANCH  55  59
ENDBRANCH  28  52
BRANCH  40  63
ATOM     63  C   UNL A   1      47.570  33.538  28.194  1.00  0.00     0.023 A 
ATOM     64  C   UNL A   1      47.582  34.538  27.208  1.00  0.00     0.031 A 
ATOM     65  C   UNL A   1      47.935  33.887  29.504  1.00  0.00     0.131 A 
ATOM     66  C   UNL A   1      48.018  35.828  27.534  1.00  0.00     0.055 A 
ATOM     67  C   UNL A   1      48.301  35.189  29.838  1.00  0.00     0.041 A 
ATOM     68  F   UNL A   1      47.940  32.965  30.481  1.00  0.00    -0.206 F 
ATOM     69  C   UNL A   1      48.360  36.165  28.847  1.00  0.00     0.022 A 
BRANCH  66  70
ATOM     70  S   UNL A   1      48.237  37.030  26.195  1.00  0.00     0.124 S 
ATOM     71  O   UNL A   1      48.917  36.233  25.180  1.00  0.00    -0.237 OA
ATOM     72  O   UNL A   1      46.860  37.410  25.890  1.00  0.00    -0.237 OA
ATOM     73  O   UNL A   1      49.048  38.081  26.808  1.00  0.00    -0.744 OA
ENDBRANCH  66  70
ENDBRANCH  40  63
ENDBRANCH  14  15
ENDBRANCH   7   9
ENDBRANCH   6   7
ENDBRANCH   5   6
ENDBRANCH   4   5
ENDBRANCH   3   4
ENDBRANCH   2   3
ENDBRANCH   1   2
BRANCH   1  74
ATOM     74  O   UNL A   1      38.032  21.628  24.881  1.00  0.00    -0.377 OA
BRANCH  74  75
ATOM     75  C   UNL A   1      36.651  21.889  24.644  1.00  0.00     0.188 C 
BRANCH  75  76
ATOM     76  C   UNL A   1      35.644  20.760  24.905  1.00  0.00     0.188 C 
BRANCH  76  77
ATOM     77  O   UNL A   1      34.481  21.185  25.573  1.00  0.00    -0.376 OA
BRANCH  77  78
ATOM     78  C   UNL A   1      33.255  21.242  24.854  1.00  0.00     0.202 C 
BRANCH  78  79
ATOM     79  C   UNL A   1      32.907  22.347  23.833  1.00  0.00     0.261 C 
BRANCH  79  80
ATOM     80  O   UNL A   1      32.693  23.682  24.330  1.00  0.00    -0.462 OA
BRANCH  80  81
ATOM     81  C   UNL A   1      31.407  23.995  24.612  1.00  0.00     0.329 C 
ATOM     82  O   UNL A   1      30.609  23.186  25.093  1.00  0.00    -0.250 OA
BRANCH  81  83
ATOM     83  C   UNL A   1      30.890  25.389  24.202  1.00  0.00     0.206 C 
BRANCH  83  84
ATOM     84  C   UNL A   1      29.477  26.036  24.290  1.00  0.00     0.073 C 
BRANCH  84  85
ATOM     85  C   UNL A   1      29.042  27.315  23.607  1.00  0.00    -0.045 A 
ATOM     86  C   UNL A   1      27.732  27.790  23.600  1.00  0.00     0.004 A 
ATOM     87  C   UNL A   1      30.013  28.147  23.033  1.00  0.00     0.004 A 
ATOM     88  C   UNL A   1      27.372  28.912  22.845  1.00  0.00     0.000 A 
ATOM     89  C   UNL A   1      29.671  29.272  22.278  1.00  0.00     0.000 A 
ATOM     90  C   UNL A   1      28.337  29.629  22.147  1.00  0.00     0.000 A 
ENDBRANCH  84  85
ENDBRANCH  83  84
BRANCH  83  91
ATOM     91  N   UNL A   1      31.971  26.306  24.573  1.00  0.00    -0.278 N 
ATOM     92  C   UNL A   1      32.051  26.675  25.895  1.00  0.00     0.267 C 
ATOM     93  C   UNL A   1      32.984  26.757  23.755  1.00  0.00     0.149 C 
ATOM     94  O   UNL A   1      31.475  26.170  26.843  1.00  0.00    -0.268 OA
ATOM     95  C   UNL A   1      32.974  27.810  26.023  1.00  0.00     0.081 C 
ATOM     96  S   UNL A   1      34.007  27.874  24.663  1.00  0.00    -0.054 SA
ATOM     97  S   UNL A   1      33.255  26.430  22.143  1.00  0.00    -0.052 S 
ATOM     98  C   UNL A   1      32.838  28.624  27.073  1.00  0.00     0.029 C 
BRANCH  98  99
ATOM     99  C   UNL A   1      33.680  29.765  27.399  1.00  0.00    -0.021 A 
ATOM    100  C   UNL A   1      33.211  31.075  27.454  1.00  0.00     0.028 A 
ATOM    101  C   UNL A   1      35.022  29.505  27.663  1.00  0.00     0.028 A 
ATOM    102  C   UNL A   1      34.128  32.079  27.702  1.00  0.00     0.111 A 
ATOM    103  C   UNL A   1      35.856  30.575  27.910  1.00  0.00     0.111 A 
ATOM    104  N   UNL A   1      35.441  31.860  27.931  1.00  0.00    -0.265 NA
ENDBRANCH  98  99
ENDBRANCH  83  91
ENDBRANCH  81  83
ENDBRANCH  80  81
ENDBRANCH  79  80
ENDBRANCH  78  79
ENDBRANCH  77  78
ENDBRANCH  76  77
ENDBRANCH  75  76
ENDBRANCH  74  75
ENDBRANCH   1  74
TORSDOF 27
ENDMDL
MODEL 3
REMARK VINA RESULT:      -9.4      3.726      9.309
REMARK SMILES O=C(OCCOCCOCCOCCOC(=O)[C@@H](Cc1ccccc1)N1C(=O)/C(=C/c2ccncc2)SC1=S)c1ccc(-c2c3nc(c(-c4cc(S(=O)(=O)[O-])ccc4F)c4ccc([nH]4)c(-c4cc(S(=O)(=O)[O-])ccc4F)c4nc(c(-c5cc(S(=O)(=O)[O-])ccc5F)c5ccc2[nH]5)C=C4)C=C3)cc1
REMARK SMILES IDX 8 1 7 2 6 3 5 4 4 5 3 6 2 7 1 8 40 9 41 10 102 11 42 12
REMARK SMILES IDX 101 13 43 14 44 15 45 16 95 17 46 18 100 19 94 20 96 21
REMARK SMILES IDX 47 22 99 23 93 24 92 25 48 27 80 28 60 29 79 30 61 31 64 32
REMARK SMILES IDX 78 33 97 34 62 35 63 36 77 38 98 39 65 40 49 41 50 42 58 43
REMARK SMILES IDX 51 44 57 45 59 46 56 47 52 48 53 49 54 50 55 51 81 52 82 53
REMARK SMILES IDX 90 54 83 55 89 56 91 57 88 58 84 59 85 60 86 61 87 62 66 63
REMARK SMILES IDX 67 64 75 65 68 66 74 67 76 68 73 69 69 70 70 71 71 72 72 73
REMARK SMILES IDX 9 74 10 75 11 76 12 77 13 78 14 79 15 80 16 81 17 82 18 83
REMARK SMILES IDX 19 84 20 85 21 86 25 87 22 88 24 89 23 90 26 91 27 92 38 93
REMARK SMILES IDX 28 94 29 95 37 96 39 97 30 98 31 99 32 100 36 101 33 102
REMARK SMILES IDX 35 103 34 104
REMARK H PARENT 96 26 64 37
REMARK Flexibility Score: inf
ROOT
ATOM      1  C   UNL A   1      40.495  20.982  26.873  1.00  0.00     0.188 C 
ENDROOT
BRANCH   1   2
ATOM      2  C   UNL A   1      41.118  19.823  26.120  1.00  0.00     0.188 C 
BRANCH   2   3
ATOM      3  O   UNL A   1      42.498  19.816  26.439  1.00  0.00    -0.376 OA
BRANCH   3   4
ATOM      4  C   UNL A   1      43.388  19.624  25.351  1.00  0.00     0.202 C 
BRANCH   4   5
ATOM      5  C   UNL A   1      44.373  20.781  25.187  1.00  0.00     0.261 C 
BRANCH   5   6
ATOM      6  O   UNL A   1      43.861  22.026  25.702  1.00  0.00    -0.460 OA
BRANCH   6   7
ATOM      7  C   UNL A   1      44.286  23.285  25.415  1.00  0.00     0.338 C 
ATOM      8  O   UNL A   1      44.999  23.439  24.424  1.00  0.00    -0.246 OA
BRANCH   7   9
ATOM      9  C   UNL A   1      43.988  24.497  26.250  1.00  0.00     0.060 A 
ATOM     10  C   UNL A   1      43.690  25.760  25.747  1.00  0.00     0.016 A 
ATOM     11  C   UNL A   1      43.931  24.335  27.647  1.00  0.00     0.016 A 
ATOM     12  C   UNL A   1      43.352  26.824  26.558  1.00  0.00     0.010 A 
ATOM     13  C   UNL A   1      43.617  25.414  28.490  1.00  0.00     0.010 A 
ATOM     14  C   UNL A   1      43.345  26.669  27.935  1.00  0.00    -0.014 A 
BRANCH  14  15
ATOM     15  C   UNL A   1      43.318  27.927  28.702  1.00  0.00     0.031 A 
ATOM     16  C   UNL A   1      44.627  28.635  28.885  1.00  0.00     0.074 A 
ATOM     17  C   UNL A   1      42.141  28.531  28.948  1.00  0.00     0.049 A 
ATOM     18  N   UNL A   1      44.888  29.759  29.489  1.00  0.00    -0.248 NA
ATOM     19  C   UNL A   1      45.805  27.996  28.266  1.00  0.00     0.031 C 
ATOM     20  C   UNL A   1      40.826  27.991  28.582  1.00  0.00     0.029 A 
ATOM     21  N   UNL A   1      41.857  29.751  29.499  1.00  0.00    -0.354 N 
ATOM     22  C   UNL A   1      46.257  29.955  29.338  1.00  0.00     0.074 A 
ATOM     23  C   UNL A   1      46.776  28.826  28.600  1.00  0.00     0.031 C 
ATOM     24  C   UNL A   1      39.879  28.886  28.910  1.00  0.00     0.029 A 
ATOM     25  C   UNL A   1      40.509  30.017  29.580  1.00  0.00     0.049 A 
ATOM     26  H   UNL A   1      42.550  30.377  29.811  1.00  0.00     0.167 HD
ATOM     27  C   UNL A   1      47.006  30.989  29.785  1.00  0.00     0.034 A 
ATOM     28  C   UNL A   1      39.870  31.043  30.176  1.00  0.00     0.034 A 
ATOM     29  C   UNL A   1      46.439  32.075  30.540  1.00  0.00     0.049 A 
ATOM     30  C   UNL A   1      40.736  32.101  30.821  1.00  0.00     0.074 A 
ATOM     31  C   UNL A   1      47.075  33.103  31.207  1.00  0.00     0.029 A 
ATOM     32  N   UNL A   1      45.071  32.262  30.724  1.00  0.00    -0.354 N 
ATOM     33  N   UNL A   1      42.049  32.208  30.818  1.00  0.00    -0.248 NA
ATOM     34  C   UNL A   1      40.048  33.167  31.553  1.00  0.00     0.031 C 
ATOM     35  C   UNL A   1      46.095  33.878  31.839  1.00  0.00     0.029 A 
ATOM     36  C   UNL A   1      44.843  33.379  31.505  1.00  0.00     0.049 A 
ATOM     37  H   UNL A   1      44.368  31.682  30.351  1.00  0.00     0.167 HD
ATOM     38  C   UNL A   1      42.340  33.360  31.538  1.00  0.00     0.074 A 
ATOM     39  C   UNL A   1      41.063  33.931  31.925  1.00  0.00     0.031 C 
ATOM     40  C   UNL A   1      43.544  33.900  31.865  1.00  0.00     0.034 A 
BRANCH  27  41
ATOM     41  C   UNL A   1      48.494  30.893  29.560  1.00  0.00     0.023 A 
ATOM     42  C   UNL A   1      49.080  31.201  28.317  1.00  0.00     0.031 A 
ATOM     43  C   UNL A   1      49.321  30.355  30.562  1.00  0.00     0.131 A 
ATOM     44  C   UNL A   1      50.429  30.887  28.084  1.00  0.00     0.055 A 
ATOM     45  C   UNL A   1      50.682  30.122  30.348  1.00  0.00     0.041 A 
ATOM     46  F   UNL A   1      48.811  30.005  31.753  1.00  0.00    -0.206 F 
ATOM     47  C   UNL A   1      51.239  30.372  29.098  1.00  0.00     0.022 A 
BRANCH  44  48
ATOM     48  S   UNL A   1      51.070  31.004  26.388  1.00  0.00     0.124 S 
ATOM     49  O   UNL A   1      52.511  31.067  26.624  1.00  0.00    -0.237 OA
ATOM     50  O   UNL A   1      50.577  29.777  25.777  1.00  0.00    -0.237 OA
ATOM     51  O   UNL A   1      50.475  32.238  25.881  1.00  0.00    -0.744 OA
ENDBRANCH  44  48
ENDBRANCH  27  41
BRANCH  28  52
ATOM     52  C   UNL A   1      38.379  31.066  30.299  1.00  0.00     0.023 A 
ATOM     53  C   UNL A   1      37.569  31.786  29.406  1.00  0.00     0.031 A 
ATOM     54  C   UNL A   1      37.741  30.425  31.382  1.00  0.00     0.131 A 
ATOM     55  C   UNL A   1      36.186  31.893  29.640  1.00  0.00     0.055 A 
ATOM     56  C   UNL A   1      36.358  30.478  31.571  1.00  0.00     0.041 A 
ATOM     57  F   UNL A   1      38.456  29.733  32.284  1.00  0.00    -0.206 F 
ATOM     58  C   UNL A   1      35.574  31.232  30.708  1.00  0.00     0.022 A 
BRANCH  55  59
ATOM     59  S   UNL A   1      35.208  33.016  28.603  1.00  0.00     0.124 S 
ATOM     60  O   UNL A   1      36.176  33.397  27.581  1.00  0.00    -0.237 OA
ATOM     61  O   UNL A   1      34.119  32.151  28.164  1.00  0.00    -0.237 OA
ATOM     62  O   UNL A   1      34.822  34.083  29.525  1.00  0.00    -0.744 OA
ENDBRANCH  55  59
ENDBRANCH  28  52
BRANCH  40  63
ATOM     63  C   UNL A   1      43.506  35.186  32.646  1.00  0.00     0.023 A 
ATOM     64  C   UNL A   1      43.597  36.433  32.007  1.00  0.00     0.031 A 
ATOM     65  C   UNL A   1      43.394  35.158  34.046  1.00  0.00     0.131 A 
ATOM     66  C   UNL A   1      43.643  37.604  32.775  1.00  0.00     0.055 A 
ATOM     67  C   UNL A   1      43.370  36.329  34.800  1.00  0.00     0.041 A 
ATOM     68  F   UNL A   1      43.304  33.990  34.701  1.00  0.00    -0.206 F 
ATOM     69  C   UNL A   1      43.512  37.561  34.166  1.00  0.00     0.022 A 
BRANCH  66  70
ATOM     70  S   UNL A   1      43.989  39.173  31.937  1.00  0.00     0.124 S 
ATOM     71  O   UNL A   1      43.781  38.821  30.536  1.00  0.00    -0.237 OA
ATOM     72  O   UNL A   1      42.994  40.065  32.525  1.00  0.00    -0.237 OA
ATOM     73  O   UNL A   1      45.374  39.460  32.307  1.00  0.00    -0.744 OA
ENDBRANCH  66  70
ENDBRANCH  40  63
ENDBRANCH  14  15
ENDBRANCH   7   9
ENDBRANCH   6   7
ENDBRANCH   5   6
ENDBRANCH   4   5
ENDBRANCH   3   4
ENDBRANCH   2   3
ENDBRANCH   1   2
BRANCH   1  74
ATOM     74  O   UNL A   1      40.568  22.209  26.141  1.00  0.00    -0.377 OA
BRANCH  74  75
ATOM     75  C   UNL A   1      40.487  23.448  26.842  1.00  0.00     0.188 C 
BRANCH  75  76
ATOM     76  C   UNL A   1      39.096  24.026  27.135  1.00  0.00     0.188 C 
BRANCH  76  77
ATOM     77  O   UNL A   1      38.266  24.103  26.001  1.00  0.00    -0.376 OA
BRANCH  77  78
ATOM     78  C   UNL A   1      36.927  23.633  26.094  1.00  0.00     0.202 C 
BRANCH  78  79
ATOM     79  C   UNL A   1      35.755  24.205  25.266  1.00  0.00     0.261 C 
BRANCH  79  80
ATOM     80  O   UNL A   1      34.691  24.871  25.975  1.00  0.00    -0.462 OA
BRANCH  80  81
ATOM     81  C   UNL A   1      33.749  25.448  25.195  1.00  0.00     0.329 C 
ATOM     82  O   UNL A   1      33.981  26.418  24.467  1.00  0.00    -0.250 OA
BRANCH  81  83
ATOM     83  C   UNL A   1      32.295  24.947  25.316  1.00  0.00     0.206 C 
BRANCH  83  84
ATOM     84  C   UNL A   1      30.931  25.683  25.171  1.00  0.00     0.073 C 
BRANCH  84  85
ATOM     85  C   UNL A   1      30.725  27.064  24.587  1.00  0.00    -0.045 A 
ATOM     86  C   UNL A   1      31.308  28.222  25.096  1.00  0.00     0.004 A 
ATOM     87  C   UNL A   1      29.996  27.201  23.397  1.00  0.00     0.004 A 
ATOM     88  C   UNL A   1      30.978  29.484  24.589  1.00  0.00     0.000 A 
ATOM     89  C   UNL A   1      29.659  28.453  22.876  1.00  0.00     0.000 A 
ATOM     90  C   UNL A   1      30.117  29.602  23.504  1.00  0.00     0.000 A 
ENDBRANCH  84  85
ENDBRANCH  83  84
BRANCH  83  91
ATOM     91  N   UNL A   1      32.309  23.624  24.688  1.00  0.00    -0.278 N 
ATOM     92  C   UNL A   1      32.183  22.536  25.519  1.00  0.00     0.267 C 
ATOM     93  C   UNL A   1      32.328  23.355  23.336  1.00  0.00     0.149 C 
ATOM     94  O   UNL A   1      31.843  22.530  26.688  1.00  0.00    -0.268 OA
ATOM     95  C   UNL A   1      32.523  21.317  24.772  1.00  0.00     0.081 C 
ATOM     96  S   UNL A   1      32.381  21.607  23.094  1.00  0.00    -0.054 SA
ATOM     97  S   UNL A   1      32.373  24.421  22.056  1.00  0.00    -0.052 S 
ATOM     98  C   UNL A   1      32.943  20.250  25.455  1.00  0.00     0.029 C 
BRANCH  98  99
ATOM     99  C   UNL A   1      33.278  18.945  24.905  1.00  0.00    -0.021 A 
ATOM    100  C   UNL A   1      32.332  17.961  24.632  1.00  0.00     0.028 A 
ATOM    101  C   UNL A   1      34.624  18.693  24.651  1.00  0.00     0.028 A 
ATOM    102  C   UNL A   1      32.786  16.736  24.181  1.00  0.00     0.111 A 
ATOM    103  C   UNL A   1      34.976  17.441  24.192  1.00  0.00     0.111 A 
ATOM    104  N   UNL A   1      34.087  16.452  23.955  1.00  0.00    -0.265 NA
ENDBRANCH  98  99
ENDBRANCH  83  91
ENDBRANCH  81  83
ENDBRANCH  80  81
ENDBRANCH  79  80
ENDBRANCH  78  79
ENDBRANCH  77  78
ENDBRANCH  76  77
ENDBRANCH  75  76
ENDBRANCH  74  75
ENDBRANCH   1  74
TORSDOF 27
ENDMDL
