MODEL 1
REMARK VINA RESULT:      -9.0      0.000      0.000
REMARK SMILES Cc1cc(C)n(-c2nc(C)c(C)c(Oc3cccc(C(=O)OCCOCCOCCOCCOC(=O)c4ccc(-c5c6nc(c(-c7cc(S(=O)(=O)[O-])ccc7F)c7ccc([nH]7)c(-c7cc(S(=O)(=O)[O-])ccc7F)c7nc(c(-c8cc(S(=O)(=O)[O-])ccc8F)c8ccc5[nH]8)C=C7)C=C6)cc4)c3)n2)n1
REMARK SMILES IDX 28 1 27 2 26 3 25 4 24 5 23 6 22 7 20 8 21 9 19 10 15 11
REMARK SMILES IDX 16 12 100 13 17 14 18 15 14 16 13 17 7 18 8 19 101 20 9 21
REMARK SMILES IDX 10 22 11 23 12 24 6 25 1 26 2 27 3 28 102 29 4 30 5 31 29 32
REMARK SMILES IDX 30 33 31 34 32 35 33 36 34 37 35 38 36 39 37 40 38 41 99 42
REMARK SMILES IDX 39 43 98 44 40 45 41 46 42 47 92 48 43 49 97 50 91 51 93 52
REMARK SMILES IDX 44 53 96 54 90 55 89 56 45 58 77 59 57 60 76 61 58 62 61 63
REMARK SMILES IDX 75 64 94 65 59 66 60 67 74 69 95 70 62 71 46 72 47 73 55 74
REMARK SMILES IDX 48 75 54 76 56 77 53 78 49 79 50 80 51 81 52 82 78 83 79 84
REMARK SMILES IDX 87 85 80 86 86 87 88 88 85 89 81 90 82 91 83 92 84 93 63 94
REMARK SMILES IDX 64 95 72 96 65 97 71 98 73 99 70 100 66 101 67 102 68 103
REMARK SMILES IDX 69 104
REMARK H PARENT 93 57 61 68
REMARK Flexibility Score: inf
ROOT
ATOM      1  O   UNL A   1      44.587  20.883  23.792  1.00  0.00    -0.377 OA
ENDROOT
BRANCH   1   2
ATOM      2  C   UNL A   1      44.982  22.242  23.862  1.00  0.00     0.188 C 
BRANCH   2   3
ATOM      3  C   UNL A   1      45.409  22.691  25.275  1.00  0.00     0.188 C 
BRANCH   3   4
ATOM      4  O   UNL A   1      45.983  23.969  25.492  1.00  0.00    -0.376 OA
BRANCH   4   5
ATOM      5  C   UNL A   1      45.282  25.180  25.274  1.00  0.00     0.202 C 
BRANCH   5   6
ATOM      6  C   UNL A   1      44.898  26.201  26.362  1.00  0.00     0.261 C 
BRANCH   6   7
ATOM      7  O   UNL A   1      45.857  27.192  26.717  1.00  0.00    -0.460 OA
BRANCH   7   8
ATOM      8  C   UNL A   1      46.601  27.690  25.707  1.00  0.00     0.338 C 
ATOM      9  O   UNL A   1      46.200  28.325  24.742  1.00  0.00    -0.246 OA
BRANCH   8  10
ATOM     10  C   UNL A   1      48.026  27.541  26.079  1.00  0.00     0.063 A 
ATOM     11  C   UNL A   1      50.355  27.316  25.495  1.00  0.00     0.130 A 
ATOM     12  C   UNL A   1      50.682  27.202  26.849  1.00  0.00     0.047 A 
ATOM     13  C   UNL A   1      49.016  27.394  25.106  1.00  0.00     0.062 A 
ATOM     14  C   UNL A   1      49.685  27.271  27.820  1.00  0.00     0.005 A 
ATOM     15  C   UNL A   1      48.361  27.481  27.437  1.00  0.00     0.016 A 
BRANCH  11  16
ATOM     16  O   UNL A   1      51.413  27.308  24.615  1.00  0.00    -0.439 OA
BRANCH  16  17
ATOM     17  C   UNL A   1      51.630  28.434  23.818  1.00  0.00     0.227 A 
ATOM     18  C   UNL A   1      52.047  30.674  23.648  1.00  0.00     0.254 A 
ATOM     19  N   UNL A   1      51.720  30.686  22.340  1.00  0.00    -0.216 NA
ATOM     20  N   UNL A   1      52.085  29.562  24.391  1.00  0.00    -0.175 NA
ATOM     21  C   UNL A   1      51.441  29.503  21.750  1.00  0.00     0.050 A 
ATOM     22  C   UNL A   1      51.310  29.573  20.257  1.00  0.00     0.067 C 
ATOM     23  C   UNL A   1      51.326  28.323  22.471  1.00  0.00     0.033 A 
ATOM     24  C   UNL A   1      50.927  27.026  21.838  1.00  0.00     0.052 C 
BRANCH  18  25
ATOM     25  N   UNL A   1      52.284  31.931  24.302  1.00  0.00    -0.203 N 
ATOM     26  C   UNL A   1      51.130  35.150  25.305  1.00  0.00     0.069 C 
ATOM     27  C   UNL A   1      51.881  33.897  25.048  1.00  0.00     0.060 A 
ATOM     28  C   UNL A   1      53.118  33.516  25.605  1.00  0.00     0.049 A 
ATOM     29  N   UNL A   1      51.416  32.980  24.194  1.00  0.00    -0.170 NA
ATOM     30  C   UNL A   1      53.385  32.270  25.081  1.00  0.00     0.045 A 
ATOM     31  C   UNL A   1      54.606  31.432  25.177  1.00  0.00     0.067 C 
ENDBRANCH  18  25
ENDBRANCH  16  17
ENDBRANCH  11  16
ENDBRANCH   8  10
ENDBRANCH   7   8
ENDBRANCH   6   7
ENDBRANCH   5   6
ENDBRANCH   4   5
ENDBRANCH   3   4
ENDBRANCH   2   3
ENDBRANCH   1   2
BRANCH   1  32
ATOM     32  C   UNL A   1      44.614  20.153  25.018  1.00  0.00     0.188 C 
BRANCH  32  33
ATOM     33  C   UNL A   1      43.728  18.889  25.171  1.00  0.00     0.188 C 
BRANCH  33  34
ATOM     34  O   UNL A   1      42.333  19.146  25.267  1.00  0.00    -0.376 OA
BRANCH  34  35
ATOM     35  C   UNL A   1      41.769  19.891  26.329  1.00  0.00     0.202 C 
BRANCH  35  36
ATOM     36  C   UNL A   1      41.309  21.307  26.014  1.00  0.00     0.261 C 
BRANCH  36  37
ATOM     37  O   UNL A   1      41.917  22.290  26.827  1.00  0.00    -0.460 OA
BRANCH  37  38
ATOM     38  C   UNL A   1      41.855  23.539  26.345  1.00  0.00     0.338 C 
ATOM     39  O   UNL A   1      42.237  23.929  25.239  1.00  0.00    -0.246 OA
BRANCH  38  40
ATOM     40  C   UNL A   1      41.363  24.400  27.408  1.00  0.00     0.060 A 
ATOM     41  C   UNL A   1      40.266  25.209  27.117  1.00  0.00     0.016 A 
ATOM     42  C   UNL A   1      42.215  24.633  28.501  1.00  0.00     0.016 A 
ATOM     43  C   UNL A   1      40.181  26.414  27.767  1.00  0.00     0.010 A 
ATOM     44  C   UNL A   1      42.148  25.846  29.122  1.00  0.00     0.010 A 
ATOM     45  C   UNL A   1      41.194  26.752  28.670  1.00  0.00    -0.014 A 
BRANCH  45  46
ATOM     46  C   UNL A   1      41.225  28.088  29.203  1.00  0.00     0.031 A 
ATOM     47  C   UNL A   1      42.319  28.885  28.628  1.00  0.00     0.074 A 
ATOM     48  C   UNL A   1      40.275  28.546  30.037  1.00  0.00     0.049 A 
ATOM     49  N   UNL A   1      43.427  29.208  29.203  1.00  0.00    -0.248 NA
ATOM     50  C   UNL A   1      42.288  29.157  27.182  1.00  0.00     0.031 C 
ATOM     51  C   UNL A   1      39.023  27.906  30.443  1.00  0.00     0.029 A 
ATOM     52  N   UNL A   1      40.201  29.763  30.631  1.00  0.00    -0.354 N 
ATOM     53  C   UNL A   1      44.113  29.956  28.262  1.00  0.00     0.074 A 
ATOM     54  C   UNL A   1      43.502  29.671  26.992  1.00  0.00     0.031 C 
ATOM     55  C   UNL A   1      38.221  28.829  31.028  1.00  0.00     0.029 A 
ATOM     56  C   UNL A   1      38.951  30.082  31.149  1.00  0.00     0.049 A 
ATOM     57  H   UNL A   1      40.971  30.372  30.691  1.00  0.00     0.167 HD
ATOM     58  C   UNL A   1      44.924  30.976  28.644  1.00  0.00     0.034 A 
ATOM     59  C   UNL A   1      38.554  31.313  31.572  1.00  0.00     0.034 A 
ATOM     60  C   UNL A   1      45.254  30.887  30.047  1.00  0.00     0.049 A 
ATOM     61  C   UNL A   1      39.801  32.061  31.895  1.00  0.00     0.074 A 
ATOM     62  C   UNL A   1      45.874  29.933  30.833  1.00  0.00     0.029 A 
ATOM     63  N   UNL A   1      44.560  31.694  30.922  1.00  0.00    -0.354 N 
ATOM     64  N   UNL A   1      40.618  31.711  32.854  1.00  0.00    -0.248 NA
ATOM     65  C   UNL A   1      40.396  32.880  30.847  1.00  0.00     0.031 C 
ATOM     66  C   UNL A   1      45.140  29.924  32.055  1.00  0.00     0.029 A 
ATOM     67  C   UNL A   1      44.162  30.918  31.985  1.00  0.00     0.049 A 
ATOM     68  H   UNL A   1      44.379  32.654  30.805  1.00  0.00     0.167 HD
ATOM     69  C   UNL A   1      41.889  31.888  32.327  1.00  0.00     0.074 A 
ATOM     70  C   UNL A   1      41.690  32.694  31.123  1.00  0.00     0.031 C 
ATOM     71  C   UNL A   1      42.943  31.128  32.747  1.00  0.00     0.034 A 
BRANCH  58  72
ATOM     72  C   UNL A   1      45.102  32.236  27.842  1.00  0.00     0.023 A 
ATOM     73  C   UNL A   1      44.315  33.344  28.190  1.00  0.00     0.031 A 
ATOM     74  C   UNL A   1      45.798  32.330  26.612  1.00  0.00     0.131 A 
ATOM     75  C   UNL A   1      44.200  34.442  27.321  1.00  0.00     0.055 A 
ATOM     76  C   UNL A   1      45.736  33.452  25.786  1.00  0.00     0.041 A 
ATOM     77  F   UNL A   1      46.493  31.312  26.090  1.00  0.00    -0.206 F 
ATOM     78  C   UNL A   1      44.912  34.508  26.126  1.00  0.00     0.022 A 
BRANCH  75  79
ATOM     79  S   UNL A   1      42.987  35.724  27.716  1.00  0.00     0.124 S 
ATOM     80  O   UNL A   1      42.075  35.007  28.598  1.00  0.00    -0.237 OA
ATOM     81  O   UNL A   1      43.823  36.744  28.343  1.00  0.00    -0.237 OA
ATOM     82  O   UNL A   1      42.441  36.085  26.410  1.00  0.00    -0.744 OA
ENDBRANCH  75  79
ENDBRANCH  58  72
BRANCH  59  83
ATOM     83  C   UNL A   1      37.235  31.979  31.352  1.00  0.00     0.023 A 
ATOM     84  C   UNL A   1      36.729  32.224  30.056  1.00  0.00     0.031 A 
ATOM     85  C   UNL A   1      36.325  32.148  32.421  1.00  0.00     0.131 A 
ATOM     86  C   UNL A   1      35.376  32.601  29.872  1.00  0.00     0.055 A 
ATOM     87  C   UNL A   1      34.992  32.524  32.233  1.00  0.00     0.041 A 
ATOM     88  F   UNL A   1      36.670  31.863  33.686  1.00  0.00    -0.206 F 
ATOM     89  C   UNL A   1      34.507  32.738  30.954  1.00  0.00     0.022 A 
BRANCH  86  90
ATOM     90  S   UNL A   1      34.685  32.794  28.195  1.00  0.00     0.124 S 
ATOM     91  O   UNL A   1      33.408  33.445  28.464  1.00  0.00    -0.237 OA
ATOM     92  O   UNL A   1      35.697  33.602  27.524  1.00  0.00    -0.237 OA
ATOM     93  O   UNL A   1      34.585  31.416  27.710  1.00  0.00    -0.744 OA
ENDBRANCH  86  90
ENDBRANCH  59  83
BRANCH  71  94
ATOM     94  C   UNL A   1      42.774  30.288  33.999  1.00  0.00     0.023 A 
ATOM     95  C   UNL A   1      42.512  28.897  34.019  1.00  0.00     0.031 A 
ATOM     96  C   UNL A   1      43.045  30.919  35.226  1.00  0.00     0.131 A 
ATOM     97  C   UNL A   1      42.531  28.196  35.244  1.00  0.00     0.055 A 
ATOM     98  C   UNL A   1      43.082  30.219  36.430  1.00  0.00     0.041 A 
ATOM     99  F   UNL A   1      43.329  32.231  35.264  1.00  0.00    -0.206 F 
ATOM    100  C   UNL A   1      42.823  28.853  36.444  1.00  0.00     0.022 A 
BRANCH  97 101
ATOM    101  S   UNL A   1      42.202  26.402  35.298  1.00  0.00     0.124 S 
ATOM    102  O   UNL A   1      40.813  26.303  34.867  1.00  0.00    -0.237 OA
ATOM    103  O   UNL A   1      43.201  25.866  34.376  1.00  0.00    -0.237 OA
ATOM    104  O   UNL A   1      42.428  26.054  36.703  1.00  0.00    -0.744 OA
ENDBRANCH  97 101
ENDBRANCH  71  94
ENDBRANCH  45  46
ENDBRANCH  38  40
ENDBRANCH  37  38
ENDBRANCH  36  37
ENDBRANCH  35  36
ENDBRANCH  34  35
ENDBRANCH  33  34
ENDBRANCH  32  33
ENDBRANCH   1  32
TORSDOF 26
ENDMDL
MODEL 2
REMARK VINA RESULT:      -8.9      1.939      2.688
REMARK SMILES Cc1cc(C)n(-c2nc(C)c(C)c(Oc3cccc(C(=O)OCCOCCOCCOCCOC(=O)c4ccc(-c5c6nc(c(-c7cc(S(=O)(=O)[O-])ccc7F)c7ccc([nH]7)c(-c7cc(S(=O)(=O)[O-])ccc7F)c7nc(c(-c8cc(S(=O)(=O)[O-])ccc8F)c8ccc5[nH]8)C=C7)C=C6)cc4)c3)n2)n1
REMARK SMILES IDX 28 1 27 2 26 3 25 4 24 5 23 6 22 7 20 8 21 9 19 10 15 11
REMARK SMILES IDX 16 12 100 13 17 14 18 15 14 16 13 17 7 18 8 19 101 20 9 21
REMARK SMILES IDX 10 22 11 23 12 24 6 25 1 26 2 27 3 28 102 29 4 30 5 31 29 32
REMARK SMILES IDX 30 33 31 34 32 35 33 36 34 37 35 38 36 39 37 40 38 41 99 42
REMARK SMILES IDX 39 43 98 44 40 45 41 46 42 47 92 48 43 49 97 50 91 51 93 52
REMARK SMILES IDX 44 53 96 54 90 55 89 56 45 58 77 59 57 60 76 61 58 62 61 63
REMARK SMILES IDX 75 64 94 65 59 66 60 67 74 69 95 70 62 71 46 72 47 73 55 74
REMARK SMILES IDX 48 75 54 76 56 77 53 78 49 79 50 80 51 81 52 82 78 83 79 84
REMARK SMILES IDX 87 85 80 86 86 87 88 88 85 89 81 90 82 91 83 92 84 93 63 94
REMARK SMILES IDX 64 95 72 96 65 97 71 98 73 99 70 100 66 101 67 102 68 103
REMARK SMILES IDX 69 104
REMARK H PARENT 93 57 61 68
REMARK Flexibility Score: inf
ROOT
ATOM      1  O   UNL A   1      44.672  20.087  24.660  1.00  0.00    -0.377 OA
ENDROOT
BRANCH   1   2
ATOM      2  C   UNL A   1      45.859  20.840  24.834  1.00  0.00     0.188 C 
BRANCH   2   3
ATOM      3  C   UNL A   1      45.725  22.317  24.407  1.00  0.00     0.188 C 
BRANCH   3   4
ATOM      4  O   UNL A   1      46.074  23.367  25.293  1.00  0.00    -0.376 OA
BRANCH   4   5
ATOM      5  C   UNL A   1      46.639  24.591  24.860  1.00  0.00     0.202 C 
BRANCH   5   6
ATOM      6  C   UNL A   1      46.340  25.977  25.460  1.00  0.00     0.261 C 
BRANCH   6   7
ATOM      7  O   UNL A   1      47.363  26.612  26.220  1.00  0.00    -0.460 OA
BRANCH   7   8
ATOM      8  C   UNL A   1      47.075  26.860  27.515  1.00  0.00     0.338 C 
ATOM      9  O   UNL A   1      46.195  26.340  28.186  1.00  0.00    -0.246 OA
BRANCH   8  10
ATOM     10  C   UNL A   1      48.159  27.704  28.065  1.00  0.00     0.063 A 
ATOM     11  C   UNL A   1      50.415  28.556  28.013  1.00  0.00     0.130 A 
ATOM     12  C   UNL A   1      50.171  29.271  29.188  1.00  0.00     0.047 A 
ATOM     13  C   UNL A   1      49.437  27.700  27.502  1.00  0.00     0.062 A 
ATOM     14  C   UNL A   1      48.918  29.216  29.796  1.00  0.00     0.005 A 
ATOM     15  C   UNL A   1      47.900  28.465  29.212  1.00  0.00     0.016 A 
BRANCH  11  16
ATOM     16  O   UNL A   1      51.657  28.729  27.447  1.00  0.00    -0.439 OA
BRANCH  16  17
ATOM     17  C   UNL A   1      51.938  28.087  26.240  1.00  0.00     0.227 A 
ATOM     18  C   UNL A   1      51.706  27.974  23.970  1.00  0.00     0.254 A 
ATOM     19  N   UNL A   1      52.168  26.708  23.935  1.00  0.00    -0.216 NA
ATOM     20  N   UNL A   1      51.651  28.711  25.084  1.00  0.00    -0.175 NA
ATOM     21  C   UNL A   1      52.620  26.171  25.089  1.00  0.00     0.050 A 
ATOM     22  C   UNL A   1      53.319  24.854  24.926  1.00  0.00     0.067 C 
ATOM     23  C   UNL A   1      52.476  26.811  26.312  1.00  0.00     0.033 A 
ATOM     24  C   UNL A   1      52.890  26.183  27.606  1.00  0.00     0.052 C 
BRANCH  18  25
ATOM     25  N   UNL A   1      51.166  28.535  22.762  1.00  0.00    -0.203 N 
ATOM     26  C   UNL A   1      51.331  30.942  20.139  1.00  0.00     0.069 C 
ATOM     27  C   UNL A   1      51.004  29.830  21.065  1.00  0.00     0.060 A 
ATOM     28  C   UNL A   1      50.054  28.808  20.867  1.00  0.00     0.049 A 
ATOM     29  N   UNL A   1      51.617  29.718  22.247  1.00  0.00    -0.170 NA
ATOM     30  C   UNL A   1      50.138  28.010  21.987  1.00  0.00     0.045 A 
ATOM     31  C   UNL A   1      49.287  26.875  22.421  1.00  0.00     0.067 C 
ENDBRANCH  18  25
ENDBRANCH  16  17
ENDBRANCH  11  16
ENDBRANCH   8  10
ENDBRANCH   7   8
ENDBRANCH   6   7
ENDBRANCH   5   6
ENDBRANCH   4   5
ENDBRANCH   3   4
ENDBRANCH   2   3
ENDBRANCH   1   2
BRANCH   1  32
ATOM     32  C   UNL A   1      44.264  19.285  25.767  1.00  0.00     0.188 C 
BRANCH  32  33
ATOM     33  C   UNL A   1      42.960  18.450  25.663  1.00  0.00     0.188 C 
BRANCH  33  34
ATOM     34  O   UNL A   1      41.761  19.187  25.861  1.00  0.00    -0.376 OA
BRANCH  34  35
ATOM     35  C   UNL A   1      41.656  20.225  26.816  1.00  0.00     0.202 C 
BRANCH  35  36
ATOM     36  C   UNL A   1      41.568  21.649  26.286  1.00  0.00     0.261 C 
BRANCH  36  37
ATOM     37  O   UNL A   1      42.526  22.520  26.852  1.00  0.00    -0.460 OA
BRANCH  37  38
ATOM     38  C   UNL A   1      42.483  23.779  26.397  1.00  0.00     0.338 C 
ATOM     39  O   UNL A   1      42.939  24.200  25.331  1.00  0.00    -0.246 OA
BRANCH  38  40
ATOM     40  C   UNL A   1      41.905  24.609  27.441  1.00  0.00     0.060 A 
ATOM     41  C   UNL A   1      40.705  25.256  27.151  1.00  0.00     0.016 A 
ATOM     42  C   UNL A   1      42.742  24.993  28.502  1.00  0.00     0.016 A 
ATOM     43  C   UNL A   1      40.477  26.464  27.760  1.00  0.00     0.010 A 
ATOM     44  C   UNL A   1      42.529  26.210  29.081  1.00  0.00     0.010 A 
ATOM     45  C   UNL A   1      41.456  26.965  28.623  1.00  0.00    -0.014 A 
BRANCH  45  46
ATOM     46  C   UNL A   1      41.322  28.314  29.107  1.00  0.00     0.031 A 
ATOM     47  C   UNL A   1      42.358  29.202  28.558  1.00  0.00     0.074 A 
ATOM     48  C   UNL A   1      40.287  28.697  29.876  1.00  0.00     0.049 A 
ATOM     49  N   UNL A   1      43.395  29.655  29.175  1.00  0.00    -0.248 NA
ATOM     50  C   UNL A   1      42.375  29.423  27.103  1.00  0.00     0.031 C 
ATOM     51  C   UNL A   1      39.088  27.943  30.244  1.00  0.00     0.029 A 
ATOM     52  N   UNL A   1      40.058  29.917  30.421  1.00  0.00    -0.354 N 
ATOM     53  C   UNL A   1      44.050  30.440  28.242  1.00  0.00     0.074 A 
ATOM     54  C   UNL A   1      43.540  30.054  26.955  1.00  0.00     0.031 C 
ATOM     55  C   UNL A   1      38.166  28.796  30.754  1.00  0.00     0.029 A 
ATOM     56  C   UNL A   1      38.757  30.121  30.865  1.00  0.00     0.049 A 
ATOM     57  H   UNL A   1      40.759  30.605  30.496  1.00  0.00     0.167 HD
ATOM     58  C   UNL A   1      44.732  31.550  28.626  1.00  0.00     0.034 A 
ATOM     59  C   UNL A   1      38.215  31.318  31.222  1.00  0.00     0.034 A 
ATOM     60  C   UNL A   1      44.995  31.540  30.046  1.00  0.00     0.049 A 
ATOM     61  C   UNL A   1      39.361  32.200  31.579  1.00  0.00     0.074 A 
ATOM     62  C   UNL A   1      45.667  30.681  30.895  1.00  0.00     0.029 A 
ATOM     63  N   UNL A   1      44.177  32.298  30.855  1.00  0.00    -0.354 N 
ATOM     64  N   UNL A   1      40.157  31.968  32.589  1.00  0.00    -0.248 NA
ATOM     65  C   UNL A   1      39.923  33.043  30.532  1.00  0.00     0.031 C 
ATOM     66  C   UNL A   1      44.874  30.634  32.080  1.00  0.00     0.029 A 
ATOM     67  C   UNL A   1      43.805  31.519  31.925  1.00  0.00     0.049 A 
ATOM     68  H   UNL A   1      43.906  33.231  30.695  1.00  0.00     0.167 HD
ATOM     69  C   UNL A   1      41.429  32.258  32.119  1.00  0.00     0.074 A 
ATOM     70  C   UNL A   1      41.214  33.001  30.877  1.00  0.00     0.031 C 
ATOM     71  C   UNL A   1      42.532  31.626  32.618  1.00  0.00     0.034 A 
BRANCH  58  72
ATOM     72  C   UNL A   1      44.823  32.797  27.788  1.00  0.00     0.023 A 
ATOM     73  C   UNL A   1      44.053  33.901  28.181  1.00  0.00     0.031 A 
ATOM     74  C   UNL A   1      45.409  32.875  26.501  1.00  0.00     0.131 A 
ATOM     75  C   UNL A   1      43.848  34.980  27.305  1.00  0.00     0.055 A 
ATOM     76  C   UNL A   1      45.260  33.979  25.662  1.00  0.00     0.041 A 
ATOM     77  F   UNL A   1      46.070  31.854  25.940  1.00  0.00    -0.206 F 
ATOM     78  C   UNL A   1      44.454  35.032  26.052  1.00  0.00     0.022 A 
BRANCH  75  79
ATOM     79  S   UNL A   1      42.657  36.255  27.780  1.00  0.00     0.124 S 
ATOM     80  O   UNL A   1      43.385  36.967  28.823  1.00  0.00    -0.237 OA
ATOM     81  O   UNL A   1      42.467  36.971  26.522  1.00  0.00    -0.237 OA
ATOM     82  O   UNL A   1      41.503  35.485  28.236  1.00  0.00    -0.744 OA
ENDBRANCH  75  79
ENDBRANCH  58  72
BRANCH  59  83
ATOM     83  C   UNL A   1      36.849  31.836  30.913  1.00  0.00     0.023 A 
ATOM     84  C   UNL A   1      36.028  32.417  31.906  1.00  0.00     0.031 A 
ATOM     85  C   UNL A   1      36.429  32.009  29.574  1.00  0.00     0.131 A 
ATOM     86  C   UNL A   1      34.865  33.140  31.544  1.00  0.00     0.055 A 
ATOM     87  C   UNL A   1      35.278  32.720  29.224  1.00  0.00     0.041 A 
ATOM     88  F   UNL A   1      37.172  31.574  28.545  1.00  0.00    -0.206 F 
ATOM     89  C   UNL A   1      34.497  33.302  30.208  1.00  0.00     0.022 A 
BRANCH  86  90
ATOM     90  S   UNL A   1      33.873  34.000  32.810  1.00  0.00     0.124 S 
ATOM     91  O   UNL A   1      33.049  32.919  33.338  1.00  0.00    -0.237 OA
ATOM     92  O   UNL A   1      34.893  34.535  33.706  1.00  0.00    -0.237 OA
ATOM     93  O   UNL A   1      33.146  35.011  32.041  1.00  0.00    -0.744 OA
ENDBRANCH  86  90
ENDBRANCH  59  83
BRANCH  71  94
ATOM     94  C   UNL A   1      42.384  30.812  33.890  1.00  0.00     0.023 A 
ATOM     95  C   UNL A   1      42.042  29.440  33.945  1.00  0.00     0.031 A 
ATOM     96  C   UNL A   1      42.759  31.440  35.090  1.00  0.00     0.131 A 
ATOM     97  C   UNL A   1      42.088  28.754  35.178  1.00  0.00     0.055 A 
ATOM     98  C   UNL A   1      42.822  30.754  36.301  1.00  0.00     0.041 A 
ATOM     99  F   UNL A   1      43.121  32.734  35.093  1.00  0.00    -0.206 F 
ATOM    100  C   UNL A   1      42.485  29.406  36.350  1.00  0.00     0.022 A 
BRANCH  97 101
ATOM    101  S   UNL A   1      41.658  26.982  35.278  1.00  0.00     0.124 S 
ATOM    102  O   UNL A   1      42.904  26.316  34.920  1.00  0.00    -0.237 OA
ATOM    103  O   UNL A   1      41.225  26.835  36.665  1.00  0.00    -0.237 OA
ATOM    104  O   UNL A   1      40.586  26.834  34.290  1.00  0.00    -0.744 OA
ENDBRANCH  97 101
ENDBRANCH  71  94
ENDBRANCH  45  46
ENDBRANCH  38  40
ENDBRANCH  37  38
ENDBRANCH  36  37
ENDBRANCH  35  36
ENDBRANCH  34  35
ENDBRANCH  33  34
ENDBRANCH  32  33
ENDBRANCH   1  32
TORSDOF 26
ENDMDL
MODEL 3
REMARK VINA RESULT:      -8.8      5.697     12.075
REMARK SMILES Cc1cc(C)n(-c2nc(C)c(C)c(Oc3cccc(C(=O)OCCOCCOCCOCCOC(=O)c4ccc(-c5c6nc(c(-c7cc(S(=O)(=O)[O-])ccc7F)c7ccc([nH]7)c(-c7cc(S(=O)(=O)[O-])ccc7F)c7nc(c(-c8cc(S(=O)(=O)[O-])ccc8F)c8ccc5[nH]8)C=C7)C=C6)cc4)c3)n2)n1
REMARK SMILES IDX 28 1 27 2 26 3 25 4 24 5 23 6 22 7 20 8 21 9 19 10 15 11
REMARK SMILES IDX 16 12 100 13 17 14 18 15 14 16 13 17 7 18 8 19 101 20 9 21
REMARK SMILES IDX 10 22 11 23 12 24 6 25 1 26 2 27 3 28 102 29 4 30 5 31 29 32
REMARK SMILES IDX 30 33 31 34 32 35 33 36 34 37 35 38 36 39 37 40 38 41 99 42
REMARK SMILES IDX 39 43 98 44 40 45 41 46 42 47 92 48 43 49 97 50 91 51 93 52
REMARK SMILES IDX 44 53 96 54 90 55 89 56 45 58 77 59 57 60 76 61 58 62 61 63
REMARK SMILES IDX 75 64 94 65 59 66 60 67 74 69 95 70 62 71 46 72 47 73 55 74
REMARK SMILES IDX 48 75 54 76 56 77 53 78 49 79 50 80 51 81 52 82 78 83 79 84
REMARK SMILES IDX 87 85 80 86 86 87 88 88 85 89 81 90 82 91 83 92 84 93 63 94
REMARK SMILES IDX 64 95 72 96 65 97 71 98 73 99 70 100 66 101 67 102 68 103
REMARK SMILES IDX 69 104
REMARK H PARENT 93 57 61 68
REMARK Flexibility Score: inf
ROOT
ATOM      1  O   UNL A   1      35.775  18.693  24.401  1.00  0.00    -0.377 OA
ENDROOT
BRANCH   1   2
ATOM      2  C   UNL A   1      34.615  18.004  24.833  1.00  0.00     0.188 C 
BRANCH   2   3
ATOM      3  C   UNL A   1      33.663  17.614  23.683  1.00  0.00     0.188 C 
BRANCH   3   4
ATOM      4  O   UNL A   1      32.579  18.452  23.318  1.00  0.00    -0.376 OA
BRANCH   4   5
ATOM      5  C   UNL A   1      32.575  19.852  23.535  1.00  0.00     0.202 C 
BRANCH   5   6
ATOM      6  C   UNL A   1      32.236  20.551  24.865  1.00  0.00     0.261 C 
BRANCH   6   7
ATOM      7  O   UNL A   1      31.983  21.952  24.838  1.00  0.00    -0.460 OA
BRANCH   7   8
ATOM      8  C   UNL A   1      33.035  22.752  25.108  1.00  0.00     0.338 C 
ATOM      9  O   UNL A   1      33.894  22.576  25.960  1.00  0.00    -0.246 OA
BRANCH   8  10
ATOM     10  C   UNL A   1      33.113  23.773  24.040  1.00  0.00     0.063 A 
ATOM     11  C   UNL A   1      33.393  26.053  23.303  1.00  0.00     0.130 A 
ATOM     12  C   UNL A   1      33.190  25.650  21.981  1.00  0.00     0.047 A 
ATOM     13  C   UNL A   1      33.263  25.128  24.342  1.00  0.00     0.062 A 
ATOM     14  C   UNL A   1      32.962  24.307  21.684  1.00  0.00     0.005 A 
ATOM     15  C   UNL A   1      32.964  23.363  22.709  1.00  0.00     0.016 A 
BRANCH  11  16
ATOM     16  O   UNL A   1      33.681  27.385  23.492  1.00  0.00    -0.439 OA
BRANCH  16  17
ATOM     17  C   UNL A   1      32.706  28.208  24.057  1.00  0.00     0.227 A 
ATOM     18  C   UNL A   1      30.748  29.366  23.851  1.00  0.00     0.254 A 
ATOM     19  N   UNL A   1      30.978  30.057  24.986  1.00  0.00    -0.216 NA
ATOM     20  N   UNL A   1      31.545  28.391  23.403  1.00  0.00    -0.175 NA
ATOM     21  C   UNL A   1      32.064  29.722  25.717  1.00  0.00     0.050 A 
ATOM     22  C   UNL A   1      32.126  30.375  27.065  1.00  0.00     0.067 C 
ATOM     23  C   UNL A   1      33.015  28.819  25.262  1.00  0.00     0.033 A 
ATOM     24  C   UNL A   1      34.266  28.513  26.024  1.00  0.00     0.052 C 
BRANCH  18  25
ATOM     25  N   UNL A   1      29.632  29.754  23.033  1.00  0.00    -0.203 N 
ATOM     26  C   UNL A   1      28.125  32.053  20.764  1.00  0.00     0.069 C 
ATOM     27  C   UNL A   1      28.478  30.926  21.661  1.00  0.00     0.060 A 
ATOM     28  C   UNL A   1      27.781  29.712  21.819  1.00  0.00     0.049 A 
ATOM     29  N   UNL A   1      29.550  30.991  22.457  1.00  0.00    -0.170 NA
ATOM     30  C   UNL A   1      28.510  28.989  22.737  1.00  0.00     0.045 A 
ATOM     31  C   UNL A   1      28.196  27.706  23.414  1.00  0.00     0.067 C 
ENDBRANCH  18  25
ENDBRANCH  16  17
ENDBRANCH  11  16
ENDBRANCH   8  10
ENDBRANCH   7   8
ENDBRANCH   6   7
ENDBRANCH   5   6
ENDBRANCH   4   5
ENDBRANCH   3   4
ENDBRANCH   2   3
ENDBRANCH   1   2
BRANCH   1  32
ATOM     32  C   UNL A   1      36.034  19.950  25.026  1.00  0.00     0.188 C 
BRANCH  32  33
ATOM     33  C   UNL A   1      37.480  20.512  25.035  1.00  0.00     0.188 C 
BRANCH  33  34
ATOM     34  O   UNL A   1      37.613  21.808  25.606  1.00  0.00    -0.376 OA
BRANCH  34  35
ATOM     35  C   UNL A   1      38.872  22.404  25.853  1.00  0.00     0.202 C 
BRANCH  35  36
ATOM     36  C   UNL A   1      40.016  21.474  26.234  1.00  0.00     0.261 C 
BRANCH  36  37
ATOM     37  O   UNL A   1      41.116  22.146  26.813  1.00  0.00    -0.460 OA
BRANCH  37  38
ATOM     38  C   UNL A   1      42.015  22.615  25.938  1.00  0.00     0.338 C 
ATOM     39  O   UNL A   1      42.631  21.969  25.087  1.00  0.00    -0.246 OA
BRANCH  38  40
ATOM     40  C   UNL A   1      42.239  24.019  26.241  1.00  0.00     0.060 A 
ATOM     41  C   UNL A   1      43.428  24.588  25.790  1.00  0.00     0.016 A 
ATOM     42  C   UNL A   1      41.451  24.597  27.252  1.00  0.00     0.016 A 
ATOM     43  C   UNL A   1      43.969  25.601  26.541  1.00  0.00     0.010 A 
ATOM     44  C   UNL A   1      42.007  25.581  28.017  1.00  0.00     0.010 A 
ATOM     45  C   UNL A   1      43.298  25.991  27.705  1.00  0.00    -0.014 A 
BRANCH  45  46
ATOM     46  C   UNL A   1      43.953  26.904  28.603  1.00  0.00     0.031 A 
ATOM     47  C   UNL A   1      43.711  28.308  28.236  1.00  0.00     0.074 A 
ATOM     48  C   UNL A   1      44.603  26.483  29.703  1.00  0.00     0.049 A 
ATOM     49  N   UNL A   1      44.542  29.114  27.668  1.00  0.00    -0.248 NA
ATOM     50  C   UNL A   1      42.327  28.804  28.288  1.00  0.00     0.031 C 
ATOM     51  C   UNL A   1      44.663  25.136  30.274  1.00  0.00     0.029 A 
ATOM     52  N   UNL A   1      45.284  27.227  30.609  1.00  0.00    -0.354 N 
ATOM     53  C   UNL A   1      43.850  30.306  27.539  1.00  0.00     0.074 A 
ATOM     54  C   UNL A   1      42.457  29.986  27.685  1.00  0.00     0.031 C 
ATOM     55  C   UNL A   1      45.148  25.210  31.537  1.00  0.00     0.029 A 
ATOM     56  C   UNL A   1      45.547  26.582  31.811  1.00  0.00     0.049 A 
ATOM     57  H   UNL A   1      45.568  28.152  30.428  1.00  0.00     0.167 HD
ATOM     58  C   UNL A   1      44.498  31.497  27.627  1.00  0.00     0.034 A 
ATOM     59  C   UNL A   1      45.993  27.175  32.952  1.00  0.00     0.034 A 
ATOM     60  C   UNL A   1      45.923  31.332  27.465  1.00  0.00     0.049 A 
ATOM     61  C   UNL A   1      46.651  28.443  32.530  1.00  0.00     0.074 A 
ATOM     62  C   UNL A   1      46.727  30.828  26.459  1.00  0.00     0.029 A 
ATOM     63  N   UNL A   1      46.701  31.323  28.602  1.00  0.00    -0.354 N 
ATOM     64  N   UNL A   1      47.725  28.479  31.786  1.00  0.00    -0.248 NA
ATOM     65  C   UNL A   1      45.843  29.655  32.505  1.00  0.00     0.031 C 
ATOM     66  C   UNL A   1      47.754  30.103  27.133  1.00  0.00     0.029 A 
ATOM     67  C   UNL A   1      47.571  30.263  28.508  1.00  0.00     0.049 A 
ATOM     68  H   UNL A   1      46.644  31.962  29.349  1.00  0.00     0.167 HD
ATOM     69  C   UNL A   1      47.506  29.513  30.887  1.00  0.00     0.074 A 
ATOM     70  C   UNL A   1      46.373  30.257  31.436  1.00  0.00     0.031 C 
ATOM     71  C   UNL A   1      48.068  29.502  29.642  1.00  0.00     0.034 A 
BRANCH  58  72
ATOM     72  C   UNL A   1      43.881  32.731  28.228  1.00  0.00     0.023 A 
ATOM     73  C   UNL A   1      43.297  32.613  29.498  1.00  0.00     0.031 A 
ATOM     74  C   UNL A   1      43.608  33.931  27.527  1.00  0.00     0.131 A 
ATOM     75  C   UNL A   1      42.450  33.618  29.993  1.00  0.00     0.055 A 
ATOM     76  C   UNL A   1      42.823  34.957  28.052  1.00  0.00     0.041 A 
ATOM     77  F   UNL A   1      43.995  34.139  26.263  1.00  0.00    -0.206 F 
ATOM     78  C   UNL A   1      42.216  34.793  29.284  1.00  0.00     0.022 A 
BRANCH  75  79
ATOM     79  S   UNL A   1      41.543  33.298  31.524  1.00  0.00     0.124 S 
ATOM     80  O   UNL A   1      40.592  32.278  31.098  1.00  0.00    -0.237 OA
ATOM     81  O   UNL A   1      42.610  32.853  32.417  1.00  0.00    -0.237 OA
ATOM     82  O   UNL A   1      40.962  34.598  31.850  1.00  0.00    -0.744 OA
ENDBRANCH  75  79
ENDBRANCH  58  72
BRANCH  59  83
ATOM     83  C   UNL A   1      45.559  26.908  34.356  1.00  0.00     0.023 A 
ATOM     84  C   UNL A   1      44.273  27.263  34.822  1.00  0.00     0.031 A 
ATOM     85  C   UNL A   1      46.313  26.055  35.195  1.00  0.00     0.131 A 
ATOM     86  C   UNL A   1      43.790  26.762  36.055  1.00  0.00     0.055 A 
ATOM     87  C   UNL A   1      45.834  25.567  36.413  1.00  0.00     0.041 A 
ATOM     88  F   UNL A   1      47.513  25.585  34.819  1.00  0.00    -0.206 F 
ATOM     89  C   UNL A   1      44.562  25.907  36.843  1.00  0.00     0.022 A 
BRANCH  86  90
ATOM     90  S   UNL A   1      42.085  27.113  36.598  1.00  0.00     0.124 S 
ATOM     91  O   UNL A   1      42.147  28.539  36.895  1.00  0.00    -0.237 OA
ATOM     92  O   UNL A   1      41.294  26.725  35.436  1.00  0.00    -0.237 OA
ATOM     93  O   UNL A   1      41.918  26.247  37.767  1.00  0.00    -0.744 OA
ENDBRANCH  86  90
ENDBRANCH  59  83
BRANCH  71  94
ATOM     94  C   UNL A   1      49.164  28.494  29.353  1.00  0.00     0.023 A 
ATOM     95  C   UNL A   1      49.030  27.359  28.519  1.00  0.00     0.031 A 
ATOM     96  C   UNL A   1      50.448  28.799  29.839  1.00  0.00     0.131 A 
ATOM     97  C   UNL A   1      50.165  26.582  28.202  1.00  0.00     0.055 A 
ATOM     98  C   UNL A   1      51.568  28.040  29.508  1.00  0.00     0.041 A 
ATOM     99  F   UNL A   1      50.640  29.880  30.612  1.00  0.00    -0.206 F 
ATOM    100  C   UNL A   1      51.431  26.926  28.688  1.00  0.00     0.022 A 
BRANCH  97 101
ATOM    101  S   UNL A   1      50.021  25.117  27.123  1.00  0.00     0.124 S 
ATOM    102  O   UNL A   1      51.396  24.875  26.702  1.00  0.00    -0.237 OA
ATOM    103  O   UNL A   1      49.437  24.118  28.014  1.00  0.00    -0.237 OA
ATOM    104  O   UNL A   1      49.129  25.566  26.051  1.00  0.00    -0.744 OA
ENDBRANCH  97 101
ENDBRANCH  71  94
ENDBRANCH  45  46
ENDBRANCH  38  40
ENDBRANCH  37  38
ENDBRANCH  36  37
ENDBRANCH  35  36
ENDBRANCH  34  35
ENDBRANCH  33  34
ENDBRANCH  32  33
ENDBRANCH   1  32
TORSDOF 26
ENDMDL
