MODEL 1
REMARK VINA RESULT:      -6.5      0.000      0.000
REMARK SMILES CC[C@@H]1SC[C@H](C(=O)OCCOCCOCCOCCOC(=O)c2ccc(-c3c4nc(c(-c5cc(S(=O)(=O)[O-])ccc5F)c5ccc([nH]5)c(-c5cc(S(=O)(=O)[O-])ccc5F)c5nc(c(-c6cc(S(=O)(=O)[O-])ccc6F)c6ccc3[nH]6)C=C5)C=C4)cc2)N1C(=O)[C@](C)([NH3+])C(F)(F)F
REMARK SMILES IDX 15 1 14 2 13 3 12 4 11 5 10 6 9 7 7 8 8 9 6 10 3 11 4 12
REMARK SMILES IDX 87 13 5 14 2 15 1 16 88 17 89 18 90 19 91 20 92 21 93 25
REMARK SMILES IDX 94 26 95 27 96 28 16 29 17 30 18 31 19 32 20 33 21 34 22 35
REMARK SMILES IDX 23 36 24 37 25 38 86 39 26 40 85 41 27 42 28 43 29 44 79 45
REMARK SMILES IDX 30 46 84 47 78 48 80 49 31 50 83 51 77 52 76 53 32 55 64 56
REMARK SMILES IDX 44 57 63 58 45 59 48 60 62 61 81 62 46 63 47 64 61 66 82 67
REMARK SMILES IDX 49 68 33 69 34 70 42 71 35 72 41 73 43 74 40 75 36 76 37 77
REMARK SMILES IDX 38 78 39 79 65 80 66 81 74 82 67 83 73 84 75 85 72 86 68 87
REMARK SMILES IDX 69 88 70 89 71 90 50 91 51 92 59 93 52 94 58 95 60 96 57 97
REMARK SMILES IDX 53 98 54 99 55 100 56 101
REMARK H PARENT 92 22 92 23 92 24 80 54 48 65
REMARK Flexibility Score: inf
ROOT
ATOM      1  O   UNL A   1      38.514  30.035  29.963  1.00  0.00    -0.377 OA
ENDROOT
BRANCH   1   2
ATOM      2  C   UNL A   1      38.025  28.728  29.725  1.00  0.00     0.188 C 
BRANCH   2   3
ATOM      3  C   UNL A   1      39.091  27.778  29.137  1.00  0.00     0.188 C 
BRANCH   3   4
ATOM      4  O   UNL A   1      39.865  28.158  28.006  1.00  0.00    -0.376 OA
BRANCH   4   5
ATOM      5  C   UNL A   1      40.920  29.105  28.108  1.00  0.00     0.202 C 
BRANCH   5   6
ATOM      6  C   UNL A   1      42.276  28.953  27.388  1.00  0.00     0.261 C 
BRANCH   6   7
ATOM      7  O   UNL A   1      42.560  27.671  26.822  1.00  0.00    -0.462 OA
BRANCH   7   8
ATOM      8  C   UNL A   1      42.951  27.623  25.517  1.00  0.00     0.329 C 
ATOM      9  O   UNL A   1      42.477  28.285  24.603  1.00  0.00    -0.250 OA
BRANCH   8  10
ATOM     10  C   UNL A   1      44.149  26.672  25.392  1.00  0.00     0.206 C 
ATOM     11  C   UNL A   1      45.523  25.971  27.297  1.00  0.00     0.144 C 
ATOM     12  S   UNL A   1      46.476  27.296  26.474  1.00  0.00    -0.134 SA
ATOM     13  N   UNL A   1      44.295  25.751  26.539  1.00  0.00    -0.310 N 
ATOM     14  C   UNL A   1      45.431  27.382  25.021  1.00  0.00     0.109 C 
BRANCH  11  15
ATOM     15  C   UNL A   1      45.388  26.256  28.798  1.00  0.00     0.033 C 
ATOM     16  C   UNL A   1      45.909  25.229  29.790  1.00  0.00     0.007 C 
ENDBRANCH  11  15
BRANCH  13  17
ATOM     17  C   UNL A   1      43.601  24.530  26.448  1.00  0.00     0.294 C 
ATOM     18  O   UNL A   1      43.797  23.812  25.460  1.00  0.00    -0.267 OA
BRANCH  17  19
ATOM     19  C   UNL A   1      42.552  24.078  27.503  1.00  0.00     0.267 C 
ATOM     20  C   UNL A   1      41.451  23.253  26.813  1.00  0.00     0.100 C 
BRANCH  19  21
ATOM     21  N   UNL A   1      41.989  25.242  28.252  1.00  0.00    -0.337 N 
ATOM     22  H   UNL A   1      42.554  25.418  29.082  1.00  0.00     0.345 HD
ATOM     23  H   UNL A   1      41.029  25.036  28.530  1.00  0.00     0.345 HD
ATOM     24  H   UNL A   1      41.999  26.069  27.653  1.00  0.00     0.345 HD
ENDBRANCH  19  21
BRANCH  19  25
ATOM     25  C   UNL A   1      43.275  23.104  28.496  1.00  0.00     0.453 C 
ATOM     26  F   UNL A   1      43.232  23.613  29.761  1.00  0.00    -0.164 F 
ATOM     27  F   UNL A   1      42.698  21.885  28.565  1.00  0.00    -0.164 F 
ATOM     28  F   UNL A   1      44.587  22.942  28.200  1.00  0.00    -0.164 F 
ENDBRANCH  19  25
ENDBRANCH  17  19
ENDBRANCH  13  17
ENDBRANCH   8  10
ENDBRANCH   7   8
ENDBRANCH   6   7
ENDBRANCH   5   6
ENDBRANCH   4   5
ENDBRANCH   3   4
ENDBRANCH   2   3
ENDBRANCH   1   2
BRANCH   1  29
ATOM     29  C   UNL A   1      37.824  31.064  29.260  1.00  0.00     0.188 C 
BRANCH  29  30
ATOM     30  C   UNL A   1      37.872  32.493  29.850  1.00  0.00     0.188 C 
BRANCH  30  31
ATOM     31  O   UNL A   1      36.595  33.057  30.136  1.00  0.00    -0.376 OA
BRANCH  31  32
ATOM     32  C   UNL A   1      35.591  32.243  30.721  1.00  0.00     0.202 C 
BRANCH  32  33
ATOM     33  C   UNL A   1      35.556  32.143  32.256  1.00  0.00     0.261 C 
BRANCH  33  34
ATOM     34  O   UNL A   1      36.197  33.211  32.969  1.00  0.00    -0.460 OA
BRANCH  34  35
ATOM     35  C   UNL A   1      36.779  32.895  34.145  1.00  0.00     0.338 C 
ATOM     36  O   UNL A   1      36.257  32.932  35.248  1.00  0.00    -0.246 OA
BRANCH  35  37
ATOM     37  C   UNL A   1      38.090  32.276  33.858  1.00  0.00     0.060 A 
ATOM     38  C   UNL A   1      39.249  33.014  34.131  1.00  0.00     0.016 A 
ATOM     39  C   UNL A   1      38.184  30.983  33.337  1.00  0.00     0.016 A 
ATOM     40  C   UNL A   1      40.502  32.478  33.847  1.00  0.00     0.010 A 
ATOM     41  C   UNL A   1      39.443  30.456  33.026  1.00  0.00     0.010 A 
ATOM     42  C   UNL A   1      40.606  31.216  33.247  1.00  0.00    -0.014 A 
BRANCH  42  43
ATOM     43  C   UNL A   1      41.916  30.797  32.690  1.00  0.00     0.031 A 
ATOM     44  C   UNL A   1      42.651  29.667  33.364  1.00  0.00     0.074 A 
ATOM     45  C   UNL A   1      42.406  31.357  31.568  1.00  0.00     0.049 A 
ATOM     46  N   UNL A   1      43.791  29.112  33.045  1.00  0.00    -0.248 NA
ATOM     47  C   UNL A   1      42.010  29.081  34.553  1.00  0.00     0.031 C 
ATOM     48  C   UNL A   1      41.755  32.422  30.803  1.00  0.00     0.029 A 
ATOM     49  N   UNL A   1      43.561  31.104  30.871  1.00  0.00    -0.354 N 
ATOM     50  C   UNL A   1      44.010  28.121  33.997  1.00  0.00     0.074 A 
ATOM     51  C   UNL A   1      42.896  28.167  34.918  1.00  0.00     0.031 C 
ATOM     52  C   UNL A   1      42.526  32.734  29.746  1.00  0.00     0.029 A 
ATOM     53  C   UNL A   1      43.741  31.921  29.778  1.00  0.00     0.049 A 
ATOM     54  H   UNL A   1      44.202  30.403  31.129  1.00  0.00     0.167 HD
ATOM     55  C   UNL A   1      45.046  27.253  34.089  1.00  0.00     0.034 A 
ATOM     56  C   UNL A   1      44.779  32.018  28.921  1.00  0.00     0.034 A 
ATOM     57  C   UNL A   1      46.146  27.218  33.159  1.00  0.00     0.049 A 
ATOM     58  C   UNL A   1      45.956  31.082  29.098  1.00  0.00     0.074 A 
ATOM     59  C   UNL A   1      47.225  26.351  33.140  1.00  0.00     0.029 A 
ATOM     60  N   UNL A   1      46.323  28.094  32.097  1.00  0.00    -0.354 N 
ATOM     61  N   UNL A   1      46.129  30.122  29.980  1.00  0.00    -0.248 NA
ATOM     62  C   UNL A   1      47.073  31.235  28.155  1.00  0.00     0.031 C 
ATOM     63  C   UNL A   1      48.097  26.760  32.127  1.00  0.00     0.029 A 
ATOM     64  C   UNL A   1      47.517  27.818  31.449  1.00  0.00     0.049 A 
ATOM     65  H   UNL A   1      45.693  28.806  31.841  1.00  0.00     0.167 HD
ATOM     66  C   UNL A   1      47.357  29.539  29.670  1.00  0.00     0.074 A 
ATOM     67  C   UNL A   1      47.862  30.232  28.503  1.00  0.00     0.031 C 
ATOM     68  C   UNL A   1      48.013  28.525  30.291  1.00  0.00     0.034 A 
BRANCH  55  69
ATOM     69  C   UNL A   1      45.078  26.311  35.266  1.00  0.00     0.023 A 
ATOM     70  C   UNL A   1      45.596  26.686  36.516  1.00  0.00     0.031 A 
ATOM     71  C   UNL A   1      44.539  25.017  35.135  1.00  0.00     0.131 A 
ATOM     72  C   UNL A   1      45.593  25.766  37.578  1.00  0.00     0.055 A 
ATOM     73  C   UNL A   1      44.477  24.132  36.211  1.00  0.00     0.041 A 
ATOM     74  F   UNL A   1      44.057  24.595  33.955  1.00  0.00    -0.206 F 
ATOM     75  C   UNL A   1      45.010  24.504  37.441  1.00  0.00     0.022 A 
BRANCH  72  76
ATOM     76  S   UNL A   1      46.444  26.206  39.118  1.00  0.00     0.124 S 
ATOM     77  O   UNL A   1      47.650  25.388  39.032  1.00  0.00    -0.237 OA
ATOM     78  O   UNL A   1      46.636  27.645  38.973  1.00  0.00    -0.237 OA
ATOM     79  O   UNL A   1      45.500  25.805  40.158  1.00  0.00    -0.744 OA
ENDBRANCH  72  76
ENDBRANCH  55  69
BRANCH  56  80
ATOM     80  C   UNL A   1      44.805  33.062  27.852  1.00  0.00     0.023 A 
ATOM     81  C   UNL A   1      45.264  34.364  28.113  1.00  0.00     0.031 A 
ATOM     82  C   UNL A   1      44.256  32.807  26.582  1.00  0.00     0.131 A 
ATOM     83  C   UNL A   1      45.090  35.375  27.155  1.00  0.00     0.055 A 
ATOM     84  C   UNL A   1      44.156  33.798  25.603  1.00  0.00     0.041 A 
ATOM     85  F   UNL A   1      43.792  31.584  26.275  1.00  0.00    -0.206 F 
ATOM     86  C   UNL A   1      44.554  35.098  25.896  1.00  0.00     0.022 A 
BRANCH  83  87
ATOM     87  S   UNL A   1      45.431  37.093  27.634  1.00  0.00     0.124 S 
ATOM     88  O   UNL A   1      44.101  37.566  28.000  1.00  0.00    -0.237 OA
ATOM     89  O   UNL A   1      46.374  36.916  28.733  1.00  0.00    -0.237 OA
ATOM     90  O   UNL A   1      45.993  37.679  26.419  1.00  0.00    -0.744 OA
ENDBRANCH  83  87
ENDBRANCH  56  80
BRANCH  68  91
ATOM     91  C   UNL A   1      49.326  28.082  29.686  1.00  0.00     0.023 A 
ATOM     92  C   UNL A   1      49.375  27.220  28.575  1.00  0.00     0.031 A 
ATOM     93  C   UNL A   1      50.545  28.501  30.247  1.00  0.00     0.131 A 
ATOM     94  C   UNL A   1      50.611  26.739  28.118  1.00  0.00     0.055 A 
ATOM     95  C   UNL A   1      51.775  28.085  29.735  1.00  0.00     0.041 A 
ATOM     96  F   UNL A   1      50.564  29.323  31.309  1.00  0.00    -0.206 F 
ATOM     97  C   UNL A   1      51.812  27.181  28.677  1.00  0.00     0.022 A 
BRANCH  94  98
ATOM     98  S   UNL A   1      50.621  25.423  26.870  1.00  0.00     0.124 S 
ATOM     99  O   UNL A   1      49.606  24.509  27.386  1.00  0.00    -0.237 OA
ATOM    100  O   UNL A   1      50.267  26.145  25.652  1.00  0.00    -0.237 OA
ATOM    101  O   UNL A   1      51.991  24.917  26.915  1.00  0.00    -0.744 OA
ENDBRANCH  94  98
ENDBRANCH  68  91
ENDBRANCH  42  43
ENDBRANCH  35  37
ENDBRANCH  34  35
ENDBRANCH  33  34
ENDBRANCH  32  33
ENDBRANCH  31  32
ENDBRANCH  30  31
ENDBRANCH  29  30
ENDBRANCH   1  29
TORSDOF 28
ENDMDL
MODEL 2
REMARK VINA RESULT:      -6.2      3.764      9.426
REMARK SMILES CC[C@@H]1SC[C@H](C(=O)OCCOCCOCCOCCOC(=O)c2ccc(-c3c4nc(c(-c5cc(S(=O)(=O)[O-])ccc5F)c5ccc([nH]5)c(-c5cc(S(=O)(=O)[O-])ccc5F)c5nc(c(-c6cc(S(=O)(=O)[O-])ccc6F)c6ccc3[nH]6)C=C5)C=C4)cc2)N1C(=O)[C@](C)([NH3+])C(F)(F)F
REMARK SMILES IDX 15 1 14 2 13 3 12 4 11 5 10 6 9 7 7 8 8 9 6 10 3 11 4 12
REMARK SMILES IDX 87 13 5 14 2 15 1 16 88 17 89 18 90 19 91 20 92 21 93 25
REMARK SMILES IDX 94 26 95 27 96 28 16 29 17 30 18 31 19 32 20 33 21 34 22 35
REMARK SMILES IDX 23 36 24 37 25 38 86 39 26 40 85 41 27 42 28 43 29 44 79 45
REMARK SMILES IDX 30 46 84 47 78 48 80 49 31 50 83 51 77 52 76 53 32 55 64 56
REMARK SMILES IDX 44 57 63 58 45 59 48 60 62 61 81 62 46 63 47 64 61 66 82 67
REMARK SMILES IDX 49 68 33 69 34 70 42 71 35 72 41 73 43 74 40 75 36 76 37 77
REMARK SMILES IDX 38 78 39 79 65 80 66 81 74 82 67 83 73 84 75 85 72 86 68 87
REMARK SMILES IDX 69 88 70 89 71 90 50 91 51 92 59 93 52 94 58 95 60 96 57 97
REMARK SMILES IDX 53 98 54 99 55 100 56 101
REMARK H PARENT 92 22 92 23 92 24 80 54 48 65
REMARK Flexibility Score: inf
ROOT
ATOM      1  O   UNL A   1      43.496  38.094  32.884  1.00  0.00    -0.377 OA
ENDROOT
BRANCH   1   2
ATOM      2  C   UNL A   1      42.932  37.673  34.112  1.00  0.00     0.188 C 
BRANCH   2   3
ATOM      3  C   UNL A   1      42.951  36.140  34.296  1.00  0.00     0.188 C 
BRANCH   3   4
ATOM      4  O   UNL A   1      41.748  35.416  34.524  1.00  0.00    -0.376 OA
BRANCH   4   5
ATOM      5  C   UNL A   1      40.895  35.032  33.454  1.00  0.00     0.202 C 
BRANCH   5   6
ATOM      6  C   UNL A   1      40.475  33.573  33.178  1.00  0.00     0.261 C 
BRANCH   6   7
ATOM      7  O   UNL A   1      40.231  32.751  34.323  1.00  0.00    -0.462 OA
BRANCH   7   8
ATOM      8  C   UNL A   1      40.081  31.410  34.125  1.00  0.00     0.329 C 
ATOM      9  O   UNL A   1      40.979  30.621  33.862  1.00  0.00    -0.250 OA
BRANCH   8  10
ATOM     10  C   UNL A   1      38.616  31.031  34.377  1.00  0.00     0.206 C 
ATOM     11  C   UNL A   1      36.755  31.840  33.003  1.00  0.00     0.144 C 
ATOM     12  S   UNL A   1      36.748  32.895  34.495  1.00  0.00    -0.134 SA
ATOM     13  N   UNL A   1      37.827  30.860  33.138  1.00  0.00    -0.310 N 
ATOM     14  C   UNL A   1      37.944  31.916  35.402  1.00  0.00     0.109 C 
BRANCH  11  15
ATOM     15  C   UNL A   1      36.736  32.701  31.733  1.00  0.00     0.033 C 
ATOM     16  C   UNL A   1      37.259  34.127  31.805  1.00  0.00     0.007 C 
ENDBRANCH  11  15
BRANCH  13  17
ATOM     17  C   UNL A   1      37.831  29.571  32.572  1.00  0.00     0.294 C 
ATOM     18  O   UNL A   1      37.443  28.622  33.264  1.00  0.00    -0.267 OA
BRANCH  17  19
ATOM     19  C   UNL A   1      38.362  29.283  31.140  1.00  0.00     0.267 C 
ATOM     20  C   UNL A   1      39.307  30.417  30.704  1.00  0.00     0.100 C 
BRANCH  19  21
ATOM     21  N   UNL A   1      37.244  29.087  30.168  1.00  0.00    -0.337 N 
ATOM     22  H   UNL A   1      37.136  28.092  29.971  1.00  0.00     0.345 HD
ATOM     23  H   UNL A   1      37.454  29.584  29.302  1.00  0.00     0.345 HD
ATOM     24  H   UNL A   1      36.378  29.450  30.567  1.00  0.00     0.345 HD
ENDBRANCH  19  21
BRANCH  19  25
ATOM     25  C   UNL A   1      39.237  27.985  31.216  1.00  0.00     0.453 C 
ATOM     26  F   UNL A   1      40.052  28.037  32.309  1.00  0.00    -0.164 F 
ATOM     27  F   UNL A   1      38.508  26.855  31.349  1.00  0.00    -0.164 F 
ATOM     28  F   UNL A   1      40.053  27.845  30.143  1.00  0.00    -0.164 F 
ENDBRANCH  19  25
ENDBRANCH  17  19
ENDBRANCH  13  17
ENDBRANCH   8  10
ENDBRANCH   7   8
ENDBRANCH   6   7
ENDBRANCH   5   6
ENDBRANCH   4   5
ENDBRANCH   3   4
ENDBRANCH   2   3
ENDBRANCH   1   2
BRANCH   1  29
ATOM     29  C   UNL A   1      43.411  39.495  32.641  1.00  0.00     0.188 C 
BRANCH  29  30
ATOM     30  C   UNL A   1      44.455  40.123  31.686  1.00  0.00     0.188 C 
BRANCH  30  31
ATOM     31  O   UNL A   1      44.416  39.616  30.355  1.00  0.00    -0.376 OA
BRANCH  31  32
ATOM     32  C   UNL A   1      43.249  39.808  29.571  1.00  0.00     0.202 C 
BRANCH  32  33
ATOM     33  C   UNL A   1      42.773  38.633  28.700  1.00  0.00     0.261 C 
BRANCH  33  34
ATOM     34  O   UNL A   1      43.790  37.718  28.269  1.00  0.00    -0.460 OA
BRANCH  34  35
ATOM     35  C   UNL A   1      43.375  36.598  27.640  1.00  0.00     0.338 C 
ATOM     36  O   UNL A   1      43.129  36.482  26.449  1.00  0.00    -0.246 OA
BRANCH  35  37
ATOM     37  C   UNL A   1      43.484  35.470  28.588  1.00  0.00     0.060 A 
ATOM     38  C   UNL A   1      44.760  35.025  28.952  1.00  0.00     0.016 A 
ATOM     39  C   UNL A   1      42.346  34.859  29.122  1.00  0.00     0.016 A 
ATOM     40  C   UNL A   1      44.905  33.946  29.819  1.00  0.00     0.010 A 
ATOM     41  C   UNL A   1      42.492  33.757  29.973  1.00  0.00     0.010 A 
ATOM     42  C   UNL A   1      43.772  33.274  30.296  1.00  0.00    -0.014 A 
BRANCH  42  43
ATOM     43  C   UNL A   1      43.952  31.964  30.971  1.00  0.00     0.031 A 
ATOM     44  C   UNL A   1      44.126  30.737  30.114  1.00  0.00     0.074 A 
ATOM     45  C   UNL A   1      44.032  31.878  32.312  1.00  0.00     0.049 A 
ATOM     46  N   UNL A   1      44.323  29.495  30.474  1.00  0.00    -0.248 NA
ATOM     47  C   UNL A   1      44.077  30.939  28.657  1.00  0.00     0.031 C 
ATOM     48  C   UNL A   1      43.929  33.006  33.238  1.00  0.00     0.029 A 
ATOM     49  N   UNL A   1      44.225  30.792  33.130  1.00  0.00    -0.354 N 
ATOM     50  C   UNL A   1      44.411  28.767  29.291  1.00  0.00     0.074 A 
ATOM     51  C   UNL A   1      44.223  29.702  28.204  1.00  0.00     0.031 C 
ATOM     52  C   UNL A   1      44.055  32.551  34.497  1.00  0.00     0.029 A 
ATOM     53  C   UNL A   1      44.208  31.097  34.472  1.00  0.00     0.049 A 
ATOM     54  H   UNL A   1      44.363  29.879  32.788  1.00  0.00     0.167 HD
ATOM     55  C   UNL A   1      44.632  27.440  29.132  1.00  0.00     0.034 A 
ATOM     56  C   UNL A   1      44.280  30.291  35.552  1.00  0.00     0.034 A 
ATOM     57  C   UNL A   1      44.822  26.522  30.226  1.00  0.00     0.049 A 
ATOM     58  C   UNL A   1      44.451  28.802  35.337  1.00  0.00     0.074 A 
ATOM     59  C   UNL A   1      45.092  25.166  30.170  1.00  0.00     0.029 A 
ATOM     60  N   UNL A   1      44.744  26.856  31.572  1.00  0.00    -0.354 N 
ATOM     61  N   UNL A   1      44.574  28.135  34.211  1.00  0.00    -0.248 NA
ATOM     62  C   UNL A   1      44.506  27.960  36.540  1.00  0.00     0.031 C 
ATOM     63  C   UNL A   1      45.086  24.664  31.475  1.00  0.00     0.029 A 
ATOM     64  C   UNL A   1      44.912  25.722  32.351  1.00  0.00     0.049 A 
ATOM     65  H   UNL A   1      44.594  27.764  31.920  1.00  0.00     0.167 HD
ATOM     66  C   UNL A   1      44.756  26.802  34.579  1.00  0.00     0.074 A 
ATOM     67  C   UNL A   1      44.760  26.768  36.026  1.00  0.00     0.031 C 
ATOM     68  C   UNL A   1      44.904  25.702  33.795  1.00  0.00     0.034 A 
BRANCH  55  69
ATOM     69  C   UNL A   1      44.618  26.884  27.730  1.00  0.00     0.023 A 
ATOM     70  C   UNL A   1      45.776  26.806  26.940  1.00  0.00     0.031 A 
ATOM     71  C   UNL A   1      43.416  26.385  27.192  1.00  0.00     0.131 A 
ATOM     72  C   UNL A   1      45.702  26.271  25.643  1.00  0.00     0.055 A 
ATOM     73  C   UNL A   1      43.363  25.794  25.930  1.00  0.00     0.041 A 
ATOM     74  F   UNL A   1      42.273  26.461  27.892  1.00  0.00    -0.206 F 
ATOM     75  C   UNL A   1      44.510  25.738  25.146  1.00  0.00     0.022 A 
BRANCH  72  76
ATOM     76  S   UNL A   1      47.165  26.363  24.574  1.00  0.00     0.124 S 
ATOM     77  O   UNL A   1      46.811  27.465  23.685  1.00  0.00    -0.237 OA
ATOM     78  O   UNL A   1      48.237  26.630  25.527  1.00  0.00    -0.237 OA
ATOM     79  O   UNL A   1      47.209  25.049  23.940  1.00  0.00    -0.744 OA
ENDBRANCH  72  76
ENDBRANCH  55  69
BRANCH  56  80
ATOM     80  C   UNL A   1      44.136  30.838  36.936  1.00  0.00     0.023 A 
ATOM     81  C   UNL A   1      42.893  31.274  37.424  1.00  0.00     0.031 A 
ATOM     82  C   UNL A   1      45.265  31.045  37.749  1.00  0.00     0.131 A 
ATOM     83  C   UNL A   1      42.821  31.966  38.644  1.00  0.00     0.055 A 
ATOM     84  C   UNL A   1      45.177  31.664  38.998  1.00  0.00     0.041 A 
ATOM     85  F   UNL A   1      46.483  30.658  37.335  1.00  0.00    -0.206 F 
ATOM     86  C   UNL A   1      43.952  32.150  39.441  1.00  0.00     0.022 A 
BRANCH  83  87
ATOM     87  S   UNL A   1      41.253  32.760  39.100  1.00  0.00     0.124 S 
ATOM     88  O   UNL A   1      41.638  34.166  39.147  1.00  0.00    -0.237 OA
ATOM     89  O   UNL A   1      40.386  32.368  37.994  1.00  0.00    -0.237 OA
ATOM     90  O   UNL A   1      40.930  32.155  40.390  1.00  0.00    -0.744 OA
ENDBRANCH  83  87
ENDBRANCH  56  80
BRANCH  68  91
ATOM     91  C   UNL A   1      45.128  24.382  34.498  1.00  0.00     0.023 A 
ATOM     92  C   UNL A   1      46.393  24.010  34.988  1.00  0.00     0.031 A 
ATOM     93  C   UNL A   1      44.069  23.470  34.650  1.00  0.00     0.131 A 
ATOM     94  C   UNL A   1      46.584  22.729  35.527  1.00  0.00     0.055 A 
ATOM     95  C   UNL A   1      44.247  22.229  35.263  1.00  0.00     0.041 A 
ATOM     96  F   UNL A   1      42.838  23.767  34.203  1.00  0.00    -0.206 F 
ATOM     97  C   UNL A   1      45.516  21.843  35.687  1.00  0.00     0.022 A 
BRANCH  94  98
ATOM     98  S   UNL A   1      48.276  22.186  35.892  1.00  0.00     0.124 S 
ATOM     99  O   UNL A   1      48.904  22.247  34.576  1.00  0.00    -0.237 OA
ATOM    100  O   UNL A   1      48.723  23.185  36.858  1.00  0.00    -0.237 OA
ATOM    101  O   UNL A   1      48.095  20.840  36.431  1.00  0.00    -0.744 OA
ENDBRANCH  94  98
ENDBRANCH  68  91
ENDBRANCH  42  43
ENDBRANCH  35  37
ENDBRANCH  34  35
ENDBRANCH  33  34
ENDBRANCH  32  33
ENDBRANCH  31  32
ENDBRANCH  30  31
ENDBRANCH  29  30
ENDBRANCH   1  29
TORSDOF 28
ENDMDL
MODEL 3
REMARK VINA RESULT:      -6.1      4.981      9.479
REMARK SMILES CC[C@@H]1SC[C@H](C(=O)OCCOCCOCCOCCOC(=O)c2ccc(-c3c4nc(c(-c5cc(S(=O)(=O)[O-])ccc5F)c5ccc([nH]5)c(-c5cc(S(=O)(=O)[O-])ccc5F)c5nc(c(-c6cc(S(=O)(=O)[O-])ccc6F)c6ccc3[nH]6)C=C5)C=C4)cc2)N1C(=O)[C@](C)([NH3+])C(F)(F)F
REMARK SMILES IDX 15 1 14 2 13 3 12 4 11 5 10 6 9 7 7 8 8 9 6 10 3 11 4 12
REMARK SMILES IDX 87 13 5 14 2 15 1 16 88 17 89 18 90 19 91 20 92 21 93 25
REMARK SMILES IDX 94 26 95 27 96 28 16 29 17 30 18 31 19 32 20 33 21 34 22 35
REMARK SMILES IDX 23 36 24 37 25 38 86 39 26 40 85 41 27 42 28 43 29 44 79 45
REMARK SMILES IDX 30 46 84 47 78 48 80 49 31 50 83 51 77 52 76 53 32 55 64 56
REMARK SMILES IDX 44 57 63 58 45 59 48 60 62 61 81 62 46 63 47 64 61 66 82 67
REMARK SMILES IDX 49 68 33 69 34 70 42 71 35 72 41 73 43 74 40 75 36 76 37 77
REMARK SMILES IDX 38 78 39 79 65 80 66 81 74 82 67 83 73 84 75 85 72 86 68 87
REMARK SMILES IDX 69 88 70 89 71 90 50 91 51 92 59 93 52 94 58 95 60 96 57 97
REMARK SMILES IDX 53 98 54 99 55 100 56 101
REMARK H PARENT 92 22 92 23 92 24 80 54 48 65
REMARK Flexibility Score: inf
ROOT
ATOM      1  O   UNL A   1      35.908  31.318  28.967  1.00  0.00    -0.377 OA
ENDROOT
BRANCH   1   2
ATOM      2  C   UNL A   1      36.242  30.083  28.360  1.00  0.00     0.188 C 
BRANCH   2   3
ATOM      3  C   UNL A   1      35.192  29.607  27.333  1.00  0.00     0.188 C 
BRANCH   3   4
ATOM      4  O   UNL A   1      34.012  28.933  27.753  1.00  0.00    -0.376 OA
BRANCH   4   5
ATOM      5  C   UNL A   1      33.019  28.521  26.824  1.00  0.00     0.202 C 
BRANCH   5   6
ATOM      6  C   UNL A   1      32.233  27.198  26.944  1.00  0.00     0.261 C 
BRANCH   6   7
ATOM      7  O   UNL A   1      30.969  27.143  26.277  1.00  0.00    -0.462 OA
BRANCH   7   8
ATOM      8  C   UNL A   1      30.464  25.914  25.970  1.00  0.00     0.329 C 
ATOM      9  O   UNL A   1      30.036  25.095  26.773  1.00  0.00    -0.250 OA
BRANCH   8  10
ATOM     10  C   UNL A   1      30.430  25.757  24.444  1.00  0.00     0.206 C 
ATOM     11  C   UNL A   1      31.596  27.267  22.905  1.00  0.00     0.144 C 
ATOM     12  S   UNL A   1      29.854  27.819  22.896  1.00  0.00    -0.134 SA
ATOM     13  N   UNL A   1      31.706  26.108  23.785  1.00  0.00    -0.310 N 
ATOM     14  C   UNL A   1      29.224  26.411  23.809  1.00  0.00     0.109 C 
BRANCH  11  15
ATOM     15  C   UNL A   1      32.535  28.451  23.169  1.00  0.00     0.033 C 
ATOM     16  C   UNL A   1      33.918  28.445  22.538  1.00  0.00     0.007 C 
ENDBRANCH  11  15
BRANCH  13  17
ATOM     17  C   UNL A   1      32.642  25.066  23.648  1.00  0.00     0.294 C 
ATOM     18  O   UNL A   1      33.844  25.332  23.771  1.00  0.00    -0.267 OA
BRANCH  17  19
ATOM     19  C   UNL A   1      32.234  23.611  23.282  1.00  0.00     0.267 C 
ATOM     20  C   UNL A   1      33.265  23.017  22.306  1.00  0.00     0.100 C 
BRANCH  19  21
ATOM     21  N   UNL A   1      30.846  23.552  22.731  1.00  0.00    -0.337 N 
ATOM     22  H   UNL A   1      30.880  23.650  21.716  1.00  0.00     0.345 HD
ATOM     23  H   UNL A   1      30.289  24.308  23.128  1.00  0.00     0.345 HD
ATOM     24  H   UNL A   1      30.422  22.655  22.971  1.00  0.00     0.345 HD
ENDBRANCH  19  21
BRANCH  19  25
ATOM     25  C   UNL A   1      32.324  22.756  24.593  1.00  0.00     0.453 C 
ATOM     26  F   UNL A   1      31.087  22.630  25.153  1.00  0.00    -0.164 F 
ATOM     27  F   UNL A   1      32.767  21.497  24.381  1.00  0.00    -0.164 F 
ATOM     28  F   UNL A   1      33.108  23.332  25.536  1.00  0.00    -0.164 F 
ENDBRANCH  19  25
ENDBRANCH  17  19
ENDBRANCH  13  17
ENDBRANCH   8  10
ENDBRANCH   7   8
ENDBRANCH   6   7
ENDBRANCH   5   6
ENDBRANCH   4   5
ENDBRANCH   3   4
ENDBRANCH   2   3
ENDBRANCH   1   2
BRANCH   1  29
ATOM     29  C   UNL A   1      36.900  32.332  28.836  1.00  0.00     0.188 C 
BRANCH  29  30
ATOM     30  C   UNL A   1      36.495  33.782  29.192  1.00  0.00     0.188 C 
BRANCH  30  31
ATOM     31  O   UNL A   1      35.157  33.923  29.658  1.00  0.00    -0.376 OA
BRANCH  31  32
ATOM     32  C   UNL A   1      34.926  34.382  30.981  1.00  0.00     0.202 C 
BRANCH  32  33
ATOM     33  C   UNL A   1      35.298  33.440  32.139  1.00  0.00     0.261 C 
BRANCH  33  34
ATOM     34  O   UNL A   1      36.606  33.621  32.701  1.00  0.00    -0.460 OA
BRANCH  34  35
ATOM     35  C   UNL A   1      36.908  32.885  33.791  1.00  0.00     0.338 C 
ATOM     36  O   UNL A   1      36.233  32.774  34.803  1.00  0.00    -0.246 OA
BRANCH  35  37
ATOM     37  C   UNL A   1      38.086  32.053  33.473  1.00  0.00     0.060 A 
ATOM     38  C   UNL A   1      39.297  32.338  34.115  1.00  0.00     0.016 A 
ATOM     39  C   UNL A   1      38.004  30.997  32.561  1.00  0.00     0.016 A 
ATOM     40  C   UNL A   1      40.438  31.596  33.820  1.00  0.00     0.010 A 
ATOM     41  C   UNL A   1      39.157  30.269  32.245  1.00  0.00     0.010 A 
ATOM     42  C   UNL A   1      40.387  30.589  32.847  1.00  0.00    -0.014 A 
BRANCH  42  43
ATOM     43  C   UNL A   1      41.662  30.019  32.343  1.00  0.00     0.031 A 
ATOM     44  C   UNL A   1      42.361  30.725  31.210  1.00  0.00     0.074 A 
ATOM     45  C   UNL A   1      42.221  28.943  32.927  1.00  0.00     0.049 A 
ATOM     46  N   UNL A   1      43.491  30.432  30.623  1.00  0.00    -0.248 NA
ATOM     47  C   UNL A   1      41.698  31.925  30.672  1.00  0.00     0.031 C 
ATOM     48  C   UNL A   1      41.659  28.212  34.063  1.00  0.00     0.029 A 
ATOM     49  N   UNL A   1      43.391  28.281  32.650  1.00  0.00    -0.354 N 
ATOM     50  C   UNL A   1      43.672  31.402  29.642  1.00  0.00     0.074 A 
ATOM     51  C   UNL A   1      42.522  32.279  29.697  1.00  0.00     0.031 C 
ATOM     52  C   UNL A   1      42.484  27.198  34.381  1.00  0.00     0.029 A 
ATOM     53  C   UNL A   1      43.611  27.183  33.450  1.00  0.00     0.049 A 
ATOM     54  H   UNL A   1      44.015  28.565  31.943  1.00  0.00     0.167 HD
ATOM     55  C   UNL A   1      44.704  31.546  28.777  1.00  0.00     0.034 A 
ATOM     56  C   UNL A   1      44.595  26.259  33.415  1.00  0.00     0.034 A 
ATOM     57  C   UNL A   1      45.845  30.666  28.737  1.00  0.00     0.049 A 
ATOM     58  C   UNL A   1      45.695  26.408  32.385  1.00  0.00     0.074 A 
ATOM     59  C   UNL A   1      46.964  30.749  27.926  1.00  0.00     0.029 A 
ATOM     60  N   UNL A   1      46.009  29.534  29.524  1.00  0.00    -0.354 N 
ATOM     61  N   UNL A   1      45.871  27.356  31.490  1.00  0.00    -0.248 NA
ATOM     62  C   UNL A   1      46.734  25.370  32.370  1.00  0.00     0.031 C 
ATOM     63  C   UNL A   1      47.756  29.621  28.157  1.00  0.00     0.029 A 
ATOM     64  C   UNL A   1      47.185  28.885  29.182  1.00  0.00     0.049 A 
ATOM     65  H   UNL A   1      45.382  29.237  30.223  1.00  0.00     0.167 HD
ATOM     66  C   UNL A   1      47.061  27.040  30.834  1.00  0.00     0.074 A 
ATOM     67  C   UNL A   1      47.572  25.839  31.459  1.00  0.00     0.031 C 
ATOM     68  C   UNL A   1      47.678  27.681  29.807  1.00  0.00     0.034 A 
BRANCH  55  69
ATOM     69  C   UNL A   1      44.625  32.656  27.758  1.00  0.00     0.023 A 
ATOM     70  C   UNL A   1      45.072  33.959  28.030  1.00  0.00     0.031 A 
ATOM     71  C   UNL A   1      44.124  32.383  26.471  1.00  0.00     0.131 A 
ATOM     72  C   UNL A   1      44.979  34.950  27.038  1.00  0.00     0.055 A 
ATOM     73  C   UNL A   1      44.097  33.354  25.470  1.00  0.00     0.041 A 
ATOM     74  F   UNL A   1      43.657  31.162  26.166  1.00  0.00    -0.206 F 
ATOM     75  C   UNL A   1      44.522  34.648  25.753  1.00  0.00     0.022 A 
BRANCH  72  76
ATOM     76  S   UNL A   1      45.375  36.665  27.476  1.00  0.00     0.124 S 
ATOM     77  O   UNL A   1      45.714  36.538  28.891  1.00  0.00    -0.237 OA
ATOM     78  O   UNL A   1      46.483  36.973  26.579  1.00  0.00    -0.237 OA
ATOM     79  O   UNL A   1      44.133  37.384  27.202  1.00  0.00    -0.744 OA
ENDBRANCH  72  76
ENDBRANCH  55  69
BRANCH  56  80
ATOM     80  C   UNL A   1      44.578  25.076  34.328  1.00  0.00     0.023 A 
ATOM     81  C   UNL A   1      45.078  25.158  35.639  1.00  0.00     0.031 A 
ATOM     82  C   UNL A   1      44.173  23.812  33.862  1.00  0.00     0.131 A 
ATOM     83  C   UNL A   1      45.237  23.991  36.404  1.00  0.00     0.055 A 
ATOM     84  C   UNL A   1      44.261  22.666  34.655  1.00  0.00     0.041 A 
ATOM     85  F   UNL A   1      43.695  23.667  32.616  1.00  0.00    -0.206 F 
ATOM     86  C   UNL A   1      44.817  22.748  35.927  1.00  0.00     0.022 A 
BRANCH  83  87
ATOM     87  S   UNL A   1      46.145  24.099  37.972  1.00  0.00     0.124 S 
ATOM     88  O   UNL A   1      47.028  22.941  37.881  1.00  0.00    -0.237 OA
ATOM     89  O   UNL A   1      46.785  25.405  37.859  1.00  0.00    -0.237 OA
ATOM     90  O   UNL A   1      45.092  24.006  38.981  1.00  0.00    -0.744 OA
ENDBRANCH  83  87
ENDBRANCH  56  80
BRANCH  68  91
ATOM     91  C   UNL A   1      48.996  27.112  29.334  1.00  0.00     0.023 A 
ATOM     92  C   UNL A   1      50.201  27.375  30.010  1.00  0.00     0.031 A 
ATOM     93  C   UNL A   1      49.052  26.322  28.172  1.00  0.00     0.131 A 
ATOM     94  C   UNL A   1      51.417  26.926  29.472  1.00  0.00     0.055 A 
ATOM     95  C   UNL A   1      50.256  25.809  27.687  1.00  0.00     0.041 A 
ATOM     96  F   UNL A   1      47.936  26.036  27.482  1.00  0.00    -0.206 F 
ATOM     97  C   UNL A   1      51.451  26.128  28.326  1.00  0.00     0.022 A 
BRANCH  94  98
ATOM     98  S   UNL A   1      52.963  27.515  30.215  1.00  0.00     0.124 S 
ATOM     99  O   UNL A   1      52.493  28.601  31.069  1.00  0.00    -0.237 OA
ATOM    100  O   UNL A   1      53.450  26.325  30.906  1.00  0.00    -0.237 OA
ATOM    101  O   UNL A   1      53.760  27.932  29.063  1.00  0.00    -0.744 OA
ENDBRANCH  94  98
ENDBRANCH  68  91
ENDBRANCH  42  43
ENDBRANCH  35  37
ENDBRANCH  34  35
ENDBRANCH  33  34
ENDBRANCH  32  33
ENDBRANCH  31  32
ENDBRANCH  30  31
ENDBRANCH  29  30
ENDBRANCH   1  29
TORSDOF 28
ENDMDL
