MODEL 1
REMARK VINA RESULT:     -10.6      0.000      0.000
REMARK SMILES Cc1c([C@H]2[C@H](C(=O)OCCOCCOCCOCCOC(=O)c3ccc(-c4c5nc(c(-c6cc(S(=O)(=O)[O-])ccc6F)c6ccc([nH]6)c(-c6cc(S(=O)(=O)[O-])ccc6F)c6nc(c(-c7cc(S(=O)(=O)[O-])ccc7F)c7ccc4[nH]7)C=C6)C=C5)cc3)OCC(=O)N2CC(C)C)cnn1C
REMARK SMILES IDX 15 1 14 2 13 3 12 4 11 5 10 6 9 7 8 8 6 9 7 10 5 11 4 12
REMARK SMILES IDX 90 13 86 14 88 15 87 16 89 17 3 18 1 19 2 20 97 21 95 22
REMARK SMILES IDX 96 23 98 24 91 25 92 26 93 27 94 28 16 29 17 30 18 31 19 32
REMARK SMILES IDX 20 33 21 34 22 35 23 36 24 37 85 38 25 39 84 40 26 41 27 42
REMARK SMILES IDX 28 43 78 44 29 45 83 46 77 47 79 48 30 49 82 50 76 51 75 52
REMARK SMILES IDX 31 54 63 55 43 56 62 57 44 58 47 59 61 60 80 61 45 62 46 63
REMARK SMILES IDX 60 65 81 66 48 67 32 68 33 69 41 70 34 71 40 72 42 73 39 74
REMARK SMILES IDX 35 75 36 76 37 77 38 78 64 79 65 80 73 81 66 82 72 83 74 84
REMARK SMILES IDX 71 85 67 86 68 87 69 88 70 89 49 90 50 91 58 92 51 93 57 94
REMARK SMILES IDX 59 95 56 96 52 97 53 98 54 99 55 100
REMARK H PARENT 79 53 47 64
REMARK Flexibility Score: inf
ROOT
ATOM      1  C   UNL A   1      35.461  20.452  24.993  1.00  0.00     0.188 C 
ENDROOT
BRANCH   1   2
ATOM      2  O   UNL A   1      34.168  20.644  25.560  1.00  0.00    -0.377 OA
BRANCH   2   3
ATOM      3  C   UNL A   1      33.098  20.171  24.777  1.00  0.00     0.188 C 
BRANCH   3   4
ATOM      4  C   UNL A   1      32.256  21.274  24.128  1.00  0.00     0.188 C 
BRANCH   4   5
ATOM      5  O   UNL A   1      31.881  21.204  22.764  1.00  0.00    -0.376 OA
BRANCH   5   6
ATOM      6  C   UNL A   1      32.541  21.977  21.772  1.00  0.00     0.202 C 
BRANCH   6   7
ATOM      7  C   UNL A   1      33.402  23.217  22.077  1.00  0.00     0.261 C 
BRANCH   7   8
ATOM      8  O   UNL A   1      33.242  24.374  21.242  1.00  0.00    -0.461 OA
BRANCH   8   9
ATOM      9  C   UNL A   1      33.141  25.551  21.903  1.00  0.00     0.337 C 
ATOM     10  O   UNL A   1      33.771  26.562  21.604  1.00  0.00    -0.249 OA
BRANCH   9  11
ATOM     11  C   UNL A   1      32.173  25.517  23.094  1.00  0.00     0.255 C 
ATOM     12  C   UNL A   1      32.568  26.290  24.386  1.00  0.00     0.159 C 
ATOM     13  N   UNL A   1      32.037  27.665  24.506  1.00  0.00    -0.330 N 
ATOM     14  O   UNL A   1      30.822  25.793  22.733  1.00  0.00    -0.354 OA
ATOM     15  C   UNL A   1      31.114  28.151  23.580  1.00  0.00     0.249 C 
ATOM     16  C   UNL A   1      30.657  27.176  22.484  1.00  0.00     0.261 C 
ATOM     17  O   UNL A   1      30.726  29.319  23.568  1.00  0.00    -0.272 OA
BRANCH  12  18
ATOM     18  C   UNL A   1      32.234  25.407  25.575  1.00  0.00     0.019 A 
ATOM     19  C   UNL A   1      34.532  24.243  26.171  1.00  0.00     0.067 C 
ATOM     20  C   UNL A   1      33.073  24.519  26.259  1.00  0.00     0.040 A 
ATOM     21  N   UNL A   1      32.245  23.769  27.059  1.00  0.00    -0.273 N 
ATOM     22  C   UNL A   1      30.959  25.161  26.136  1.00  0.00     0.141 A 
ATOM     23  N   UNL A   1      30.973  24.191  27.051  1.00  0.00    -0.181 NA
ATOM     24  C   UNL A   1      32.586  22.543  27.745  1.00  0.00     0.174 C 
ENDBRANCH  12  18
BRANCH  13  25
ATOM     25  C   UNL A   1      32.718  28.650  25.383  1.00  0.00     0.123 C 
BRANCH  25  26
ATOM     26  C   UNL A   1      31.849  29.269  26.501  1.00  0.00     0.002 C 
ATOM     27  C   UNL A   1      31.641  28.296  27.666  1.00  0.00     0.009 C 
ATOM     28  C   UNL A   1      32.513  30.531  27.078  1.00  0.00     0.009 C 
ENDBRANCH  25  26
ENDBRANCH  13  25
ENDBRANCH   9  11
ENDBRANCH   8   9
ENDBRANCH   7   8
ENDBRANCH   6   7
ENDBRANCH   5   6
ENDBRANCH   4   5
ENDBRANCH   3   4
ENDBRANCH   2   3
ENDBRANCH   1   2
BRANCH   1  29
ATOM     29  C   UNL A   1      36.535  21.538  25.252  1.00  0.00     0.188 C 
BRANCH  29  30
ATOM     30  O   UNL A   1      37.874  21.142  24.970  1.00  0.00    -0.376 OA
BRANCH  30  31
ATOM     31  C   UNL A   1      38.182  19.759  24.852  1.00  0.00     0.202 C 
BRANCH  31  32
ATOM     32  C   UNL A   1      39.256  19.154  25.776  1.00  0.00     0.261 C 
BRANCH  32  33
ATOM     33  O   UNL A   1      40.617  19.535  25.527  1.00  0.00    -0.460 OA
BRANCH  33  34
ATOM     34  C   UNL A   1      41.436  19.672  26.592  1.00  0.00     0.338 C 
ATOM     35  O   UNL A   1      42.167  18.815  27.061  1.00  0.00    -0.246 OA
BRANCH  34  36
ATOM     36  C   UNL A   1      41.469  21.104  26.954  1.00  0.00     0.060 A 
ATOM     37  C   UNL A   1      41.105  22.056  25.990  1.00  0.00     0.016 A 
ATOM     38  C   UNL A   1      41.843  21.509  28.237  1.00  0.00     0.016 A 
ATOM     39  C   UNL A   1      41.150  23.415  26.295  1.00  0.00     0.010 A 
ATOM     40  C   UNL A   1      41.918  22.874  28.531  1.00  0.00     0.010 A 
ATOM     41  C   UNL A   1      41.608  23.832  27.550  1.00  0.00    -0.014 A 
BRANCH  41  42
ATOM     42  C   UNL A   1      41.979  25.254  27.754  1.00  0.00     0.031 A 
ATOM     43  C   UNL A   1      43.334  25.704  27.276  1.00  0.00     0.074 A 
ATOM     44  C   UNL A   1      41.130  26.132  28.318  1.00  0.00     0.049 A 
ATOM     45  N   UNL A   1      43.914  26.869  27.391  1.00  0.00    -0.248 NA
ATOM     46  C   UNL A   1      44.145  24.694  26.575  1.00  0.00     0.031 C 
ATOM     47  C   UNL A   1      39.769  25.829  28.758  1.00  0.00     0.029 A 
ATOM     48  N   UNL A   1      41.293  27.461  28.620  1.00  0.00    -0.354 N 
ATOM     49  C   UNL A   1      45.162  26.730  26.793  1.00  0.00     0.074 A 
ATOM     50  C   UNL A   1      45.265  25.359  26.343  1.00  0.00     0.031 C 
ATOM     51  C   UNL A   1      39.224  26.941  29.283  1.00  0.00     0.029 A 
ATOM     52  C   UNL A   1      40.210  28.020  29.258  1.00  0.00     0.049 A 
ATOM     53  H   UNL A   1      42.108  27.966  28.400  1.00  0.00     0.167 HD
ATOM     54  C   UNL A   1      46.132  27.663  26.633  1.00  0.00     0.034 A 
ATOM     55  C   UNL A   1      40.051  29.252  29.787  1.00  0.00     0.034 A 
ATOM     56  C   UNL A   1      46.014  29.024  27.094  1.00  0.00     0.049 A 
ATOM     57  C   UNL A   1      41.189  30.244  29.688  1.00  0.00     0.074 A 
ATOM     58  C   UNL A   1      46.924  30.058  26.964  1.00  0.00     0.029 A 
ATOM     59  N   UNL A   1      44.927  29.539  27.790  1.00  0.00    -0.354 N 
ATOM     60  N   UNL A   1      42.362  30.106  29.111  1.00  0.00    -0.248 NA
ATOM     61  C   UNL A   1      40.979  31.560  30.308  1.00  0.00     0.031 C 
ATOM     62  C   UNL A   1      46.430  31.166  27.658  1.00  0.00     0.029 A 
ATOM     63  C   UNL A   1      45.166  30.860  28.135  1.00  0.00     0.049 A 
ATOM     64  H   UNL A   1      44.107  29.038  28.006  1.00  0.00     0.167 HD
ATOM     65  C   UNL A   1      43.007  31.333  29.263  1.00  0.00     0.074 A 
ATOM     66  C   UNL A   1      42.090  32.198  29.973  1.00  0.00     0.031 C 
ATOM     67  C   UNL A   1      44.243  31.712  28.847  1.00  0.00     0.034 A 
BRANCH  54  68
ATOM     68  C   UNL A   1      47.426  27.222  25.995  1.00  0.00     0.023 A 
ATOM     69  C   UNL A   1      48.380  26.457  26.688  1.00  0.00     0.031 A 
ATOM     70  C   UNL A   1      47.717  27.594  24.669  1.00  0.00     0.131 A 
ATOM     71  C   UNL A   1      49.603  26.143  26.076  1.00  0.00     0.055 A 
ATOM     72  C   UNL A   1      48.900  27.207  24.038  1.00  0.00     0.041 A 
ATOM     73  F   UNL A   1      46.859  28.350  23.967  1.00  0.00    -0.206 F 
ATOM     74  C   UNL A   1      49.859  26.488  24.747  1.00  0.00     0.022 A 
BRANCH  71  75
ATOM     75  S   UNL A   1      50.916  25.405  27.088  1.00  0.00     0.124 S 
ATOM     76  O   UNL A   1      50.214  24.287  27.713  1.00  0.00    -0.237 OA
ATOM     77  O   UNL A   1      51.921  25.051  26.091  1.00  0.00    -0.237 OA
ATOM     78  O   UNL A   1      51.293  26.483  27.999  1.00  0.00    -0.744 OA
ENDBRANCH  71  75
ENDBRANCH  54  68
BRANCH  55  79
ATOM     79  C   UNL A   1      38.791  29.622  30.500  1.00  0.00     0.023 A 
ATOM     80  C   UNL A   1      37.899  30.559  29.955  1.00  0.00     0.031 A 
ATOM     81  C   UNL A   1      38.503  29.108  31.777  1.00  0.00     0.131 A 
ATOM     82  C   UNL A   1      36.797  30.998  30.706  1.00  0.00     0.055 A 
ATOM     83  C   UNL A   1      37.369  29.498  32.494  1.00  0.00     0.041 A 
ATOM     84  F   UNL A   1      39.326  28.217  32.353  1.00  0.00    -0.206 F 
ATOM     85  C   UNL A   1      36.517  30.462  31.964  1.00  0.00     0.022 A 
BRANCH  82  86
ATOM     86  S   UNL A   1      35.800  32.370  30.060  1.00  0.00     0.124 S 
ATOM     87  O   UNL A   1      34.543  32.183  30.775  1.00  0.00    -0.237 OA
ATOM     88  O   UNL A   1      36.594  33.530  30.450  1.00  0.00    -0.237 OA
ATOM     89  O   UNL A   1      35.749  32.106  28.624  1.00  0.00    -0.744 OA
ENDBRANCH  82  86
ENDBRANCH  55  79
BRANCH  67  90
ATOM     90  C   UNL A   1      44.650  33.148  29.095  1.00  0.00     0.023 A 
ATOM     91  C   UNL A   1      44.198  34.203  28.284  1.00  0.00     0.031 A 
ATOM     92  C   UNL A   1      45.509  33.460  30.165  1.00  0.00     0.131 A 
ATOM     93  C   UNL A   1      44.653  35.509  28.519  1.00  0.00     0.055 A 
ATOM     94  C   UNL A   1      45.900  34.772  30.438  1.00  0.00     0.041 A 
ATOM     95  F   UNL A   1      45.976  32.495  30.973  1.00  0.00    -0.206 F 
ATOM     96  C   UNL A   1      45.484  35.804  29.603  1.00  0.00     0.022 A 
BRANCH  93  97
ATOM     97  S   UNL A   1      44.230  36.808  27.325  1.00  0.00     0.124 S 
ATOM     98  O   UNL A   1      43.576  37.799  28.175  1.00  0.00    -0.237 OA
ATOM     99  O   UNL A   1      45.537  37.185  26.797  1.00  0.00    -0.237 OA
ATOM    100  O   UNL A   1      43.351  36.128  26.375  1.00  0.00    -0.744 OA
ENDBRANCH  93  97
ENDBRANCH  67  90
ENDBRANCH  41  42
ENDBRANCH  34  36
ENDBRANCH  33  34
ENDBRANCH  32  33
ENDBRANCH  31  32
ENDBRANCH  30  31
ENDBRANCH  29  30
ENDBRANCH   1  29
TORSDOF 26
ENDMDL
MODEL 2
REMARK VINA RESULT:     -10.1      1.938      2.278
REMARK SMILES Cc1c([C@H]2[C@H](C(=O)OCCOCCOCCOCCOC(=O)c3ccc(-c4c5nc(c(-c6cc(S(=O)(=O)[O-])ccc6F)c6ccc([nH]6)c(-c6cc(S(=O)(=O)[O-])ccc6F)c6nc(c(-c7cc(S(=O)(=O)[O-])ccc7F)c7ccc4[nH]7)C=C6)C=C5)cc3)OCC(=O)N2CC(C)C)cnn1C
REMARK SMILES IDX 15 1 14 2 13 3 12 4 11 5 10 6 9 7 8 8 6 9 7 10 5 11 4 12
REMARK SMILES IDX 90 13 86 14 88 15 87 16 89 17 3 18 1 19 2 20 97 21 95 22
REMARK SMILES IDX 96 23 98 24 91 25 92 26 93 27 94 28 16 29 17 30 18 31 19 32
REMARK SMILES IDX 20 33 21 34 22 35 23 36 24 37 85 38 25 39 84 40 26 41 27 42
REMARK SMILES IDX 28 43 78 44 29 45 83 46 77 47 79 48 30 49 82 50 76 51 75 52
REMARK SMILES IDX 31 54 63 55 43 56 62 57 44 58 47 59 61 60 80 61 45 62 46 63
REMARK SMILES IDX 60 65 81 66 48 67 32 68 33 69 41 70 34 71 40 72 42 73 39 74
REMARK SMILES IDX 35 75 36 76 37 77 38 78 64 79 65 80 73 81 66 82 72 83 74 84
REMARK SMILES IDX 71 85 67 86 68 87 69 88 70 89 49 90 50 91 58 92 51 93 57 94
REMARK SMILES IDX 59 95 56 96 52 97 53 98 54 99 55 100
REMARK H PARENT 79 53 47 64
REMARK Flexibility Score: inf
ROOT
ATOM      1  C   UNL A   1      36.766  22.284  24.250  1.00  0.00     0.188 C 
ENDROOT
BRANCH   1   2
ATOM      2  O   UNL A   1      35.395  22.674  24.271  1.00  0.00    -0.377 OA
BRANCH   2   3
ATOM      3  C   UNL A   1      34.475  21.613  24.355  1.00  0.00     0.188 C 
BRANCH   3   4
ATOM      4  C   UNL A   1      33.122  21.900  23.695  1.00  0.00     0.188 C 
BRANCH   4   5
ATOM      5  O   UNL A   1      32.775  23.205  23.268  1.00  0.00    -0.376 OA
BRANCH   5   6
ATOM      6  C   UNL A   1      33.215  23.719  22.020  1.00  0.00     0.202 C 
BRANCH   6   7
ATOM      7  C   UNL A   1      32.709  25.038  21.404  1.00  0.00     0.261 C 
BRANCH   7   8
ATOM      8  O   UNL A   1      33.583  26.177  21.434  1.00  0.00    -0.461 OA
BRANCH   8   9
ATOM      9  C   UNL A   1      33.169  27.200  22.217  1.00  0.00     0.337 C 
ATOM     10  O   UNL A   1      33.692  28.311  22.228  1.00  0.00    -0.249 OA
BRANCH   9  11
ATOM     11  C   UNL A   1      31.981  26.850  23.124  1.00  0.00     0.255 C 
ATOM     12  C   UNL A   1      31.990  27.383  24.587  1.00  0.00     0.159 C 
ATOM     13  N   UNL A   1      31.276  28.658  24.816  1.00  0.00    -0.330 N 
ATOM     14  O   UNL A   1      30.715  27.077  22.513  1.00  0.00    -0.354 OA
ATOM     15  C   UNL A   1      30.518  29.237  23.799  1.00  0.00     0.249 C 
ATOM     16  C   UNL A   1      30.433  28.463  22.475  1.00  0.00     0.261 C 
ATOM     17  O   UNL A   1      29.997  30.347  23.899  1.00  0.00    -0.272 OA
BRANCH  12  18
ATOM     18  C   UNL A   1      31.525  26.258  25.494  1.00  0.00     0.019 A 
ATOM     19  C   UNL A   1      33.746  24.949  26.078  1.00  0.00     0.067 C 
ATOM     20  C   UNL A   1      32.285  25.223  26.052  1.00  0.00     0.040 A 
ATOM     21  N   UNL A   1      31.375  24.325  26.554  1.00  0.00    -0.273 N 
ATOM     22  C   UNL A   1      30.195  25.912  25.827  1.00  0.00     0.141 A 
ATOM     23  N   UNL A   1      30.108  24.759  26.491  1.00  0.00    -0.181 NA
ATOM     24  C   UNL A   1      31.643  22.968  26.977  1.00  0.00     0.174 C 
ENDBRANCH  12  18
BRANCH  13  25
ATOM     25  C   UNL A   1      31.624  29.504  25.985  1.00  0.00     0.123 C 
BRANCH  25  26
ATOM     26  C   UNL A   1      33.110  29.488  26.408  1.00  0.00     0.002 C 
ATOM     27  C   UNL A   1      33.573  30.858  26.914  1.00  0.00     0.009 C 
ATOM     28  C   UNL A   1      33.348  28.481  27.546  1.00  0.00     0.009 C 
ENDBRANCH  25  26
ENDBRANCH  13  25
ENDBRANCH   9  11
ENDBRANCH   8   9
ENDBRANCH   7   8
ENDBRANCH   6   7
ENDBRANCH   5   6
ENDBRANCH   4   5
ENDBRANCH   3   4
ENDBRANCH   2   3
ENDBRANCH   1   2
BRANCH   1  29
ATOM     29  C   UNL A   1      37.630  22.603  25.495  1.00  0.00     0.188 C 
BRANCH  29  30
ATOM     30  O   UNL A   1      38.324  21.490  26.049  1.00  0.00    -0.376 OA
BRANCH  30  31
ATOM     31  C   UNL A   1      38.435  20.290  25.294  1.00  0.00     0.202 C 
BRANCH  31  32
ATOM     32  C   UNL A   1      39.526  19.270  25.673  1.00  0.00     0.261 C 
BRANCH  32  33
ATOM     33  O   UNL A   1      40.889  19.675  25.481  1.00  0.00    -0.460 OA
BRANCH  33  34
ATOM     34  C   UNL A   1      41.655  19.842  26.579  1.00  0.00     0.338 C 
ATOM     35  O   UNL A   1      42.367  19.001  27.103  1.00  0.00    -0.246 OA
BRANCH  34  36
ATOM     36  C   UNL A   1      41.665  21.283  26.907  1.00  0.00     0.060 A 
ATOM     37  C   UNL A   1      41.467  22.214  25.877  1.00  0.00     0.016 A 
ATOM     38  C   UNL A   1      41.854  21.716  28.221  1.00  0.00     0.016 A 
ATOM     39  C   UNL A   1      41.496  23.580  26.152  1.00  0.00     0.010 A 
ATOM     40  C   UNL A   1      41.913  23.087  28.490  1.00  0.00     0.010 A 
ATOM     41  C   UNL A   1      41.771  24.024  27.451  1.00  0.00    -0.014 A 
BRANCH  41  42
ATOM     42  C   UNL A   1      42.138  25.444  27.674  1.00  0.00     0.031 A 
ATOM     43  C   UNL A   1      43.490  25.906  27.197  1.00  0.00     0.074 A 
ATOM     44  C   UNL A   1      41.287  26.311  28.252  1.00  0.00     0.049 A 
ATOM     45  N   UNL A   1      44.065  27.071  27.326  1.00  0.00    -0.248 NA
ATOM     46  C   UNL A   1      44.302  24.908  26.480  1.00  0.00     0.031 C 
ATOM     47  C   UNL A   1      39.930  25.996  28.692  1.00  0.00     0.029 A 
ATOM     48  N   UNL A   1      41.446  27.637  28.572  1.00  0.00    -0.354 N 
ATOM     49  C   UNL A   1      45.312  26.945  26.722  1.00  0.00     0.074 A 
ATOM     50  C   UNL A   1      45.418  25.580  26.253  1.00  0.00     0.031 C 
ATOM     51  C   UNL A   1      39.382  27.100  29.234  1.00  0.00     0.029 A 
ATOM     52  C   UNL A   1      40.364  28.183  29.221  1.00  0.00     0.049 A 
ATOM     53  H   UNL A   1      42.260  28.148  28.357  1.00  0.00     0.167 HD
ATOM     54  C   UNL A   1      46.278  27.884  26.572  1.00  0.00     0.034 A 
ATOM     55  C   UNL A   1      40.202  29.406  29.768  1.00  0.00     0.034 A 
ATOM     56  C   UNL A   1      46.157  29.238  27.052  1.00  0.00     0.049 A 
ATOM     57  C   UNL A   1      41.337  30.404  29.678  1.00  0.00     0.074 A 
ATOM     58  C   UNL A   1      47.063  30.276  26.933  1.00  0.00     0.029 A 
ATOM     59  N   UNL A   1      45.071  29.739  27.758  1.00  0.00    -0.354 N 
ATOM     60  N   UNL A   1      42.508  30.278  29.095  1.00  0.00    -0.248 NA
ATOM     61  C   UNL A   1      41.123  31.710  30.317  1.00  0.00     0.031 C 
ATOM     62  C   UNL A   1      46.567  31.373  27.644  1.00  0.00     0.029 A 
ATOM     63  C   UNL A   1      45.306  31.056  28.120  1.00  0.00     0.049 A 
ATOM     64  H   UNL A   1      44.253  29.232  27.971  1.00  0.00     0.167 HD
ATOM     65  C   UNL A   1      43.149  31.505  29.262  1.00  0.00     0.074 A 
ATOM     66  C   UNL A   1      42.231  32.357  29.988  1.00  0.00     0.031 C 
ATOM     67  C   UNL A   1      44.382  31.895  28.848  1.00  0.00     0.034 A 
BRANCH  54  68
ATOM     68  C   UNL A   1      47.572  27.457  25.923  1.00  0.00     0.023 A 
ATOM     69  C   UNL A   1      47.851  27.714  24.569  1.00  0.00     0.031 A 
ATOM     70  C   UNL A   1      48.537  26.761  26.674  1.00  0.00     0.131 A 
ATOM     71  C   UNL A   1      49.033  27.223  23.994  1.00  0.00     0.055 A 
ATOM     72  C   UNL A   1      49.749  26.350  26.116  1.00  0.00     0.041 A 
ATOM     73  F   UNL A   1      48.314  26.460  27.963  1.00  0.00    -0.206 F 
ATOM     74  C   UNL A   1      49.997  26.568  24.764  1.00  0.00     0.022 A 
BRANCH  71  75
ATOM     75  S   UNL A   1      49.229  27.324  22.193  1.00  0.00     0.124 S 
ATOM     76  O   UNL A   1      48.401  28.484  21.870  1.00  0.00    -0.237 OA
ATOM     77  O   UNL A   1      50.669  27.505  22.042  1.00  0.00    -0.237 OA
ATOM     78  O   UNL A   1      48.708  26.044  21.719  1.00  0.00    -0.744 OA
ENDBRANCH  71  75
ENDBRANCH  54  68
BRANCH  55  79
ATOM     79  C   UNL A   1      38.943  29.761  30.490  1.00  0.00     0.023 A 
ATOM     80  C   UNL A   1      38.064  30.729  29.978  1.00  0.00     0.031 A 
ATOM     81  C   UNL A   1      38.644  29.201  31.745  1.00  0.00     0.131 A 
ATOM     82  C   UNL A   1      36.963  31.151  30.742  1.00  0.00     0.055 A 
ATOM     83  C   UNL A   1      37.512  29.575  32.471  1.00  0.00     0.041 A 
ATOM     84  F   UNL A   1      39.456  28.280  32.288  1.00  0.00    -0.206 F 
ATOM     85  C   UNL A   1      36.673  30.568  31.977  1.00  0.00     0.022 A 
BRANCH  82  86
ATOM     86  S   UNL A   1      35.984  32.557  30.147  1.00  0.00     0.124 S 
ATOM     87  O   UNL A   1      36.620  32.837  28.865  1.00  0.00    -0.237 OA
ATOM     88  O   UNL A   1      34.642  31.989  30.088  1.00  0.00    -0.237 OA
ATOM     89  O   UNL A   1      36.186  33.572  31.179  1.00  0.00    -0.744 OA
ENDBRANCH  82  86
ENDBRANCH  55  79
BRANCH  67  90
ATOM     90  C   UNL A   1      44.784  33.329  29.114  1.00  0.00     0.023 A 
ATOM     91  C   UNL A   1      45.476  33.707  30.277  1.00  0.00     0.031 A 
ATOM     92  C   UNL A   1      44.463  34.333  28.181  1.00  0.00     0.131 A 
ATOM     93  C   UNL A   1      45.772  35.060  30.505  1.00  0.00     0.055 A 
ATOM     94  C   UNL A   1      44.824  35.666  28.380  1.00  0.00     0.041 A 
ATOM     95  F   UNL A   1      43.799  34.033  27.053  1.00  0.00    -0.206 F 
ATOM     96  C   UNL A   1      45.469  36.039  29.555  1.00  0.00     0.022 A 
BRANCH  93  97
ATOM     97  S   UNL A   1      46.465  35.542  32.111  1.00  0.00     0.124 S 
ATOM     98  O   UNL A   1      45.664  36.714  32.447  1.00  0.00    -0.237 OA
ATOM     99  O   UNL A   1      46.228  34.353  32.923  1.00  0.00    -0.237 OA
ATOM    100  O   UNL A   1      47.869  35.816  31.809  1.00  0.00    -0.744 OA
ENDBRANCH  93  97
ENDBRANCH  67  90
ENDBRANCH  41  42
ENDBRANCH  34  36
ENDBRANCH  33  34
ENDBRANCH  32  33
ENDBRANCH  31  32
ENDBRANCH  30  31
ENDBRANCH  29  30
ENDBRANCH   1  29
TORSDOF 26
ENDMDL
MODEL 3
REMARK VINA RESULT:      -8.8      3.609      5.861
REMARK SMILES Cc1c([C@H]2[C@H](C(=O)OCCOCCOCCOCCOC(=O)c3ccc(-c4c5nc(c(-c6cc(S(=O)(=O)[O-])ccc6F)c6ccc([nH]6)c(-c6cc(S(=O)(=O)[O-])ccc6F)c6nc(c(-c7cc(S(=O)(=O)[O-])ccc7F)c7ccc4[nH]7)C=C6)C=C5)cc3)OCC(=O)N2CC(C)C)cnn1C
REMARK SMILES IDX 15 1 14 2 13 3 12 4 11 5 10 6 9 7 8 8 6 9 7 10 5 11 4 12
REMARK SMILES IDX 90 13 86 14 88 15 87 16 89 17 3 18 1 19 2 20 97 21 95 22
REMARK SMILES IDX 96 23 98 24 91 25 92 26 93 27 94 28 16 29 17 30 18 31 19 32
REMARK SMILES IDX 20 33 21 34 22 35 23 36 24 37 85 38 25 39 84 40 26 41 27 42
REMARK SMILES IDX 28 43 78 44 29 45 83 46 77 47 79 48 30 49 82 50 76 51 75 52
REMARK SMILES IDX 31 54 63 55 43 56 62 57 44 58 47 59 61 60 80 61 45 62 46 63
REMARK SMILES IDX 60 65 81 66 48 67 32 68 33 69 41 70 34 71 40 72 42 73 39 74
REMARK SMILES IDX 35 75 36 76 37 77 38 78 64 79 65 80 73 81 66 82 72 83 74 84
REMARK SMILES IDX 71 85 67 86 68 87 69 88 70 89 49 90 50 91 58 92 51 93 57 94
REMARK SMILES IDX 59 95 56 96 52 97 53 98 54 99 55 100
REMARK H PARENT 79 53 47 64
REMARK Flexibility Score: inf
ROOT
ATOM      1  C   UNL A   1      40.799  22.382  26.513  1.00  0.00     0.188 C 
ENDROOT
BRANCH   1   2
ATOM      2  O   UNL A   1      39.577  21.704  26.792  1.00  0.00    -0.377 OA
BRANCH   2   3
ATOM      3  C   UNL A   1      38.825  21.342  25.659  1.00  0.00     0.188 C 
BRANCH   3   4
ATOM      4  C   UNL A   1      37.707  22.328  25.303  1.00  0.00     0.188 C 
BRANCH   4   5
ATOM      5  O   UNL A   1      36.988  22.214  24.089  1.00  0.00    -0.376 OA
BRANCH   5   6
ATOM      6  C   UNL A   1      36.195  23.283  23.593  1.00  0.00     0.202 C 
BRANCH   6   7
ATOM      7  C   UNL A   1      34.693  23.164  23.273  1.00  0.00     0.261 C 
BRANCH   7   8
ATOM      8  O   UNL A   1      33.932  24.375  23.138  1.00  0.00    -0.461 OA
BRANCH   8   9
ATOM      9  C   UNL A   1      32.589  24.221  23.201  1.00  0.00     0.337 C 
ATOM     10  O   UNL A   1      32.033  23.206  23.612  1.00  0.00    -0.249 OA
BRANCH   9  11
ATOM     11  C   UNL A   1      31.798  25.433  22.689  1.00  0.00     0.255 C 
ATOM     12  C   UNL A   1      31.483  26.584  23.689  1.00  0.00     0.159 C 
ATOM     13  N   UNL A   1      32.438  27.714  23.697  1.00  0.00    -0.330 N 
ATOM     14  O   UNL A   1      32.294  25.954  21.459  1.00  0.00    -0.354 OA
ATOM     15  C   UNL A   1      33.454  27.788  22.745  1.00  0.00     0.249 C 
ATOM     16  C   UNL A   1      33.489  26.677  21.684  1.00  0.00     0.261 C 
ATOM     17  O   UNL A   1      34.339  28.643  22.772  1.00  0.00    -0.272 OA
BRANCH  12  18
ATOM     18  C   UNL A   1      30.044  27.010  23.468  1.00  0.00     0.019 A 
ATOM     19  C   UNL A   1      30.247  29.291  22.147  1.00  0.00     0.067 C 
ATOM     20  C   UNL A   1      29.567  28.182  22.868  1.00  0.00     0.040 A 
ATOM     21  N   UNL A   1      28.225  28.226  23.156  1.00  0.00    -0.273 N 
ATOM     22  C   UNL A   1      28.875  26.399  23.979  1.00  0.00     0.141 A 
ATOM     23  N   UNL A   1      27.774  27.121  23.766  1.00  0.00    -0.181 NA
ATOM     24  C   UNL A   1      27.346  29.365  23.002  1.00  0.00     0.174 C 
ENDBRANCH  12  18
BRANCH  13  25
ATOM     25  C   UNL A   1      32.549  28.583  24.894  1.00  0.00     0.123 C 
BRANCH  25  26
ATOM     26  C   UNL A   1      32.732  27.850  26.242  1.00  0.00     0.002 C 
ATOM     27  C   UNL A   1      33.723  26.688  26.130  1.00  0.00     0.009 C 
ATOM     28  C   UNL A   1      33.275  28.806  27.319  1.00  0.00     0.009 C 
ENDBRANCH  25  26
ENDBRANCH  13  25
ENDBRANCH   9  11
ENDBRANCH   8   9
ENDBRANCH   7   8
ENDBRANCH   6   7
ENDBRANCH   5   6
ENDBRANCH   4   5
ENDBRANCH   3   4
ENDBRANCH   2   3
ENDBRANCH   1   2
BRANCH   1  29
ATOM     29  C   UNL A   1      42.030  21.527  26.122  1.00  0.00     0.188 C 
BRANCH  29  30
ATOM     30  O   UNL A   1      43.243  22.256  25.955  1.00  0.00    -0.376 OA
BRANCH  30  31
ATOM     31  C   UNL A   1      43.379  23.140  24.851  1.00  0.00     0.202 C 
BRANCH  31  32
ATOM     32  C   UNL A   1      43.601  24.641  25.121  1.00  0.00     0.261 C 
BRANCH  32  33
ATOM     33  O   UNL A   1      42.874  25.218  26.215  1.00  0.00    -0.460 OA
BRANCH  33  34
ATOM     34  C   UNL A   1      41.769  25.938  25.925  1.00  0.00     0.338 C 
ATOM     35  O   UNL A   1      40.878  25.622  25.154  1.00  0.00    -0.246 OA
BRANCH  34  36
ATOM     36  C   UNL A   1      41.708  27.071  26.872  1.00  0.00     0.060 A 
ATOM     37  C   UNL A   1      41.265  28.319  26.410  1.00  0.00     0.016 A 
ATOM     38  C   UNL A   1      42.073  26.904  28.210  1.00  0.00     0.016 A 
ATOM     39  C   UNL A   1      41.221  29.411  27.275  1.00  0.00     0.010 A 
ATOM     40  C   UNL A   1      42.058  28.008  29.068  1.00  0.00     0.010 A 
ATOM     41  C   UNL A   1      41.667  29.273  28.594  1.00  0.00    -0.014 A 
BRANCH  41  42
ATOM     42  C   UNL A   1      41.942  30.487  29.401  1.00  0.00     0.031 A 
ATOM     43  C   UNL A   1      43.310  31.107  29.297  1.00  0.00     0.074 A 
ATOM     44  C   UNL A   1      40.998  31.046  30.181  1.00  0.00     0.049 A 
ATOM     45  N   UNL A   1      43.814  32.127  29.940  1.00  0.00    -0.248 NA
ATOM     46  C   UNL A   1      44.235  30.485  28.335  1.00  0.00     0.031 C 
ATOM     47  C   UNL A   1      39.621  30.575  30.310  1.00  0.00     0.029 A 
ATOM     48  N   UNL A   1      41.062  32.134  31.016  1.00  0.00    -0.354 N 
ATOM     49  C   UNL A   1      45.118  32.259  29.474  1.00  0.00     0.074 A 
ATOM     50  C   UNL A   1      45.335  31.196  28.516  1.00  0.00     0.031 C 
ATOM     51  C   UNL A   1      38.972  31.367  31.183  1.00  0.00     0.029 A 
ATOM     52  C   UNL A   1      39.897  32.369  31.707  1.00  0.00     0.049 A 
ATOM     53  H   UNL A   1      41.867  32.692  31.111  1.00  0.00     0.167 HD
ATOM     54  C   UNL A   1      46.048  33.184  29.814  1.00  0.00     0.034 A 
ATOM     55  C   UNL A   1      39.624  33.271  32.674  1.00  0.00     0.034 A 
ATOM     56  C   UNL A   1      45.816  34.233  30.777  1.00  0.00     0.049 A 
ATOM     57  C   UNL A   1      40.713  34.227  33.112  1.00  0.00     0.074 A 
ATOM     58  C   UNL A   1      46.679  35.236  31.179  1.00  0.00     0.029 A 
ATOM     59  N   UNL A   1      44.644  34.404  31.502  1.00  0.00    -0.354 N 
ATOM     60  N   UNL A   1      41.940  34.350  32.657  1.00  0.00    -0.248 NA
ATOM     61  C   UNL A   1      40.376  35.168  34.189  1.00  0.00     0.031 C 
ATOM     62  C   UNL A   1      46.065  35.955  32.209  1.00  0.00     0.029 A 
ATOM     63  C   UNL A   1      44.779  35.467  32.381  1.00  0.00     0.049 A 
ATOM     64  H   UNL A   1      43.835  33.850  31.405  1.00  0.00     0.167 HD
ATOM     65  C   UNL A   1      42.503  35.411  33.366  1.00  0.00     0.074 A 
ATOM     66  C   UNL A   1      41.479  35.897  34.266  1.00  0.00     0.031 C 
ATOM     67  C   UNL A   1      43.751  35.941  33.277  1.00  0.00     0.034 A 
BRANCH  54  68
ATOM     68  C   UNL A   1      47.418  33.059  29.194  1.00  0.00     0.023 A 
ATOM     69  C   UNL A   1      47.776  33.751  28.024  1.00  0.00     0.031 A 
ATOM     70  C   UNL A   1      48.378  32.213  29.778  1.00  0.00     0.131 A 
ATOM     71  C   UNL A   1      49.034  33.536  27.441  1.00  0.00     0.055 A 
ATOM     72  C   UNL A   1      49.658  32.068  29.240  1.00  0.00     0.041 A 
ATOM     73  F   UNL A   1      48.084  31.503  30.878  1.00  0.00    -0.206 F 
ATOM     74  C   UNL A   1      49.988  32.722  28.056  1.00  0.00     0.022 A 
BRANCH  71  75
ATOM     75  S   UNL A   1      49.356  34.220  25.792  1.00  0.00     0.124 S 
ATOM     76  O   UNL A   1      50.247  33.211  25.223  1.00  0.00    -0.237 OA
ATOM     77  O   UNL A   1      48.019  34.290  25.213  1.00  0.00    -0.237 OA
ATOM     78  O   UNL A   1      49.985  35.508  26.072  1.00  0.00    -0.744 OA
ENDBRANCH  71  75
ENDBRANCH  54  68
BRANCH  55  79
ATOM     79  C   UNL A   1      38.286  33.301  33.337  1.00  0.00     0.023 A 
ATOM     80  C   UNL A   1      37.166  33.842  32.683  1.00  0.00     0.031 A 
ATOM     81  C   UNL A   1      38.125  32.869  34.666  1.00  0.00     0.131 A 
ATOM     82  C   UNL A   1      35.954  33.991  33.376  1.00  0.00     0.055 A 
ATOM     83  C   UNL A   1      36.899  32.960  35.329  1.00  0.00     0.041 A 
ATOM     84  F   UNL A   1      39.163  32.356  35.344  1.00  0.00    -0.206 F 
ATOM     85  C   UNL A   1      35.809  33.539  34.689  1.00  0.00     0.022 A 
BRANCH  82  86
ATOM     86  S   UNL A   1      34.603  34.896  32.572  1.00  0.00     0.124 S 
ATOM     87  O   UNL A   1      34.724  36.213  33.186  1.00  0.00    -0.237 OA
ATOM     88  O   UNL A   1      34.976  34.807  31.164  1.00  0.00    -0.237 OA
ATOM     89  O   UNL A   1      33.413  34.136  32.949  1.00  0.00    -0.744 OA
ENDBRANCH  82  86
ENDBRANCH  55  79
BRANCH  67  90
ATOM     90  C   UNL A   1      44.056  37.150  34.132  1.00  0.00     0.023 A 
ATOM     91  C   UNL A   1      43.695  38.451  33.743  1.00  0.00     0.031 A 
ATOM     92  C   UNL A   1      44.724  36.991  35.361  1.00  0.00     0.131 A 
ATOM     93  C   UNL A   1      44.055  39.546  34.543  1.00  0.00     0.055 A 
ATOM     94  C   UNL A   1      45.015  38.077  36.188  1.00  0.00     0.041 A 
ATOM     95  F   UNL A   1      45.097  35.773  35.785  1.00  0.00    -0.206 F 
ATOM     96  C   UNL A   1      44.694  39.366  35.774  1.00  0.00     0.022 A 
BRANCH  93  97
ATOM     97  S   UNL A   1      43.771  41.221  33.909  1.00  0.00     0.124 S 
ATOM     98  O   UNL A   1      44.580  41.226  32.695  1.00  0.00    -0.237 OA
ATOM     99  O   UNL A   1      42.325  41.240  33.711  1.00  0.00    -0.237 OA
ATOM    100  O   UNL A   1      44.260  42.083  34.984  1.00  0.00    -0.744 OA
ENDBRANCH  93  97
ENDBRANCH  67  90
ENDBRANCH  41  42
ENDBRANCH  34  36
ENDBRANCH  33  34
ENDBRANCH  32  33
ENDBRANCH  31  32
ENDBRANCH  30  31
ENDBRANCH  29  30
ENDBRANCH   1  29
TORSDOF 26
ENDMDL
