MODEL 1
REMARK VINA RESULT:      -9.0      0.000      0.000
REMARK SMILES COC(=O)c1ccc([C@H]2CC(=O)Nc3c(C(=O)OCCOCCOCCOCCOC(=O)c4ccc(-c5c6nc(c(-c7cc(S(=O)(=O)[O-])ccc7F)c7ccc([nH]7)c(-c7cc(S(=O)(=O)[O-])ccc7F)c7nc(c(-c8cc(S(=O)(=O)[O-])ccc8F)c8ccc5[nH]8)C=C7)C=C6)cc4)cn(-c4cc(OC)ccc4OC)c32)cc1
REMARK SMILES IDX 24 1 23 2 22 3 21 4 20 5 19 6 18 7 16 8 17 9 15 10 9 11
REMARK SMILES IDX 10 12 108 13 11 14 14 15 97 16 12 17 13 18 96 19 8 21 5 22
REMARK SMILES IDX 6 23 110 24 7 25 109 26 3 27 4 28 2 29 1 30 98 31 99 32
REMARK SMILES IDX 105 33 100 34 104 35 103 36 106 37 107 38 101 39 102 40
REMARK SMILES IDX 25 41 26 42 27 43 28 44 29 45 30 46 31 47 32 48 33 49 34 50
REMARK SMILES IDX 95 51 35 52 94 53 36 54 37 55 38 56 88 57 39 58 93 59 87 60
REMARK SMILES IDX 89 61 40 62 92 63 86 64 85 65 41 67 73 68 53 69 72 70 54 71
REMARK SMILES IDX 57 72 71 73 90 74 55 75 56 76 70 78 91 79 58 80 42 81 43 82
REMARK SMILES IDX 51 83 44 84 50 85 52 86 49 87 45 88 46 89 47 90 48 91 74 92
REMARK SMILES IDX 75 93 83 94 76 95 82 96 84 97 81 98 77 99 78 100 79 101
REMARK SMILES IDX 80 102 59 103 60 104 68 105 61 106 67 107 69 108 66 109
REMARK SMILES IDX 62 110 63 111 64 112 65 113
REMARK H PARENT 13 20 89 66 57 77
REMARK Flexibility Score: inf
ROOT
ATOM      1  O   UNL A   1      45.829  42.865  23.929  1.00  0.00    -0.377 OA
ENDROOT
BRANCH   1   2
ATOM      2  C   UNL A   1      45.410  43.793  22.948  1.00  0.00     0.188 C 
BRANCH   2   3
ATOM      3  C   UNL A   1      44.748  43.157  21.699  1.00  0.00     0.188 C 
BRANCH   3   4
ATOM      4  O   UNL A   1      43.755  42.137  21.780  1.00  0.00    -0.376 OA
BRANCH   4   5
ATOM      5  C   UNL A   1      42.403  42.388  22.120  1.00  0.00     0.202 C 
BRANCH   5   6
ATOM      6  C   UNL A   1      41.860  42.080  23.523  1.00  0.00     0.261 C 
BRANCH   6   7
ATOM      7  O   UNL A   1      42.801  41.526  24.438  1.00  0.00    -0.460 OA
BRANCH   7   8
ATOM      8  C   UNL A   1      42.270  41.097  25.614  1.00  0.00     0.341 C 
ATOM      9  O   UNL A   1      41.133  40.669  25.763  1.00  0.00    -0.246 OA
BRANCH   8  10
ATOM     10  C   UNL A   1      43.256  41.125  26.681  1.00  0.00     0.102 A 
ATOM     11  C   UNL A   1      44.689  43.031  29.234  1.00  0.00     0.078 C 
ATOM     12  C   UNL A   1      45.860  43.760  28.568  1.00  0.00     0.115 C 
ATOM     13  C   UNL A   1      44.446  41.931  28.289  1.00  0.00     0.055 A 
ATOM     14  C   UNL A   1      45.336  44.249  27.175  1.00  0.00     0.225 C 
ATOM     15  C   UNL A   1      44.129  42.172  27.000  1.00  0.00     0.078 A 
ATOM     16  N   UNL A   1      44.367  40.583  28.616  1.00  0.00    -0.314 N 
ATOM     17  O   UNL A   1      45.661  45.337  26.703  1.00  0.00    -0.275 OA
ATOM     18  N   UNL A   1      44.493  43.386  26.469  1.00  0.00    -0.324 N 
ATOM     19  C   UNL A   1      43.496  40.107  27.629  1.00  0.00     0.109 A 
ATOM     20  H   UNL A   1      44.158  43.652  25.581  1.00  0.00     0.170 HD
BRANCH  11  21
ATOM     21  C   UNL A   1      44.499  42.211  30.473  1.00  0.00    -0.038 A 
ATOM     22  C   UNL A   1      44.342  42.692  34.061  1.00  0.00     0.060 A 
ATOM     23  C   UNL A   1      42.706  42.529  32.865  1.00  0.00     0.016 A 
ATOM     24  C   UNL A   1      45.954  42.580  33.264  1.00  0.00     0.016 A 
ATOM     25  C   UNL A   1      42.881  42.301  31.113  1.00  0.00     0.005 A 
ATOM     26  C   UNL A   1      46.005  42.311  31.511  1.00  0.00     0.005 A 
BRANCH  22  27
ATOM     27  C   UNL A   1      44.666  42.734  35.595  1.00  0.00     0.337 C 
ATOM     28  O   UNL A   1      45.812  42.824  36.018  1.00  0.00    -0.246 OA
BRANCH  27  29
ATOM     29  O   UNL A   1      43.557  42.666  36.384  1.00  0.00    -0.465 OA
ATOM     30  C   UNL A   1      43.749  41.957  37.618  1.00  0.00     0.282 C 
ENDBRANCH  27  29
ENDBRANCH  22  27
ENDBRANCH  11  21
BRANCH  16  31
ATOM     31  C   UNL A   1      44.666  39.939  29.996  1.00  0.00     0.091 A 
ATOM     32  C   UNL A   1      43.405  39.344  31.481  1.00  0.00     0.077 A 
ATOM     33  C   UNL A   1      46.435  39.735  30.343  1.00  0.00     0.143 A 
ATOM     34  C   UNL A   1      44.041  38.647  32.992  1.00  0.00     0.121 A 
ATOM     35  C   UNL A   1      46.922  39.050  31.926  1.00  0.00     0.052 A 
ATOM     36  C   UNL A   1      45.767  38.519  33.188  1.00  0.00     0.050 A 
BRANCH  33  37
ATOM     37  O   UNL A   1      47.533  40.234  29.709  1.00  0.00    -0.495 OA
ATOM     38  C   UNL A   1      48.274  39.399  28.853  1.00  0.00     0.278 C 
ENDBRANCH  33  37
BRANCH  34  39
ATOM     39  O   UNL A   1      43.048  38.279  33.842  1.00  0.00    -0.497 OA
ATOM     40  C   UNL A   1      42.835  36.892  33.965  1.00  0.00     0.278 C 
ENDBRANCH  34  39
ENDBRANCH  16  31
ENDBRANCH   8  10
ENDBRANCH   7   8
ENDBRANCH   6   7
ENDBRANCH   5   6
ENDBRANCH   4   5
ENDBRANCH   3   4
ENDBRANCH   2   3
ENDBRANCH   1   2
BRANCH   1  41
ATOM     41  C   UNL A   1      46.947  42.054  23.563  1.00  0.00     0.188 C 
BRANCH  41  42
ATOM     42  C   UNL A   1      46.777  40.509  23.583  1.00  0.00     0.188 C 
BRANCH  42  43
ATOM     43  O   UNL A   1      47.120  39.878  24.810  1.00  0.00    -0.376 OA
BRANCH  43  44
ATOM     44  C   UNL A   1      46.176  39.291  25.689  1.00  0.00     0.202 C 
BRANCH  44  45
ATOM     45  C   UNL A   1      46.499  37.936  26.311  1.00  0.00     0.261 C 
BRANCH  45  46
ATOM     46  O   UNL A   1      45.380  37.314  26.899  1.00  0.00    -0.460 OA
BRANCH  46  47
ATOM     47  C   UNL A   1      45.637  36.742  28.091  1.00  0.00     0.338 C 
ATOM     48  O   UNL A   1      46.722  36.398  28.522  1.00  0.00    -0.246 OA
BRANCH  47  49
ATOM     49  C   UNL A   1      44.357  36.500  28.755  1.00  0.00     0.060 A 
ATOM     50  C   UNL A   1      44.448  36.140  30.097  1.00  0.00     0.016 A 
ATOM     51  C   UNL A   1      43.271  36.157  27.939  1.00  0.00     0.016 A 
ATOM     52  C   UNL A   1      43.634  35.123  30.519  1.00  0.00     0.010 A 
ATOM     53  C   UNL A   1      42.494  35.113  28.347  1.00  0.00     0.010 A 
ATOM     54  C   UNL A   1      42.767  34.544  29.587  1.00  0.00    -0.014 A 
BRANCH  54  55
ATOM     55  C   UNL A   1      42.015  33.380  29.979  1.00  0.00     0.031 A 
ATOM     56  C   UNL A   1      40.668  33.780  30.424  1.00  0.00     0.074 A 
ATOM     57  C   UNL A   1      42.482  32.130  29.808  1.00  0.00     0.049 A 
ATOM     58  N   UNL A   1      40.264  33.929  31.642  1.00  0.00    -0.248 NA
ATOM     59  C   UNL A   1      39.787  34.410  29.421  1.00  0.00     0.031 C 
ATOM     60  C   UNL A   1      43.703  31.691  29.130  1.00  0.00     0.029 A 
ATOM     61  N   UNL A   1      41.890  30.956  30.140  1.00  0.00    -0.354 N 
ATOM     62  C   UNL A   1      38.955  34.370  31.516  1.00  0.00     0.074 A 
ATOM     63  C   UNL A   1      38.877  34.967  30.218  1.00  0.00     0.031 C 
ATOM     64  C   UNL A   1      43.632  30.357  28.901  1.00  0.00     0.029 A 
ATOM     65  C   UNL A   1      42.426  29.830  29.521  1.00  0.00     0.049 A 
ATOM     66  H   UNL A   1      41.137  30.904  30.772  1.00  0.00     0.167 HD
ATOM     67  C   UNL A   1      37.975  33.833  32.293  1.00  0.00     0.034 A 
ATOM     68  C   UNL A   1      41.850  28.595  29.467  1.00  0.00     0.034 A 
ATOM     69  C   UNL A   1      38.560  33.189  33.459  1.00  0.00     0.049 A 
ATOM     70  C   UNL A   1      40.849  28.555  30.573  1.00  0.00     0.074 A 
ATOM     71  C   UNL A   1      39.389  33.615  34.481  1.00  0.00     0.029 A 
ATOM     72  N   UNL A   1      38.657  31.811  33.459  1.00  0.00    -0.354 N 
ATOM     73  N   UNL A   1      41.181  28.616  31.835  1.00  0.00    -0.248 NA
ATOM     74  C   UNL A   1      39.493  28.999  30.272  1.00  0.00     0.031 C 
ATOM     75  C   UNL A   1      40.288  32.531  34.710  1.00  0.00     0.029 A 
ATOM     76  C   UNL A   1      39.910  31.461  33.897  1.00  0.00     0.049 A 
ATOM     77  H   UNL A   1      37.945  31.185  33.189  1.00  0.00     0.167 HD
ATOM     78  C   UNL A   1      40.265  29.484  32.414  1.00  0.00     0.074 A 
ATOM     79  C   UNL A   1      39.205  29.632  31.415  1.00  0.00     0.031 C 
ATOM     80  C   UNL A   1      40.596  30.240  33.506  1.00  0.00     0.034 A 
BRANCH  67  81
ATOM     81  C   UNL A   1      36.598  33.461  31.758  1.00  0.00     0.023 A 
ATOM     82  C   UNL A   1      36.559  32.353  30.898  1.00  0.00     0.031 A 
ATOM     83  C   UNL A   1      35.418  34.246  31.779  1.00  0.00     0.131 A 
ATOM     84  C   UNL A   1      35.506  32.177  29.990  1.00  0.00     0.055 A 
ATOM     85  C   UNL A   1      34.347  34.038  30.908  1.00  0.00     0.041 A 
ATOM     86  F   UNL A   1      35.229  35.288  32.594  1.00  0.00    -0.206 F 
ATOM     87  C   UNL A   1      34.404  33.025  29.973  1.00  0.00     0.022 A 
BRANCH  84  88
ATOM     88  S   UNL A   1      35.715  30.933  28.700  1.00  0.00     0.124 S 
ATOM     89  O   UNL A   1      34.412  30.984  28.046  1.00  0.00    -0.237 OA
ATOM     90  O   UNL A   1      36.840  31.475  27.946  1.00  0.00    -0.237 OA
ATOM     91  O   UNL A   1      35.995  29.713  29.453  1.00  0.00    -0.744 OA
ENDBRANCH  84  88
ENDBRANCH  67  81
BRANCH  68  92
ATOM     92  C   UNL A   1      41.818  27.666  28.292  1.00  0.00     0.023 A 
ATOM     93  C   UNL A   1      42.299  26.334  28.331  1.00  0.00     0.031 A 
ATOM     94  C   UNL A   1      41.068  28.023  27.147  1.00  0.00     0.131 A 
ATOM     95  C   UNL A   1      42.030  25.441  27.260  1.00  0.00     0.055 A 
ATOM     96  C   UNL A   1      40.805  27.139  26.098  1.00  0.00     0.041 A 
ATOM     97  F   UNL A   1      40.487  29.228  27.043  1.00  0.00    -0.206 F 
ATOM     98  C   UNL A   1      41.279  25.840  26.153  1.00  0.00     0.022 A 
BRANCH  95  99
ATOM     99  S   UNL A   1      42.601  23.704  27.308  1.00  0.00     0.124 S 
ATOM    100  O   UNL A   1      42.163  23.270  28.630  1.00  0.00    -0.237 OA
ATOM    101  O   UNL A   1      41.913  23.113  26.167  1.00  0.00    -0.237 OA
ATOM    102  O   UNL A   1      44.054  23.817  27.154  1.00  0.00    -0.744 OA
ENDBRANCH  95  99
ENDBRANCH  68  92
BRANCH  80 103
ATOM    103  C   UNL A   1      41.859  29.892  34.273  1.00  0.00     0.023 A 
ATOM    104  C   UNL A   1      41.992  28.841  35.213  1.00  0.00     0.031 A 
ATOM    105  C   UNL A   1      43.021  30.604  33.926  1.00  0.00     0.131 A 
ATOM    106  C   UNL A   1      43.259  28.547  35.764  1.00  0.00     0.055 A 
ATOM    107  C   UNL A   1      44.271  30.295  34.455  1.00  0.00     0.041 A 
ATOM    108  F   UNL A   1      42.963  31.597  33.024  1.00  0.00    -0.206 F 
ATOM    109  C   UNL A   1      44.395  29.267  35.380  1.00  0.00     0.022 A 
BRANCH 106 110
ATOM    110  S   UNL A   1      43.460  27.228  37.009  1.00  0.00     0.124 S 
ATOM    111  O   UNL A   1      44.154  27.896  38.104  1.00  0.00    -0.237 OA
ATOM    112  O   UNL A   1      42.080  26.831  37.274  1.00  0.00    -0.237 OA
ATOM    113  O   UNL A   1      44.257  26.217  36.310  1.00  0.00    -0.744 OA
ENDBRANCH 106 110
ENDBRANCH  80 103
ENDBRANCH  54  55
ENDBRANCH  47  49
ENDBRANCH  46  47
ENDBRANCH  45  46
ENDBRANCH  44  45
ENDBRANCH  43  44
ENDBRANCH  42  43
ENDBRANCH  41  42
ENDBRANCH   1  41
TORSDOF 29
ENDMDL
MODEL 2
REMARK VINA RESULT:      -8.2      1.853      2.096
REMARK SMILES COC(=O)c1ccc([C@H]2CC(=O)Nc3c(C(=O)OCCOCCOCCOCCOC(=O)c4ccc(-c5c6nc(c(-c7cc(S(=O)(=O)[O-])ccc7F)c7ccc([nH]7)c(-c7cc(S(=O)(=O)[O-])ccc7F)c7nc(c(-c8cc(S(=O)(=O)[O-])ccc8F)c8ccc5[nH]8)C=C7)C=C6)cc4)cn(-c4cc(OC)ccc4OC)c32)cc1
REMARK SMILES IDX 24 1 23 2 22 3 21 4 20 5 19 6 18 7 16 8 17 9 15 10 9 11
REMARK SMILES IDX 10 12 108 13 11 14 14 15 97 16 12 17 13 18 96 19 8 21 5 22
REMARK SMILES IDX 6 23 110 24 7 25 109 26 3 27 4 28 2 29 1 30 98 31 99 32
REMARK SMILES IDX 105 33 100 34 104 35 103 36 106 37 107 38 101 39 102 40
REMARK SMILES IDX 25 41 26 42 27 43 28 44 29 45 30 46 31 47 32 48 33 49 34 50
REMARK SMILES IDX 95 51 35 52 94 53 36 54 37 55 38 56 88 57 39 58 93 59 87 60
REMARK SMILES IDX 89 61 40 62 92 63 86 64 85 65 41 67 73 68 53 69 72 70 54 71
REMARK SMILES IDX 57 72 71 73 90 74 55 75 56 76 70 78 91 79 58 80 42 81 43 82
REMARK SMILES IDX 51 83 44 84 50 85 52 86 49 87 45 88 46 89 47 90 48 91 74 92
REMARK SMILES IDX 75 93 83 94 76 95 82 96 84 97 81 98 77 99 78 100 79 101
REMARK SMILES IDX 80 102 59 103 60 104 68 105 61 106 67 107 69 108 66 109
REMARK SMILES IDX 62 110 63 111 64 112 65 113
REMARK H PARENT 13 20 89 66 57 77
REMARK Flexibility Score: inf
ROOT
ATOM      1  O   UNL A   1      45.975  43.021  24.409  1.00  0.00    -0.377 OA
ENDROOT
BRANCH   1   2
ATOM      2  C   UNL A   1      45.376  44.078  23.686  1.00  0.00     0.188 C 
BRANCH   2   3
ATOM      3  C   UNL A   1      44.581  43.632  22.432  1.00  0.00     0.188 C 
BRANCH   3   4
ATOM      4  O   UNL A   1      43.772  42.459  22.401  1.00  0.00    -0.376 OA
BRANCH   4   5
ATOM      5  C   UNL A   1      42.398  42.449  22.746  1.00  0.00     0.202 C 
BRANCH   5   6
ATOM      6  C   UNL A   1      41.903  41.790  24.041  1.00  0.00     0.261 C 
BRANCH   6   7
ATOM      7  O   UNL A   1      42.920  41.393  24.956  1.00  0.00    -0.460 OA
BRANCH   7   8
ATOM      8  C   UNL A   1      42.466  40.793  26.089  1.00  0.00     0.341 C 
ATOM      9  O   UNL A   1      41.396  40.210  26.202  1.00  0.00    -0.246 OA
BRANCH   8  10
ATOM     10  C   UNL A   1      43.458  40.848  27.150  1.00  0.00     0.102 A 
ATOM     11  C   UNL A   1      44.772  42.744  29.773  1.00  0.00     0.078 C 
ATOM     12  C   UNL A   1      45.880  43.585  29.131  1.00  0.00     0.115 C 
ATOM     13  C   UNL A   1      44.601  41.670  28.784  1.00  0.00     0.055 A 
ATOM     14  C   UNL A   1      45.309  44.091  27.764  1.00  0.00     0.225 C 
ATOM     15  C   UNL A   1      44.255  41.941  27.508  1.00  0.00     0.078 A 
ATOM     16  N   UNL A   1      44.624  40.308  29.054  1.00  0.00    -0.314 N 
ATOM     17  O   UNL A   1      45.550  45.220  27.336  1.00  0.00    -0.275 OA
ATOM     18  N   UNL A   1      44.525  43.200  27.027  1.00  0.00    -0.324 N 
ATOM     19  C   UNL A   1      43.780  39.811  28.052  1.00  0.00     0.109 A 
ATOM     20  H   UNL A   1      44.163  43.477  26.153  1.00  0.00     0.170 HD
BRANCH  11  21
ATOM     21  C   UNL A   1      44.653  41.861  30.977  1.00  0.00    -0.038 A 
ATOM     22  C   UNL A   1      44.529  42.176  34.585  1.00  0.00     0.060 A 
ATOM     23  C   UNL A   1      42.886  41.964  33.406  1.00  0.00     0.016 A 
ATOM     24  C   UNL A   1      46.131  42.198  33.760  1.00  0.00     0.016 A 
ATOM     25  C   UNL A   1      43.044  41.823  31.644  1.00  0.00     0.005 A 
ATOM     26  C   UNL A   1      46.168  42.009  31.997  1.00  0.00     0.005 A 
BRANCH  22  27
ATOM     27  C   UNL A   1      44.876  42.171  36.115  1.00  0.00     0.337 C 
ATOM     28  O   UNL A   1      44.953  43.204  36.769  1.00  0.00    -0.246 OA
BRANCH  27  29
ATOM     29  O   UNL A   1      45.071  40.922  36.621  1.00  0.00    -0.465 OA
ATOM     30  C   UNL A   1      44.157  40.556  37.666  1.00  0.00     0.282 C 
ENDBRANCH  27  29
ENDBRANCH  22  27
ENDBRANCH  11  21
BRANCH  16  31
ATOM     31  C   UNL A   1      44.981  39.630  30.403  1.00  0.00     0.091 A 
ATOM     32  C   UNL A   1      43.783  38.955  31.905  1.00  0.00     0.077 A 
ATOM     33  C   UNL A   1      46.764  39.463  30.691  1.00  0.00     0.143 A 
ATOM     34  C   UNL A   1      44.483  38.229  33.374  1.00  0.00     0.121 A 
ATOM     35  C   UNL A   1      47.318  38.744  32.236  1.00  0.00     0.052 A 
ATOM     36  C   UNL A   1      46.217  38.142  33.514  1.00  0.00     0.050 A 
BRANCH  33  37
ATOM     37  O   UNL A   1      47.830  40.012  30.040  1.00  0.00    -0.495 OA
ATOM     38  C   UNL A   1      48.320  39.393  28.876  1.00  0.00     0.278 C 
ENDBRANCH  33  37
BRANCH  34  39
ATOM     39  O   UNL A   1      43.526  37.808  34.241  1.00  0.00    -0.497 OA
ATOM     40  C   UNL A   1      43.059  36.494  34.040  1.00  0.00     0.278 C 
ENDBRANCH  34  39
ENDBRANCH  16  31
ENDBRANCH   8  10
ENDBRANCH   7   8
ENDBRANCH   6   7
ENDBRANCH   5   6
ENDBRANCH   4   5
ENDBRANCH   3   4
ENDBRANCH   2   3
ENDBRANCH   1   2
BRANCH   1  41
ATOM     41  C   UNL A   1      47.067  42.375  23.753  1.00  0.00     0.188 C 
BRANCH  41  42
ATOM     42  C   UNL A   1      47.060  40.823  23.661  1.00  0.00     0.188 C 
BRANCH  42  43
ATOM     43  O   UNL A   1      47.207  40.143  24.900  1.00  0.00    -0.376 OA
BRANCH  43  44
ATOM     44  C   UNL A   1      46.311  39.150  25.370  1.00  0.00     0.202 C 
BRANCH  44  45
ATOM     45  C   UNL A   1      46.871  37.981  26.174  1.00  0.00     0.261 C 
BRANCH  45  46
ATOM     46  O   UNL A   1      45.875  37.089  26.622  1.00  0.00    -0.460 OA
BRANCH  46  47
ATOM     47  C   UNL A   1      46.143  36.528  27.817  1.00  0.00     0.338 C 
ATOM     48  O   UNL A   1      47.226  36.146  28.223  1.00  0.00    -0.246 OA
BRANCH  47  49
ATOM     49  C   UNL A   1      44.875  36.354  28.522  1.00  0.00     0.060 A 
ATOM     50  C   UNL A   1      44.991  36.013  29.868  1.00  0.00     0.016 A 
ATOM     51  C   UNL A   1      43.751  36.044  27.745  1.00  0.00     0.016 A 
ATOM     52  C   UNL A   1      44.147  35.040  30.333  1.00  0.00     0.010 A 
ATOM     53  C   UNL A   1      42.943  35.042  28.195  1.00  0.00     0.010 A 
ATOM     54  C   UNL A   1      43.228  34.483  29.437  1.00  0.00    -0.014 A 
BRANCH  54  55
ATOM     55  C   UNL A   1      42.439  33.360  29.872  1.00  0.00     0.031 A 
ATOM     56  C   UNL A   1      41.113  33.822  30.322  1.00  0.00     0.074 A 
ATOM     57  C   UNL A   1      42.857  32.089  29.733  1.00  0.00     0.049 A 
ATOM     58  N   UNL A   1      40.731  34.022  31.540  1.00  0.00    -0.248 NA
ATOM     59  C   UNL A   1      40.243  34.455  29.311  1.00  0.00     0.031 C 
ATOM     60  C   UNL A   1      44.053  31.585  29.054  1.00  0.00     0.029 A 
ATOM     61  N   UNL A   1      42.227  30.948  30.107  1.00  0.00    -0.354 N 
ATOM     62  C   UNL A   1      39.437  34.508  31.416  1.00  0.00     0.074 A 
ATOM     63  C   UNL A   1      39.365  35.069  30.102  1.00  0.00     0.031 C 
ATOM     64  C   UNL A   1      43.930  30.248  28.866  1.00  0.00     0.029 A 
ATOM     65  C   UNL A   1      42.713  29.785  29.516  1.00  0.00     0.049 A 
ATOM     66  H   UNL A   1      41.480  30.942  30.749  1.00  0.00     0.167 HD
ATOM     67  C   UNL A   1      38.449  34.030  32.220  1.00  0.00     0.034 A 
ATOM     68  C   UNL A   1      42.091  28.571  29.505  1.00  0.00     0.034 A 
ATOM     69  C   UNL A   1      39.025  33.399  33.398  1.00  0.00     0.049 A 
ATOM     70  C   UNL A   1      41.104  28.601  30.623  1.00  0.00     0.074 A 
ATOM     71  C   UNL A   1      39.882  33.824  34.396  1.00  0.00     0.029 A 
ATOM     72  N   UNL A   1      39.071  32.019  33.437  1.00  0.00    -0.354 N 
ATOM     73  N   UNL A   1      41.454  28.687  31.879  1.00  0.00    -0.248 NA
ATOM     74  C   UNL A   1      39.761  29.086  30.326  1.00  0.00     0.031 C 
ATOM     75  C   UNL A   1      40.744  32.715  34.647  1.00  0.00     0.029 A 
ATOM     76  C   UNL A   1      40.316  31.636  33.871  1.00  0.00     0.049 A 
ATOM     77  H   UNL A   1      38.333  31.413  33.195  1.00  0.00     0.167 HD
ATOM     78  C   UNL A   1      40.578  29.605  32.442  1.00  0.00     0.074 A 
ATOM     79  C   UNL A   1      39.511  29.763  31.452  1.00  0.00     0.031 C 
ATOM     80  C   UNL A   1      40.951  30.379  33.508  1.00  0.00     0.034 A 
BRANCH  67  81
ATOM     81  C   UNL A   1      37.052  33.695  31.713  1.00  0.00     0.023 A 
ATOM     82  C   UNL A   1      36.090  34.705  31.870  1.00  0.00     0.031 A 
ATOM     83  C   UNL A   1      36.534  32.419  31.379  1.00  0.00     0.131 A 
ATOM     84  C   UNL A   1      34.721  34.404  31.894  1.00  0.00     0.055 A 
ATOM     85  C   UNL A   1      35.167  32.133  31.352  1.00  0.00     0.041 A 
ATOM     86  F   UNL A   1      37.292  31.354  31.104  1.00  0.00    -0.206 F 
ATOM     87  C   UNL A   1      34.249  33.118  31.655  1.00  0.00     0.022 A 
BRANCH  84  88
ATOM     88  S   UNL A   1      33.591  35.698  32.444  1.00  0.00     0.124 S 
ATOM     89  O   UNL A   1      34.335  36.265  33.564  1.00  0.00    -0.237 OA
ATOM     90  O   UNL A   1      33.489  36.528  31.249  1.00  0.00    -0.237 OA
ATOM     91  O   UNL A   1      32.382  34.961  32.800  1.00  0.00    -0.744 OA
ENDBRANCH  84  88
ENDBRANCH  67  81
BRANCH  68  92
ATOM     92  C   UNL A   1      42.009  27.610  28.359  1.00  0.00     0.023 A 
ATOM     93  C   UNL A   1      42.332  26.235  28.463  1.00  0.00     0.031 A 
ATOM     94  C   UNL A   1      41.362  28.008  27.165  1.00  0.00     0.131 A 
ATOM     95  C   UNL A   1      42.015  25.340  27.406  1.00  0.00     0.055 A 
ATOM     96  C   UNL A   1      41.050  27.122  26.132  1.00  0.00     0.041 A 
ATOM     97  F   UNL A   1      40.928  29.267  26.995  1.00  0.00    -0.206 F 
ATOM     98  C   UNL A   1      41.368  25.781  26.251  1.00  0.00     0.022 A 
BRANCH  95  99
ATOM     99  S   UNL A   1      42.380  23.553  27.537  1.00  0.00     0.124 S 
ATOM    100  O   UNL A   1      43.580  23.419  26.720  1.00  0.00    -0.237 OA
ATOM    101  O   UNL A   1      42.547  23.369  28.974  1.00  0.00    -0.237 OA
ATOM    102  O   UNL A   1      41.185  22.917  26.976  1.00  0.00    -0.744 OA
ENDBRANCH  95  99
ENDBRANCH  68  92
BRANCH  80 103
ATOM    103  C   UNL A   1      42.210  30.007  34.270  1.00  0.00     0.023 A 
ATOM    104  C   UNL A   1      43.529  30.387  33.924  1.00  0.00     0.031 A 
ATOM    105  C   UNL A   1      42.028  29.327  35.488  1.00  0.00     0.131 A 
ATOM    106  C   UNL A   1      44.600  30.076  34.791  1.00  0.00     0.055 A 
ATOM    107  C   UNL A   1      43.085  29.044  36.350  1.00  0.00     0.041 A 
ATOM    108  F   UNL A   1      40.798  28.960  35.883  1.00  0.00    -0.206 F 
ATOM    109  C   UNL A   1      44.377  29.414  36.002  1.00  0.00     0.022 A 
BRANCH 106 110
ATOM    110  S   UNL A   1      46.318  30.512  34.356  1.00  0.00     0.124 S 
ATOM    111  O   UNL A   1      47.112  29.514  35.061  1.00  0.00    -0.237 OA
ATOM    112  O   UNL A   1      46.310  30.411  32.899  1.00  0.00    -0.237 OA
ATOM    113  O   UNL A   1      46.463  31.878  34.867  1.00  0.00    -0.744 OA
ENDBRANCH 106 110
ENDBRANCH  80 103
ENDBRANCH  54  55
ENDBRANCH  47  49
ENDBRANCH  46  47
ENDBRANCH  45  46
ENDBRANCH  44  45
ENDBRANCH  43  44
ENDBRANCH  42  43
ENDBRANCH  41  42
ENDBRANCH   1  41
TORSDOF 29
ENDMDL
MODEL 3
REMARK VINA RESULT:      -6.9      5.926     14.216
REMARK SMILES COC(=O)c1ccc([C@H]2CC(=O)Nc3c(C(=O)OCCOCCOCCOCCOC(=O)c4ccc(-c5c6nc(c(-c7cc(S(=O)(=O)[O-])ccc7F)c7ccc([nH]7)c(-c7cc(S(=O)(=O)[O-])ccc7F)c7nc(c(-c8cc(S(=O)(=O)[O-])ccc8F)c8ccc5[nH]8)C=C7)C=C6)cc4)cn(-c4cc(OC)ccc4OC)c32)cc1
REMARK SMILES IDX 24 1 23 2 22 3 21 4 20 5 19 6 18 7 16 8 17 9 15 10 9 11
REMARK SMILES IDX 10 12 108 13 11 14 14 15 97 16 12 17 13 18 96 19 8 21 5 22
REMARK SMILES IDX 6 23 110 24 7 25 109 26 3 27 4 28 2 29 1 30 98 31 99 32
REMARK SMILES IDX 105 33 100 34 104 35 103 36 106 37 107 38 101 39 102 40
REMARK SMILES IDX 25 41 26 42 27 43 28 44 29 45 30 46 31 47 32 48 33 49 34 50
REMARK SMILES IDX 95 51 35 52 94 53 36 54 37 55 38 56 88 57 39 58 93 59 87 60
REMARK SMILES IDX 89 61 40 62 92 63 86 64 85 65 41 67 73 68 53 69 72 70 54 71
REMARK SMILES IDX 57 72 71 73 90 74 55 75 56 76 70 78 91 79 58 80 42 81 43 82
REMARK SMILES IDX 51 83 44 84 50 85 52 86 49 87 45 88 46 89 47 90 48 91 74 92
REMARK SMILES IDX 75 93 83 94 76 95 82 96 84 97 81 98 77 99 78 100 79 101
REMARK SMILES IDX 80 102 59 103 60 104 68 105 61 106 67 107 69 108 66 109
REMARK SMILES IDX 62 110 63 111 64 112 65 113
REMARK H PARENT 13 20 89 66 57 77
REMARK Flexibility Score: inf
ROOT
ATOM      1  O   UNL A   1      44.994  24.298  33.626  1.00  0.00    -0.377 OA
ENDROOT
BRANCH   1   2
ATOM      2  C   UNL A   1      45.710  23.373  34.421  1.00  0.00     0.188 C 
BRANCH   2   3
ATOM      3  C   UNL A   1      44.821  22.436  35.280  1.00  0.00     0.188 C 
BRANCH   3   4
ATOM      4  O   UNL A   1      45.275  21.184  35.788  1.00  0.00    -0.376 OA
BRANCH   4   5
ATOM      5  C   UNL A   1      46.182  20.344  35.096  1.00  0.00     0.202 C 
BRANCH   5   6
ATOM      6  C   UNL A   1      47.681  20.339  35.427  1.00  0.00     0.261 C 
BRANCH   6   7
ATOM      7  O   UNL A   1      48.010  20.597  36.788  1.00  0.00    -0.460 OA
BRANCH   7   8
ATOM      8  C   UNL A   1      49.305  20.348  37.120  1.00  0.00     0.341 C 
ATOM      9  O   UNL A   1      49.723  19.306  37.609  1.00  0.00    -0.246 OA
BRANCH   8  10
ATOM     10  C   UNL A   1      50.171  21.451  36.740  1.00  0.00     0.102 A 
ATOM     11  C   UNL A   1      52.448  22.647  34.376  1.00  0.00     0.078 C 
ATOM     12  C   UNL A   1      53.816  22.165  34.871  1.00  0.00     0.115 C 
ATOM     13  C   UNL A   1      51.636  22.547  35.597  1.00  0.00     0.055 A 
ATOM     14  C   UNL A   1      53.611  20.690  35.356  1.00  0.00     0.225 C 
ATOM     15  C   UNL A   1      51.475  21.370  36.236  1.00  0.00     0.078 A 
ATOM     16  N   UNL A   1      50.852  23.559  36.134  1.00  0.00    -0.314 N 
ATOM     17  O   UNL A   1      54.461  19.820  35.171  1.00  0.00    -0.275 OA
ATOM     18  N   UNL A   1      52.425  20.397  36.034  1.00  0.00    -0.324 N 
ATOM     19  C   UNL A   1      49.843  22.824  36.770  1.00  0.00     0.109 A 
ATOM     20  H   UNL A   1      52.269  19.484  36.370  1.00  0.00     0.170 HD
BRANCH  11  21
ATOM     21  C   UNL A   1      51.870  23.949  33.915  1.00  0.00    -0.038 A 
ATOM     22  C   UNL A   1      52.024  26.130  31.025  1.00  0.00     0.060 A 
ATOM     23  C   UNL A   1      50.533  24.788  31.357  1.00  0.00     0.016 A 
ATOM     24  C   UNL A   1      53.331  26.224  32.262  1.00  0.00     0.016 A 
ATOM     25  C   UNL A   1      50.544  23.755  32.801  1.00  0.00     0.005 A 
ATOM     26  C   UNL A   1      53.216  25.170  33.684  1.00  0.00     0.005 A 
BRANCH  22  27
ATOM     27  C   UNL A   1      52.337  27.304  30.033  1.00  0.00     0.337 C 
ATOM     28  O   UNL A   1      51.830  28.412  30.155  1.00  0.00    -0.246 OA
BRANCH  27  29
ATOM     29  O   UNL A   1      53.217  26.962  29.052  1.00  0.00    -0.465 OA
ATOM     30  C   UNL A   1      52.622  26.301  27.925  1.00  0.00     0.282 C 
ENDBRANCH  27  29
ENDBRANCH  22  27
ENDBRANCH  11  21
BRANCH  16  31
ATOM     31  C   UNL A   1      50.783  25.036  35.663  1.00  0.00     0.091 A 
ATOM     32  C   UNL A   1      49.466  25.969  34.420  1.00  0.00     0.077 A 
ATOM     33  C   UNL A   1      52.130  26.073  36.295  1.00  0.00     0.143 A 
ATOM     34  C   UNL A   1      49.648  27.698  34.031  1.00  0.00     0.121 A 
ATOM     35  C   UNL A   1      52.200  27.789  35.785  1.00  0.00     0.052 A 
ATOM     36  C   UNL A   1      50.999  28.566  34.707  1.00  0.00     0.050 A 
BRANCH  33  37
ATOM     37  O   UNL A   1      53.292  25.741  36.927  1.00  0.00    -0.495 OA
ATOM     38  C   UNL A   1      53.316  25.665  38.331  1.00  0.00     0.278 C 
ENDBRANCH  33  37
BRANCH  34  39
ATOM     39  O   UNL A   1      48.656  28.146  33.218  1.00  0.00    -0.497 OA
ATOM     40  C   UNL A   1      48.928  28.084  31.837  1.00  0.00     0.278 C 
ENDBRANCH  34  39
ENDBRANCH  16  31
ENDBRANCH   8  10
ENDBRANCH   7   8
ENDBRANCH   6   7
ENDBRANCH   5   6
ENDBRANCH   4   5
ENDBRANCH   3   4
ENDBRANCH   2   3
ENDBRANCH   1   2
BRANCH   1  41
ATOM     41  C   UNL A   1      44.892  23.962  32.242  1.00  0.00     0.188 C 
BRANCH  41  42
ATOM     42  C   UNL A   1      44.659  25.109  31.219  1.00  0.00     0.188 C 
BRANCH  42  43
ATOM     43  O   UNL A   1      43.957  24.736  30.041  1.00  0.00    -0.376 OA
BRANCH  43  44
ATOM     44  C   UNL A   1      42.742  25.332  29.621  1.00  0.00     0.202 C 
BRANCH  44  45
ATOM     45  C   UNL A   1      42.156  24.926  28.272  1.00  0.00     0.261 C 
BRANCH  45  46
ATOM     46  O   UNL A   1      40.761  24.727  28.311  1.00  0.00    -0.460 OA
BRANCH  46  47
ATOM     47  C   UNL A   1      40.083  25.426  27.380  1.00  0.00     0.338 C 
ATOM     48  O   UNL A   1      40.039  25.205  26.184  1.00  0.00    -0.246 OA
BRANCH  47  49
ATOM     49  C   UNL A   1      39.480  26.581  28.042  1.00  0.00     0.060 A 
ATOM     50  C   UNL A   1      39.641  27.793  27.375  1.00  0.00     0.016 A 
ATOM     51  C   UNL A   1      39.271  26.486  29.424  1.00  0.00     0.016 A 
ATOM     52  C   UNL A   1      39.965  28.880  28.141  1.00  0.00     0.010 A 
ATOM     53  C   UNL A   1      39.640  27.558  30.182  1.00  0.00     0.010 A 
ATOM     54  C   UNL A   1      40.088  28.699  29.522  1.00  0.00    -0.014 A 
BRANCH  54  55
ATOM     55  C   UNL A   1      40.571  29.797  30.319  1.00  0.00     0.031 A 
ATOM     56  C   UNL A   1      39.447  30.668  30.708  1.00  0.00     0.074 A 
ATOM     57  C   UNL A   1      41.850  29.881  30.729  1.00  0.00     0.049 A 
ATOM     58  N   UNL A   1      39.096  31.780  30.150  1.00  0.00    -0.248 NA
ATOM     59  C   UNL A   1      38.405  30.078  31.571  1.00  0.00     0.031 C 
ATOM     60  C   UNL A   1      42.928  28.901  30.580  1.00  0.00     0.029 A 
ATOM     61  N   UNL A   1      42.437  30.856  31.465  1.00  0.00    -0.354 N 
ATOM     62  C   UNL A   1      37.956  32.163  30.843  1.00  0.00     0.074 A 
ATOM     63  C   UNL A   1      37.421  30.956  31.394  1.00  0.00     0.031 C 
ATOM     64  C   UNL A   1      43.951  29.233  31.405  1.00  0.00     0.029 A 
ATOM     65  C   UNL A   1      43.654  30.507  32.044  1.00  0.00     0.049 A 
ATOM     66  H   UNL A   1      42.032  31.747  31.582  1.00  0.00     0.167 HD
ATOM     67  C   UNL A   1      37.806  33.454  31.248  1.00  0.00     0.034 A 
ATOM     68  C   UNL A   1      44.295  31.190  33.035  1.00  0.00     0.034 A 
ATOM     69  C   UNL A   1      38.682  34.324  30.479  1.00  0.00     0.049 A 
ATOM     70  C   UNL A   1      43.737  32.573  33.015  1.00  0.00     0.074 A 
ATOM     71  C   UNL A   1      38.847  34.575  29.130  1.00  0.00     0.029 A 
ATOM     72  N   UNL A   1      39.843  34.771  31.081  1.00  0.00    -0.354 N 
ATOM     73  N   UNL A   1      43.899  33.390  32.008  1.00  0.00    -0.248 NA
ATOM     74  C   UNL A   1      42.566  32.840  33.841  1.00  0.00     0.031 C 
ATOM     75  C   UNL A   1      40.256  34.706  28.943  1.00  0.00     0.029 A 
ATOM     76  C   UNL A   1      40.878  34.630  30.191  1.00  0.00     0.049 A 
ATOM     77  H   UNL A   1      39.914  35.131  31.995  1.00  0.00     0.167 HD
ATOM     78  C   UNL A   1      42.659  33.987  31.818  1.00  0.00     0.074 A 
ATOM     79  C   UNL A   1      41.896  33.661  33.024  1.00  0.00     0.031 C 
ATOM     80  C   UNL A   1      42.263  34.421  30.582  1.00  0.00     0.034 A 
BRANCH  67  81
ATOM     81  C   UNL A   1      37.272  33.838  32.622  1.00  0.00     0.023 A 
ATOM     82  C   UNL A   1      38.059  33.438  33.713  1.00  0.00     0.031 A 
ATOM     83  C   UNL A   1      35.967  34.280  32.953  1.00  0.00     0.131 A 
ATOM     84  C   UNL A   1      37.505  33.298  34.993  1.00  0.00     0.055 A 
ATOM     85  C   UNL A   1      35.434  34.189  34.241  1.00  0.00     0.041 A 
ATOM     86  F   UNL A   1      35.101  34.781  32.068  1.00  0.00    -0.206 F 
ATOM     87  C   UNL A   1      36.188  33.653  35.265  1.00  0.00     0.022 A 
BRANCH  84  88
ATOM     88  S   UNL A   1      38.494  32.453  36.243  1.00  0.00     0.124 S 
ATOM     89  O   UNL A   1      39.426  31.704  35.407  1.00  0.00    -0.237 OA
ATOM     90  O   UNL A   1      39.052  33.577  36.988  1.00  0.00    -0.237 OA
ATOM     91  O   UNL A   1      37.510  31.651  36.965  1.00  0.00    -0.744 OA
ENDBRANCH  84  88
ENDBRANCH  67  81
BRANCH  68  92
ATOM     92  C   UNL A   1      45.009  30.606  34.216  1.00  0.00     0.023 A 
ATOM     93  C   UNL A   1      44.566  29.454  34.910  1.00  0.00     0.031 A 
ATOM     94  C   UNL A   1      46.311  31.061  34.533  1.00  0.00     0.131 A 
ATOM     95  C   UNL A   1      45.405  28.824  35.868  1.00  0.00     0.055 A 
ATOM     96  C   UNL A   1      47.131  30.435  35.474  1.00  0.00     0.041 A 
ATOM     97  F   UNL A   1      46.869  32.088  33.875  1.00  0.00    -0.206 F 
ATOM     98  C   UNL A   1      46.685  29.307  36.140  1.00  0.00     0.022 A 
BRANCH  95  99
ATOM     99  S   UNL A   1      44.872  27.308  36.742  1.00  0.00     0.124 S 
ATOM    100  O   UNL A   1      44.220  27.847  37.929  1.00  0.00    -0.237 OA
ATOM    101  O   UNL A   1      44.009  26.664  35.760  1.00  0.00    -0.237 OA
ATOM    102  O   UNL A   1      46.130  26.604  37.004  1.00  0.00    -0.744 OA
ENDBRANCH  95  99
ENDBRANCH  68  92
BRANCH  80 103
ATOM    103  C   UNL A   1      43.306  34.536  29.485  1.00  0.00     0.023 A 
ATOM    104  C   UNL A   1      43.657  33.517  28.567  1.00  0.00     0.031 A 
ATOM    105  C   UNL A   1      43.882  35.806  29.297  1.00  0.00     0.131 A 
ATOM    106  C   UNL A   1      44.556  33.797  27.515  1.00  0.00     0.055 A 
ATOM    107  C   UNL A   1      44.750  36.083  28.244  1.00  0.00     0.041 A 
ATOM    108  F   UNL A   1      43.571  36.820  30.121  1.00  0.00    -0.206 F 
ATOM    109  C   UNL A   1      45.095  35.078  27.350  1.00  0.00     0.022 A 
BRANCH 106 110
ATOM    110  S   UNL A   1      45.064  32.497  26.339  1.00  0.00     0.124 S 
ATOM    111  O   UNL A   1      44.740  31.260  27.039  1.00  0.00    -0.237 OA
ATOM    112  O   UNL A   1      44.251  32.799  25.164  1.00  0.00    -0.237 OA
ATOM    113  O   UNL A   1      46.498  32.739  26.162  1.00  0.00    -0.744 OA
ENDBRANCH 106 110
ENDBRANCH  80 103
ENDBRANCH  54  55
ENDBRANCH  47  49
ENDBRANCH  46  47
ENDBRANCH  45  46
ENDBRANCH  44  45
ENDBRANCH  43  44
ENDBRANCH  42  43
ENDBRANCH  41  42
ENDBRANCH   1  41
TORSDOF 29
ENDMDL
