MODEL 1
REMARK VINA RESULT:     -10.3      0.000      0.000
REMARK SMILES C[C@@H](C(=O)OCCOCCOCCOCCOC(=O)c1ccc(-c2c3nc(c(-c4cc(S(=O)(=O)[O-])ccc4F)c4ccc([nH]4)c(-c4cc(S(=O)(=O)[O-])ccc4F)c4nc(c(-c5cc(S(=O)(=O)[O-])ccc5F)c5ccc2[nH]5)C=C4)C=C3)cc1)[N@@H+]1CCc2n[nH]c(C(c3ccccc3)c3ccccc3)c2C1
REMARK SMILES IDX 11 1 10 2 9 3 8 4 7 5 6 6 5 7 3 8 4 9 2 10 1 11 83 12 84 13
REMARK SMILES IDX 104 14 85 16 103 17 86 18 89 19 87 20 88 21 90 23 91 24
REMARK SMILES IDX 92 25 96 26 93 27 95 28 94 29 97 30 98 31 102 32 99 33
REMARK SMILES IDX 101 34 100 35 12 36 13 37 14 38 15 39 16 40 17 41 18 42
REMARK SMILES IDX 19 43 20 44 21 45 82 46 22 47 81 48 23 49 24 50 25 51 75 52
REMARK SMILES IDX 26 53 80 54 74 55 76 56 27 57 79 58 73 59 72 60 28 62 60 63
REMARK SMILES IDX 40 64 59 65 41 66 44 67 58 68 77 69 42 70 43 71 57 73 78 74
REMARK SMILES IDX 45 75 29 76 30 77 38 78 31 79 37 80 39 81 36 82 32 83 33 84
REMARK SMILES IDX 34 85 35 86 61 87 62 88 70 89 63 90 69 91 71 92 68 93 64 94
REMARK SMILES IDX 65 95 66 96 67 97 46 98 47 99 55 100 48 101 54 102 56 103
REMARK SMILES IDX 53 104 49 105 50 106 51 107 52 108
REMARK H PARENT 83 15 88 22 76 61 44 72
REMARK Flexibility Score: inf
ROOT
ATOM      1  O   UNL A   1      32.410  30.299  27.118  1.00  0.00    -0.377 OA
ENDROOT
BRANCH   1   2
ATOM      2  C   UNL A   1      32.515  29.542  25.912  1.00  0.00     0.188 C 
BRANCH   2   3
ATOM      3  C   UNL A   1      33.757  28.642  25.769  1.00  0.00     0.188 C 
BRANCH   3   4
ATOM      4  O   UNL A   1      34.118  28.237  24.445  1.00  0.00    -0.376 OA
BRANCH   4   5
ATOM      5  C   UNL A   1      33.586  28.970  23.331  1.00  0.00     0.202 C 
BRANCH   5   6
ATOM      6  C   UNL A   1      33.738  28.122  22.004  1.00  0.00     0.261 C 
BRANCH   6   7
ATOM      7  O   UNL A   1      33.953  26.698  22.304  1.00  0.00    -0.459 OA
BRANCH   7   8
ATOM      8  C   UNL A   1      33.274  25.677  21.692  1.00  0.00     0.364 C 
ATOM      9  O   UNL A   1      33.259  25.515  20.477  1.00  0.00    -0.245 OA
BRANCH   8  10
ATOM     10  C   UNL A   1      32.589  24.652  22.739  1.00  0.00     0.292 C 
ATOM     11  C   UNL A   1      32.566  23.182  22.315  1.00  0.00     0.088 C 
BRANCH  10  12
ATOM     12  N   UNL A   1      31.296  25.186  23.282  1.00  0.00    -0.319 N 
ATOM     13  C   UNL A   1      31.293  26.218  24.359  1.00  0.00     0.269 C 
ATOM     14  C   UNL A   1      30.452  24.077  23.682  1.00  0.00     0.303 C 
ATOM     15  H   UNL A   1      30.950  25.723  22.487  1.00  0.00     0.349 HD
ATOM     16  C   UNL A   1      30.529  25.846  25.700  1.00  0.00     0.120 C 
ATOM     17  C   UNL A   1      30.961  23.474  24.965  1.00  0.00     0.052 A 
ATOM     18  C   UNL A   1      30.794  24.414  26.020  1.00  0.00     0.077 A 
ATOM     19  C   UNL A   1      31.725  22.466  25.597  1.00  0.00     0.056 A 
ATOM     20  N   UNL A   1      30.873  23.850  27.216  1.00  0.00    -0.180 NA
ATOM     21  N   UNL A   1      31.150  22.572  26.872  1.00  0.00    -0.281 N 
ATOM     22  H   UNL A   1      30.967  21.799  27.454  1.00  0.00     0.190 HD
BRANCH  19  23
ATOM     23  C   UNL A   1      32.916  21.411  25.495  1.00  0.00     0.098 C 
BRANCH  23  24
ATOM     24  C   UNL A   1      32.808  19.998  24.854  1.00  0.00    -0.035 A 
ATOM     25  C   UNL A   1      33.146  18.853  25.606  1.00  0.00     0.005 A 
ATOM     26  C   UNL A   1      32.527  19.759  23.491  1.00  0.00     0.005 A 
ATOM     27  C   UNL A   1      33.172  17.565  25.035  1.00  0.00     0.000 A 
ATOM     28  C   UNL A   1      32.539  18.477  22.917  1.00  0.00     0.000 A 
ATOM     29  C   UNL A   1      32.862  17.376  23.692  1.00  0.00     0.000 A 
ENDBRANCH  23  24
BRANCH  23  30
ATOM     30  C   UNL A   1      34.280  22.157  25.255  1.00  0.00    -0.035 A 
ATOM     31  C   UNL A   1      34.562  23.481  25.630  1.00  0.00     0.005 A 
ATOM     32  C   UNL A   1      35.344  21.457  24.647  1.00  0.00     0.005 A 
ATOM     33  C   UNL A   1      35.852  24.022  25.529  1.00  0.00     0.000 A 
ATOM     34  C   UNL A   1      36.635  21.983  24.559  1.00  0.00     0.000 A 
ATOM     35  C   UNL A   1      36.896  23.261  25.023  1.00  0.00     0.000 A 
ENDBRANCH  23  30
ENDBRANCH  19  23
ENDBRANCH  10  12
ENDBRANCH   8  10
ENDBRANCH   7   8
ENDBRANCH   6   7
ENDBRANCH   5   6
ENDBRANCH   4   5
ENDBRANCH   3   4
ENDBRANCH   2   3
ENDBRANCH   1   2
BRANCH   1  36
ATOM     36  C   UNL A   1      33.600  30.957  27.536  1.00  0.00     0.188 C 
BRANCH  36  37
ATOM     37  C   UNL A   1      33.575  32.490  27.707  1.00  0.00     0.188 C 
BRANCH  37  38
ATOM     38  O   UNL A   1      34.847  33.126  27.716  1.00  0.00    -0.376 OA
BRANCH  38  39
ATOM     39  C   UNL A   1      35.114  33.878  28.908  1.00  0.00     0.202 C 
BRANCH  39  40
ATOM     40  C   UNL A   1      33.935  34.748  29.378  1.00  0.00     0.261 C 
BRANCH  40  41
ATOM     41  O   UNL A   1      33.322  34.308  30.604  1.00  0.00    -0.460 OA
BRANCH  41  42
ATOM     42  C   UNL A   1      33.429  35.155  31.651  1.00  0.00     0.338 C 
ATOM     43  O   UNL A   1      32.689  36.076  31.934  1.00  0.00    -0.246 OA
BRANCH  42  44
ATOM     44  C   UNL A   1      34.553  34.699  32.485  1.00  0.00     0.060 A 
ATOM     45  C   UNL A   1      35.790  35.344  32.374  1.00  0.00     0.016 A 
ATOM     46  C   UNL A   1      34.400  33.581  33.309  1.00  0.00     0.016 A 
ATOM     47  C   UNL A   1      36.892  34.856  33.073  1.00  0.00     0.010 A 
ATOM     48  C   UNL A   1      35.512  33.076  33.987  1.00  0.00     0.010 A 
ATOM     49  C   UNL A   1      36.768  33.690  33.840  1.00  0.00    -0.014 A 
BRANCH  49  50
ATOM     50  C   UNL A   1      38.000  32.977  34.254  1.00  0.00     0.031 A 
ATOM     51  C   UNL A   1      38.466  31.831  33.395  1.00  0.00     0.074 A 
ATOM     52  C   UNL A   1      38.708  33.356  35.331  1.00  0.00     0.049 A 
ATOM     53  N   UNL A   1      39.509  31.057  33.534  1.00  0.00    -0.248 NA
ATOM     54  C   UNL A   1      37.641  31.527  32.214  1.00  0.00     0.031 C 
ATOM     55  C   UNL A   1      38.385  34.485  36.202  1.00  0.00     0.029 A 
ATOM     56  N   UNL A   1      39.851  32.826  35.876  1.00  0.00    -0.354 N 
ATOM     57  C   UNL A   1      39.475  30.182  32.454  1.00  0.00     0.074 A 
ATOM     58  C   UNL A   1      38.289  30.501  31.688  1.00  0.00     0.031 C 
ATOM     59  C   UNL A   1      39.304  34.554  37.182  1.00  0.00     0.029 A 
ATOM     60  C   UNL A   1      40.259  33.457  37.027  1.00  0.00     0.049 A 
ATOM     61  H   UNL A   1      40.332  32.065  35.480  1.00  0.00     0.167 HD
ATOM     62  C   UNL A   1      40.353  29.204  32.127  1.00  0.00     0.034 A 
ATOM     63  C   UNL A   1      41.275  33.163  37.865  1.00  0.00     0.034 A 
ATOM     64  C   UNL A   1      41.505  28.866  32.923  1.00  0.00     0.049 A 
ATOM     65  C   UNL A   1      42.171  31.988  37.546  1.00  0.00     0.074 A 
ATOM     66  C   UNL A   1      42.455  27.888  32.693  1.00  0.00     0.029 A 
ATOM     67  N   UNL A   1      41.849  29.483  34.119  1.00  0.00    -0.354 N 
ATOM     68  N   UNL A   1      42.139  31.177  36.511  1.00  0.00    -0.248 NA
ATOM     69  C   UNL A   1      43.245  31.693  38.504  1.00  0.00     0.031 C 
ATOM     70  C   UNL A   1      43.329  27.863  33.786  1.00  0.00     0.029 A 
ATOM     71  C   UNL A   1      42.974  28.880  34.659  1.00  0.00     0.049 A 
ATOM     72  H   UNL A   1      41.365  30.237  34.525  1.00  0.00     0.167 HD
ATOM     73  C   UNL A   1      43.210  30.302  36.681  1.00  0.00     0.074 A 
ATOM     74  C   UNL A   1      43.871  30.689  37.909  1.00  0.00     0.031 C 
ATOM     75  C   UNL A   1      43.617  29.275  35.891  1.00  0.00     0.034 A 
BRANCH  62  76
ATOM     76  C   UNL A   1      40.049  28.394  30.892  1.00  0.00     0.023 A 
ATOM     77  C   UNL A   1      40.673  28.662  29.660  1.00  0.00     0.031 A 
ATOM     78  C   UNL A   1      39.082  27.375  30.934  1.00  0.00     0.131 A 
ATOM     79  C   UNL A   1      40.276  27.965  28.509  1.00  0.00     0.055 A 
ATOM     80  C   UNL A   1      38.746  26.634  29.801  1.00  0.00     0.041 A 
ATOM     81  F   UNL A   1      38.434  27.096  32.076  1.00  0.00    -0.206 F 
ATOM     82  C   UNL A   1      39.333  26.936  28.576  1.00  0.00     0.022 A 
BRANCH  79  83
ATOM     83  S   UNL A   1      40.904  28.517  26.899  1.00  0.00     0.124 S 
ATOM     84  O   UNL A   1      42.094  29.269  27.288  1.00  0.00    -0.237 OA
ATOM     85  O   UNL A   1      41.143  27.258  26.205  1.00  0.00    -0.237 OA
ATOM     86  O   UNL A   1      39.811  29.327  26.365  1.00  0.00    -0.744 OA
ENDBRANCH  79  83
ENDBRANCH  62  76
BRANCH  63  87
ATOM     87  C   UNL A   1      41.483  33.952  39.115  1.00  0.00     0.023 A 
ATOM     88  C   UNL A   1      42.254  35.124  39.117  1.00  0.00     0.031 A 
ATOM     89  C   UNL A   1      40.973  33.496  40.345  1.00  0.00     0.131 A 
ATOM     90  C   UNL A   1      42.535  35.776  40.329  1.00  0.00     0.055 A 
ATOM     91  C   UNL A   1      41.210  34.176  41.540  1.00  0.00     0.041 A 
ATOM     92  F   UNL A   1      40.233  32.378  40.401  1.00  0.00    -0.206 F 
ATOM     93  C   UNL A   1      42.009  35.316  41.539  1.00  0.00     0.022 A 
BRANCH  90  94
ATOM     94  S   UNL A   1      43.676  37.186  40.314  1.00  0.00     0.124 S 
ATOM     95  O   UNL A   1      43.275  37.905  41.518  1.00  0.00    -0.237 OA
ATOM     96  O   UNL A   1      44.975  36.523  40.364  1.00  0.00    -0.237 OA
ATOM     97  O   UNL A   1      43.370  37.858  39.053  1.00  0.00    -0.744 OA
ENDBRANCH  90  94
ENDBRANCH  63  87
BRANCH  75  98
ATOM     98  C   UNL A   1      44.864  28.533  36.307  1.00  0.00     0.023 A 
ATOM     99  C   UNL A   1      46.140  28.911  35.854  1.00  0.00     0.031 A 
ATOM    100  C   UNL A   1      44.771  27.431  37.176  1.00  0.00     0.131 A 
ATOM    101  C   UNL A   1      47.266  28.161  36.231  1.00  0.00     0.055 A 
ATOM    102  C   UNL A   1      45.899  26.726  37.594  1.00  0.00     0.041 A 
ATOM    103  F   UNL A   1      43.578  27.026  37.640  1.00  0.00    -0.206 F 
ATOM    104  C   UNL A   1      47.155  27.082  37.111  1.00  0.00     0.022 A 
BRANCH 101 105
ATOM    105  S   UNL A   1      48.870  28.563  35.486  1.00  0.00     0.124 S 
ATOM    106  O   UNL A   1      48.590  29.834  34.826  1.00  0.00    -0.237 OA
ATOM    107  O   UNL A   1      49.747  28.629  36.650  1.00  0.00    -0.237 OA
ATOM    108  O   UNL A   1      49.121  27.439  34.586  1.00  0.00    -0.744 OA
ENDBRANCH 101 105
ENDBRANCH  75  98
ENDBRANCH  49  50
ENDBRANCH  42  44
ENDBRANCH  41  42
ENDBRANCH  40  41
ENDBRANCH  39  40
ENDBRANCH  38  39
ENDBRANCH  37  38
ENDBRANCH  36  37
ENDBRANCH   1  36
TORSDOF 27
ENDMDL
MODEL 2
REMARK VINA RESULT:      -9.9      2.156      2.572
REMARK SMILES C[C@@H](C(=O)OCCOCCOCCOCCOC(=O)c1ccc(-c2c3nc(c(-c4cc(S(=O)(=O)[O-])ccc4F)c4ccc([nH]4)c(-c4cc(S(=O)(=O)[O-])ccc4F)c4nc(c(-c5cc(S(=O)(=O)[O-])ccc5F)c5ccc2[nH]5)C=C4)C=C3)cc1)[N@@H+]1CCc2n[nH]c(C(c3ccccc3)c3ccccc3)c2C1
REMARK SMILES IDX 11 1 10 2 9 3 8 4 7 5 6 6 5 7 3 8 4 9 2 10 1 11 83 12 84 13
REMARK SMILES IDX 104 14 85 16 103 17 86 18 89 19 87 20 88 21 90 23 91 24
REMARK SMILES IDX 92 25 96 26 93 27 95 28 94 29 97 30 98 31 102 32 99 33
REMARK SMILES IDX 101 34 100 35 12 36 13 37 14 38 15 39 16 40 17 41 18 42
REMARK SMILES IDX 19 43 20 44 21 45 82 46 22 47 81 48 23 49 24 50 25 51 75 52
REMARK SMILES IDX 26 53 80 54 74 55 76 56 27 57 79 58 73 59 72 60 28 62 60 63
REMARK SMILES IDX 40 64 59 65 41 66 44 67 58 68 77 69 42 70 43 71 57 73 78 74
REMARK SMILES IDX 45 75 29 76 30 77 38 78 31 79 37 80 39 81 36 82 32 83 33 84
REMARK SMILES IDX 34 85 35 86 61 87 62 88 70 89 63 90 69 91 71 92 68 93 64 94
REMARK SMILES IDX 65 95 66 96 67 97 46 98 47 99 55 100 48 101 54 102 56 103
REMARK SMILES IDX 53 104 49 105 50 106 51 107 52 108
REMARK H PARENT 83 15 88 22 76 61 44 72
REMARK Flexibility Score: inf
ROOT
ATOM      1  O   UNL A   1      32.478  30.007  27.271  1.00  0.00    -0.377 OA
ENDROOT
BRANCH   1   2
ATOM      2  C   UNL A   1      32.435  29.133  26.143  1.00  0.00     0.188 C 
BRANCH   2   3
ATOM      3  C   UNL A   1      33.607  28.146  25.992  1.00  0.00     0.188 C 
BRANCH   3   4
ATOM      4  O   UNL A   1      34.062  27.873  24.663  1.00  0.00    -0.376 OA
BRANCH   4   5
ATOM      5  C   UNL A   1      33.629  28.734  23.597  1.00  0.00     0.202 C 
BRANCH   5   6
ATOM      6  C   UNL A   1      33.617  27.936  22.231  1.00  0.00     0.261 C 
BRANCH   6   7
ATOM      7  O   UNL A   1      33.860  26.502  22.449  1.00  0.00    -0.459 OA
BRANCH   7   8
ATOM      8  C   UNL A   1      33.231  25.505  21.751  1.00  0.00     0.364 C 
ATOM      9  O   UNL A   1      33.285  25.402  20.530  1.00  0.00    -0.245 OA
BRANCH   8  10
ATOM     10  C   UNL A   1      32.502  24.423  22.707  1.00  0.00     0.292 C 
ATOM     11  C   UNL A   1      32.526  22.975  22.215  1.00  0.00     0.088 C 
BRANCH  10  12
ATOM     12  N   UNL A   1      31.171  24.915  23.197  1.00  0.00    -0.319 N 
ATOM     13  C   UNL A   1      31.090  25.996  24.221  1.00  0.00     0.269 C 
ATOM     14  C   UNL A   1      30.377  23.783  23.635  1.00  0.00     0.303 C 
ATOM     15  H   UNL A   1      30.816  25.393  22.369  1.00  0.00     0.349 HD
ATOM     16  C   UNL A   1      30.317  25.651  25.563  1.00  0.00     0.120 C 
ATOM     17  C   UNL A   1      30.887  23.272  24.957  1.00  0.00     0.052 A 
ATOM     18  C   UNL A   1      30.648  24.252  25.960  1.00  0.00     0.077 A 
ATOM     19  C   UNL A   1      31.688  22.337  25.653  1.00  0.00     0.056 A 
ATOM     20  N   UNL A   1      30.730  23.752  27.184  1.00  0.00    -0.180 NA
ATOM     21  N   UNL A   1      31.079  22.475  26.910  1.00  0.00    -0.281 N 
ATOM     22  H   UNL A   1      30.924  21.723  27.526  1.00  0.00     0.190 HD
BRANCH  19  23
ATOM     23  C   UNL A   1      32.933  21.343  25.628  1.00  0.00     0.098 C 
BRANCH  23  24
ATOM     24  C   UNL A   1      32.892  19.868  25.134  1.00  0.00    -0.035 A 
ATOM     25  C   UNL A   1      32.740  19.588  23.759  1.00  0.00     0.005 A 
ATOM     26  C   UNL A   1      32.851  18.742  25.984  1.00  0.00     0.005 A 
ATOM     27  C   UNL A   1      32.585  18.273  23.278  1.00  0.00     0.000 A 
ATOM     28  C   UNL A   1      32.708  17.427  25.512  1.00  0.00     0.000 A 
ATOM     29  C   UNL A   1      32.576  17.191  24.153  1.00  0.00     0.000 A 
ENDBRANCH  23  24
BRANCH  23  30
ATOM     30  C   UNL A   1      34.249  22.132  25.280  1.00  0.00    -0.035 A 
ATOM     31  C   UNL A   1      35.320  21.635  24.518  1.00  0.00     0.005 A 
ATOM     32  C   UNL A   1      34.384  23.465  25.723  1.00  0.00     0.005 A 
ATOM     33  C   UNL A   1      36.385  22.453  24.114  1.00  0.00     0.000 A 
ATOM     34  C   UNL A   1      35.432  24.291  25.311  1.00  0.00     0.000 A 
ATOM     35  C   UNL A   1      36.424  23.790  24.484  1.00  0.00     0.000 A 
ENDBRANCH  23  30
ENDBRANCH  19  23
ENDBRANCH  10  12
ENDBRANCH   8  10
ENDBRANCH   7   8
ENDBRANCH   6   7
ENDBRANCH   5   6
ENDBRANCH   4   5
ENDBRANCH   3   4
ENDBRANCH   2   3
ENDBRANCH   1   2
BRANCH   1  36
ATOM     36  C   UNL A   1      33.772  30.465  27.645  1.00  0.00     0.188 C 
BRANCH  36  37
ATOM     37  C   UNL A   1      34.060  31.980  27.602  1.00  0.00     0.188 C 
BRANCH  37  38
ATOM     38  O   UNL A   1      35.434  32.343  27.657  1.00  0.00    -0.376 OA
BRANCH  38  39
ATOM     39  C   UNL A   1      35.785  33.119  28.812  1.00  0.00     0.202 C 
BRANCH  39  40
ATOM     40  C   UNL A   1      34.743  34.184  29.194  1.00  0.00     0.261 C 
BRANCH  40  41
ATOM     41  O   UNL A   1      33.895  33.819  30.298  1.00  0.00    -0.460 OA
BRANCH  41  42
ATOM     42  C   UNL A   1      34.004  34.590  31.402  1.00  0.00     0.338 C 
ATOM     43  O   UNL A   1      33.243  35.463  31.770  1.00  0.00    -0.246 OA
BRANCH  42  44
ATOM     44  C   UNL A   1      35.162  34.109  32.173  1.00  0.00     0.060 A 
ATOM     45  C   UNL A   1      36.298  34.920  32.273  1.00  0.00     0.016 A 
ATOM     46  C   UNL A   1      35.149  32.824  32.722  1.00  0.00     0.016 A 
ATOM     47  C   UNL A   1      37.442  34.437  32.905  1.00  0.00     0.010 A 
ATOM     48  C   UNL A   1      36.305  32.331  33.330  1.00  0.00     0.010 A 
ATOM     49  C   UNL A   1      37.466  33.122  33.389  1.00  0.00    -0.014 A 
BRANCH  49  50
ATOM     50  C   UNL A   1      38.776  32.502  33.700  1.00  0.00     0.031 A 
ATOM     51  C   UNL A   1      39.386  31.599  32.661  1.00  0.00     0.074 A 
ATOM     52  C   UNL A   1      39.426  32.763  34.847  1.00  0.00     0.049 A 
ATOM     53  N   UNL A   1      40.517  30.946  32.686  1.00  0.00    -0.248 NA
ATOM     54  C   UNL A   1      38.611  31.416  31.423  1.00  0.00     0.031 C 
ATOM     55  C   UNL A   1      38.960  33.665  35.898  1.00  0.00     0.029 A 
ATOM     56  N   UNL A   1      40.624  32.287  35.317  1.00  0.00    -0.354 N 
ATOM     57  C   UNL A   1      40.598  30.286  31.465  1.00  0.00     0.074 A 
ATOM     58  C   UNL A   1      39.385  30.591  30.738  1.00  0.00     0.031 C 
ATOM     59  C   UNL A   1      39.859  33.666  36.899  1.00  0.00     0.029 A 
ATOM     60  C   UNL A   1      40.945  32.742  36.574  1.00  0.00     0.049 A 
ATOM     61  H   UNL A   1      41.200  31.676  34.803  1.00  0.00     0.167 HD
ATOM     62  C   UNL A   1      41.595  29.500  30.990  1.00  0.00     0.034 A 
ATOM     63  C   UNL A   1      41.986  32.428  37.373  1.00  0.00     0.034 A 
ATOM     64  C   UNL A   1      42.776  29.167  31.743  1.00  0.00     0.049 A 
ATOM     65  C   UNL A   1      43.025  31.450  36.870  1.00  0.00     0.074 A 
ATOM     66  C   UNL A   1      43.843  28.372  31.366  1.00  0.00     0.029 A 
ATOM     67  N   UNL A   1      43.035  29.592  33.040  1.00  0.00    -0.354 N 
ATOM     68  N   UNL A   1      43.100  30.844  35.705  1.00  0.00    -0.248 NA
ATOM     69  C   UNL A   1      44.124  31.120  37.788  1.00  0.00     0.031 C 
ATOM     70  C   UNL A   1      44.709  28.256  32.460  1.00  0.00     0.029 A 
ATOM     71  C   UNL A   1      44.225  29.044  33.492  1.00  0.00     0.049 A 
ATOM     72  H   UNL A   1      42.458  30.195  33.561  1.00  0.00     0.167 HD
ATOM     73  C   UNL A   1      44.272  30.091  35.743  1.00  0.00     0.074 A 
ATOM     74  C   UNL A   1      44.874  30.325  37.038  1.00  0.00     0.031 C 
ATOM     75  C   UNL A   1      44.808  29.284  34.791  1.00  0.00     0.034 A 
BRANCH  62  76
ATOM     76  C   UNL A   1      41.399  28.899  29.621  1.00  0.00     0.023 A 
ATOM     77  C   UNL A   1      40.800  27.639  29.446  1.00  0.00     0.031 A 
ATOM     78  C   UNL A   1      41.866  29.572  28.480  1.00  0.00     0.131 A 
ATOM     79  C   UNL A   1      40.743  27.063  28.168  1.00  0.00     0.055 A 
ATOM     80  C   UNL A   1      41.739  29.026  27.201  1.00  0.00     0.041 A 
ATOM     81  F   UNL A   1      42.473  30.764  28.591  1.00  0.00    -0.206 F 
ATOM     82  C   UNL A   1      41.188  27.759  27.041  1.00  0.00     0.022 A 
BRANCH  79  83
ATOM     83  S   UNL A   1      40.213  25.334  28.016  1.00  0.00     0.124 S 
ATOM     84  O   UNL A   1      39.970  25.224  26.581  1.00  0.00    -0.237 OA
ATOM     85  O   UNL A   1      41.368  24.605  28.526  1.00  0.00    -0.237 OA
ATOM     86  O   UNL A   1      39.015  25.269  28.851  1.00  0.00    -0.744 OA
ENDBRANCH  79  83
ENDBRANCH  62  76
BRANCH  63  87
ATOM     87  C   UNL A   1      42.088  32.994  38.749  1.00  0.00     0.023 A 
ATOM     88  C   UNL A   1      41.576  32.305  39.860  1.00  0.00     0.031 A 
ATOM     89  C   UNL A   1      42.634  34.273  38.962  1.00  0.00     0.131 A 
ATOM     90  C   UNL A   1      41.575  32.917  41.124  1.00  0.00     0.055 A 
ATOM     91  C   UNL A   1      42.679  34.855  40.229  1.00  0.00     0.041 A 
ATOM     92  F   UNL A   1      43.134  34.977  37.934  1.00  0.00    -0.206 F 
ATOM     93  C   UNL A   1      42.134  34.182  41.318  1.00  0.00     0.022 A 
BRANCH  90  94
ATOM     94  S   UNL A   1      40.748  32.070  42.499  1.00  0.00     0.124 S 
ATOM     95  O   UNL A   1      40.124  33.185  43.202  1.00  0.00    -0.237 OA
ATOM     96  O   UNL A   1      39.844  31.166  41.796  1.00  0.00    -0.237 OA
ATOM     97  O   UNL A   1      41.848  31.421  43.209  1.00  0.00    -0.744 OA
ENDBRANCH  90  94
ENDBRANCH  63  87
BRANCH  75  98
ATOM     98  C   UNL A   1      46.137  28.638  35.101  1.00  0.00     0.023 A 
ATOM     99  C   UNL A   1      46.227  27.359  35.676  1.00  0.00     0.031 A 
ATOM    100  C   UNL A   1      47.334  29.318  34.810  1.00  0.00     0.131 A 
ATOM    101  C   UNL A   1      47.485  26.821  35.989  1.00  0.00     0.055 A 
ATOM    102  C   UNL A   1      48.583  28.753  35.070  1.00  0.00     0.041 A 
ATOM    103  F   UNL A   1      47.308  30.543  34.260  1.00  0.00    -0.206 F 
ATOM    104  C   UNL A   1      48.663  27.502  35.675  1.00  0.00     0.022 A 
BRANCH 101 105
ATOM    105  S   UNL A   1      47.560  25.251  36.895  1.00  0.00     0.124 S 
ATOM    106  O   UNL A   1      46.274  25.234  37.584  1.00  0.00    -0.237 OA
ATOM    107  O   UNL A   1      47.720  24.277  35.820  1.00  0.00    -0.237 OA
ATOM    108  O   UNL A   1      48.726  25.411  37.762  1.00  0.00    -0.744 OA
ENDBRANCH 101 105
ENDBRANCH  75  98
ENDBRANCH  49  50
ENDBRANCH  42  44
ENDBRANCH  41  42
ENDBRANCH  40  41
ENDBRANCH  39  40
ENDBRANCH  38  39
ENDBRANCH  37  38
ENDBRANCH  36  37
ENDBRANCH   1  36
TORSDOF 27
ENDMDL
MODEL 3
REMARK VINA RESULT:      -9.8      7.650      9.686
REMARK SMILES C[C@@H](C(=O)OCCOCCOCCOCCOC(=O)c1ccc(-c2c3nc(c(-c4cc(S(=O)(=O)[O-])ccc4F)c4ccc([nH]4)c(-c4cc(S(=O)(=O)[O-])ccc4F)c4nc(c(-c5cc(S(=O)(=O)[O-])ccc5F)c5ccc2[nH]5)C=C4)C=C3)cc1)[N@@H+]1CCc2n[nH]c(C(c3ccccc3)c3ccccc3)c2C1
REMARK SMILES IDX 11 1 10 2 9 3 8 4 7 5 6 6 5 7 3 8 4 9 2 10 1 11 83 12 84 13
REMARK SMILES IDX 104 14 85 16 103 17 86 18 89 19 87 20 88 21 90 23 91 24
REMARK SMILES IDX 92 25 96 26 93 27 95 28 94 29 97 30 98 31 102 32 99 33
REMARK SMILES IDX 101 34 100 35 12 36 13 37 14 38 15 39 16 40 17 41 18 42
REMARK SMILES IDX 19 43 20 44 21 45 82 46 22 47 81 48 23 49 24 50 25 51 75 52
REMARK SMILES IDX 26 53 80 54 74 55 76 56 27 57 79 58 73 59 72 60 28 62 60 63
REMARK SMILES IDX 40 64 59 65 41 66 44 67 58 68 77 69 42 70 43 71 57 73 78 74
REMARK SMILES IDX 45 75 29 76 30 77 38 78 31 79 37 80 39 81 36 82 32 83 33 84
REMARK SMILES IDX 34 85 35 86 61 87 62 88 70 89 63 90 69 91 71 92 68 93 64 94
REMARK SMILES IDX 65 95 66 96 67 97 46 98 47 99 55 100 48 101 54 102 56 103
REMARK SMILES IDX 53 104 49 105 50 106 51 107 52 108
REMARK H PARENT 83 15 88 22 76 61 44 72
REMARK Flexibility Score: inf
ROOT
ATOM      1  O   UNL A   1      32.484  30.473  27.080  1.00  0.00    -0.377 OA
ENDROOT
BRANCH   1   2
ATOM      2  C   UNL A   1      32.533  29.726  25.865  1.00  0.00     0.188 C 
BRANCH   2   3
ATOM      3  C   UNL A   1      33.622  28.643  25.765  1.00  0.00     0.188 C 
BRANCH   3   4
ATOM      4  O   UNL A   1      34.027  28.245  24.452  1.00  0.00    -0.376 OA
BRANCH   4   5
ATOM      5  C   UNL A   1      33.162  28.544  23.344  1.00  0.00     0.202 C 
BRANCH   5   6
ATOM      6  C   UNL A   1      33.748  27.916  22.017  1.00  0.00     0.261 C 
BRANCH   6   7
ATOM      7  O   UNL A   1      34.008  26.477  22.178  1.00  0.00    -0.459 OA
BRANCH   7   8
ATOM      8  C   UNL A   1      33.248  25.493  21.600  1.00  0.00     0.364 C 
ATOM      9  O   UNL A   1      33.066  25.410  20.390  1.00  0.00    -0.245 OA
BRANCH   8  10
ATOM     10  C   UNL A   1      32.710  24.399  22.662  1.00  0.00     0.292 C 
ATOM     11  C   UNL A   1      32.737  22.943  22.192  1.00  0.00     0.088 C 
BRANCH  10  12
ATOM     12  N   UNL A   1      31.438  24.839  23.324  1.00  0.00    -0.319 N 
ATOM     13  C   UNL A   1      31.460  25.853  24.417  1.00  0.00     0.269 C 
ATOM     14  C   UNL A   1      30.706  23.670  23.774  1.00  0.00     0.303 C 
ATOM     15  H   UNL A   1      30.989  25.361  22.572  1.00  0.00     0.349 HD
ATOM     16  C   UNL A   1      30.842  25.414  25.811  1.00  0.00     0.120 C 
ATOM     17  C   UNL A   1      31.362  23.086  24.997  1.00  0.00     0.052 A 
ATOM     18  C   UNL A   1      31.226  23.999  26.080  1.00  0.00     0.077 A 
ATOM     19  C   UNL A   1      32.242  22.123  25.542  1.00  0.00     0.056 A 
ATOM     20  N   UNL A   1      31.446  23.425  27.254  1.00  0.00    -0.180 NA
ATOM     21  N   UNL A   1      31.774  22.174  26.864  1.00  0.00    -0.281 N 
ATOM     22  H   UNL A   1      31.694  21.383  27.445  1.00  0.00     0.190 HD
BRANCH  19  23
ATOM     23  C   UNL A   1      33.486  21.151  25.319  1.00  0.00     0.098 C 
BRANCH  23  24
ATOM     24  C   UNL A   1      33.460  19.841  24.481  1.00  0.00    -0.035 A 
ATOM     25  C   UNL A   1      32.450  19.640  23.515  1.00  0.00     0.005 A 
ATOM     26  C   UNL A   1      34.304  18.732  24.705  1.00  0.00     0.005 A 
ATOM     27  C   UNL A   1      32.319  18.425  22.813  1.00  0.00     0.000 A 
ATOM     28  C   UNL A   1      34.188  17.522  24.001  1.00  0.00     0.000 A 
ATOM     29  C   UNL A   1      33.193  17.368  23.050  1.00  0.00     0.000 A 
ENDBRANCH  23  24
BRANCH  23  30
ATOM     30  C   UNL A   1      34.815  21.987  25.218  1.00  0.00    -0.035 A 
ATOM     31  C   UNL A   1      35.765  21.885  24.189  1.00  0.00     0.005 A 
ATOM     32  C   UNL A   1      35.090  22.955  26.208  1.00  0.00     0.005 A 
ATOM     33  C   UNL A   1      36.842  22.778  24.082  1.00  0.00     0.000 A 
ATOM     34  C   UNL A   1      36.150  23.858  26.099  1.00  0.00     0.000 A 
ATOM     35  C   UNL A   1      37.016  23.785  25.020  1.00  0.00     0.000 A 
ENDBRANCH  23  30
ENDBRANCH  19  23
ENDBRANCH  10  12
ENDBRANCH   8  10
ENDBRANCH   7   8
ENDBRANCH   6   7
ENDBRANCH   5   6
ENDBRANCH   4   5
ENDBRANCH   3   4
ENDBRANCH   2   3
ENDBRANCH   1   2
BRANCH   1  36
ATOM     36  C   UNL A   1      33.634  31.263  27.363  1.00  0.00     0.188 C 
BRANCH  36  37
ATOM     37  C   UNL A   1      33.451  32.579  28.147  1.00  0.00     0.188 C 
BRANCH  37  38
ATOM     38  O   UNL A   1      34.008  33.737  27.537  1.00  0.00    -0.376 OA
BRANCH  38  39
ATOM     39  C   UNL A   1      35.098  34.314  28.270  1.00  0.00     0.202 C 
BRANCH  39  40
ATOM     40  C   UNL A   1      35.329  33.681  29.654  1.00  0.00     0.261 C 
BRANCH  40  41
ATOM     41  O   UNL A   1      36.644  33.130  29.845  1.00  0.00    -0.460 OA
BRANCH  41  42
ATOM     42  C   UNL A   1      37.299  33.542  30.953  1.00  0.00     0.338 C 
ATOM     43  O   UNL A   1      36.937  33.427  32.107  1.00  0.00    -0.246 OA
BRANCH  42  44
ATOM     44  C   UNL A   1      38.610  34.061  30.535  1.00  0.00     0.060 A 
ATOM     45  C   UNL A   1      38.863  34.257  29.172  1.00  0.00     0.016 A 
ATOM     46  C   UNL A   1      39.612  34.272  31.486  1.00  0.00     0.016 A 
ATOM     47  C   UNL A   1      40.133  34.643  28.750  1.00  0.00     0.010 A 
ATOM     48  C   UNL A   1      40.893  34.630  31.059  1.00  0.00     0.010 A 
ATOM     49  C   UNL A   1      41.165  34.780  29.688  1.00  0.00    -0.014 A 
BRANCH  49  50
ATOM     50  C   UNL A   1      42.566  34.807  29.205  1.00  0.00     0.031 A 
ATOM     51  C   UNL A   1      43.122  36.130  28.748  1.00  0.00     0.074 A 
ATOM     52  C   UNL A   1      43.337  33.706  29.211  1.00  0.00     0.049 A 
ATOM     53  N   UNL A   1      44.311  36.420  28.291  1.00  0.00    -0.248 NA
ATOM     54  C   UNL A   1      42.207  37.280  28.824  1.00  0.00     0.031 C 
ATOM     55  C   UNL A   1      42.925  32.386  29.685  1.00  0.00     0.029 A 
ATOM     56  N   UNL A   1      44.634  33.527  28.800  1.00  0.00    -0.354 N 
ATOM     57  C   UNL A   1      44.294  37.787  28.038  1.00  0.00     0.074 A 
ATOM     58  C   UNL A   1      42.965  38.260  28.360  1.00  0.00     0.031 C 
ATOM     59  C   UNL A   1      43.949  31.529  29.525  1.00  0.00     0.029 A 
ATOM     60  C   UNL A   1      45.074  32.230  28.909  1.00  0.00     0.049 A 
ATOM     61  H   UNL A   1      45.197  34.260  28.459  1.00  0.00     0.167 HD
ATOM     62  C   UNL A   1      45.295  38.578  27.582  1.00  0.00     0.034 A 
ATOM     63  C   UNL A   1      46.246  31.675  28.531  1.00  0.00     0.034 A 
ATOM     64  C   UNL A   1      46.600  38.087  27.222  1.00  0.00     0.049 A 
ATOM     65  C   UNL A   1      47.306  32.555  27.909  1.00  0.00     0.074 A 
ATOM     66  C   UNL A   1      47.685  38.794  26.739  1.00  0.00     0.029 A 
ATOM     67  N   UNL A   1      46.988  36.754  27.281  1.00  0.00    -0.354 N 
ATOM     68  N   UNL A   1      47.284  33.852  27.690  1.00  0.00    -0.248 NA
ATOM     69  C   UNL A   1      48.551  31.899  27.490  1.00  0.00     0.031 C 
ATOM     70  C   UNL A   1      48.702  37.882  26.437  1.00  0.00     0.029 A 
ATOM     71  C   UNL A   1      48.283  36.614  26.807  1.00  0.00     0.049 A 
ATOM     72  H   UNL A   1      46.426  36.017  27.611  1.00  0.00     0.167 HD
ATOM     73  C   UNL A   1      48.526  34.165  27.141  1.00  0.00     0.074 A 
ATOM     74  C   UNL A   1      49.273  32.927  27.071  1.00  0.00     0.031 C 
ATOM     75  C   UNL A   1      49.010  35.368  26.737  1.00  0.00     0.034 A 
BRANCH  62  76
ATOM     76  C   UNL A   1      44.979  40.039  27.388  1.00  0.00     0.023 A 
ATOM     77  C   UNL A   1      44.482  40.532  26.168  1.00  0.00     0.031 A 
ATOM     78  C   UNL A   1      45.227  40.960  28.420  1.00  0.00     0.131 A 
ATOM     79  C   UNL A   1      44.312  41.913  25.989  1.00  0.00     0.055 A 
ATOM     80  C   UNL A   1      44.985  42.326  28.260  1.00  0.00     0.041 A 
ATOM     81  F   UNL A   1      45.730  40.550  29.595  1.00  0.00    -0.206 F 
ATOM     82  C   UNL A   1      44.538  42.812  27.035  1.00  0.00     0.022 A 
BRANCH  79  83
ATOM     83  S   UNL A   1      43.929  42.533  24.327  1.00  0.00     0.124 S 
ATOM     84  O   UNL A   1      43.831  43.971  24.563  1.00  0.00    -0.237 OA
ATOM     85  O   UNL A   1      45.083  42.091  23.553  1.00  0.00    -0.237 OA
ATOM     86  O   UNL A   1      42.667  41.874  23.997  1.00  0.00    -0.744 OA
ENDBRANCH  79  83
ENDBRANCH  62  76
BRANCH  63  87
ATOM     87  C   UNL A   1      46.475  30.207  28.676  1.00  0.00     0.023 A 
ATOM     88  C   UNL A   1      47.095  29.677  29.818  1.00  0.00     0.031 A 
ATOM     89  C   UNL A   1      46.143  29.322  27.635  1.00  0.00     0.131 A 
ATOM     90  C   UNL A   1      47.410  28.309  29.872  1.00  0.00     0.055 A 
ATOM     91  C   UNL A   1      46.410  27.954  27.715  1.00  0.00     0.041 A 
ATOM     92  F   UNL A   1      45.553  29.777  26.518  1.00  0.00    -0.206 F 
ATOM     93  C   UNL A   1      47.060  27.443  28.834  1.00  0.00     0.022 A 
BRANCH  90  94
ATOM     94  S   UNL A   1      48.366  27.692  31.285  1.00  0.00     0.124 S 
ATOM     95  O   UNL A   1      48.145  28.743  32.273  1.00  0.00    -0.237 OA
ATOM     96  O   UNL A   1      47.718  26.412  31.553  1.00  0.00    -0.237 OA
ATOM     97  O   UNL A   1      49.727  27.603  30.762  1.00  0.00    -0.744 OA
ENDBRANCH  90  94
ENDBRANCH  63  87
BRANCH  75  98
ATOM     98  C   UNL A   1      50.433  35.407  26.233  1.00  0.00     0.023 A 
ATOM     99  C   UNL A   1      51.534  35.323  27.104  1.00  0.00     0.031 A 
ATOM    100  C   UNL A   1      50.689  35.529  24.855  1.00  0.00     0.131 A 
ATOM    101  C   UNL A   1      52.838  35.411  26.593  1.00  0.00     0.055 A 
ATOM    102  C   UNL A   1      51.988  35.558  24.347  1.00  0.00     0.041 A 
ATOM    103  F   UNL A   1      49.676  35.614  23.978  1.00  0.00    -0.206 F 
ATOM    104  C   UNL A   1      53.072  35.512  25.219  1.00  0.00     0.022 A 
BRANCH 101 105
ATOM    105  S   UNL A   1      54.227  35.482  27.757  1.00  0.00     0.124 S 
ATOM    106  O   UNL A   1      54.225  34.134  28.316  1.00  0.00    -0.237 OA
ATOM    107  O   UNL A   1      55.350  35.807  26.884  1.00  0.00    -0.237 OA
ATOM    108  O   UNL A   1      53.842  36.540  28.688  1.00  0.00    -0.744 OA
ENDBRANCH 101 105
ENDBRANCH  75  98
ENDBRANCH  49  50
ENDBRANCH  42  44
ENDBRANCH  41  42
ENDBRANCH  40  41
ENDBRANCH  39  40
ENDBRANCH  38  39
ENDBRANCH  37  38
ENDBRANCH  36  37
ENDBRANCH   1  36
TORSDOF 27
ENDMDL
