MODEL 1
REMARK VINA RESULT:      -7.0      0.000      0.000
REMARK SMILES COc1ccc(-c2nc3ccc(C)cc3[nH]2)c(C(=O)OCCOCCOCCOCCOC(=O)c2ccc(-c3c4nc(c(-c5cc(S(=O)(=O)[O-])ccc5F)c5ccc([nH]5)c(-c5cc(S(=O)(=O)[O-])ccc5F)c5nc(c(-c6cc(S(=O)(=O)[O-])ccc6F)c6ccc3[nH]6)C=C5)C=C4)cc2)c1OC
REMARK SMILES IDX 27 1 26 2 25 3 24 4 23 5 22 6 21 7 20 8 18 9 19 10 17 11
REMARK SMILES IDX 3 12 4 13 98 14 5 15 6 16 2 17 1 18 99 19 100 20 7 21 8 22
REMARK SMILES IDX 16 23 9 24 15 25 10 27 14 28 11 29 12 30 13 31 28 32 29 33
REMARK SMILES IDX 30 34 31 35 32 36 33 37 34 38 35 39 36 40 97 41 37 42 96 43
REMARK SMILES IDX 38 44 39 45 40 46 90 47 41 48 95 49 89 50 91 51 42 52 94 53
REMARK SMILES IDX 88 54 87 55 43 57 75 58 55 59 74 60 56 61 59 62 73 63 92 64
REMARK SMILES IDX 57 65 58 66 72 68 93 69 60 70 44 71 45 72 53 73 46 74 52 75
REMARK SMILES IDX 54 76 51 77 47 78 48 79 49 80 50 81 76 82 77 83 85 84 78 85
REMARK SMILES IDX 84 86 86 87 83 88 79 89 80 90 81 91 82 92 61 93 62 94 70 95
REMARK SMILES IDX 63 96 69 97 71 98 68 99 64 100 65 101 66 102 67 103
REMARK H PARENT 16 26 91 56 59 67
REMARK Flexibility Score: inf
ROOT
ATOM      1  C   UNL A   1      50.113  31.935  27.954  1.00  0.00     0.188 C 
ENDROOT
BRANCH   1   2
ATOM      2  O   UNL A   1      48.750  31.571  28.125  1.00  0.00    -0.377 OA
BRANCH   2   3
ATOM      3  C   UNL A   1      48.080  32.240  29.184  1.00  0.00     0.188 C 
BRANCH   3   4
ATOM      4  C   UNL A   1      48.573  33.619  29.639  1.00  0.00     0.188 C 
BRANCH   4   5
ATOM      5  O   UNL A   1      47.619  34.676  29.485  1.00  0.00    -0.376 OA
BRANCH   5   6
ATOM      6  C   UNL A   1      48.212  35.965  29.325  1.00  0.00     0.202 C 
BRANCH   6   7
ATOM      7  C   UNL A   1      47.443  37.032  30.109  1.00  0.00     0.261 C 
BRANCH   7   8
ATOM      8  O   UNL A   1      46.398  37.626  29.319  1.00  0.00    -0.460 OA
BRANCH   8   9
ATOM      9  C   UNL A   1      46.367  38.973  29.194  1.00  0.00     0.342 C 
ATOM     10  O   UNL A   1      47.232  39.757  29.552  1.00  0.00    -0.246 OA
BRANCH   9  11
ATOM     11  C   UNL A   1      45.156  39.354  28.415  1.00  0.00     0.116 A 
ATOM     12  C   UNL A   1      44.136  40.219  26.386  1.00  0.00     0.161 A 
ATOM     13  C   UNL A   1      42.887  40.185  27.012  1.00  0.00     0.051 A 
ATOM     14  C   UNL A   1      45.281  39.792  27.075  1.00  0.00     0.176 A 
ATOM     15  C   UNL A   1      42.759  39.745  28.331  1.00  0.00     0.017 A 
ATOM     16  C   UNL A   1      43.890  39.358  29.062  1.00  0.00     0.036 A 
BRANCH  12  17
ATOM     17  O   UNL A   1      44.158  40.827  25.160  1.00  0.00    -0.493 OA
ATOM     18  C   UNL A   1      43.456  42.065  25.107  1.00  0.00     0.278 C 
ENDBRANCH  12  17
BRANCH  14  19
ATOM     19  O   UNL A   1      46.507  39.715  26.462  1.00  0.00    -0.492 OA
ATOM     20  C   UNL A   1      47.316  40.891  26.587  1.00  0.00     0.278 C 
ENDBRANCH  14  19
BRANCH  16  21
ATOM     21  C   UNL A   1      43.771  39.283  30.521  1.00  0.00     0.139 A 
ATOM     22  N   UNL A   1      43.562  40.346  31.263  1.00  0.00    -0.228 NA
ATOM     23  N   UNL A   1      43.828  38.167  31.328  1.00  0.00    -0.338 N 
ATOM     24  C   UNL A   1      43.745  39.969  32.554  1.00  0.00     0.089 A 
ATOM     25  C   UNL A   1      43.846  38.589  32.645  1.00  0.00     0.066 A 
ATOM     26  H   UNL A   1      43.850  37.232  31.020  1.00  0.00     0.168 HD
ATOM     27  C   UNL A   1      43.854  40.771  33.694  1.00  0.00     0.031 A 
ATOM     28  C   UNL A   1      43.975  37.935  33.875  1.00  0.00     0.031 A 
ATOM     29  C   UNL A   1      44.037  40.146  34.927  1.00  0.00     0.006 A 
ATOM     30  C   UNL A   1      44.067  38.746  35.028  1.00  0.00    -0.049 A 
ATOM     31  C   UNL A   1      44.239  38.140  36.391  1.00  0.00     0.044 C 
ENDBRANCH  16  21
ENDBRANCH   9  11
ENDBRANCH   8   9
ENDBRANCH   7   8
ENDBRANCH   6   7
ENDBRANCH   5   6
ENDBRANCH   4   5
ENDBRANCH   3   4
ENDBRANCH   2   3
ENDBRANCH   1   2
BRANCH   1  32
ATOM     32  C   UNL A   1      50.416  32.354  26.502  1.00  0.00     0.188 C 
BRANCH  32  33
ATOM     33  O   UNL A   1      49.344  33.074  25.894  1.00  0.00    -0.376 OA
BRANCH  33  34
ATOM     34  C   UNL A   1      49.233  34.460  26.190  1.00  0.00     0.202 C 
BRANCH  34  35
ATOM     35  C   UNL A   1      48.224  35.311  25.399  1.00  0.00     0.261 C 
BRANCH  35  36
ATOM     36  O   UNL A   1      46.956  35.564  26.026  1.00  0.00    -0.460 OA
BRANCH  36  37
ATOM     37  C   UNL A   1      45.867  34.899  25.584  1.00  0.00     0.338 C 
ATOM     38  O   UNL A   1      45.738  34.333  24.514  1.00  0.00    -0.246 OA
BRANCH  37  39
ATOM     39  C   UNL A   1      44.942  34.781  26.738  1.00  0.00     0.060 A 
ATOM     40  C   UNL A   1      44.352  35.943  27.254  1.00  0.00     0.016 A 
ATOM     41  C   UNL A   1      44.586  33.525  27.240  1.00  0.00     0.016 A 
ATOM     42  C   UNL A   1      43.414  35.852  28.286  1.00  0.00     0.010 A 
ATOM     43  C   UNL A   1      43.672  33.438  28.295  1.00  0.00     0.010 A 
ATOM     44  C   UNL A   1      43.105  34.602  28.840  1.00  0.00    -0.014 A 
BRANCH  44  45
ATOM     45  C   UNL A   1      42.407  34.535  30.148  1.00  0.00     0.031 A 
ATOM     46  C   UNL A   1      43.268  34.500  31.383  1.00  0.00     0.074 A 
ATOM     47  C   UNL A   1      41.066  34.513  30.246  1.00  0.00     0.049 A 
ATOM     48  N   UNL A   1      42.922  34.392  32.637  1.00  0.00    -0.248 NA
ATOM     49  C   UNL A   1      44.721  34.595  31.164  1.00  0.00     0.031 C 
ATOM     50  C   UNL A   1      40.131  34.586  29.124  1.00  0.00     0.029 A 
ATOM     51  N   UNL A   1      40.256  34.412  31.351  1.00  0.00    -0.354 N 
ATOM     52  C   UNL A   1      44.112  34.411  33.358  1.00  0.00     0.074 A 
ATOM     53  C   UNL A   1      45.188  34.506  32.398  1.00  0.00     0.031 C 
ATOM     54  C   UNL A   1      38.874  34.510  29.598  1.00  0.00     0.029 A 
ATOM     55  C   UNL A   1      38.914  34.350  31.052  1.00  0.00     0.049 A 
ATOM     56  H   UNL A   1      40.603  34.388  32.271  1.00  0.00     0.167 HD
ATOM     57  C   UNL A   1      44.291  34.357  34.698  1.00  0.00     0.034 A 
ATOM     58  C   UNL A   1      37.850  34.157  31.860  1.00  0.00     0.034 A 
ATOM     59  C   UNL A   1      43.211  34.233  35.642  1.00  0.00     0.049 A 
ATOM     60  C   UNL A   1      38.081  34.009  33.349  1.00  0.00     0.074 A 
ATOM     61  C   UNL A   1      43.274  34.171  37.022  1.00  0.00     0.029 A 
ATOM     62  N   UNL A   1      41.868  34.137  35.300  1.00  0.00    -0.354 N 
ATOM     63  N   UNL A   1      39.211  34.046  34.020  1.00  0.00    -0.248 NA
ATOM     64  C   UNL A   1      36.894  33.799  34.189  1.00  0.00     0.031 C 
ATOM     65  C   UNL A   1      41.981  33.967  37.510  1.00  0.00     0.029 A 
ATOM     66  C   UNL A   1      41.098  33.983  36.441  1.00  0.00     0.049 A 
ATOM     67  H   UNL A   1      41.515  34.172  34.381  1.00  0.00     0.167 HD
ATOM     68  C   UNL A   1      38.862  33.901  35.362  1.00  0.00     0.074 A 
ATOM     69  C   UNL A   1      37.420  33.788  35.406  1.00  0.00     0.031 C 
ATOM     70  C   UNL A   1      39.659  33.870  36.461  1.00  0.00     0.034 A 
BRANCH  57  71
ATOM     71  C   UNL A   1      45.710  34.368  35.205  1.00  0.00     0.023 A 
ATOM     72  C   UNL A   1      46.378  35.568  35.508  1.00  0.00     0.031 A 
ATOM     73  C   UNL A   1      46.414  33.162  35.358  1.00  0.00     0.131 A 
ATOM     74  C   UNL A   1      47.727  35.538  35.891  1.00  0.00     0.055 A 
ATOM     75  C   UNL A   1      47.735  33.134  35.808  1.00  0.00     0.041 A 
ATOM     76  F   UNL A   1      45.835  31.990  35.055  1.00  0.00    -0.206 F 
ATOM     77  C   UNL A   1      48.403  34.327  36.067  1.00  0.00     0.022 A 
BRANCH  74  78
ATOM     78  S   UNL A   1      48.625  37.107  36.042  1.00  0.00     0.124 S 
ATOM     79  O   UNL A   1      47.845  37.794  37.069  1.00  0.00    -0.237 OA
ATOM     80  O   UNL A   1      49.959  36.672  36.437  1.00  0.00    -0.237 OA
ATOM     81  O   UNL A   1      48.528  37.688  34.704  1.00  0.00    -0.744 OA
ENDBRANCH  74  78
ENDBRANCH  57  71
BRANCH  58  82
ATOM     82  C   UNL A   1      36.470  34.038  31.299  1.00  0.00     0.023 A 
ATOM     83  C   UNL A   1      35.511  35.046  31.493  1.00  0.00     0.031 A 
ATOM     84  C   UNL A   1      36.064  32.867  30.633  1.00  0.00     0.131 A 
ATOM     85  C   UNL A   1      34.184  34.843  31.080  1.00  0.00     0.055 A 
ATOM     86  C   UNL A   1      34.757  32.692  30.173  1.00  0.00     0.041 A 
ATOM     87  F   UNL A   1      36.934  31.867  30.425  1.00  0.00    -0.206 F 
ATOM     88  C   UNL A   1      33.804  33.678  30.410  1.00  0.00     0.022 A 
BRANCH  85  89
ATOM     89  S   UNL A   1      32.933  36.079  31.526  1.00  0.00     0.124 S 
ATOM     90  O   UNL A   1      32.229  36.259  30.260  1.00  0.00    -0.237 OA
ATOM     91  O   UNL A   1      32.194  35.392  32.579  1.00  0.00    -0.237 OA
ATOM     92  O   UNL A   1      33.726  37.224  31.967  1.00  0.00    -0.744 OA
ENDBRANCH  85  89
ENDBRANCH  58  82
BRANCH  70  93
ATOM     93  C   UNL A   1      38.979  33.766  37.804  1.00  0.00     0.023 A 
ATOM     94  C   UNL A   1      38.300  32.603  38.206  1.00  0.00     0.031 A 
ATOM     95  C   UNL A   1      39.018  34.851  38.698  1.00  0.00     0.131 A 
ATOM     96  C   UNL A   1      37.643  32.571  39.445  1.00  0.00     0.055 A 
ATOM     97  C   UNL A   1      38.413  34.792  39.954  1.00  0.00     0.041 A 
ATOM     98  F   UNL A   1      39.655  35.986  38.367  1.00  0.00    -0.206 F 
ATOM     99  C   UNL A   1      37.710  33.652  40.329  1.00  0.00     0.022 A 
BRANCH  96 100
ATOM    100  S   UNL A   1      36.626  31.125  39.857  1.00  0.00     0.124 S 
ATOM    101  O   UNL A   1      37.153  30.114  38.945  1.00  0.00    -0.237 OA
ATOM    102  O   UNL A   1      36.924  30.926  41.271  1.00  0.00    -0.237 OA
ATOM    103  O   UNL A   1      35.264  31.570  39.568  1.00  0.00    -0.744 OA
ENDBRANCH  96 100
ENDBRANCH  70  93
ENDBRANCH  44  45
ENDBRANCH  37  39
ENDBRANCH  36  37
ENDBRANCH  35  36
ENDBRANCH  34  35
ENDBRANCH  33  34
ENDBRANCH  32  33
ENDBRANCH   1  32
TORSDOF 26
ENDMDL
MODEL 2
REMARK VINA RESULT:      -7.0      2.915      6.431
REMARK SMILES COc1ccc(-c2nc3ccc(C)cc3[nH]2)c(C(=O)OCCOCCOCCOCCOC(=O)c2ccc(-c3c4nc(c(-c5cc(S(=O)(=O)[O-])ccc5F)c5ccc([nH]5)c(-c5cc(S(=O)(=O)[O-])ccc5F)c5nc(c(-c6cc(S(=O)(=O)[O-])ccc6F)c6ccc3[nH]6)C=C5)C=C4)cc2)c1OC
REMARK SMILES IDX 27 1 26 2 25 3 24 4 23 5 22 6 21 7 20 8 18 9 19 10 17 11
REMARK SMILES IDX 3 12 4 13 98 14 5 15 6 16 2 17 1 18 99 19 100 20 7 21 8 22
REMARK SMILES IDX 16 23 9 24 15 25 10 27 14 28 11 29 12 30 13 31 28 32 29 33
REMARK SMILES IDX 30 34 31 35 32 36 33 37 34 38 35 39 36 40 97 41 37 42 96 43
REMARK SMILES IDX 38 44 39 45 40 46 90 47 41 48 95 49 89 50 91 51 42 52 94 53
REMARK SMILES IDX 88 54 87 55 43 57 75 58 55 59 74 60 56 61 59 62 73 63 92 64
REMARK SMILES IDX 57 65 58 66 72 68 93 69 60 70 44 71 45 72 53 73 46 74 52 75
REMARK SMILES IDX 54 76 51 77 47 78 48 79 49 80 50 81 76 82 77 83 85 84 78 85
REMARK SMILES IDX 84 86 86 87 83 88 79 89 80 90 81 91 82 92 61 93 62 94 70 95
REMARK SMILES IDX 63 96 69 97 71 98 68 99 64 100 65 101 66 102 67 103
REMARK H PARENT 16 26 91 56 59 67
REMARK Flexibility Score: inf
ROOT
ATOM      1  C   UNL A   1      50.235  31.240  27.921  1.00  0.00     0.188 C 
ENDROOT
BRANCH   1   2
ATOM      2  O   UNL A   1      48.897  30.880  28.236  1.00  0.00    -0.377 OA
BRANCH   2   3
ATOM      3  C   UNL A   1      48.393  31.446  29.438  1.00  0.00     0.188 C 
BRANCH   3   4
ATOM      4  C   UNL A   1      46.954  31.140  29.871  1.00  0.00     0.188 C 
BRANCH   4   5
ATOM      5  O   UNL A   1      46.832  30.571  31.179  1.00  0.00    -0.376 OA
BRANCH   5   6
ATOM      6  C   UNL A   1      45.541  30.020  31.446  1.00  0.00     0.202 C 
BRANCH   6   7
ATOM      7  C   UNL A   1      44.938  30.613  32.722  1.00  0.00     0.261 C 
BRANCH   7   8
ATOM      8  O   UNL A   1      43.500  30.653  32.665  1.00  0.00    -0.460 OA
BRANCH   8   9
ATOM      9  C   UNL A   1      42.807  29.555  33.043  1.00  0.00     0.342 C 
ATOM     10  O   UNL A   1      43.249  28.426  33.181  1.00  0.00    -0.246 OA
BRANCH   9  11
ATOM     11  C   UNL A   1      41.421  29.966  33.405  1.00  0.00     0.116 A 
ATOM     12  C   UNL A   1      39.784  30.637  35.070  1.00  0.00     0.161 A 
ATOM     13  C   UNL A   1      38.789  30.609  34.089  1.00  0.00     0.051 A 
ATOM     14  C   UNL A   1      41.112  30.328  34.737  1.00  0.00     0.176 A 
ATOM     15  C   UNL A   1      39.093  30.259  32.772  1.00  0.00     0.017 A 
ATOM     16  C   UNL A   1      40.399  29.899  32.417  1.00  0.00     0.036 A 
BRANCH  12  17
ATOM     17  O   UNL A   1      39.337  30.825  36.350  1.00  0.00    -0.493 OA
ATOM     18  C   UNL A   1      37.935  30.633  36.515  1.00  0.00     0.278 C 
ENDBRANCH  12  17
BRANCH  14  19
ATOM     19  O   UNL A   1      42.132  30.443  35.649  1.00  0.00    -0.492 OA
ATOM     20  C   UNL A   1      42.366  29.271  36.438  1.00  0.00     0.278 C 
ENDBRANCH  14  19
BRANCH  16  21
ATOM     21  C   UNL A   1      40.594  29.178  31.155  1.00  0.00     0.139 A 
ATOM     22  N   UNL A   1      41.073  29.764  30.082  1.00  0.00    -0.228 NA
ATOM     23  N   UNL A   1      40.354  27.849  30.884  1.00  0.00    -0.338 N 
ATOM     24  C   UNL A   1      40.899  28.898  29.050  1.00  0.00     0.089 A 
ATOM     25  C   UNL A   1      40.512  27.654  29.523  1.00  0.00     0.066 A 
ATOM     26  H   UNL A   1      40.112  27.159  31.543  1.00  0.00     0.168 HD
ATOM     27  C   UNL A   1      41.037  29.131  27.678  1.00  0.00     0.031 A 
ATOM     28  C   UNL A   1      40.327  26.560  28.669  1.00  0.00     0.031 A 
ATOM     29  C   UNL A   1      40.806  28.071  26.802  1.00  0.00     0.006 A 
ATOM     30  C   UNL A   1      40.485  26.793  27.285  1.00  0.00    -0.049 A 
ATOM     31  C   UNL A   1      40.277  25.692  26.284  1.00  0.00     0.044 C 
ENDBRANCH  16  21
ENDBRANCH   9  11
ENDBRANCH   8   9
ENDBRANCH   7   8
ENDBRANCH   6   7
ENDBRANCH   5   6
ENDBRANCH   4   5
ENDBRANCH   3   4
ENDBRANCH   2   3
ENDBRANCH   1   2
BRANCH   1  32
ATOM     32  C   UNL A   1      50.310  32.118  26.657  1.00  0.00     0.188 C 
BRANCH  32  33
ATOM     33  O   UNL A   1      49.043  32.653  26.274  1.00  0.00    -0.376 OA
BRANCH  33  34
ATOM     34  C   UNL A   1      48.785  34.016  26.586  1.00  0.00     0.202 C 
BRANCH  34  35
ATOM     35  C   UNL A   1      47.791  34.804  25.715  1.00  0.00     0.261 C 
BRANCH  35  36
ATOM     36  O   UNL A   1      46.507  35.091  26.294  1.00  0.00    -0.460 OA
BRANCH  36  37
ATOM     37  C   UNL A   1      45.470  34.272  26.016  1.00  0.00     0.338 C 
ATOM     38  O   UNL A   1      45.351  33.542  25.049  1.00  0.00    -0.246 OA
BRANCH  37  39
ATOM     39  C   UNL A   1      44.612  34.245  27.226  1.00  0.00     0.060 A 
ATOM     40  C   UNL A   1      44.017  35.437  27.660  1.00  0.00     0.016 A 
ATOM     41  C   UNL A   1      44.320  33.037  27.867  1.00  0.00     0.016 A 
ATOM     42  C   UNL A   1      43.139  35.426  28.747  1.00  0.00     0.010 A 
ATOM     43  C   UNL A   1      43.467  33.031  28.974  1.00  0.00     0.010 A 
ATOM     44  C   UNL A   1      42.896  34.230  29.435  1.00  0.00    -0.014 A 
BRANCH  44  45
ATOM     45  C   UNL A   1      42.272  34.275  30.781  1.00  0.00     0.031 A 
ATOM     46  C   UNL A   1      43.197  34.221  31.968  1.00  0.00     0.074 A 
ATOM     47  C   UNL A   1      40.941  34.366  30.952  1.00  0.00     0.049 A 
ATOM     48  N   UNL A   1      42.916  34.195  33.243  1.00  0.00    -0.248 NA
ATOM     49  C   UNL A   1      44.638  34.189  31.667  1.00  0.00     0.031 C 
ATOM     50  C   UNL A   1      39.952  34.467  29.880  1.00  0.00     0.029 A 
ATOM     51  N   UNL A   1      40.191  34.378  32.103  1.00  0.00    -0.354 N 
ATOM     52  C   UNL A   1      44.143  34.147  33.896  1.00  0.00     0.074 A 
ATOM     53  C   UNL A   1      45.167  34.114  32.876  1.00  0.00     0.031 C 
ATOM     54  C   UNL A   1      38.722  34.514  30.425  1.00  0.00     0.029 A 
ATOM     55  C   UNL A   1      38.833  34.412  31.880  1.00  0.00     0.049 A 
ATOM     56  H   UNL A   1      40.587  34.364  33.003  1.00  0.00     0.167 HD
ATOM     57  C   UNL A   1      44.394  34.135  35.226  1.00  0.00     0.034 A 
ATOM     58  C   UNL A   1      37.805  34.341  32.752  1.00  0.00     0.034 A 
ATOM     59  C   UNL A   1      43.364  34.139  36.232  1.00  0.00     0.049 A 
ATOM     60  C   UNL A   1      38.109  34.237  34.232  1.00  0.00     0.074 A 
ATOM     61  C   UNL A   1      43.502  34.130  37.608  1.00  0.00     0.029 A 
ATOM     62  N   UNL A   1      42.001  34.138  35.968  1.00  0.00    -0.354 N 
ATOM     63  N   UNL A   1      39.275  34.210  34.839  1.00  0.00    -0.248 NA
ATOM     64  C   UNL A   1      36.959  34.160  35.144  1.00  0.00     0.031 C 
ATOM     65  C   UNL A   1      42.227  34.053  38.174  1.00  0.00     0.029 A 
ATOM     66  C   UNL A   1      41.288  34.095  37.154  1.00  0.00     0.049 A 
ATOM     67  H   UNL A   1      41.599  34.164  35.069  1.00  0.00     0.167 HD
ATOM     68  C   UNL A   1      38.994  34.150  36.203  1.00  0.00     0.074 A 
ATOM     69  C   UNL A   1      37.553  34.157  36.330  1.00  0.00     0.031 C 
ATOM     70  C   UNL A   1      39.848  34.101  37.258  1.00  0.00     0.034 A 
BRANCH  57  71
ATOM     71  C   UNL A   1      45.837  34.052  35.655  1.00  0.00     0.023 A 
ATOM     72  C   UNL A   1      46.629  35.203  35.816  1.00  0.00     0.031 A 
ATOM     73  C   UNL A   1      46.437  32.801  35.874  1.00  0.00     0.131 A 
ATOM     74  C   UNL A   1      47.990  35.076  36.129  1.00  0.00     0.055 A 
ATOM     75  C   UNL A   1      47.775  32.683  36.255  1.00  0.00     0.041 A 
ATOM     76  F   UNL A   1      45.736  31.668  35.706  1.00  0.00    -0.206 F 
ATOM     77  C   UNL A   1      48.562  33.825  36.373  1.00  0.00     0.022 A 
BRANCH  74  78
ATOM     78  S   UNL A   1      49.033  36.560  36.096  1.00  0.00     0.124 S 
ATOM     79  O   UNL A   1      49.702  36.421  34.804  1.00  0.00    -0.237 OA
ATOM     80  O   UNL A   1      48.055  37.636  36.196  1.00  0.00    -0.237 OA
ATOM     81  O   UNL A   1      49.901  36.394  37.260  1.00  0.00    -0.744 OA
ENDBRANCH  74  78
ENDBRANCH  57  71
BRANCH  58  82
ATOM     82  C   UNL A   1      36.391  34.311  32.273  1.00  0.00     0.023 A 
ATOM     83  C   UNL A   1      35.550  35.429  32.402  1.00  0.00     0.031 A 
ATOM     84  C   UNL A   1      35.832  33.128  31.757  1.00  0.00     0.131 A 
ATOM     85  C   UNL A   1      34.187  35.326  32.076  1.00  0.00     0.055 A 
ATOM     86  C   UNL A   1      34.489  33.045  31.381  1.00  0.00     0.041 A 
ATOM     87  F   UNL A   1      36.584  32.025  31.618  1.00  0.00    -0.206 F 
ATOM     88  C   UNL A   1      33.655  34.145  31.554  1.00  0.00     0.022 A 
BRANCH  85  89
ATOM     89  S   UNL A   1      33.093  36.726  32.444  1.00  0.00     0.124 S 
ATOM     90  O   UNL A   1      31.836  36.048  32.743  1.00  0.00    -0.237 OA
ATOM     91  O   UNL A   1      33.771  37.349  33.574  1.00  0.00    -0.237 OA
ATOM     92  O   UNL A   1      33.105  37.502  31.206  1.00  0.00    -0.744 OA
ENDBRANCH  85  89
ENDBRANCH  58  82
BRANCH  70  93
ATOM     93  C   UNL A   1      39.241  34.109  38.639  1.00  0.00     0.023 A 
ATOM     94  C   UNL A   1      38.791  32.931  39.260  1.00  0.00     0.031 A 
ATOM     95  C   UNL A   1      39.115  35.319  39.345  1.00  0.00     0.131 A 
ATOM     96  C   UNL A   1      38.190  32.996  40.527  1.00  0.00     0.055 A 
ATOM     97  C   UNL A   1      38.571  35.369  40.629  1.00  0.00     0.041 A 
ATOM     98  F   UNL A   1      39.531  36.474  38.800  1.00  0.00    -0.206 F 
ATOM     99  C   UNL A   1      38.093  34.205  41.222  1.00  0.00     0.022 A 
BRANCH  96 100
ATOM    100  S   UNL A   1      37.459  31.488  41.223  1.00  0.00     0.124 S 
ATOM    101  O   UNL A   1      38.346  31.213  42.349  1.00  0.00    -0.237 OA
ATOM    102  O   UNL A   1      36.110  31.924  41.567  1.00  0.00    -0.237 OA
ATOM    103  O   UNL A   1      37.538  30.529  40.123  1.00  0.00    -0.744 OA
ENDBRANCH  96 100
ENDBRANCH  70  93
ENDBRANCH  44  45
ENDBRANCH  37  39
ENDBRANCH  36  37
ENDBRANCH  35  36
ENDBRANCH  34  35
ENDBRANCH  33  34
ENDBRANCH  32  33
ENDBRANCH   1  32
TORSDOF 26
ENDMDL
MODEL 3
REMARK VINA RESULT:      -6.8      6.421     11.613
REMARK SMILES COc1ccc(-c2nc3ccc(C)cc3[nH]2)c(C(=O)OCCOCCOCCOCCOC(=O)c2ccc(-c3c4nc(c(-c5cc(S(=O)(=O)[O-])ccc5F)c5ccc([nH]5)c(-c5cc(S(=O)(=O)[O-])ccc5F)c5nc(c(-c6cc(S(=O)(=O)[O-])ccc6F)c6ccc3[nH]6)C=C5)C=C4)cc2)c1OC
REMARK SMILES IDX 27 1 26 2 25 3 24 4 23 5 22 6 21 7 20 8 18 9 19 10 17 11
REMARK SMILES IDX 3 12 4 13 98 14 5 15 6 16 2 17 1 18 99 19 100 20 7 21 8 22
REMARK SMILES IDX 16 23 9 24 15 25 10 27 14 28 11 29 12 30 13 31 28 32 29 33
REMARK SMILES IDX 30 34 31 35 32 36 33 37 34 38 35 39 36 40 97 41 37 42 96 43
REMARK SMILES IDX 38 44 39 45 40 46 90 47 41 48 95 49 89 50 91 51 42 52 94 53
REMARK SMILES IDX 88 54 87 55 43 57 75 58 55 59 74 60 56 61 59 62 73 63 92 64
REMARK SMILES IDX 57 65 58 66 72 68 93 69 60 70 44 71 45 72 53 73 46 74 52 75
REMARK SMILES IDX 54 76 51 77 47 78 48 79 49 80 50 81 76 82 77 83 85 84 78 85
REMARK SMILES IDX 84 86 86 87 83 88 79 89 80 90 81 91 82 92 61 93 62 94 70 95
REMARK SMILES IDX 63 96 69 97 71 98 68 99 64 100 65 101 66 102 67 103
REMARK H PARENT 16 26 91 56 59 67
REMARK Flexibility Score: inf
ROOT
ATOM      1  C   UNL A   1      36.968  34.106  32.067  1.00  0.00     0.188 C 
ENDROOT
BRANCH   1   2
ATOM      2  O   UNL A   1      37.987  34.743  31.307  1.00  0.00    -0.377 OA
BRANCH   2   3
ATOM      3  C   UNL A   1      38.804  33.865  30.546  1.00  0.00     0.188 C 
BRANCH   3   4
ATOM      4  C   UNL A   1      40.032  34.420  29.814  1.00  0.00     0.188 C 
BRANCH   4   5
ATOM      5  O   UNL A   1      41.286  33.907  30.276  1.00  0.00    -0.376 OA
BRANCH   5   6
ATOM      6  C   UNL A   1      41.646  34.364  31.581  1.00  0.00     0.202 C 
BRANCH   6   7
ATOM      7  C   UNL A   1      43.142  34.171  31.843  1.00  0.00     0.261 C 
BRANCH   7   8
ATOM      8  O   UNL A   1      43.626  32.930  31.299  1.00  0.00    -0.460 OA
BRANCH   8   9
ATOM      9  C   UNL A   1      44.721  32.955  30.506  1.00  0.00     0.342 C 
ATOM     10  O   UNL A   1      44.847  33.568  29.458  1.00  0.00    -0.246 OA
BRANCH   9  11
ATOM     11  C   UNL A   1      45.821  32.215  31.186  1.00  0.00     0.116 A 
ATOM     12  C   UNL A   1      47.883  32.210  32.470  1.00  0.00     0.161 A 
ATOM     13  C   UNL A   1      47.946  30.819  32.346  1.00  0.00     0.051 A 
ATOM     14  C   UNL A   1      46.816  32.921  31.903  1.00  0.00     0.176 A 
ATOM     15  C   UNL A   1      46.961  30.119  31.646  1.00  0.00     0.017 A 
ATOM     16  C   UNL A   1      45.908  30.804  31.027  1.00  0.00     0.036 A 
BRANCH  12  17
ATOM     17  O   UNL A   1      48.988  32.796  33.027  1.00  0.00    -0.493 OA
ATOM     18  C   UNL A   1      48.835  33.155  34.396  1.00  0.00     0.278 C 
ENDBRANCH  12  17
BRANCH  14  19
ATOM     19  O   UNL A   1      46.666  34.273  32.089  1.00  0.00    -0.492 OA
ATOM     20  C   UNL A   1      47.441  35.091  31.205  1.00  0.00     0.278 C 
ENDBRANCH  14  19
BRANCH  16  21
ATOM     21  C   UNL A   1      45.137  30.096  30.000  1.00  0.00     0.139 A 
ATOM     22  N   UNL A   1      45.505  28.925  29.533  1.00  0.00    -0.228 NA
ATOM     23  N   UNL A   1      43.962  30.483  29.394  1.00  0.00    -0.338 N 
ATOM     24  C   UNL A   1      44.727  28.672  28.448  1.00  0.00     0.089 A 
ATOM     25  C   UNL A   1      43.696  29.595  28.367  1.00  0.00     0.066 A 
ATOM     26  H   UNL A   1      43.407  31.255  29.649  1.00  0.00     0.168 HD
ATOM     27  C   UNL A   1      44.871  27.672  27.481  1.00  0.00     0.031 A 
ATOM     28  C   UNL A   1      42.711  29.521  27.375  1.00  0.00     0.031 A 
ATOM     29  C   UNL A   1      43.934  27.610  26.451  1.00  0.00     0.006 A 
ATOM     30  C   UNL A   1      42.849  28.499  26.409  1.00  0.00    -0.049 A 
ATOM     31  C   UNL A   1      41.861  28.357  25.286  1.00  0.00     0.044 C 
ENDBRANCH  16  21
ENDBRANCH   9  11
ENDBRANCH   8   9
ENDBRANCH   7   8
ENDBRANCH   6   7
ENDBRANCH   5   6
ENDBRANCH   4   5
ENDBRANCH   3   4
ENDBRANCH   2   3
ENDBRANCH   1   2
BRANCH   1  32
ATOM     32  C   UNL A   1      35.578  34.705  31.776  1.00  0.00     0.188 C 
BRANCH  32  33
ATOM     33  O   UNL A   1      35.069  34.335  30.495  1.00  0.00    -0.376 OA
BRANCH  33  34
ATOM     34  C   UNL A   1      34.488  33.042  30.368  1.00  0.00     0.202 C 
BRANCH  34  35
ATOM     35  C   UNL A   1      34.025  32.569  28.979  1.00  0.00     0.261 C 
BRANCH  35  36
ATOM     36  O   UNL A   1      35.049  32.146  28.063  1.00  0.00    -0.460 OA
BRANCH  36  37
ATOM     37  C   UNL A   1      35.058  30.863  27.645  1.00  0.00     0.338 C 
ATOM     38  O   UNL A   1      34.297  30.346  26.848  1.00  0.00    -0.246 OA
BRANCH  37  39
ATOM     39  C   UNL A   1      36.314  30.258  28.153  1.00  0.00     0.060 A 
ATOM     40  C   UNL A   1      36.274  29.508  29.336  1.00  0.00     0.016 A 
ATOM     41  C   UNL A   1      37.499  30.349  27.415  1.00  0.00     0.016 A 
ATOM     42  C   UNL A   1      37.424  28.859  29.792  1.00  0.00     0.010 A 
ATOM     43  C   UNL A   1      38.657  29.727  27.890  1.00  0.00     0.010 A 
ATOM     44  C   UNL A   1      38.631  29.004  29.094  1.00  0.00    -0.014 A 
BRANCH  44  45
ATOM     45  C   UNL A   1      39.907  28.633  29.754  1.00  0.00     0.031 A 
ATOM     46  C   UNL A   1      40.625  27.419  29.225  1.00  0.00     0.074 A 
ATOM     47  C   UNL A   1      40.419  29.341  30.777  1.00  0.00     0.049 A 
ATOM     48  N   UNL A   1      41.722  26.851  29.646  1.00  0.00    -0.248 NA
ATOM     49  C   UNL A   1      40.010  26.757  28.062  1.00  0.00     0.031 C 
ATOM     50  C   UNL A   1      39.836  30.555  31.344  1.00  0.00     0.029 A 
ATOM     51  N   UNL A   1      41.549  29.129  31.528  1.00  0.00    -0.354 N 
ATOM     52  C   UNL A   1      41.932  25.768  28.798  1.00  0.00     0.074 A 
ATOM     53  C   UNL A   1      40.831  25.740  27.862  1.00  0.00     0.031 C 
ATOM     54  C   UNL A   1      40.606  30.972  32.366  1.00  0.00     0.029 A 
ATOM     55  C   UNL A   1      41.716  30.037  32.549  1.00  0.00     0.049 A 
ATOM     56  H   UNL A   1      42.182  28.396  31.352  1.00  0.00     0.167 HD
ATOM     57  C   UNL A   1      42.953  24.878  28.798  1.00  0.00     0.034 A 
ATOM     58  C   UNL A   1      42.643  30.084  33.529  1.00  0.00     0.034 A 
ATOM     59  C   UNL A   1      44.029  24.900  29.754  1.00  0.00     0.049 A 
ATOM     60  C   UNL A   1      43.725  29.026  33.563  1.00  0.00     0.074 A 
ATOM     61  C   UNL A   1      45.116  24.050  29.848  1.00  0.00     0.029 A 
ATOM     62  N   UNL A   1      44.144  25.812  30.795  1.00  0.00    -0.354 N 
ATOM     63  N   UNL A   1      43.923  28.016  32.744  1.00  0.00    -0.248 NA
ATOM     64  C   UNL A   1      44.712  29.117  34.649  1.00  0.00     0.031 C 
ATOM     65  C   UNL A   1      45.850  24.404  30.984  1.00  0.00     0.029 A 
ATOM     66  C   UNL A   1      45.266  25.525  31.554  1.00  0.00     0.049 A 
ATOM     67  H   UNL A   1      43.520  26.554  30.968  1.00  0.00     0.167 HD
ATOM     68  C   UNL A   1      45.076  27.378  33.198  1.00  0.00     0.074 A 
ATOM     69  C   UNL A   1      45.535  28.121  34.352  1.00  0.00     0.031 C 
ATOM     70  C   UNL A   1      45.705  26.280  32.703  1.00  0.00     0.034 A 
BRANCH  57  71
ATOM     71  C   UNL A   1      42.908  23.779  27.768  1.00  0.00     0.023 A 
ATOM     72  C   UNL A   1      43.853  23.698  26.729  1.00  0.00     0.031 A 
ATOM     73  C   UNL A   1      41.887  22.815  27.809  1.00  0.00     0.131 A 
ATOM     74  C   UNL A   1      43.721  22.711  25.741  1.00  0.00     0.055 A 
ATOM     75  C   UNL A   1      41.802  21.792  26.863  1.00  0.00     0.041 A 
ATOM     76  F   UNL A   1      40.942  22.861  28.761  1.00  0.00    -0.206 F 
ATOM     77  C   UNL A   1      42.717  21.743  25.815  1.00  0.00     0.022 A 
BRANCH  74  78
ATOM     78  S   UNL A   1      44.810  22.780  24.292  1.00  0.00     0.124 S 
ATOM     79  O   UNL A   1      45.451  24.082  24.467  1.00  0.00    -0.237 OA
ATOM     80  O   UNL A   1      45.666  21.615  24.483  1.00  0.00    -0.237 OA
ATOM     81  O   UNL A   1      43.885  22.696  23.164  1.00  0.00    -0.744 OA
ENDBRANCH  74  78
ENDBRANCH  57  71
BRANCH  58  82
ATOM     82  C   UNL A   1      42.580  31.128  34.596  1.00  0.00     0.023 A 
ATOM     83  C   UNL A   1      41.447  31.272  35.414  1.00  0.00     0.031 A 
ATOM     84  C   UNL A   1      43.625  32.057  34.755  1.00  0.00     0.131 A 
ATOM     85  C   UNL A   1      41.359  32.351  36.309  1.00  0.00     0.055 A 
ATOM     86  C   UNL A   1      43.557  33.096  35.686  1.00  0.00     0.041 A 
ATOM     87  F   UNL A   1      44.729  31.974  33.997  1.00  0.00    -0.206 F 
ATOM     88  C   UNL A   1      42.411  33.256  36.459  1.00  0.00     0.022 A 
BRANCH  85  89
ATOM     89  S   UNL A   1      39.801  32.620  37.200  1.00  0.00     0.124 S 
ATOM     90  O   UNL A   1      39.239  33.757  36.478  1.00  0.00    -0.237 OA
ATOM     91  O   UNL A   1      39.123  31.343  37.014  1.00  0.00    -0.237 OA
ATOM     92  O   UNL A   1      40.234  32.902  38.567  1.00  0.00    -0.744 OA
ENDBRANCH  85  89
ENDBRANCH  58  82
BRANCH  70  93
ATOM     93  C   UNL A   1      46.987  25.857  33.378  1.00  0.00     0.023 A 
ATOM     94  C   UNL A   1      48.204  26.519  33.143  1.00  0.00     0.031 A 
ATOM     95  C   UNL A   1      46.986  24.774  34.275  1.00  0.00     0.131 A 
ATOM     96  C   UNL A   1      49.379  26.058  33.757  1.00  0.00     0.055 A 
ATOM     97  C   UNL A   1      48.146  24.358  34.928  1.00  0.00     0.041 A 
ATOM     98  F   UNL A   1      45.850  24.106  34.538  1.00  0.00    -0.206 F 
ATOM     99  C   UNL A   1      49.354  24.993  34.661  1.00  0.00     0.022 A 
BRANCH  96 100
ATOM    100  S   UNL A   1      50.960  26.819  33.295  1.00  0.00     0.124 S 
ATOM    101  O   UNL A   1      51.892  25.707  33.458  1.00  0.00    -0.237 OA
ATOM    102  O   UNL A   1      50.713  27.248  31.923  1.00  0.00    -0.237 OA
ATOM    103  O   UNL A   1      51.115  27.904  34.264  1.00  0.00    -0.744 OA
ENDBRANCH  96 100
ENDBRANCH  70  93
ENDBRANCH  44  45
ENDBRANCH  37  39
ENDBRANCH  36  37
ENDBRANCH  35  36
ENDBRANCH  34  35
ENDBRANCH  33  34
ENDBRANCH  32  33
ENDBRANCH   1  32
TORSDOF 26
ENDMDL
