MODEL 1
REMARK VINA RESULT:      -8.3      0.000      0.000
REMARK SMILES C/C=C/c1cncc(-c2ccc([C@@H](C)C(=O)OCCOCCOCCOCCOC(=O)c3ccc(-c4c5nc(c(-c6cc(S(=O)(=O)[O-])ccc6F)c6ccc([nH]6)c(-c6cc(S(=O)(=O)[O-])ccc6F)c6nc(c(-c7cc(S(=O)(=O)[O-])ccc7F)c7ccc4[nH]7)C=C6)C=C5)cc3)cc2)c1
REMARK SMILES IDX 23 1 22 2 21 3 20 4 19 5 18 6 17 7 15 8 16 9 13 10 14 11
REMARK SMILES IDX 12 12 9 13 10 14 96 15 11 16 95 17 8 18 4 19 5 20 97 21 6 22
REMARK SMILES IDX 7 23 3 24 1 25 2 26 24 27 25 28 26 29 27 30 28 31 29 32
REMARK SMILES IDX 30 33 31 34 32 35 33 36 94 37 34 38 93 39 35 40 36 41 37 42
REMARK SMILES IDX 87 43 38 44 92 45 86 46 88 47 39 48 91 49 85 50 84 51 40 53
REMARK SMILES IDX 72 54 52 55 71 56 53 57 56 58 70 59 89 60 54 61 55 62 69 64
REMARK SMILES IDX 90 65 57 66 41 67 42 68 50 69 43 70 49 71 51 72 48 73 44 74
REMARK SMILES IDX 45 75 46 76 47 77 73 78 74 79 82 80 75 81 81 82 83 83 80 84
REMARK SMILES IDX 76 85 77 86 78 87 79 88 58 89 59 90 67 91 60 92 66 93 68 94
REMARK SMILES IDX 65 95 61 96 62 97 63 98 64 99
REMARK H PARENT 88 52 56 63
REMARK Flexibility Score: inf
ROOT
ATOM      1  O   UNL A   1      45.163  24.917  24.713  1.00  0.00    -0.377 OA
ENDROOT
BRANCH   1   2
ATOM      2  C   UNL A   1      45.679  26.097  25.289  1.00  0.00     0.188 C 
BRANCH   2   3
ATOM      3  C   UNL A   1      44.730  27.304  25.280  1.00  0.00     0.188 C 
BRANCH   3   4
ATOM      4  O   UNL A   1      45.046  28.501  25.978  1.00  0.00    -0.376 OA
BRANCH   4   5
ATOM      5  C   UNL A   1      44.569  28.721  27.298  1.00  0.00     0.202 C 
BRANCH   5   6
ATOM      6  C   UNL A   1      43.868  30.039  27.680  1.00  0.00     0.261 C 
BRANCH   6   7
ATOM      7  O   UNL A   1      44.686  31.227  27.733  1.00  0.00    -0.463 OA
BRANCH   7   8
ATOM      8  C   UNL A   1      44.591  32.072  26.683  1.00  0.00     0.313 C 
ATOM      9  O   UNL A   1      43.955  31.811  25.660  1.00  0.00    -0.252 OA
BRANCH   8  10
ATOM     10  C   UNL A   1      45.351  33.393  26.807  1.00  0.00     0.126 C 
ATOM     11  C   UNL A   1      46.406  33.234  27.896  1.00  0.00     0.025 C 
BRANCH  10  12
ATOM     12  C   UNL A   1      44.624  34.734  26.931  1.00  0.00    -0.034 A 
ATOM     13  C   UNL A   1      43.379  37.313  27.193  1.00  0.00    -0.017 A 
ATOM     14  C   UNL A   1      42.627  36.125  27.130  1.00  0.00     0.009 A 
ATOM     15  C   UNL A   1      44.770  37.188  27.094  1.00  0.00     0.009 A 
ATOM     16  C   UNL A   1      43.233  34.857  27.008  1.00  0.00     0.005 A 
ATOM     17  C   UNL A   1      45.380  35.926  26.980  1.00  0.00     0.005 A 
BRANCH  13  18
ATOM     18  C   UNL A   1      42.741  38.619  27.468  1.00  0.00     0.001 A 
ATOM     19  C   UNL A   1      41.947  40.409  28.933  1.00  0.00    -0.007 A 
ATOM     20  C   UNL A   1      41.393  41.004  27.801  1.00  0.00     0.119 A 
ATOM     21  C   UNL A   1      42.627  39.192  28.750  1.00  0.00     0.020 A 
ATOM     22  N   UNL A   1      41.472  40.498  26.552  1.00  0.00    -0.263 NA
ATOM     23  C   UNL A   1      42.142  39.330  26.423  1.00  0.00     0.119 A 
BRANCH  19  24
ATOM     24  C   UNL A   1      41.706  41.053  30.232  1.00  0.00     0.005 C 
ATOM     25  C   UNL A   1      42.333  42.122  32.398  1.00  0.00     0.035 C 
ATOM     26  C   UNL A   1      42.646  41.390  31.128  1.00  0.00    -0.030 C 
ENDBRANCH  19  24
ENDBRANCH  13  18
ENDBRANCH  10  12
ENDBRANCH   8  10
ENDBRANCH   7   8
ENDBRANCH   6   7
ENDBRANCH   5   6
ENDBRANCH   4   5
ENDBRANCH   3   4
ENDBRANCH   2   3
ENDBRANCH   1   2
BRANCH   1  27
ATOM     27  C   UNL A   1      46.029  23.795  24.668  1.00  0.00     0.188 C 
BRANCH  27  28
ATOM     28  C   UNL A   1      45.939  22.794  25.834  1.00  0.00     0.188 C 
BRANCH  28  29
ATOM     29  O   UNL A   1      46.328  21.469  25.489  1.00  0.00    -0.376 OA
BRANCH  29  30
ATOM     30  C   UNL A   1      45.541  20.751  24.549  1.00  0.00     0.202 C 
BRANCH  30  31
ATOM     31  C   UNL A   1      44.468  19.776  25.072  1.00  0.00     0.261 C 
BRANCH  31  32
ATOM     32  O   UNL A   1      43.103  20.220  25.044  1.00  0.00    -0.460 OA
BRANCH  32  33
ATOM     33  C   UNL A   1      42.367  20.086  26.166  1.00  0.00     0.338 C 
ATOM     34  O   UNL A   1      41.991  19.038  26.665  1.00  0.00    -0.246 OA
BRANCH  33  35
ATOM     35  C   UNL A   1      42.269  21.414  26.814  1.00  0.00     0.060 A 
ATOM     36  C   UNL A   1      42.319  22.563  26.012  1.00  0.00     0.016 A 
ATOM     37  C   UNL A   1      42.128  21.529  28.199  1.00  0.00     0.016 A 
ATOM     38  C   UNL A   1      42.275  23.829  26.597  1.00  0.00     0.010 A 
ATOM     39  C   UNL A   1      42.111  22.800  28.786  1.00  0.00     0.010 A 
ATOM     40  C   UNL A   1      42.223  23.955  27.990  1.00  0.00    -0.014 A 
BRANCH  40  41
ATOM     41  C   UNL A   1      42.520  25.269  28.618  1.00  0.00     0.031 A 
ATOM     42  C   UNL A   1      43.943  25.550  29.027  1.00  0.00     0.074 A 
ATOM     43  C   UNL A   1      41.572  26.209  28.783  1.00  0.00     0.049 A 
ATOM     44  N   UNL A   1      44.444  26.586  29.649  1.00  0.00    -0.248 NA
ATOM     45  C   UNL A   1      44.933  24.517  28.686  1.00  0.00     0.031 C 
ATOM     46  C   UNL A   1      40.175  26.081  28.374  1.00  0.00     0.029 A 
ATOM     47  N   UNL A   1      41.642  27.458  29.351  1.00  0.00    -0.354 N 
ATOM     48  C   UNL A   1      45.805  26.330  29.772  1.00  0.00     0.074 A 
ATOM     49  C   UNL A   1      46.042  25.021  29.203  1.00  0.00     0.031 C 
ATOM     50  C   UNL A   1      39.515  27.199  28.722  1.00  0.00     0.029 A 
ATOM     51  C   UNL A   1      40.430  28.105  29.418  1.00  0.00     0.049 A 
ATOM     52  H   UNL A   1      42.482  27.853  29.681  1.00  0.00     0.167 HD
ATOM     53  C   UNL A   1      46.774  27.121  30.296  1.00  0.00     0.034 A 
ATOM     54  C   UNL A   1      40.093  29.273  30.004  1.00  0.00     0.034 A 
ATOM     55  C   UNL A   1      46.522  28.414  30.880  1.00  0.00     0.049 A 
ATOM     56  C   UNL A   1      41.170  30.089  30.686  1.00  0.00     0.074 A 
ATOM     57  C   UNL A   1      47.424  29.289  31.458  1.00  0.00     0.029 A 
ATOM     58  N   UNL A   1      45.273  29.017  30.969  1.00  0.00    -0.354 N 
ATOM     59  N   UNL A   1      42.453  29.832  30.808  1.00  0.00    -0.248 NA
ATOM     60  C   UNL A   1      40.755  31.358  31.300  1.00  0.00     0.031 C 
ATOM     61  C   UNL A   1      46.713  30.381  31.964  1.00  0.00     0.029 A 
ATOM     62  C   UNL A   1      45.379  30.237  31.618  1.00  0.00     0.049 A 
ATOM     63  H   UNL A   1      44.436  28.633  30.623  1.00  0.00     0.167 HD
ATOM     64  C   UNL A   1      43.000  30.927  31.476  1.00  0.00     0.074 A 
ATOM     65  C   UNL A   1      41.912  31.850  31.717  1.00  0.00     0.031 C 
ATOM     66  C   UNL A   1      44.286  31.151  31.853  1.00  0.00     0.034 A 
BRANCH  53  67
ATOM     67  C   UNL A   1      48.184  26.579  30.298  1.00  0.00     0.023 A 
ATOM     68  C   UNL A   1      49.044  26.757  29.200  1.00  0.00     0.031 A 
ATOM     69  C   UNL A   1      48.667  25.853  31.401  1.00  0.00     0.131 A 
ATOM     70  C   UNL A   1      50.312  26.157  29.200  1.00  0.00     0.055 A 
ATOM     71  C   UNL A   1      49.961  25.332  31.431  1.00  0.00     0.041 A 
ATOM     72  F   UNL A   1      47.883  25.627  32.467  1.00  0.00    -0.206 F 
ATOM     73  C   UNL A   1      50.788  25.470  30.320  1.00  0.00     0.022 A 
BRANCH  70  74
ATOM     74  S   UNL A   1      51.272  26.162  27.661  1.00  0.00     0.124 S 
ATOM     75  O   UNL A   1      50.940  24.853  27.103  1.00  0.00    -0.237 OA
ATOM     76  O   UNL A   1      50.728  27.315  26.953  1.00  0.00    -0.237 OA
ATOM     77  O   UNL A   1      52.652  26.303  28.119  1.00  0.00    -0.744 OA
ENDBRANCH  70  74
ENDBRANCH  53  67
BRANCH  54  78
ATOM     78  C   UNL A   1      38.669  29.726  30.037  1.00  0.00     0.023 A 
ATOM     79  C   UNL A   1      38.245  30.869  29.342  1.00  0.00     0.031 A 
ATOM     80  C   UNL A   1      37.722  29.058  30.839  1.00  0.00     0.131 A 
ATOM     81  C   UNL A   1      36.934  31.346  29.508  1.00  0.00     0.055 A 
ATOM     82  C   UNL A   1      36.402  29.498  30.948  1.00  0.00     0.041 A 
ATOM     83  F   UNL A   1      38.072  27.964  31.534  1.00  0.00    -0.206 F 
ATOM     84  C   UNL A   1      36.005  30.659  30.294  1.00  0.00     0.022 A 
BRANCH  81  85
ATOM     85  S   UNL A   1      36.492  32.948  28.780  1.00  0.00     0.124 S 
ATOM     86  O   UNL A   1      35.810  32.540  27.558  1.00  0.00    -0.237 OA
ATOM     87  O   UNL A   1      35.651  33.531  29.821  1.00  0.00    -0.237 OA
ATOM     88  O   UNL A   1      37.784  33.603  28.587  1.00  0.00    -0.744 OA
ENDBRANCH  81  85
ENDBRANCH  54  78
BRANCH  66  89
ATOM     89  C   UNL A   1      44.598  32.479  32.507  1.00  0.00     0.023 A 
ATOM     90  C   UNL A   1      44.741  33.663  31.763  1.00  0.00     0.031 A 
ATOM     91  C   UNL A   1      44.755  32.556  33.903  1.00  0.00     0.131 A 
ATOM     92  C   UNL A   1      45.094  34.858  32.410  1.00  0.00     0.055 A 
ATOM     93  C   UNL A   1      45.034  33.760  34.549  1.00  0.00     0.041 A 
ATOM     94  F   UNL A   1      44.632  31.458  34.666  1.00  0.00    -0.206 F 
ATOM     95  C   UNL A   1      45.221  34.919  33.800  1.00  0.00     0.022 A 
BRANCH  92  96
ATOM     96  S   UNL A   1      45.490  36.311  31.401  1.00  0.00     0.124 S 
ATOM     97  O   UNL A   1      46.807  35.964  30.875  1.00  0.00    -0.237 OA
ATOM     98  O   UNL A   1      44.400  36.327  30.431  1.00  0.00    -0.237 OA
ATOM     99  O   UNL A   1      45.479  37.411  32.364  1.00  0.00    -0.744 OA
ENDBRANCH  92  96
ENDBRANCH  66  89
ENDBRANCH  40  41
ENDBRANCH  33  35
ENDBRANCH  32  33
ENDBRANCH  31  32
ENDBRANCH  30  31
ENDBRANCH  29  30
ENDBRANCH  28  29
ENDBRANCH  27  28
ENDBRANCH   1  27
TORSDOF 26
ENDMDL
MODEL 2
REMARK VINA RESULT:      -7.7      4.187      9.155
REMARK SMILES C/C=C/c1cncc(-c2ccc([C@@H](C)C(=O)OCCOCCOCCOCCOC(=O)c3ccc(-c4c5nc(c(-c6cc(S(=O)(=O)[O-])ccc6F)c6ccc([nH]6)c(-c6cc(S(=O)(=O)[O-])ccc6F)c6nc(c(-c7cc(S(=O)(=O)[O-])ccc7F)c7ccc4[nH]7)C=C6)C=C5)cc3)cc2)c1
REMARK SMILES IDX 23 1 22 2 21 3 20 4 19 5 18 6 17 7 15 8 16 9 13 10 14 11
REMARK SMILES IDX 12 12 9 13 10 14 96 15 11 16 95 17 8 18 4 19 5 20 97 21 6 22
REMARK SMILES IDX 7 23 3 24 1 25 2 26 24 27 25 28 26 29 27 30 28 31 29 32
REMARK SMILES IDX 30 33 31 34 32 35 33 36 94 37 34 38 93 39 35 40 36 41 37 42
REMARK SMILES IDX 87 43 38 44 92 45 86 46 88 47 39 48 91 49 85 50 84 51 40 53
REMARK SMILES IDX 72 54 52 55 71 56 53 57 56 58 70 59 89 60 54 61 55 62 69 64
REMARK SMILES IDX 90 65 57 66 41 67 42 68 50 69 43 70 49 71 51 72 48 73 44 74
REMARK SMILES IDX 45 75 46 76 47 77 73 78 74 79 82 80 75 81 81 82 83 83 80 84
REMARK SMILES IDX 76 85 77 86 78 87 79 88 58 89 59 90 67 91 60 92 66 93 68 94
REMARK SMILES IDX 65 95 61 96 62 97 63 98 64 99
REMARK H PARENT 88 52 56 63
REMARK Flexibility Score: inf
ROOT
ATOM      1  O   UNL A   1      51.161  27.021  25.940  1.00  0.00    -0.377 OA
ENDROOT
BRANCH   1   2
ATOM      2  C   UNL A   1      50.362  27.983  25.288  1.00  0.00     0.188 C 
BRANCH   2   3
ATOM      3  C   UNL A   1      49.566  27.470  24.080  1.00  0.00     0.188 C 
BRANCH   3   4
ATOM      4  O   UNL A   1      48.232  27.894  23.836  1.00  0.00    -0.376 OA
BRANCH   4   5
ATOM      5  C   UNL A   1      47.129  27.122  24.292  1.00  0.00     0.202 C 
BRANCH   5   6
ATOM      6  C   UNL A   1      46.601  27.264  25.733  1.00  0.00     0.261 C 
BRANCH   6   7
ATOM      7  O   UNL A   1      45.168  27.296  25.907  1.00  0.00    -0.463 OA
BRANCH   7   8
ATOM      8  C   UNL A   1      44.685  26.723  27.030  1.00  0.00     0.313 C 
ATOM      9  O   UNL A   1      45.328  26.636  28.078  1.00  0.00    -0.252 OA
BRANCH   8  10
ATOM     10  C   UNL A   1      43.274  26.140  26.938  1.00  0.00     0.126 C 
ATOM     11  C   UNL A   1      43.122  25.475  25.575  1.00  0.00     0.025 C 
BRANCH  10  12
ATOM     12  C   UNL A   1      42.035  26.966  27.294  1.00  0.00    -0.034 A 
ATOM     13  C   UNL A   1      39.791  28.623  27.992  1.00  0.00    -0.017 A 
ATOM     14  C   UNL A   1      39.664  27.232  27.812  1.00  0.00     0.009 A 
ATOM     15  C   UNL A   1      41.062  29.174  27.789  1.00  0.00     0.009 A 
ATOM     16  C   UNL A   1      40.763  26.415  27.475  1.00  0.00     0.005 A 
ATOM     17  C   UNL A   1      42.162  28.363  27.461  1.00  0.00     0.005 A 
BRANCH  13  18
ATOM     18  C   UNL A   1      38.664  29.444  28.487  1.00  0.00     0.001 A 
ATOM     19  C   UNL A   1      37.678  31.243  29.819  1.00  0.00    -0.007 A 
ATOM     20  C   UNL A   1      36.430  30.773  29.414  1.00  0.00     0.119 A 
ATOM     21  C   UNL A   1      38.808  30.555  29.342  1.00  0.00     0.020 A 
ATOM     22  N   UNL A   1      36.236  29.715  28.599  1.00  0.00    -0.263 NA
ATOM     23  C   UNL A   1      37.352  29.089  28.159  1.00  0.00     0.119 A 
BRANCH  19  24
ATOM     24  C   UNL A   1      37.713  32.362  30.771  1.00  0.00     0.005 C 
ATOM     25  C   UNL A   1      38.360  34.619  31.614  1.00  0.00     0.035 C 
ATOM     26  C   UNL A   1      38.440  33.481  30.642  1.00  0.00    -0.030 C 
ENDBRANCH  19  24
ENDBRANCH  13  18
ENDBRANCH  10  12
ENDBRANCH   8  10
ENDBRANCH   7   8
ENDBRANCH   6   7
ENDBRANCH   5   6
ENDBRANCH   4   5
ENDBRANCH   3   4
ENDBRANCH   2   3
ENDBRANCH   1   2
BRANCH   1  27
ATOM     27  C   UNL A   1      51.511  25.867  25.194  1.00  0.00     0.188 C 
BRANCH  27  28
ATOM     28  C   UNL A   1      52.632  24.979  25.764  1.00  0.00     0.188 C 
BRANCH  28  29
ATOM     29  O   UNL A   1      53.879  25.649  25.914  1.00  0.00    -0.376 OA
BRANCH  29  30
ATOM     30  C   UNL A   1      54.745  25.248  26.967  1.00  0.00     0.202 C 
BRANCH  30  31
ATOM     31  C   UNL A   1      55.270  26.321  27.941  1.00  0.00     0.261 C 
BRANCH  31  32
ATOM     32  O   UNL A   1      54.299  27.034  28.724  1.00  0.00    -0.460 OA
BRANCH  32  33
ATOM     33  C   UNL A   1      53.731  26.397  29.767  1.00  0.00     0.338 C 
ATOM     34  O   UNL A   1      54.306  25.722  30.606  1.00  0.00    -0.246 OA
BRANCH  33  35
ATOM     35  C   UNL A   1      52.316  26.825  29.853  1.00  0.00     0.060 A 
ATOM     36  C   UNL A   1      51.991  27.930  30.652  1.00  0.00     0.016 A 
ATOM     37  C   UNL A   1      51.316  26.147  29.151  1.00  0.00     0.016 A 
ATOM     38  C   UNL A   1      50.661  28.330  30.789  1.00  0.00     0.010 A 
ATOM     39  C   UNL A   1      49.980  26.533  29.311  1.00  0.00     0.010 A 
ATOM     40  C   UNL A   1      49.643  27.602  30.162  1.00  0.00    -0.014 A 
BRANCH  40  41
ATOM     41  C   UNL A   1      48.231  27.812  30.577  1.00  0.00     0.031 A 
ATOM     42  C   UNL A   1      47.462  28.931  29.923  1.00  0.00     0.074 A 
ATOM     43  C   UNL A   1      47.626  27.011  31.472  1.00  0.00     0.049 A 
ATOM     44  N   UNL A   1      46.248  29.357  30.156  1.00  0.00    -0.248 NA
ATOM     45  C   UNL A   1      48.165  29.667  28.861  1.00  0.00     0.031 C 
ATOM     46  C   UNL A   1      48.244  25.860  32.128  1.00  0.00     0.029 A 
ATOM     47  N   UNL A   1      46.356  27.052  31.993  1.00  0.00    -0.354 N 
ATOM     48  C   UNL A   1      46.041  30.409  29.270  1.00  0.00     0.074 A 
ATOM     49  C   UNL A   1      47.272  30.586  28.530  1.00  0.00     0.031 C 
ATOM     50  C   UNL A   1      47.356  25.316  32.979  1.00  0.00     0.029 A 
ATOM     51  C   UNL A   1      46.124  26.104  32.962  1.00  0.00     0.049 A 
ATOM     52  H   UNL A   1      45.675  27.701  31.700  1.00  0.00     0.167 HD
ATOM     53  C   UNL A   1      44.922  31.151  29.079  1.00  0.00     0.034 A 
ATOM     54  C   UNL A   1      45.055  25.918  33.766  1.00  0.00     0.034 A 
ATOM     55  C   UNL A   1      43.710  30.979  29.839  1.00  0.00     0.049 A 
ATOM     56  C   UNL A   1      43.857  26.831  33.615  1.00  0.00     0.074 A 
ATOM     57  C   UNL A   1      42.525  31.688  29.743  1.00  0.00     0.029 A 
ATOM     58  N   UNL A   1      43.527  30.037  30.844  1.00  0.00    -0.354 N 
ATOM     59  N   UNL A   1      43.675  27.832  32.783  1.00  0.00    -0.248 NA
ATOM     60  C   UNL A   1      42.714  26.582  34.506  1.00  0.00     0.031 C 
ATOM     61  C   UNL A   1      41.657  31.228  30.738  1.00  0.00     0.029 A 
ATOM     62  C   UNL A   1      42.261  30.167  31.393  1.00  0.00     0.049 A 
ATOM     63  H   UNL A   1      44.199  29.375  31.125  1.00  0.00     0.167 HD
ATOM     64  C   UNL A   1      42.385  28.302  33.025  1.00  0.00     0.074 A 
ATOM     65  C   UNL A   1      41.830  27.467  34.069  1.00  0.00     0.031 C 
ATOM     66  C   UNL A   1      41.717  29.328  32.436  1.00  0.00     0.034 A 
BRANCH  53  67
ATOM     67  C   UNL A   1      44.984  32.241  28.037  1.00  0.00     0.023 A 
ATOM     68  C   UNL A   1      45.529  33.505  28.323  1.00  0.00     0.031 A 
ATOM     69  C   UNL A   1      44.468  32.025  26.747  1.00  0.00     0.131 A 
ATOM     70  C   UNL A   1      45.482  34.523  27.359  1.00  0.00     0.055 A 
ATOM     71  C   UNL A   1      44.502  33.015  25.763  1.00  0.00     0.041 A 
ATOM     72  F   UNL A   1      43.910  30.848  26.422  1.00  0.00    -0.206 F 
ATOM     73  C   UNL A   1      44.999  34.279  26.071  1.00  0.00     0.022 A 
BRANCH  70  74
ATOM     74  S   UNL A   1      45.924  36.210  27.858  1.00  0.00     0.124 S 
ATOM     75  O   UNL A   1      46.586  36.709  26.654  1.00  0.00    -0.237 OA
ATOM     76  O   UNL A   1      44.626  36.800  28.163  1.00  0.00    -0.237 OA
ATOM     77  O   UNL A   1      46.806  36.008  29.006  1.00  0.00    -0.744 OA
ENDBRANCH  70  74
ENDBRANCH  53  67
BRANCH  54  78
ATOM     78  C   UNL A   1      45.076  24.871  34.831  1.00  0.00     0.023 A 
ATOM     79  C   UNL A   1      45.491  25.162  36.140  1.00  0.00     0.031 A 
ATOM     80  C   UNL A   1      44.757  23.533  34.528  1.00  0.00     0.131 A 
ATOM     81  C   UNL A   1      45.635  24.126  37.078  1.00  0.00     0.055 A 
ATOM     82  C   UNL A   1      44.838  22.517  35.482  1.00  0.00     0.041 A 
ATOM     83  F   UNL A   1      44.364  23.192  33.290  1.00  0.00    -0.206 F 
ATOM     84  C   UNL A   1      45.295  22.808  36.763  1.00  0.00     0.022 A 
BRANCH  81  85
ATOM     85  S   UNL A   1      46.389  24.505  38.684  1.00  0.00     0.124 S 
ATOM     86  O   UNL A   1      47.268  25.617  38.344  1.00  0.00    -0.237 OA
ATOM     87  O   UNL A   1      45.221  24.835  39.496  1.00  0.00    -0.237 OA
ATOM     88  O   UNL A   1      47.065  23.261  39.045  1.00  0.00    -0.744 OA
ENDBRANCH  81  85
ENDBRANCH  54  78
BRANCH  66  89
ATOM     89  C   UNL A   1      40.285  29.560  32.861  1.00  0.00     0.023 A 
ATOM     90  C   UNL A   1      39.941  30.498  33.849  1.00  0.00     0.031 A 
ATOM     91  C   UNL A   1      39.245  28.824  32.262  1.00  0.00     0.131 A 
ATOM     92  C   UNL A   1      38.603  30.631  34.253  1.00  0.00     0.055 A 
ATOM     93  C   UNL A   1      37.909  29.011  32.616  1.00  0.00     0.041 A 
ATOM     94  F   UNL A   1      39.513  27.911  31.314  1.00  0.00    -0.206 F 
ATOM     95  C   UNL A   1      37.583  29.909  33.628  1.00  0.00     0.022 A 
BRANCH  92  96
ATOM     96  S   UNL A   1      38.223  31.683  35.681  1.00  0.00     0.124 S 
ATOM     97  O   UNL A   1      39.406  32.535  35.751  1.00  0.00    -0.237 OA
ATOM     98  O   UNL A   1      36.988  32.340  35.266  1.00  0.00    -0.237 OA
ATOM     99  O   UNL A   1      38.080  30.730  36.780  1.00  0.00    -0.744 OA
ENDBRANCH  92  96
ENDBRANCH  66  89
ENDBRANCH  40  41
ENDBRANCH  33  35
ENDBRANCH  32  33
ENDBRANCH  31  32
ENDBRANCH  30  31
ENDBRANCH  29  30
ENDBRANCH  28  29
ENDBRANCH  27  28
ENDBRANCH   1  27
TORSDOF 26
ENDMDL
MODEL 3
REMARK VINA RESULT:      -7.6      2.729      3.924
REMARK SMILES C/C=C/c1cncc(-c2ccc([C@@H](C)C(=O)OCCOCCOCCOCCOC(=O)c3ccc(-c4c5nc(c(-c6cc(S(=O)(=O)[O-])ccc6F)c6ccc([nH]6)c(-c6cc(S(=O)(=O)[O-])ccc6F)c6nc(c(-c7cc(S(=O)(=O)[O-])ccc7F)c7ccc4[nH]7)C=C6)C=C5)cc3)cc2)c1
REMARK SMILES IDX 23 1 22 2 21 3 20 4 19 5 18 6 17 7 15 8 16 9 13 10 14 11
REMARK SMILES IDX 12 12 9 13 10 14 96 15 11 16 95 17 8 18 4 19 5 20 97 21 6 22
REMARK SMILES IDX 7 23 3 24 1 25 2 26 24 27 25 28 26 29 27 30 28 31 29 32
REMARK SMILES IDX 30 33 31 34 32 35 33 36 94 37 34 38 93 39 35 40 36 41 37 42
REMARK SMILES IDX 87 43 38 44 92 45 86 46 88 47 39 48 91 49 85 50 84 51 40 53
REMARK SMILES IDX 72 54 52 55 71 56 53 57 56 58 70 59 89 60 54 61 55 62 69 64
REMARK SMILES IDX 90 65 57 66 41 67 42 68 50 69 43 70 49 71 51 72 48 73 44 74
REMARK SMILES IDX 45 75 46 76 47 77 73 78 74 79 82 80 75 81 81 82 83 83 80 84
REMARK SMILES IDX 76 85 77 86 78 87 79 88 58 89 59 90 67 91 60 92 66 93 68 94
REMARK SMILES IDX 65 95 61 96 62 97 63 98 64 99
REMARK H PARENT 88 52 56 63
REMARK Flexibility Score: inf
ROOT
ATOM      1  O   UNL A   1      45.216  24.743  24.654  1.00  0.00    -0.377 OA
ENDROOT
BRANCH   1   2
ATOM      2  C   UNL A   1      45.801  25.924  25.157  1.00  0.00     0.188 C 
BRANCH   2   3
ATOM      3  C   UNL A   1      45.014  27.215  24.892  1.00  0.00     0.188 C 
BRANCH   3   4
ATOM      4  O   UNL A   1      45.241  28.392  25.655  1.00  0.00    -0.376 OA
BRANCH   4   5
ATOM      5  C   UNL A   1      44.338  28.780  26.680  1.00  0.00     0.202 C 
BRANCH   5   6
ATOM      6  C   UNL A   1      44.289  30.235  27.187  1.00  0.00     0.261 C 
BRANCH   6   7
ATOM      7  O   UNL A   1      45.513  30.787  27.717  1.00  0.00    -0.463 OA
BRANCH   7   8
ATOM      8  C   UNL A   1      46.242  31.553  26.876  1.00  0.00     0.313 C 
ATOM      9  O   UNL A   1      45.768  32.109  25.885  1.00  0.00    -0.252 OA
BRANCH   8  10
ATOM     10  C   UNL A   1      47.731  31.682  27.199  1.00  0.00     0.126 C 
ATOM     11  C   UNL A   1      48.368  30.304  27.061  1.00  0.00     0.025 C 
BRANCH  10  12
ATOM     12  C   UNL A   1      48.226  32.398  28.457  1.00  0.00    -0.034 A 
ATOM     13  C   UNL A   1      49.261  33.657  30.827  1.00  0.00    -0.017 A 
ATOM     14  C   UNL A   1      47.967  33.928  30.343  1.00  0.00     0.009 A 
ATOM     15  C   UNL A   1      50.040  32.762  30.084  1.00  0.00     0.009 A 
ATOM     16  C   UNL A   1      47.453  33.308  29.185  1.00  0.00     0.005 A 
ATOM     17  C   UNL A   1      49.530  32.136  28.933  1.00  0.00     0.005 A 
BRANCH  13  18
ATOM     18  C   UNL A   1      49.733  34.200  32.120  1.00  0.00     0.001 A 
ATOM     19  C   UNL A   1      49.856  34.259  34.561  1.00  0.00    -0.007 A 
ATOM     20  C   UNL A   1      50.594  35.434  34.433  1.00  0.00     0.119 A 
ATOM     21  C   UNL A   1      49.419  33.642  33.376  1.00  0.00     0.020 A 
ATOM     22  N   UNL A   1      50.921  36.009  33.257  1.00  0.00    -0.263 NA
ATOM     23  C   UNL A   1      50.487  35.377  32.142  1.00  0.00     0.119 A 
BRANCH  19  24
ATOM     24  C   UNL A   1      49.522  33.805  35.919  1.00  0.00     0.005 C 
ATOM     25  C   UNL A   1      48.116  32.747  37.688  1.00  0.00     0.035 C 
ATOM     26  C   UNL A   1      48.355  33.266  36.302  1.00  0.00    -0.030 C 
ENDBRANCH  19  24
ENDBRANCH  13  18
ENDBRANCH  10  12
ENDBRANCH   8  10
ENDBRANCH   7   8
ENDBRANCH   6   7
ENDBRANCH   5   6
ENDBRANCH   4   5
ENDBRANCH   3   4
ENDBRANCH   2   3
ENDBRANCH   1   2
BRANCH   1  27
ATOM     27  C   UNL A   1      46.026  23.579  24.647  1.00  0.00     0.188 C 
BRANCH  27  28
ATOM     28  C   UNL A   1      45.918  22.645  25.866  1.00  0.00     0.188 C 
BRANCH  28  29
ATOM     29  O   UNL A   1      46.231  21.286  25.582  1.00  0.00    -0.376 OA
BRANCH  29  30
ATOM     30  C   UNL A   1      45.530  20.630  24.534  1.00  0.00     0.202 C 
BRANCH  30  31
ATOM     31  C   UNL A   1      44.324  19.741  24.895  1.00  0.00     0.261 C 
BRANCH  31  32
ATOM     32  O   UNL A   1      43.040  20.379  24.993  1.00  0.00    -0.460 OA
BRANCH  32  33
ATOM     33  C   UNL A   1      42.352  20.250  26.145  1.00  0.00     0.338 C 
ATOM     34  O   UNL A   1      41.999  19.204  26.666  1.00  0.00    -0.246 OA
BRANCH  33  35
ATOM     35  C   UNL A   1      42.279  21.581  26.790  1.00  0.00     0.060 A 
ATOM     36  C   UNL A   1      42.305  22.726  25.981  1.00  0.00     0.016 A 
ATOM     37  C   UNL A   1      42.185  21.703  28.178  1.00  0.00     0.016 A 
ATOM     38  C   UNL A   1      42.284  23.995  26.560  1.00  0.00     0.010 A 
ATOM     39  C   UNL A   1      42.192  22.977  28.760  1.00  0.00     0.010 A 
ATOM     40  C   UNL A   1      42.280  24.128  27.954  1.00  0.00    -0.014 A 
BRANCH  40  41
ATOM     41  C   UNL A   1      42.601  25.445  28.565  1.00  0.00     0.031 A 
ATOM     42  C   UNL A   1      44.051  25.772  28.814  1.00  0.00     0.074 A 
ATOM     43  C   UNL A   1      41.647  26.348  28.852  1.00  0.00     0.049 A 
ATOM     44  N   UNL A   1      44.583  26.818  29.391  1.00  0.00    -0.248 NA
ATOM     45  C   UNL A   1      45.030  24.779  28.346  1.00  0.00     0.031 C 
ATOM     46  C   UNL A   1      40.217  26.174  28.601  1.00  0.00     0.029 A 
ATOM     47  N   UNL A   1      41.737  27.592  29.428  1.00  0.00    -0.354 N 
ATOM     48  C   UNL A   1      45.958  26.609  29.355  1.00  0.00     0.074 A 
ATOM     49  C   UNL A   1      46.173  25.316  28.743  1.00  0.00     0.031 C 
ATOM     50  C   UNL A   1      39.563  27.264  29.040  1.00  0.00     0.029 A 
ATOM     51  C   UNL A   1      40.519  28.194  29.641  1.00  0.00     0.049 A 
ATOM     52  H   UNL A   1      42.595  28.013  29.666  1.00  0.00     0.167 HD
ATOM     53  C   UNL A   1      46.952  27.428  29.778  1.00  0.00     0.034 A 
ATOM     54  C   UNL A   1      40.211  29.343  30.280  1.00  0.00     0.034 A 
ATOM     55  C   UNL A   1      46.724  28.705  30.407  1.00  0.00     0.049 A 
ATOM     56  C   UNL A   1      41.330  30.189  30.848  1.00  0.00     0.074 A 
ATOM     57  C   UNL A   1      47.656  29.605  30.893  1.00  0.00     0.029 A 
ATOM     58  N   UNL A   1      45.474  29.261  30.647  1.00  0.00    -0.354 N 
ATOM     59  N   UNL A   1      42.627  29.976  30.820  1.00  0.00    -0.248 NA
ATOM     60  C   UNL A   1      40.945  31.435  31.526  1.00  0.00     0.031 C 
ATOM     61  C   UNL A   1      46.970  30.665  31.494  1.00  0.00     0.029 A 
ATOM     62  C   UNL A   1      45.611  30.476  31.299  1.00  0.00     0.049 A 
ATOM     63  H   UNL A   1      44.616  28.851  30.393  1.00  0.00     0.167 HD
ATOM     64  C   UNL A   1      43.209  31.082  31.439  1.00  0.00     0.074 A 
ATOM     65  C   UNL A   1      42.125  31.963  31.816  1.00  0.00     0.031 C 
ATOM     66  C   UNL A   1      44.521  31.348  31.671  1.00  0.00     0.034 A 
BRANCH  53  67
ATOM     67  C   UNL A   1      48.371  26.938  29.612  1.00  0.00     0.023 A 
ATOM     68  C   UNL A   1      49.094  27.160  28.427  1.00  0.00     0.031 A 
ATOM     69  C   UNL A   1      49.000  26.214  30.641  1.00  0.00     0.131 A 
ATOM     70  C   UNL A   1      50.374  26.607  28.273  1.00  0.00     0.055 A 
ATOM     71  C   UNL A   1      50.307  25.740  30.515  1.00  0.00     0.041 A 
ATOM     72  F   UNL A   1      48.350  25.946  31.784  1.00  0.00    -0.206 F 
ATOM     73  C   UNL A   1      50.997  25.923  29.320  1.00  0.00     0.022 A 
BRANCH  70  74
ATOM     74  S   UNL A   1      51.153  26.667  26.637  1.00  0.00     0.124 S 
ATOM     75  O   UNL A   1      50.435  25.608  25.930  1.00  0.00    -0.237 OA
ATOM     76  O   UNL A   1      50.869  28.030  26.201  1.00  0.00    -0.237 OA
ATOM     77  O   UNL A   1      52.558  26.379  26.915  1.00  0.00    -0.744 OA
ENDBRANCH  70  74
ENDBRANCH  53  67
BRANCH  54  78
ATOM     78  C   UNL A   1      38.786  29.743  30.481  1.00  0.00     0.023 A 
ATOM     79  C   UNL A   1      38.144  30.637  29.610  1.00  0.00     0.031 A 
ATOM     80  C   UNL A   1      38.067  29.295  31.607  1.00  0.00     0.131 A 
ATOM     81  C   UNL A   1      36.852  31.101  29.908  1.00  0.00     0.055 A 
ATOM     82  C   UNL A   1      36.758  29.708  31.863  1.00  0.00     0.041 A 
ATOM     83  F   UNL A   1      38.632  28.447  32.481  1.00  0.00    -0.206 F 
ATOM     84  C   UNL A   1      36.148  30.630  31.019  1.00  0.00     0.022 A 
BRANCH  81  85
ATOM     85  S   UNL A   1      36.146  32.425  28.887  1.00  0.00     0.124 S 
ATOM     86  O   UNL A   1      34.980  32.814  29.671  1.00  0.00    -0.237 OA
ATOM     87  O   UNL A   1      37.242  33.389  28.844  1.00  0.00    -0.237 OA
ATOM     88  O   UNL A   1      35.854  31.759  27.619  1.00  0.00    -0.744 OA
ENDBRANCH  81  85
ENDBRANCH  54  78
BRANCH  66  89
ATOM     89  C   UNL A   1      44.859  32.679  32.306  1.00  0.00     0.023 A 
ATOM     90  C   UNL A   1      44.728  33.893  31.611  1.00  0.00     0.031 A 
ATOM     91  C   UNL A   1      45.323  32.727  33.634  1.00  0.00     0.131 A 
ATOM     92  C   UNL A   1      45.116  35.095  32.224  1.00  0.00     0.055 A 
ATOM     93  C   UNL A   1      45.639  33.931  34.262  1.00  0.00     0.041 A 
ATOM     94  F   UNL A   1      45.472  31.599  34.347  1.00  0.00    -0.206 F 
ATOM     95  C   UNL A   1      45.551  35.124  33.551  1.00  0.00     0.022 A 
BRANCH  92  96
ATOM     96  S   UNL A   1      45.147  36.611  31.228  1.00  0.00     0.124 S 
ATOM     97  O   UNL A   1      45.255  36.080  29.873  1.00  0.00    -0.237 OA
ATOM     98  O   UNL A   1      43.873  37.235  31.568  1.00  0.00    -0.237 OA
ATOM     99  O   UNL A   1      46.332  37.316  31.713  1.00  0.00    -0.744 OA
ENDBRANCH  92  96
ENDBRANCH  66  89
ENDBRANCH  40  41
ENDBRANCH  33  35
ENDBRANCH  32  33
ENDBRANCH  31  32
ENDBRANCH  30  31
ENDBRANCH  29  30
ENDBRANCH  28  29
ENDBRANCH  27  28
ENDBRANCH   1  27
TORSDOF 26
ENDMDL
