MODEL 1
REMARK VINA RESULT:     -10.2      0.000      0.000
REMARK SMILES O=C(Cc1cccc(-c2ccn(C(F)F)c(=O)c2)c1)OCCOCCOCCOCCOC(=O)c1ccc(-c2c3nc(c(-c4cc(S(=O)(=O)[O-])ccc4F)c4ccc([nH]4)c(-c4cc(S(=O)(=O)[O-])ccc4F)c4nc(c(-c5cc(S(=O)(=O)[O-])ccc5F)c5ccc2[nH]5)C=C4)C=C3)cc1
REMARK SMILES IDX 26 1 25 2 24 3 23 4 22 5 21 6 20 7 2 8 1 9 3 10 4 11 5 12
REMARK SMILES IDX 19 13 6 14 8 15 7 16 9 17 10 18 18 19 11 20 16 21 12 22
REMARK SMILES IDX 17 23 13 24 14 25 15 26 27 27 28 28 29 29 30 30 31 31 32 32
REMARK SMILES IDX 33 33 34 34 35 35 36 36 97 37 37 38 96 39 38 40 39 41 40 42
REMARK SMILES IDX 90 43 41 44 95 45 89 46 91 47 42 48 94 49 88 50 87 51 43 53
REMARK SMILES IDX 75 54 55 55 74 56 56 57 59 58 73 59 92 60 57 61 58 62 72 64
REMARK SMILES IDX 93 65 60 66 44 67 45 68 53 69 46 70 52 71 54 72 51 73 47 74
REMARK SMILES IDX 48 75 49 76 50 77 76 78 77 79 85 80 78 81 84 82 86 83 83 84
REMARK SMILES IDX 79 85 80 86 81 87 82 88 61 89 62 90 70 91 63 92 69 93 71 94
REMARK SMILES IDX 68 95 64 96 65 97 66 98 67 99
REMARK H PARENT 91 52 59 63
REMARK Flexibility Score: inf
ROOT
ATOM      1  O   UNL A   1      31.652  28.519  23.289  1.00  0.00    -0.377 OA
ENDROOT
BRANCH   1   2
ATOM      2  C   UNL A   1      33.060  28.599  23.159  1.00  0.00     0.188 C 
BRANCH   2   3
ATOM      3  C   UNL A   1      33.716  27.832  22.007  1.00  0.00     0.188 C 
BRANCH   3   4
ATOM      4  O   UNL A   1      33.943  26.438  22.085  1.00  0.00    -0.376 OA
BRANCH   4   5
ATOM      5  C   UNL A   1      33.020  25.403  21.836  1.00  0.00     0.202 C 
BRANCH   5   6
ATOM      6  C   UNL A   1      31.600  25.403  22.379  1.00  0.00     0.261 C 
BRANCH   6   7
ATOM      7  O   UNL A   1      31.320  24.656  23.575  1.00  0.00    -0.463 OA
BRANCH   7   8
ATOM      8  C   UNL A   1      30.899  25.076  24.786  1.00  0.00     0.310 C 
ATOM      9  O   UNL A   1      29.953  25.862  24.837  1.00  0.00    -0.252 OA
BRANCH   8  10
ATOM     10  C   UNL A   1      31.618  24.657  26.055  1.00  0.00     0.158 C 
BRANCH  10  11
ATOM     11  C   UNL A   1      33.017  24.162  25.852  1.00  0.00    -0.036 A 
ATOM     12  C   UNL A   1      34.058  25.007  25.453  1.00  0.00     0.004 A 
ATOM     13  C   UNL A   1      33.261  22.799  25.975  1.00  0.00     0.013 A 
ATOM     14  C   UNL A   1      35.284  24.465  25.062  1.00  0.00     0.001 A 
ATOM     15  C   UNL A   1      34.459  22.247  25.524  1.00  0.00    -0.018 A 
ATOM     16  C   UNL A   1      35.477  23.079  25.065  1.00  0.00     0.009 A 
BRANCH  15  17
ATOM     17  C   UNL A   1      34.453  20.784  25.450  1.00  0.00    -0.011 A 
ATOM     18  C   UNL A   1      35.631  20.045  25.036  1.00  0.00     0.027 A 
ATOM     19  C   UNL A   1      33.253  20.184  25.451  1.00  0.00     0.080 A 
ATOM     20  C   UNL A   1      35.511  18.796  24.576  1.00  0.00     0.095 A 
ATOM     21  C   UNL A   1      33.116  18.778  24.983  1.00  0.00     0.255 A 
ATOM     22  N   UNL A   1      34.281  18.169  24.541  1.00  0.00    -0.258 N 
ATOM     23  O   UNL A   1      31.995  18.280  24.970  1.00  0.00    -0.269 OA
BRANCH  22  24
ATOM     24  C   UNL A   1      34.156  16.843  23.999  1.00  0.00     0.451 C 
ATOM     25  F   UNL A   1      34.346  16.845  22.658  1.00  0.00    -0.185 F 
ATOM     26  F   UNL A   1      35.074  16.011  24.549  1.00  0.00    -0.185 F 
ENDBRANCH  22  24
ENDBRANCH  15  17
ENDBRANCH  10  11
ENDBRANCH   8  10
ENDBRANCH   7   8
ENDBRANCH   6   7
ENDBRANCH   5   6
ENDBRANCH   4   5
ENDBRANCH   3   4
ENDBRANCH   2   3
ENDBRANCH   1   2
BRANCH   1  27
ATOM     27  C   UNL A   1      31.115  29.151  24.437  1.00  0.00     0.188 C 
BRANCH  27  28
ATOM     28  C   UNL A   1      32.167  29.413  25.527  1.00  0.00     0.188 C 
BRANCH  28  29
ATOM     29  O   UNL A   1      31.787  30.254  26.594  1.00  0.00    -0.376 OA
BRANCH  29  30
ATOM     30  C   UNL A   1      31.425  31.614  26.412  1.00  0.00     0.202 C 
BRANCH  30  31
ATOM     31  C   UNL A   1      31.839  32.836  27.259  1.00  0.00     0.261 C 
BRANCH  31  32
ATOM     32  O   UNL A   1      33.214  33.046  27.560  1.00  0.00    -0.460 OA
BRANCH  32  33
ATOM     33  C   UNL A   1      33.485  34.070  28.388  1.00  0.00     0.338 C 
ATOM     34  O   UNL A   1      32.815  35.080  28.546  1.00  0.00    -0.246 OA
BRANCH  33  35
ATOM     35  C   UNL A   1      34.600  33.652  29.259  1.00  0.00     0.060 A 
ATOM     36  C   UNL A   1      35.869  34.182  28.990  1.00  0.00     0.016 A 
ATOM     37  C   UNL A   1      34.405  32.774  30.330  1.00  0.00     0.016 A 
ATOM     38  C   UNL A   1      36.963  33.777  29.742  1.00  0.00     0.010 A 
ATOM     39  C   UNL A   1      35.511  32.337  31.062  1.00  0.00     0.010 A 
ATOM     40  C   UNL A   1      36.799  32.793  30.723  1.00  0.00    -0.014 A 
BRANCH  40  41
ATOM     41  C   UNL A   1      38.001  32.027  31.123  1.00  0.00     0.031 A 
ATOM     42  C   UNL A   1      38.551  32.282  32.501  1.00  0.00     0.074 A 
ATOM     43  C   UNL A   1      38.510  31.059  30.342  1.00  0.00     0.049 A 
ATOM     44  N   UNL A   1      39.555  31.716  33.117  1.00  0.00    -0.248 NA
ATOM     45  C   UNL A   1      37.869  33.320  33.294  1.00  0.00     0.031 C 
ATOM     46  C   UNL A   1      38.004  30.681  29.025  1.00  0.00     0.029 A 
ATOM     47  N   UNL A   1      39.561  30.208  30.560  1.00  0.00    -0.354 N 
ATOM     48  C   UNL A   1      39.628  32.333  34.361  1.00  0.00     0.074 A 
ATOM     49  C   UNL A   1      38.597  33.344  34.397  1.00  0.00     0.031 C 
ATOM     50  C   UNL A   1      38.747  29.665  28.550  1.00  0.00     0.029 A 
ATOM     51  C   UNL A   1      39.799  29.347  29.515  1.00  0.00     0.049 A 
ATOM     52  H   UNL A   1      40.096  30.211  31.386  1.00  0.00     0.167 HD
ATOM     53  C   UNL A   1      40.473  32.071  35.388  1.00  0.00     0.034 A 
ATOM     54  C   UNL A   1      40.767  28.423  29.357  1.00  0.00     0.034 A 
ATOM     55  C   UNL A   1      41.501  31.063  35.327  1.00  0.00     0.049 A 
ATOM     56  C   UNL A   1      41.760  28.213  30.479  1.00  0.00     0.074 A 
ATOM     57  C   UNL A   1      42.416  30.707  36.300  1.00  0.00     0.029 A 
ATOM     58  N   UNL A   1      41.759  30.258  34.223  1.00  0.00    -0.354 N 
ATOM     59  N   UNL A   1      41.823  28.802  31.652  1.00  0.00    -0.248 NA
ATOM     60  C   UNL A   1      42.799  27.201  30.258  1.00  0.00     0.031 C 
ATOM     61  C   UNL A   1      43.282  29.753  35.756  1.00  0.00     0.029 A 
ATOM     62  C   UNL A   1      42.843  29.434  34.481  1.00  0.00     0.049 A 
ATOM     63  H   UNL A   1      41.248  30.272  33.383  1.00  0.00     0.167 HD
ATOM     64  C   UNL A   1      42.883  28.195  32.326  1.00  0.00     0.074 A 
ATOM     65  C   UNL A   1      43.416  27.189  31.430  1.00  0.00     0.031 C 
ATOM     66  C   UNL A   1      43.366  28.438  33.573  1.00  0.00     0.034 A 
BRANCH  53  67
ATOM     67  C   UNL A   1      40.360  32.939  36.618  1.00  0.00     0.023 A 
ATOM     68  C   UNL A   1      39.561  32.580  37.719  1.00  0.00     0.031 A 
ATOM     69  C   UNL A   1      41.030  34.175  36.669  1.00  0.00     0.131 A 
ATOM     70  C   UNL A   1      39.393  33.477  38.785  1.00  0.00     0.055 A 
ATOM     71  C   UNL A   1      40.930  35.023  37.773  1.00  0.00     0.041 A 
ATOM     72  F   UNL A   1      41.780  34.588  35.636  1.00  0.00    -0.206 F 
ATOM     73  C   UNL A   1      40.095  34.683  38.833  1.00  0.00     0.022 A 
BRANCH  70  74
ATOM     74  S   UNL A   1      38.123  33.120  40.030  1.00  0.00     0.124 S 
ATOM     75  O   UNL A   1      38.679  31.939  40.688  1.00  0.00    -0.237 OA
ATOM     76  O   UNL A   1      38.105  34.343  40.822  1.00  0.00    -0.237 OA
ATOM     77  O   UNL A   1      36.922  32.873  39.235  1.00  0.00    -0.744 OA
ENDBRANCH  70  74
ENDBRANCH  53  67
BRANCH  54  78
ATOM     78  C   UNL A   1      40.875  27.642  28.091  1.00  0.00     0.023 A 
ATOM     79  C   UNL A   1      40.428  26.312  28.014  1.00  0.00     0.031 A 
ATOM     80  C   UNL A   1      41.492  28.193  26.954  1.00  0.00     0.131 A 
ATOM     81  C   UNL A   1      40.655  25.563  26.848  1.00  0.00     0.055 A 
ATOM     82  C   UNL A   1      41.662  27.463  25.776  1.00  0.00     0.041 A 
ATOM     83  F   UNL A   1      41.942  29.459  26.971  1.00  0.00    -0.206 F 
ATOM     84  C   UNL A   1      41.256  26.135  25.724  1.00  0.00     0.022 A 
BRANCH  81  85
ATOM     85  S   UNL A   1      40.242  23.797  26.856  1.00  0.00     0.124 S 
ATOM     86  O   UNL A   1      38.963  23.789  26.156  1.00  0.00    -0.237 OA
ATOM     87  O   UNL A   1      41.372  23.221  26.137  1.00  0.00    -0.237 OA
ATOM     88  O   UNL A   1      40.180  23.471  28.279  1.00  0.00    -0.744 OA
ENDBRANCH  81  85
ENDBRANCH  54  78
BRANCH  66  89
ATOM     89  C   UNL A   1      44.485  27.548  34.065  1.00  0.00     0.023 A 
ATOM     90  C   UNL A   1      44.243  26.403  34.844  1.00  0.00     0.031 A 
ATOM     91  C   UNL A   1      45.822  27.872  33.769  1.00  0.00     0.131 A 
ATOM     92  C   UNL A   1      45.321  25.672  35.366  1.00  0.00     0.055 A 
ATOM     93  C   UNL A   1      46.888  27.093  34.222  1.00  0.00     0.041 A 
ATOM     94  F   UNL A   1      46.117  28.955  33.034  1.00  0.00    -0.206 F 
ATOM     95  C   UNL A   1      46.641  25.996  35.042  1.00  0.00     0.022 A 
BRANCH  92  96
ATOM     96  S   UNL A   1      44.980  24.374  36.587  1.00  0.00     0.124 S 
ATOM     97  O   UNL A   1      43.800  24.900  37.264  1.00  0.00    -0.237 OA
ATOM     98  O   UNL A   1      44.763  23.203  35.745  1.00  0.00    -0.237 OA
ATOM     99  O   UNL A   1      46.196  24.339  37.398  1.00  0.00    -0.744 OA
ENDBRANCH  92  96
ENDBRANCH  66  89
ENDBRANCH  40  41
ENDBRANCH  33  35
ENDBRANCH  32  33
ENDBRANCH  31  32
ENDBRANCH  30  31
ENDBRANCH  29  30
ENDBRANCH  28  29
ENDBRANCH  27  28
ENDBRANCH   1  27
TORSDOF 26
ENDMDL
MODEL 2
REMARK VINA RESULT:     -10.2      1.204      7.265
REMARK SMILES O=C(Cc1cccc(-c2ccn(C(F)F)c(=O)c2)c1)OCCOCCOCCOCCOC(=O)c1ccc(-c2c3nc(c(-c4cc(S(=O)(=O)[O-])ccc4F)c4ccc([nH]4)c(-c4cc(S(=O)(=O)[O-])ccc4F)c4nc(c(-c5cc(S(=O)(=O)[O-])ccc5F)c5ccc2[nH]5)C=C4)C=C3)cc1
REMARK SMILES IDX 26 1 25 2 24 3 23 4 22 5 21 6 20 7 2 8 1 9 3 10 4 11 5 12
REMARK SMILES IDX 19 13 6 14 8 15 7 16 9 17 10 18 18 19 11 20 16 21 12 22
REMARK SMILES IDX 17 23 13 24 14 25 15 26 27 27 28 28 29 29 30 30 31 31 32 32
REMARK SMILES IDX 33 33 34 34 35 35 36 36 97 37 37 38 96 39 38 40 39 41 40 42
REMARK SMILES IDX 90 43 41 44 95 45 89 46 91 47 42 48 94 49 88 50 87 51 43 53
REMARK SMILES IDX 75 54 55 55 74 56 56 57 59 58 73 59 92 60 57 61 58 62 72 64
REMARK SMILES IDX 93 65 60 66 44 67 45 68 53 69 46 70 52 71 54 72 51 73 47 74
REMARK SMILES IDX 48 75 49 76 50 77 76 78 77 79 85 80 78 81 84 82 86 83 83 84
REMARK SMILES IDX 79 85 80 86 81 87 82 88 61 89 62 90 70 91 63 92 69 93 71 94
REMARK SMILES IDX 68 95 64 96 65 97 66 98 67 99
REMARK H PARENT 91 52 59 63
REMARK Flexibility Score: inf
ROOT
ATOM      1  O   UNL A   1      31.538  28.115  22.669  1.00  0.00    -0.377 OA
ENDROOT
BRANCH   1   2
ATOM      2  C   UNL A   1      32.885  27.706  22.827  1.00  0.00     0.188 C 
BRANCH   2   3
ATOM      3  C   UNL A   1      33.462  26.734  21.793  1.00  0.00     0.188 C 
BRANCH   3   4
ATOM      4  O   UNL A   1      33.465  25.337  22.018  1.00  0.00    -0.376 OA
BRANCH   4   5
ATOM      5  C   UNL A   1      32.351  24.499  22.223  1.00  0.00     0.202 C 
BRANCH   5   6
ATOM      6  C   UNL A   1      31.195  24.859  23.143  1.00  0.00     0.261 C 
BRANCH   6   7
ATOM      7  O   UNL A   1      31.169  24.301  24.468  1.00  0.00    -0.463 OA
BRANCH   7   8
ATOM      8  C   UNL A   1      31.273  24.905  25.669  1.00  0.00     0.310 C 
ATOM      9  O   UNL A   1      30.461  25.785  25.956  1.00  0.00    -0.252 OA
BRANCH   8  10
ATOM     10  C   UNL A   1      32.409  24.571  26.620  1.00  0.00     0.158 C 
BRANCH  10  11
ATOM     11  C   UNL A   1      33.598  23.926  25.976  1.00  0.00    -0.036 A 
ATOM     12  C   UNL A   1      34.552  24.660  25.265  1.00  0.00     0.004 A 
ATOM     13  C   UNL A   1      33.700  22.541  26.014  1.00  0.00     0.013 A 
ATOM     14  C   UNL A   1      35.514  23.996  24.500  1.00  0.00     0.001 A 
ATOM     15  C   UNL A   1      34.613  21.872  25.201  1.00  0.00    -0.018 A 
ATOM     16  C   UNL A   1      35.526  22.598  24.440  1.00  0.00     0.009 A 
BRANCH  15  17
ATOM     17  C   UNL A   1      34.406  20.423  25.132  1.00  0.00    -0.011 A 
ATOM     18  C   UNL A   1      35.508  19.515  24.879  1.00  0.00     0.027 A 
ATOM     19  C   UNL A   1      33.141  20.001  24.975  1.00  0.00     0.080 A 
ATOM     20  C   UNL A   1      35.269  18.285  24.412  1.00  0.00     0.095 A 
ATOM     21  C   UNL A   1      32.864  18.620  24.498  1.00  0.00     0.255 A 
ATOM     22  N   UNL A   1      33.976  17.841  24.216  1.00  0.00    -0.258 N 
ATOM     23  O   UNL A   1      31.694  18.288  24.339  1.00  0.00    -0.269 OA
BRANCH  22  24
ATOM     24  C   UNL A   1      33.732  16.534  23.666  1.00  0.00     0.451 C 
ATOM     25  F   UNL A   1      34.729  16.165  22.827  1.00  0.00    -0.185 F 
ATOM     26  F   UNL A   1      33.650  15.606  24.651  1.00  0.00    -0.185 F 
ENDBRANCH  22  24
ENDBRANCH  15  17
ENDBRANCH  10  11
ENDBRANCH   8  10
ENDBRANCH   7   8
ENDBRANCH   6   7
ENDBRANCH   5   6
ENDBRANCH   4   5
ENDBRANCH   3   4
ENDBRANCH   2   3
ENDBRANCH   1   2
BRANCH   1  27
ATOM     27  C   UNL A   1      30.996  28.842  23.758  1.00  0.00     0.188 C 
BRANCH  27  28
ATOM     28  C   UNL A   1      31.877  28.785  25.016  1.00  0.00     0.188 C 
BRANCH  28  29
ATOM     29  O   UNL A   1      31.478  29.578  26.113  1.00  0.00    -0.376 OA
BRANCH  29  30
ATOM     30  C   UNL A   1      31.195  30.963  25.998  1.00  0.00     0.202 C 
BRANCH  30  31
ATOM     31  C   UNL A   1      31.746  32.127  26.850  1.00  0.00     0.261 C 
BRANCH  31  32
ATOM     32  O   UNL A   1      33.120  32.480  26.745  1.00  0.00    -0.460 OA
BRANCH  32  33
ATOM     33  C   UNL A   1      33.634  33.158  27.787  1.00  0.00     0.338 C 
ATOM     34  O   UNL A   1      33.069  34.012  28.454  1.00  0.00    -0.246 OA
BRANCH  33  35
ATOM     35  C   UNL A   1      34.913  32.515  28.146  1.00  0.00     0.060 A 
ATOM     36  C   UNL A   1      34.895  31.144  28.430  1.00  0.00     0.016 A 
ATOM     37  C   UNL A   1      36.110  33.238  28.185  1.00  0.00     0.016 A 
ATOM     38  C   UNL A   1      36.059  30.503  28.830  1.00  0.00     0.010 A 
ATOM     39  C   UNL A   1      37.274  32.602  28.624  1.00  0.00     0.010 A 
ATOM     40  C   UNL A   1      37.230  31.249  29.007  1.00  0.00    -0.014 A 
BRANCH  40  41
ATOM     41  C   UNL A   1      38.265  30.683  29.901  1.00  0.00     0.031 A 
ATOM     42  C   UNL A   1      39.218  29.682  29.302  1.00  0.00     0.074 A 
ATOM     43  C   UNL A   1      38.430  31.128  31.158  1.00  0.00     0.049 A 
ATOM     44  N   UNL A   1      40.240  29.075  29.843  1.00  0.00    -0.248 NA
ATOM     45  C   UNL A   1      38.982  29.320  27.894  1.00  0.00     0.031 C 
ATOM     46  C   UNL A   1      37.611  32.150  31.807  1.00  0.00     0.029 A 
ATOM     47  N   UNL A   1      39.357  30.783  32.106  1.00  0.00    -0.354 N 
ATOM     48  C   UNL A   1      40.762  28.257  28.846  1.00  0.00     0.074 A 
ATOM     49  C   UNL A   1      39.920  28.412  27.683  1.00  0.00     0.031 C 
ATOM     50  C   UNL A   1      38.078  32.352  33.053  1.00  0.00     0.029 A 
ATOM     51  C   UNL A   1      39.204  31.451  33.297  1.00  0.00     0.049 A 
ATOM     52  H   UNL A   1      40.067  30.119  31.948  1.00  0.00     0.167 HD
ATOM     53  C   UNL A   1      41.854  27.456  28.894  1.00  0.00     0.034 A 
ATOM     54  C   UNL A   1      39.888  31.330  34.452  1.00  0.00     0.034 A 
ATOM     55  C   UNL A   1      42.675  27.310  30.069  1.00  0.00     0.049 A 
ATOM     56  C   UNL A   1      41.046  30.359  34.512  1.00  0.00     0.074 A 
ATOM     57  C   UNL A   1      43.804  26.530  30.238  1.00  0.00     0.029 A 
ATOM     58  N   UNL A   1      42.447  27.948  31.282  1.00  0.00    -0.354 N 
ATOM     59  N   UNL A   1      41.531  29.586  33.565  1.00  0.00    -0.248 NA
ATOM     60  C   UNL A   1      41.755  30.258  35.792  1.00  0.00     0.031 C 
ATOM     61  C   UNL A   1      44.205  26.627  31.574  1.00  0.00     0.029 A 
ATOM     62  C   UNL A   1      43.392  27.550  32.213  1.00  0.00     0.049 A 
ATOM     63  H   UNL A   1      41.720  28.589  31.454  1.00  0.00     0.167 HD
ATOM     64  C   UNL A   1      42.635  28.944  34.126  1.00  0.00     0.074 A 
ATOM     65  C   UNL A   1      42.744  29.431  35.487  1.00  0.00     0.031 C 
ATOM     66  C   UNL A   1      43.486  28.043  33.569  1.00  0.00     0.034 A 
BRANCH  53  67
ATOM     67  C   UNL A   1      42.164  26.632  27.667  1.00  0.00     0.023 A 
ATOM     68  C   UNL A   1      41.703  25.312  27.514  1.00  0.00     0.031 A 
ATOM     69  C   UNL A   1      42.976  27.166  26.650  1.00  0.00     0.131 A 
ATOM     70  C   UNL A   1      42.119  24.548  26.413  1.00  0.00     0.055 A 
ATOM     71  C   UNL A   1      43.312  26.430  25.513  1.00  0.00     0.041 A 
ATOM     72  F   UNL A   1      43.474  28.408  26.754  1.00  0.00    -0.206 F 
ATOM     73  C   UNL A   1      42.897  25.108  25.396  1.00  0.00     0.022 A 
BRANCH  70  74
ATOM     74  S   UNL A   1      41.765  22.769  26.405  1.00  0.00     0.124 S 
ATOM     75  O   UNL A   1      42.380  22.353  25.146  1.00  0.00    -0.237 OA
ATOM     76  O   UNL A   1      42.426  22.311  27.620  1.00  0.00    -0.237 OA
ATOM     77  O   UNL A   1      40.305  22.709  26.426  1.00  0.00    -0.744 OA
ENDBRANCH  70  74
ENDBRANCH  53  67
BRANCH  54  78
ATOM     78  C   UNL A   1      39.494  32.119  35.655  1.00  0.00     0.023 A 
ATOM     79  C   UNL A   1      38.696  31.557  36.666  1.00  0.00     0.031 A 
ATOM     80  C   UNL A   1      39.853  33.473  35.779  1.00  0.00     0.131 A 
ATOM     81  C   UNL A   1      38.239  32.359  37.724  1.00  0.00     0.055 A 
ATOM     82  C   UNL A   1      39.445  34.250  36.864  1.00  0.00     0.041 A 
ATOM     83  F   UNL A   1      40.611  34.064  34.841  1.00  0.00    -0.206 F 
ATOM     84  C   UNL A   1      38.620  33.698  37.837  1.00  0.00     0.022 A 
BRANCH  81  85
ATOM     85  S   UNL A   1      37.054  31.652  38.901  1.00  0.00     0.124 S 
ATOM     86  O   UNL A   1      37.788  31.751  40.157  1.00  0.00    -0.237 OA
ATOM     87  O   UNL A   1      35.911  32.545  38.751  1.00  0.00    -0.237 OA
ATOM     88  O   UNL A   1      36.850  30.293  38.400  1.00  0.00    -0.744 OA
ENDBRANCH  81  85
ENDBRANCH  54  78
BRANCH  66  89
ATOM     89  C   UNL A   1      44.652  27.581  34.413  1.00  0.00     0.023 A 
ATOM     90  C   UNL A   1      44.538  26.525  35.333  1.00  0.00     0.031 A 
ATOM     91  C   UNL A   1      45.895  28.233  34.310  1.00  0.00     0.131 A 
ATOM     92  C   UNL A   1      45.619  26.206  36.169  1.00  0.00     0.055 A 
ATOM     93  C   UNL A   1      46.992  27.857  35.086  1.00  0.00     0.041 A 
ATOM     94  F   UNL A   1      46.065  29.252  33.452  1.00  0.00    -0.206 F 
ATOM     95  C   UNL A   1      46.852  26.850  36.036  1.00  0.00     0.022 A 
BRANCH  92  96
ATOM     96  S   UNL A   1      45.351  25.033  37.527  1.00  0.00     0.124 S 
ATOM     97  O   UNL A   1      44.260  25.667  38.260  1.00  0.00    -0.237 OA
ATOM     98  O   UNL A   1      45.013  23.806  36.816  1.00  0.00    -0.237 OA
ATOM     99  O   UNL A   1      46.637  25.015  38.222  1.00  0.00    -0.744 OA
ENDBRANCH  92  96
ENDBRANCH  66  89
ENDBRANCH  40  41
ENDBRANCH  33  35
ENDBRANCH  32  33
ENDBRANCH  31  32
ENDBRANCH  30  31
ENDBRANCH  29  30
ENDBRANCH  28  29
ENDBRANCH  27  28
ENDBRANCH   1  27
TORSDOF 26
ENDMDL
MODEL 3
REMARK VINA RESULT:      -9.7      1.760      2.072
REMARK SMILES O=C(Cc1cccc(-c2ccn(C(F)F)c(=O)c2)c1)OCCOCCOCCOCCOC(=O)c1ccc(-c2c3nc(c(-c4cc(S(=O)(=O)[O-])ccc4F)c4ccc([nH]4)c(-c4cc(S(=O)(=O)[O-])ccc4F)c4nc(c(-c5cc(S(=O)(=O)[O-])ccc5F)c5ccc2[nH]5)C=C4)C=C3)cc1
REMARK SMILES IDX 26 1 25 2 24 3 23 4 22 5 21 6 20 7 2 8 1 9 3 10 4 11 5 12
REMARK SMILES IDX 19 13 6 14 8 15 7 16 9 17 10 18 18 19 11 20 16 21 12 22
REMARK SMILES IDX 17 23 13 24 14 25 15 26 27 27 28 28 29 29 30 30 31 31 32 32
REMARK SMILES IDX 33 33 34 34 35 35 36 36 97 37 37 38 96 39 38 40 39 41 40 42
REMARK SMILES IDX 90 43 41 44 95 45 89 46 91 47 42 48 94 49 88 50 87 51 43 53
REMARK SMILES IDX 75 54 55 55 74 56 56 57 59 58 73 59 92 60 57 61 58 62 72 64
REMARK SMILES IDX 93 65 60 66 44 67 45 68 53 69 46 70 52 71 54 72 51 73 47 74
REMARK SMILES IDX 48 75 49 76 50 77 76 78 77 79 85 80 78 81 84 82 86 83 83 84
REMARK SMILES IDX 79 85 80 86 81 87 82 88 61 89 62 90 70 91 63 92 69 93 71 94
REMARK SMILES IDX 68 95 64 96 65 97 66 98 67 99
REMARK H PARENT 91 52 59 63
REMARK Flexibility Score: inf
ROOT
ATOM      1  O   UNL A   1      31.418  28.015  23.992  1.00  0.00    -0.377 OA
ENDROOT
BRANCH   1   2
ATOM      2  C   UNL A   1      32.780  27.649  23.852  1.00  0.00     0.188 C 
BRANCH   2   3
ATOM      3  C   UNL A   1      33.196  26.928  22.566  1.00  0.00     0.188 C 
BRANCH   3   4
ATOM      4  O   UNL A   1      33.065  25.526  22.432  1.00  0.00    -0.376 OA
BRANCH   4   5
ATOM      5  C   UNL A   1      31.889  24.796  22.163  1.00  0.00     0.202 C 
BRANCH   5   6
ATOM      6  C   UNL A   1      30.788  24.580  23.189  1.00  0.00     0.261 C 
BRANCH   6   7
ATOM      7  O   UNL A   1      31.155  24.162  24.515  1.00  0.00    -0.463 OA
BRANCH   7   8
ATOM      8  C   UNL A   1      31.142  24.844  25.679  1.00  0.00     0.310 C 
ATOM      9  O   UNL A   1      30.213  25.624  25.891  1.00  0.00    -0.252 OA
BRANCH   8  10
ATOM     10  C   UNL A   1      32.281  24.719  26.674  1.00  0.00     0.158 C 
BRANCH  10  11
ATOM     11  C   UNL A   1      33.539  24.124  26.119  1.00  0.00    -0.036 A 
ATOM     12  C   UNL A   1      34.489  24.890  25.436  1.00  0.00     0.004 A 
ATOM     13  C   UNL A   1      33.717  22.749  26.210  1.00  0.00     0.013 A 
ATOM     14  C   UNL A   1      35.528  24.260  24.747  1.00  0.00     0.001 A 
ATOM     15  C   UNL A   1      34.711  22.109  25.472  1.00  0.00    -0.018 A 
ATOM     16  C   UNL A   1      35.622  22.863  24.737  1.00  0.00     0.009 A 
BRANCH  15  17
ATOM     17  C   UNL A   1      34.589  20.650  25.441  1.00  0.00    -0.011 A 
ATOM     18  C   UNL A   1      35.705  19.808  25.053  1.00  0.00     0.027 A 
ATOM     19  C   UNL A   1      33.345  20.147  25.456  1.00  0.00     0.080 A 
ATOM     20  C   UNL A   1      35.487  18.559  24.630  1.00  0.00     0.095 A 
ATOM     21  C   UNL A   1      33.098  18.744  25.029  1.00  0.00     0.255 A 
ATOM     22  N   UNL A   1      34.210  18.031  24.610  1.00  0.00    -0.258 N 
ATOM     23  O   UNL A   1      31.941  18.336  25.028  1.00  0.00    -0.269 OA
BRANCH  22  24
ATOM     24  C   UNL A   1      33.981  16.703  24.107  1.00  0.00     0.451 C 
ATOM     25  F   UNL A   1      33.645  16.731  22.795  1.00  0.00    -0.185 F 
ATOM     26  F   UNL A   1      35.096  15.942  24.236  1.00  0.00    -0.185 F 
ENDBRANCH  22  24
ENDBRANCH  15  17
ENDBRANCH  10  11
ENDBRANCH   8  10
ENDBRANCH   7   8
ENDBRANCH   6   7
ENDBRANCH   5   6
ENDBRANCH   4   5
ENDBRANCH   3   4
ENDBRANCH   2   3
ENDBRANCH   1   2
BRANCH   1  27
ATOM     27  C   UNL A   1      31.192  29.265  24.619  1.00  0.00     0.188 C 
BRANCH  27  28
ATOM     28  C   UNL A   1      32.326  29.675  25.572  1.00  0.00     0.188 C 
BRANCH  28  29
ATOM     29  O   UNL A   1      31.965  30.424  26.712  1.00  0.00    -0.376 OA
BRANCH  29  30
ATOM     30  C   UNL A   1      31.347  31.698  26.632  1.00  0.00     0.202 C 
BRANCH  30  31
ATOM     31  C   UNL A   1      31.965  33.082  26.925  1.00  0.00     0.261 C 
BRANCH  31  32
ATOM     32  O   UNL A   1      33.258  33.160  27.514  1.00  0.00    -0.460 OA
BRANCH  32  33
ATOM     33  C   UNL A   1      33.427  34.125  28.435  1.00  0.00     0.338 C 
ATOM     34  O   UNL A   1      32.682  35.070  28.649  1.00  0.00    -0.246 OA
BRANCH  33  35
ATOM     35  C   UNL A   1      34.538  33.710  29.313  1.00  0.00     0.060 A 
ATOM     36  C   UNL A   1      35.807  34.241  29.051  1.00  0.00     0.016 A 
ATOM     37  C   UNL A   1      34.337  32.832  30.383  1.00  0.00     0.016 A 
ATOM     38  C   UNL A   1      36.898  33.839  29.810  1.00  0.00     0.010 A 
ATOM     39  C   UNL A   1      35.440  32.398  31.122  1.00  0.00     0.010 A 
ATOM     40  C   UNL A   1      36.729  32.855  30.791  1.00  0.00    -0.014 A 
BRANCH  40  41
ATOM     41  C   UNL A   1      37.930  32.092  31.198  1.00  0.00     0.031 A 
ATOM     42  C   UNL A   1      38.461  32.337  32.586  1.00  0.00     0.074 A 
ATOM     43  C   UNL A   1      38.454  31.134  30.415  1.00  0.00     0.049 A 
ATOM     44  N   UNL A   1      39.460  31.770  33.209  1.00  0.00    -0.248 NA
ATOM     45  C   UNL A   1      37.764  33.362  33.380  1.00  0.00     0.031 C 
ATOM     46  C   UNL A   1      37.966  30.766  29.087  1.00  0.00     0.029 A 
ATOM     47  N   UNL A   1      39.507  30.286  30.637  1.00  0.00    -0.354 N 
ATOM     48  C   UNL A   1      39.514  32.375  34.460  1.00  0.00     0.074 A 
ATOM     49  C   UNL A   1      38.478  33.380  34.493  1.00  0.00     0.031 C 
ATOM     50  C   UNL A   1      38.720  29.758  28.613  1.00  0.00     0.029 A 
ATOM     51  C   UNL A   1      39.762  29.437  29.587  1.00  0.00     0.049 A 
ATOM     52  H   UNL A   1      40.031  30.284  31.471  1.00  0.00     0.167 HD
ATOM     53  C   UNL A   1      40.348  32.107  35.494  1.00  0.00     0.034 A 
ATOM     54  C   UNL A   1      40.737  28.519  29.433  1.00  0.00     0.034 A 
ATOM     55  C   UNL A   1      41.382  31.105  35.436  1.00  0.00     0.049 A 
ATOM     56  C   UNL A   1      41.717  28.303  30.565  1.00  0.00     0.074 A 
ATOM     57  C   UNL A   1      42.286  30.745  36.418  1.00  0.00     0.029 A 
ATOM     58  N   UNL A   1      41.658  30.312  34.329  1.00  0.00    -0.354 N 
ATOM     59  N   UNL A   1      41.762  28.882  31.745  1.00  0.00    -0.248 NA
ATOM     60  C   UNL A   1      42.764  27.299  30.348  1.00  0.00     0.031 C 
ATOM     61  C   UNL A   1      43.164  29.800  35.876  1.00  0.00     0.029 A 
ATOM     62  C   UNL A   1      42.743  29.491  34.592  1.00  0.00     0.049 A 
ATOM     63  H   UNL A   1      41.157  30.331  33.482  1.00  0.00     0.167 HD
ATOM     64  C   UNL A   1      42.816  28.274  32.426  1.00  0.00     0.074 A 
ATOM     65  C   UNL A   1      43.367  27.279  31.527  1.00  0.00     0.031 C 
ATOM     66  C   UNL A   1      43.282  28.506  33.682  1.00  0.00     0.034 A 
BRANCH  53  67
ATOM     67  C   UNL A   1      40.214  32.963  36.732  1.00  0.00     0.023 A 
ATOM     68  C   UNL A   1      41.113  34.005  37.024  1.00  0.00     0.031 A 
ATOM     69  C   UNL A   1      39.192  32.698  37.660  1.00  0.00     0.131 A 
ATOM     70  C   UNL A   1      41.018  34.690  38.244  1.00  0.00     0.055 A 
ATOM     71  C   UNL A   1      39.049  33.444  38.831  1.00  0.00     0.041 A 
ATOM     72  F   UNL A   1      38.324  31.695  37.454  1.00  0.00    -0.206 F 
ATOM     73  C   UNL A   1      39.974  34.436  39.137  1.00  0.00     0.022 A 
BRANCH  70  74
ATOM     74  S   UNL A   1      42.367  35.805  38.724  1.00  0.00     0.124 S 
ATOM     75  O   UNL A   1      42.148  36.935  37.823  1.00  0.00    -0.237 OA
ATOM     76  O   UNL A   1      42.089  36.048  40.134  1.00  0.00    -0.237 OA
ATOM     77  O   UNL A   1      43.571  35.024  38.449  1.00  0.00    -0.744 OA
ENDBRANCH  70  74
ENDBRANCH  53  67
BRANCH  54  78
ATOM     78  C   UNL A   1      40.865  27.751  28.161  1.00  0.00     0.023 A 
ATOM     79  C   UNL A   1      40.527  26.389  28.094  1.00  0.00     0.031 A 
ATOM     80  C   UNL A   1      41.395  28.353  27.005  1.00  0.00     0.131 A 
ATOM     81  C   UNL A   1      40.775  25.663  26.917  1.00  0.00     0.055 A 
ATOM     82  C   UNL A   1      41.583  27.641  25.820  1.00  0.00     0.041 A 
ATOM     83  F   UNL A   1      41.739  29.652  27.012  1.00  0.00    -0.206 F 
ATOM     84  C   UNL A   1      41.287  26.284  25.776  1.00  0.00     0.022 A 
BRANCH  81  85
ATOM     85  S   UNL A   1      40.510  23.869  26.933  1.00  0.00     0.124 S 
ATOM     86  O   UNL A   1      40.773  23.543  28.330  1.00  0.00    -0.237 OA
ATOM     87  O   UNL A   1      39.122  23.765  26.498  1.00  0.00    -0.237 OA
ATOM     88  O   UNL A   1      41.499  23.372  25.978  1.00  0.00    -0.744 OA
ENDBRANCH  81  85
ENDBRANCH  54  78
BRANCH  66  89
ATOM     89  C   UNL A   1      44.400  27.618  34.179  1.00  0.00     0.023 A 
ATOM     90  C   UNL A   1      45.754  27.958  34.017  1.00  0.00     0.031 A 
ATOM     91  C   UNL A   1      44.099  26.393  34.804  1.00  0.00     0.131 A 
ATOM     92  C   UNL A   1      46.753  27.050  34.399  1.00  0.00     0.055 A 
ATOM     93  C   UNL A   1      45.098  25.531  35.257  1.00  0.00     0.041 A 
ATOM     94  F   UNL A   1      42.825  26.011  34.984  1.00  0.00    -0.206 F 
ATOM     95  C   UNL A   1      46.435  25.849  35.038  1.00  0.00     0.022 A 
BRANCH  92  96
ATOM     96  S   UNL A   1      48.470  27.396  33.925  1.00  0.00     0.124 S 
ATOM     97  O   UNL A   1      48.810  26.213  33.142  1.00  0.00    -0.237 OA
ATOM     98  O   UNL A   1      48.340  28.641  33.175  1.00  0.00    -0.237 OA
ATOM     99  O   UNL A   1      49.163  27.512  35.207  1.00  0.00    -0.744 OA
ENDBRANCH  92  96
ENDBRANCH  66  89
ENDBRANCH  40  41
ENDBRANCH  33  35
ENDBRANCH  32  33
ENDBRANCH  31  32
ENDBRANCH  30  31
ENDBRANCH  29  30
ENDBRANCH  28  29
ENDBRANCH  27  28
ENDBRANCH   1  27
TORSDOF 26
ENDMDL
