MODEL 1
REMARK VINA RESULT:      -8.3      0.000      0.000
REMARK SMILES CC(C)C(=O)Nc1ccc(C(=O)Nc2ccc(CC(=O)OCCOCCOCCOCCOC(=O)c3ccc(-c4c5nc(c(-c6cc(S(=O)(=O)[O-])ccc6F)c6ccc([nH]6)c(-c6cc(S(=O)(=O)[O-])ccc6F)c6nc(c(-c7cc(S(=O)(=O)[O-])ccc7F)c7ccc4[nH]7)C=C6)C=C5)cc3)cc2)cc1
REMARK SMILES IDX 26 1 25 2 24 3 23 4 22 5 21 6 19 7 20 8 18 9 17 10 14 11
REMARK SMILES IDX 15 12 100 13 16 14 99 15 13 16 11 17 12 18 10 20 7 21 8 22
REMARK SMILES IDX 102 23 9 24 101 25 6 26 4 27 5 28 2 30 1 31 3 32 27 33 28 34
REMARK SMILES IDX 29 35 30 36 31 37 32 38 33 39 34 40 35 41 36 42 37 43 98 44
REMARK SMILES IDX 38 45 97 46 39 47 40 48 41 49 91 50 42 51 96 52 90 53 92 54
REMARK SMILES IDX 43 55 95 56 89 57 88 58 44 60 76 61 56 62 75 63 57 64 60 65
REMARK SMILES IDX 74 66 93 67 58 68 59 69 73 71 94 72 61 73 45 74 46 75 54 76
REMARK SMILES IDX 47 77 53 78 55 79 52 80 48 81 49 82 50 83 51 84 77 85 78 86
REMARK SMILES IDX 86 87 79 88 85 89 87 90 84 91 80 92 81 93 82 94 83 95 62 96
REMARK SMILES IDX 63 97 71 98 64 99 70 100 72 101 69 102 65 103 66 104 67 105
REMARK SMILES IDX 68 106
REMARK H PARENT 13 19 6 29 92 59 60 70
REMARK Flexibility Score: inf
ROOT
ATOM      1  C   UNL A   1      39.880  24.979  26.878  1.00  0.00     0.188 C 
ENDROOT
BRANCH   1   2
ATOM      2  C   UNL A   1      38.968  23.739  26.984  1.00  0.00     0.188 C 
BRANCH   2   3
ATOM      3  O   UNL A   1      39.355  22.472  26.449  1.00  0.00    -0.376 OA
BRANCH   3   4
ATOM      4  C   UNL A   1      38.402  21.697  25.740  1.00  0.00     0.202 C 
BRANCH   4   5
ATOM      5  C   UNL A   1      37.155  22.458  25.256  1.00  0.00     0.261 C 
BRANCH   5   6
ATOM      6  O   UNL A   1      36.273  21.726  24.378  1.00  0.00    -0.463 OA
BRANCH   6   7
ATOM      7  C   UNL A   1      35.590  20.690  24.920  1.00  0.00     0.310 C 
ATOM      8  O   UNL A   1      35.854  19.508  24.711  1.00  0.00    -0.252 OA
BRANCH   7   9
ATOM      9  C   UNL A   1      34.413  21.080  25.800  1.00  0.00     0.158 C 
BRANCH   9  10
ATOM     10  C   UNL A   1      33.188  21.779  25.231  1.00  0.00    -0.037 A 
ATOM     11  C   UNL A   1      31.049  23.318  24.200  1.00  0.00     0.041 A 
ATOM     12  C   UNL A   1      32.014  22.799  23.333  1.00  0.00     0.026 A 
ATOM     13  C   UNL A   1      31.079  22.970  25.555  1.00  0.00     0.026 A 
ATOM     14  C   UNL A   1      33.100  22.076  23.855  1.00  0.00     0.006 A 
ATOM     15  C   UNL A   1      32.140  22.201  26.066  1.00  0.00     0.006 A 
BRANCH  11  16
ATOM     16  N   UNL A   1      30.206  24.334  23.719  1.00  0.00    -0.322 N 
ATOM     17  C   UNL A   1      30.158  25.682  24.067  1.00  0.00     0.255 C 
ATOM     18  O   UNL A   1      29.282  26.384  23.557  1.00  0.00    -0.269 OA
ATOM     19  H   UNL A   1      29.554  24.051  23.037  1.00  0.00     0.170 HD
BRANCH  17  20
ATOM     20  C   UNL A   1      31.200  26.362  24.913  1.00  0.00     0.040 A 
ATOM     21  C   UNL A   1      33.023  27.909  26.423  1.00  0.00     0.041 A 
ATOM     22  C   UNL A   1      31.841  27.463  27.012  1.00  0.00     0.027 A 
ATOM     23  C   UNL A   1      33.358  27.430  25.182  1.00  0.00     0.027 A 
ATOM     24  C   UNL A   1      30.936  26.680  26.258  1.00  0.00     0.016 A 
ATOM     25  C   UNL A   1      32.415  26.793  24.404  1.00  0.00     0.016 A 
BRANCH  21  26
ATOM     26  N   UNL A   1      33.875  28.829  27.037  1.00  0.00    -0.326 N 
ATOM     27  C   UNL A   1      33.753  30.198  27.109  1.00  0.00     0.226 C 
ATOM     28  O   UNL A   1      34.775  30.850  27.358  1.00  0.00    -0.274 OA
ATOM     29  H   UNL A   1      34.668  28.448  27.479  1.00  0.00     0.169 HD
BRANCH  27  30
ATOM     30  C   UNL A   1      32.390  30.944  27.018  1.00  0.00     0.072 C 
ATOM     31  C   UNL A   1      32.343  32.416  27.433  1.00  0.00     0.018 C 
ATOM     32  C   UNL A   1      31.631  30.696  25.714  1.00  0.00     0.018 C 
ENDBRANCH  27  30
ENDBRANCH  21  26
ENDBRANCH  17  20
ENDBRANCH  11  16
ENDBRANCH   9  10
ENDBRANCH   7   9
ENDBRANCH   6   7
ENDBRANCH   5   6
ENDBRANCH   4   5
ENDBRANCH   3   4
ENDBRANCH   2   3
ENDBRANCH   1   2
BRANCH   1  33
ATOM     33  O   UNL A   1      40.848  25.086  27.905  1.00  0.00    -0.377 OA
BRANCH  33  34
ATOM     34  C   UNL A   1      41.930  24.187  27.796  1.00  0.00     0.188 C 
BRANCH  34  35
ATOM     35  C   UNL A   1      42.875  24.238  29.002  1.00  0.00     0.188 C 
BRANCH  35  36
ATOM     36  O   UNL A   1      43.887  23.235  28.923  1.00  0.00    -0.376 OA
BRANCH  36  37
ATOM     37  C   UNL A   1      45.080  23.529  28.218  1.00  0.00     0.202 C 
BRANCH  37  38
ATOM     38  C   UNL A   1      45.385  24.997  27.871  1.00  0.00     0.261 C 
BRANCH  38  39
ATOM     39  O   UNL A   1      45.348  25.953  28.937  1.00  0.00    -0.460 OA
BRANCH  39  40
ATOM     40  C   UNL A   1      46.253  25.819  29.932  1.00  0.00     0.338 C 
ATOM     41  O   UNL A   1      47.347  25.290  29.844  1.00  0.00    -0.246 OA
BRANCH  40  42
ATOM     42  C   UNL A   1      45.774  26.614  31.089  1.00  0.00     0.060 A 
ATOM     43  C   UNL A   1      44.941  25.999  32.032  1.00  0.00     0.016 A 
ATOM     44  C   UNL A   1      46.178  27.941  31.269  1.00  0.00     0.016 A 
ATOM     45  C   UNL A   1      44.492  26.713  33.145  1.00  0.00     0.010 A 
ATOM     46  C   UNL A   1      45.698  28.666  32.365  1.00  0.00     0.010 A 
ATOM     47  C   UNL A   1      44.829  28.063  33.293  1.00  0.00    -0.014 A 
BRANCH  47  48
ATOM     48  C   UNL A   1      44.082  28.900  34.267  1.00  0.00     0.031 A 
ATOM     49  C   UNL A   1      42.734  29.423  33.846  1.00  0.00     0.074 A 
ATOM     50  C   UNL A   1      44.557  29.159  35.500  1.00  0.00     0.049 A 
ATOM     51  N   UNL A   1      41.912  30.217  34.480  1.00  0.00    -0.248 NA
ATOM     52  C   UNL A   1      42.251  28.987  32.526  1.00  0.00     0.031 C 
ATOM     53  C   UNL A   1      45.815  28.653  36.047  1.00  0.00     0.029 A 
ATOM     54  N   UNL A   1      44.032  29.920  36.516  1.00  0.00    -0.354 N 
ATOM     55  C   UNL A   1      40.812  30.368  33.641  1.00  0.00     0.074 A 
ATOM     56  C   UNL A   1      41.092  29.620  32.436  1.00  0.00     0.031 C 
ATOM     57  C   UNL A   1      45.968  29.128  37.297  1.00  0.00     0.029 A 
ATOM     58  C   UNL A   1      44.845  30.005  37.624  1.00  0.00     0.049 A 
ATOM     59  H   UNL A   1      43.156  30.365  36.457  1.00  0.00     0.167 HD
ATOM     60  C   UNL A   1      39.666  31.057  33.860  1.00  0.00     0.034 A 
ATOM     61  C   UNL A   1      44.706  30.731  38.754  1.00  0.00     0.034 A 
ATOM     62  C   UNL A   1      39.408  31.818  35.056  1.00  0.00     0.049 A 
ATOM     63  C   UNL A   1      43.472  31.596  38.920  1.00  0.00     0.074 A 
ATOM     64  C   UNL A   1      38.292  32.574  35.371  1.00  0.00     0.029 A 
ATOM     65  N   UNL A   1      40.280  31.927  36.131  1.00  0.00    -0.354 N 
ATOM     66  N   UNL A   1      42.444  31.738  38.114  1.00  0.00    -0.248 NA
ATOM     67  C   UNL A   1      43.379  32.392  40.152  1.00  0.00     0.031 C 
ATOM     68  C   UNL A   1      38.520  33.196  36.602  1.00  0.00     0.029 A 
ATOM     69  C   UNL A   1      39.738  32.760  37.097  1.00  0.00     0.049 A 
ATOM     70  H   UNL A   1      41.155  31.479  36.196  1.00  0.00     0.167 HD
ATOM     71  C   UNL A   1      41.565  32.601  38.768  1.00  0.00     0.074 A 
ATOM     72  C   UNL A   1      42.177  32.935  40.036  1.00  0.00     0.031 C 
ATOM     73  C   UNL A   1      40.358  33.073  38.363  1.00  0.00     0.034 A 
BRANCH  60  74
ATOM     74  C   UNL A   1      38.632  31.051  32.764  1.00  0.00     0.023 A 
ATOM     75  C   UNL A   1      38.530  32.105  31.840  1.00  0.00     0.031 A 
ATOM     76  C   UNL A   1      37.728  29.980  32.646  1.00  0.00     0.131 A 
ATOM     77  C   UNL A   1      37.513  32.093  30.874  1.00  0.00     0.055 A 
ATOM     78  C   UNL A   1      36.768  29.936  31.634  1.00  0.00     0.041 A 
ATOM     79  F   UNL A   1      37.760  28.960  33.517  1.00  0.00    -0.206 F 
ATOM     80  C   UNL A   1      36.649  31.002  30.746  1.00  0.00     0.022 A 
BRANCH  77  81
ATOM     81  S   UNL A   1      37.257  33.577  29.864  1.00  0.00     0.124 S 
ATOM     82  O   UNL A   1      37.894  33.192  28.607  1.00  0.00    -0.237 OA
ATOM     83  O   UNL A   1      35.804  33.692  29.834  1.00  0.00    -0.237 OA
ATOM     84  O   UNL A   1      37.952  34.624  30.611  1.00  0.00    -0.744 OA
ENDBRANCH  77  81
ENDBRANCH  60  74
BRANCH  61  85
ATOM     85  C   UNL A   1      45.765  30.731  39.810  1.00  0.00     0.023 A 
ATOM     86  C   UNL A   1      45.669  29.897  40.935  1.00  0.00     0.031 A 
ATOM     87  C   UNL A   1      46.829  31.651  39.767  1.00  0.00     0.131 A 
ATOM     88  C   UNL A   1      46.568  30.051  42.004  1.00  0.00     0.055 A 
ATOM     89  C   UNL A   1      47.764  31.750  40.800  1.00  0.00     0.041 A 
ATOM     90  F   UNL A   1      46.969  32.483  38.723  1.00  0.00    -0.206 F 
ATOM     91  C   UNL A   1      47.624  30.961  41.937  1.00  0.00     0.022 A 
BRANCH  88  92
ATOM     92  S   UNL A   1      46.247  29.146  43.544  1.00  0.00     0.124 S 
ATOM     93  O   UNL A   1      47.577  28.652  43.878  1.00  0.00    -0.237 OA
ATOM     94  O   UNL A   1      45.716  30.197  44.405  1.00  0.00    -0.237 OA
ATOM     95  O   UNL A   1      45.282  28.125  43.141  1.00  0.00    -0.744 OA
ENDBRANCH  88  92
ENDBRANCH  61  85
BRANCH  73  96
ATOM     96  C   UNL A   1      39.589  33.942  39.331  1.00  0.00     0.023 A 
ATOM     97  C   UNL A   1      39.700  35.342  39.327  1.00  0.00     0.031 A 
ATOM     98  C   UNL A   1      38.728  33.350  40.274  1.00  0.00     0.131 A 
ATOM     99  C   UNL A   1      39.010  36.101  40.286  1.00  0.00     0.055 A 
ATOM    100  C   UNL A   1      37.991  34.115  41.179  1.00  0.00     0.041 A 
ATOM    101  F   UNL A   1      38.582  32.017  40.325  1.00  0.00    -0.206 F 
ATOM    102  C   UNL A   1      38.142  35.497  41.198  1.00  0.00     0.022 A 
BRANCH  99 103
ATOM    103  S   UNL A   1      39.337  37.883  40.388  1.00  0.00     0.124 S 
ATOM    104  O   UNL A   1      39.327  38.111  41.828  1.00  0.00    -0.237 OA
ATOM    105  O   UNL A   1      40.636  37.999  39.734  1.00  0.00    -0.237 OA
ATOM    106  O   UNL A   1      38.221  38.478  39.657  1.00  0.00    -0.744 OA
ENDBRANCH  99 103
ENDBRANCH  73  96
ENDBRANCH  47  48
ENDBRANCH  40  42
ENDBRANCH  39  40
ENDBRANCH  38  39
ENDBRANCH  37  38
ENDBRANCH  36  37
ENDBRANCH  35  36
ENDBRANCH  34  35
ENDBRANCH  33  34
ENDBRANCH   1  33
TORSDOF 28
ENDMDL
MODEL 2
REMARK VINA RESULT:      -8.0      4.779      8.309
REMARK SMILES CC(C)C(=O)Nc1ccc(C(=O)Nc2ccc(CC(=O)OCCOCCOCCOCCOC(=O)c3ccc(-c4c5nc(c(-c6cc(S(=O)(=O)[O-])ccc6F)c6ccc([nH]6)c(-c6cc(S(=O)(=O)[O-])ccc6F)c6nc(c(-c7cc(S(=O)(=O)[O-])ccc7F)c7ccc4[nH]7)C=C6)C=C5)cc3)cc2)cc1
REMARK SMILES IDX 26 1 25 2 24 3 23 4 22 5 21 6 19 7 20 8 18 9 17 10 14 11
REMARK SMILES IDX 15 12 100 13 16 14 99 15 13 16 11 17 12 18 10 20 7 21 8 22
REMARK SMILES IDX 102 23 9 24 101 25 6 26 4 27 5 28 2 30 1 31 3 32 27 33 28 34
REMARK SMILES IDX 29 35 30 36 31 37 32 38 33 39 34 40 35 41 36 42 37 43 98 44
REMARK SMILES IDX 38 45 97 46 39 47 40 48 41 49 91 50 42 51 96 52 90 53 92 54
REMARK SMILES IDX 43 55 95 56 89 57 88 58 44 60 76 61 56 62 75 63 57 64 60 65
REMARK SMILES IDX 74 66 93 67 58 68 59 69 73 71 94 72 61 73 45 74 46 75 54 76
REMARK SMILES IDX 47 77 53 78 55 79 52 80 48 81 49 82 50 83 51 84 77 85 78 86
REMARK SMILES IDX 86 87 79 88 85 89 87 90 84 91 80 92 81 93 82 94 83 95 62 96
REMARK SMILES IDX 63 97 71 98 64 99 70 100 72 101 69 102 65 103 66 104 67 105
REMARK SMILES IDX 68 106
REMARK H PARENT 13 19 6 29 92 59 60 70
REMARK Flexibility Score: inf
ROOT
ATOM      1  C   UNL A   1      46.085  26.812  25.960  1.00  0.00     0.188 C 
ENDROOT
BRANCH   1   2
ATOM      2  C   UNL A   1      45.239  28.101  25.901  1.00  0.00     0.188 C 
BRANCH   2   3
ATOM      3  O   UNL A   1      44.577  28.620  27.055  1.00  0.00    -0.376 OA
BRANCH   3   4
ATOM      4  C   UNL A   1      43.517  29.547  26.891  1.00  0.00     0.202 C 
BRANCH   4   5
ATOM      5  C   UNL A   1      42.098  28.968  27.037  1.00  0.00     0.261 C 
BRANCH   5   6
ATOM      6  O   UNL A   1      41.233  29.652  27.970  1.00  0.00    -0.463 OA
BRANCH   6   7
ATOM      7  C   UNL A   1      39.999  29.126  28.159  1.00  0.00     0.310 C 
ATOM      8  O   UNL A   1      39.661  28.009  27.772  1.00  0.00    -0.252 OA
BRANCH   7   9
ATOM      9  C   UNL A   1      39.009  30.036  28.867  1.00  0.00     0.158 C 
BRANCH   9  10
ATOM     10  C   UNL A   1      37.602  30.256  28.332  1.00  0.00    -0.037 A 
ATOM     11  C   UNL A   1      34.901  30.667  27.600  1.00  0.00     0.041 A 
ATOM     12  C   UNL A   1      35.738  31.765  27.813  1.00  0.00     0.026 A 
ATOM     13  C   UNL A   1      35.434  29.374  27.631  1.00  0.00     0.026 A 
ATOM     14  C   UNL A   1      37.066  31.556  28.221  1.00  0.00     0.006 A 
ATOM     15  C   UNL A   1      36.779  29.171  27.989  1.00  0.00     0.006 A 
BRANCH  11  16
ATOM     16  N   UNL A   1      33.514  30.891  27.568  1.00  0.00    -0.322 N 
ATOM     17  C   UNL A   1      32.538  30.283  26.781  1.00  0.00     0.255 C 
ATOM     18  O   UNL A   1      31.377  30.688  26.876  1.00  0.00    -0.269 OA
ATOM     19  H   UNL A   1      33.184  31.578  28.192  1.00  0.00     0.170 HD
BRANCH  17  20
ATOM     20  C   UNL A   1      32.791  29.066  25.932  1.00  0.00     0.040 A 
ATOM     21  C   UNL A   1      32.991  26.839  24.201  1.00  0.00     0.041 A 
ATOM     22  C   UNL A   1      33.485  28.078  23.795  1.00  0.00     0.027 A 
ATOM     23  C   UNL A   1      32.586  26.691  25.503  1.00  0.00     0.027 A 
ATOM     24  C   UNL A   1      33.394  29.187  24.667  1.00  0.00     0.016 A 
ATOM     25  C   UNL A   1      32.366  27.797  26.295  1.00  0.00     0.016 A 
BRANCH  21  26
ATOM     26  N   UNL A   1      32.880  25.748  23.337  1.00  0.00    -0.326 N 
ATOM     27  C   UNL A   1      33.762  24.708  23.148  1.00  0.00     0.226 C 
ATOM     28  O   UNL A   1      33.667  24.063  22.097  1.00  0.00    -0.274 OA
ATOM     29  H   UNL A   1      32.062  25.718  22.790  1.00  0.00     0.169 HD
BRANCH  27  30
ATOM     30  C   UNL A   1      34.773  24.234  24.232  1.00  0.00     0.072 C 
ATOM     31  C   UNL A   1      34.218  23.601  25.510  1.00  0.00     0.018 C 
ATOM     32  C   UNL A   1      35.959  23.446  23.675  1.00  0.00     0.018 C 
ENDBRANCH  27  30
ENDBRANCH  21  26
ENDBRANCH  17  20
ENDBRANCH  11  16
ENDBRANCH   9  10
ENDBRANCH   7   9
ENDBRANCH   6   7
ENDBRANCH   5   6
ENDBRANCH   4   5
ENDBRANCH   3   4
ENDBRANCH   2   3
ENDBRANCH   1   2
BRANCH   1  33
ATOM     33  O   UNL A   1      46.141  26.090  24.744  1.00  0.00    -0.377 OA
BRANCH  33  34
ATOM     34  C   UNL A   1      47.145  25.100  24.688  1.00  0.00     0.188 C 
BRANCH  34  35
ATOM     35  C   UNL A   1      46.592  23.700  24.398  1.00  0.00     0.188 C 
BRANCH  35  36
ATOM     36  O   UNL A   1      45.732  23.246  25.441  1.00  0.00    -0.376 OA
BRANCH  36  37
ATOM     37  C   UNL A   1      45.550  21.852  25.612  1.00  0.00     0.202 C 
BRANCH  37  38
ATOM     38  C   UNL A   1      44.161  21.253  25.328  1.00  0.00     0.261 C 
BRANCH  38  39
ATOM     39  O   UNL A   1      43.069  22.163  25.146  1.00  0.00    -0.460 OA
BRANCH  39  40
ATOM     40  C   UNL A   1      42.144  22.238  26.128  1.00  0.00     0.338 C 
ATOM     41  O   UNL A   1      41.210  21.473  26.297  1.00  0.00    -0.246 OA
BRANCH  40  42
ATOM     42  C   UNL A   1      42.583  23.282  27.085  1.00  0.00     0.060 A 
ATOM     43  C   UNL A   1      42.711  24.601  26.633  1.00  0.00     0.016 A 
ATOM     44  C   UNL A   1      42.826  22.973  28.427  1.00  0.00     0.016 A 
ATOM     45  C   UNL A   1      43.099  25.612  27.515  1.00  0.00     0.010 A 
ATOM     46  C   UNL A   1      43.252  23.979  29.301  1.00  0.00     0.010 A 
ATOM     47  C   UNL A   1      43.418  25.299  28.842  1.00  0.00    -0.014 A 
BRANCH  47  48
ATOM     48  C   UNL A   1      44.154  26.289  29.670  1.00  0.00     0.031 A 
ATOM     49  C   UNL A   1      43.341  27.305  30.429  1.00  0.00     0.074 A 
ATOM     50  C   UNL A   1      45.495  26.270  29.783  1.00  0.00     0.049 A 
ATOM     51  N   UNL A   1      43.738  28.305  31.171  1.00  0.00    -0.248 NA
ATOM     52  C   UNL A   1      41.878  27.168  30.335  1.00  0.00     0.031 C 
ATOM     53  C   UNL A   1      46.385  25.295  29.154  1.00  0.00     0.029 A 
ATOM     54  N   UNL A   1      46.345  27.103  30.470  1.00  0.00    -0.354 N 
ATOM     55  C   UNL A   1      42.576  28.910  31.638  1.00  0.00     0.074 A 
ATOM     56  C   UNL A   1      41.461  28.193  31.060  1.00  0.00     0.031 C 
ATOM     57  C   UNL A   1      47.657  25.595  29.477  1.00  0.00     0.029 A 
ATOM     58  C   UNL A   1      47.677  26.805  30.298  1.00  0.00     0.049 A 
ATOM     59  H   UNL A   1      46.029  27.846  31.034  1.00  0.00     0.167 HD
ATOM     60  C   UNL A   1      42.448  29.962  32.483  1.00  0.00     0.034 A 
ATOM     61  C   UNL A   1      48.779  27.454  30.729  1.00  0.00     0.034 A 
ATOM     62  C   UNL A   1      43.565  30.684  33.035  1.00  0.00     0.049 A 
ATOM     63  C   UNL A   1      48.609  28.705  31.569  1.00  0.00     0.074 A 
ATOM     64  C   UNL A   1      43.551  31.779  33.880  1.00  0.00     0.029 A 
ATOM     65  N   UNL A   1      44.900  30.388  32.790  1.00  0.00    -0.354 N 
ATOM     66  N   UNL A   1      47.504  29.274  31.996  1.00  0.00    -0.248 NA
ATOM     67  C   UNL A   1      49.836  29.396  31.991  1.00  0.00     0.031 C 
ATOM     68  C   UNL A   1      44.870  32.189  34.088  1.00  0.00     0.029 A 
ATOM     69  C   UNL A   1      45.715  31.297  33.445  1.00  0.00     0.049 A 
ATOM     70  H   UNL A   1      45.220  29.643  32.231  1.00  0.00     0.167 HD
ATOM     71  C   UNL A   1      47.910  30.358  32.774  1.00  0.00     0.074 A 
ATOM     72  C   UNL A   1      49.357  30.355  32.768  1.00  0.00     0.031 C 
ATOM     73  C   UNL A   1      47.158  31.273  33.438  1.00  0.00     0.034 A 
BRANCH  60  74
ATOM     74  C   UNL A   1      41.050  30.415  32.821  1.00  0.00     0.023 A 
ATOM     75  C   UNL A   1      40.496  31.578  32.260  1.00  0.00     0.031 A 
ATOM     76  C   UNL A   1      40.264  29.679  33.726  1.00  0.00     0.131 A 
ATOM     77  C   UNL A   1      39.216  32.001  32.649  1.00  0.00     0.055 A 
ATOM     78  C   UNL A   1      38.962  30.063  34.050  1.00  0.00     0.041 A 
ATOM     79  F   UNL A   1      40.753  28.576  34.315  1.00  0.00    -0.206 F 
ATOM     80  C   UNL A   1      38.434  31.236  33.518  1.00  0.00     0.022 A 
BRANCH  77  81
ATOM     81  S   UNL A   1      38.635  33.627  32.097  1.00  0.00     0.124 S 
ATOM     82  O   UNL A   1      38.082  33.313  30.782  1.00  0.00    -0.237 OA
ATOM     83  O   UNL A   1      37.666  33.983  33.128  1.00  0.00    -0.237 OA
ATOM     84  O   UNL A   1      39.851  34.437  32.076  1.00  0.00    -0.744 OA
ENDBRANCH  77  81
ENDBRANCH  60  74
BRANCH  61  85
ATOM     85  C   UNL A   1      50.150  26.989  30.353  1.00  0.00     0.023 A 
ATOM     86  C   UNL A   1      50.931  26.234  31.244  1.00  0.00     0.031 A 
ATOM     87  C   UNL A   1      50.745  27.393  29.144  1.00  0.00     0.131 A 
ATOM     88  C   UNL A   1      52.280  25.975  30.949  1.00  0.00     0.055 A 
ATOM     89  C   UNL A   1      52.065  27.069  28.823  1.00  0.00     0.041 A 
ATOM     90  F   UNL A   1      50.053  28.125  28.255  1.00  0.00    -0.206 F 
ATOM     91  C   UNL A   1      52.847  26.374  29.739  1.00  0.00     0.022 A 
BRANCH  88  92
ATOM     92  S   UNL A   1      53.321  25.236  32.239  1.00  0.00     0.124 S 
ATOM     93  O   UNL A   1      53.375  26.309  33.225  1.00  0.00    -0.237 OA
ATOM     94  O   UNL A   1      52.546  24.058  32.613  1.00  0.00    -0.237 OA
ATOM     95  O   UNL A   1      54.577  24.961  31.545  1.00  0.00    -0.744 OA
ENDBRANCH  88  92
ENDBRANCH  61  85
BRANCH  73  96
ATOM     96  C   UNL A   1      47.887  32.300  34.272  1.00  0.00     0.023 A 
ATOM     97  C   UNL A   1      48.260  33.552  33.755  1.00  0.00     0.031 A 
ATOM     98  C   UNL A   1      48.213  32.015  35.611  1.00  0.00     0.131 A 
ATOM     99  C   UNL A   1      48.988  34.449  34.552  1.00  0.00     0.055 A 
ATOM    100  C   UNL A   1      48.876  32.938  36.420  1.00  0.00     0.041 A 
ATOM    101  F   UNL A   1      47.883  30.835  36.159  1.00  0.00    -0.206 F 
ATOM    102  C   UNL A   1      49.281  34.157  35.887  1.00  0.00     0.022 A 
BRANCH  99 103
ATOM    103  S   UNL A   1      49.634  35.965  33.793  1.00  0.00     0.124 S 
ATOM    104  O   UNL A   1      49.786  36.842  34.949  1.00  0.00    -0.237 OA
ATOM    105  O   UNL A   1      50.873  35.502  33.178  1.00  0.00    -0.237 OA
ATOM    106  O   UNL A   1      48.583  36.352  32.854  1.00  0.00    -0.744 OA
ENDBRANCH  99 103
ENDBRANCH  73  96
ENDBRANCH  47  48
ENDBRANCH  40  42
ENDBRANCH  39  40
ENDBRANCH  38  39
ENDBRANCH  37  38
ENDBRANCH  36  37
ENDBRANCH  35  36
ENDBRANCH  34  35
ENDBRANCH  33  34
ENDBRANCH   1  33
TORSDOF 28
ENDMDL
MODEL 3
REMARK VINA RESULT:      -8.0      5.955     11.853
REMARK SMILES CC(C)C(=O)Nc1ccc(C(=O)Nc2ccc(CC(=O)OCCOCCOCCOCCOC(=O)c3ccc(-c4c5nc(c(-c6cc(S(=O)(=O)[O-])ccc6F)c6ccc([nH]6)c(-c6cc(S(=O)(=O)[O-])ccc6F)c6nc(c(-c7cc(S(=O)(=O)[O-])ccc7F)c7ccc4[nH]7)C=C6)C=C5)cc3)cc2)cc1
REMARK SMILES IDX 26 1 25 2 24 3 23 4 22 5 21 6 19 7 20 8 18 9 17 10 14 11
REMARK SMILES IDX 15 12 100 13 16 14 99 15 13 16 11 17 12 18 10 20 7 21 8 22
REMARK SMILES IDX 102 23 9 24 101 25 6 26 4 27 5 28 2 30 1 31 3 32 27 33 28 34
REMARK SMILES IDX 29 35 30 36 31 37 32 38 33 39 34 40 35 41 36 42 37 43 98 44
REMARK SMILES IDX 38 45 97 46 39 47 40 48 41 49 91 50 42 51 96 52 90 53 92 54
REMARK SMILES IDX 43 55 95 56 89 57 88 58 44 60 76 61 56 62 75 63 57 64 60 65
REMARK SMILES IDX 74 66 93 67 58 68 59 69 73 71 94 72 61 73 45 74 46 75 54 76
REMARK SMILES IDX 47 77 53 78 55 79 52 80 48 81 49 82 50 83 51 84 77 85 78 86
REMARK SMILES IDX 86 87 79 88 85 89 87 90 84 91 80 92 81 93 82 94 83 95 62 96
REMARK SMILES IDX 63 97 71 98 64 99 70 100 72 101 69 102 65 103 66 104 67 105
REMARK SMILES IDX 68 106
REMARK H PARENT 13 19 6 29 92 59 60 70
REMARK Flexibility Score: inf
ROOT
ATOM      1  C   UNL A   1      47.299  36.439  26.887  1.00  0.00     0.188 C 
ENDROOT
BRANCH   1   2
ATOM      2  C   UNL A   1      46.130  35.691  26.212  1.00  0.00     0.188 C 
BRANCH   2   3
ATOM      3  O   UNL A   1      45.286  34.799  26.941  1.00  0.00    -0.376 OA
BRANCH   3   4
ATOM      4  C   UNL A   1      43.879  34.954  26.864  1.00  0.00     0.202 C 
BRANCH   4   5
ATOM      5  C   UNL A   1      43.149  35.072  28.214  1.00  0.00     0.261 C 
BRANCH   5   6
ATOM      6  O   UNL A   1      41.749  35.418  28.144  1.00  0.00    -0.463 OA
BRANCH   6   7
ATOM      7  C   UNL A   1      40.941  34.899  29.098  1.00  0.00     0.310 C 
ATOM      8  O   UNL A   1      39.745  35.163  29.206  1.00  0.00    -0.252 OA
BRANCH   7   9
ATOM      9  C   UNL A   1      41.623  33.968  30.088  1.00  0.00     0.158 C 
BRANCH   9  10
ATOM     10  C   UNL A   1      41.034  33.697  31.465  1.00  0.00    -0.037 A 
ATOM     11  C   UNL A   1      39.690  33.210  33.906  1.00  0.00     0.041 A 
ATOM     12  C   UNL A   1      40.049  32.139  33.085  1.00  0.00     0.026 A 
ATOM     13  C   UNL A   1      40.105  34.505  33.575  1.00  0.00     0.026 A 
ATOM     14  C   UNL A   1      40.675  32.389  31.852  1.00  0.00     0.006 A 
ATOM     15  C   UNL A   1      40.778  34.745  32.364  1.00  0.00     0.006 A 
BRANCH  11  16
ATOM     16  N   UNL A   1      38.749  32.976  34.923  1.00  0.00    -0.322 N 
ATOM     17  C   UNL A   1      37.361  33.089  34.888  1.00  0.00     0.255 C 
ATOM     18  O   UNL A   1      36.734  32.894  35.931  1.00  0.00    -0.269 OA
ATOM     19  H   UNL A   1      39.127  32.691  35.788  1.00  0.00     0.170 HD
BRANCH  17  20
ATOM     20  C   UNL A   1      36.574  33.291  33.621  1.00  0.00     0.040 A 
ATOM     21  C   UNL A   1      35.241  33.415  31.130  1.00  0.00     0.041 A 
ATOM     22  C   UNL A   1      34.692  32.669  32.172  1.00  0.00     0.027 A 
ATOM     23  C   UNL A   1      36.319  34.220  31.399  1.00  0.00     0.027 A 
ATOM     24  C   UNL A   1      35.355  32.617  33.420  1.00  0.00     0.016 A 
ATOM     25  C   UNL A   1      37.038  34.055  32.562  1.00  0.00     0.016 A 
BRANCH  21  26
ATOM     26  N   UNL A   1      34.747  33.371  29.825  1.00  0.00    -0.326 N 
ATOM     27  C   UNL A   1      35.336  32.838  28.701  1.00  0.00     0.226 C 
ATOM     28  O   UNL A   1      34.921  33.225  27.601  1.00  0.00    -0.274 OA
ATOM     29  H   UNL A   1      33.859  33.774  29.690  1.00  0.00     0.169 HD
BRANCH  27  30
ATOM     30  C   UNL A   1      36.394  31.698  28.746  1.00  0.00     0.072 C 
ATOM     31  C   UNL A   1      36.224  30.516  27.788  1.00  0.00     0.018 C 
ATOM     32  C   UNL A   1      37.840  32.192  28.790  1.00  0.00     0.018 C 
ENDBRANCH  27  30
ENDBRANCH  21  26
ENDBRANCH  17  20
ENDBRANCH  11  16
ENDBRANCH   9  10
ENDBRANCH   7   9
ENDBRANCH   6   7
ENDBRANCH   5   6
ENDBRANCH   4   5
ENDBRANCH   3   4
ENDBRANCH   2   3
ENDBRANCH   1   2
BRANCH   1  33
ATOM     33  O   UNL A   1      47.447  37.786  26.481  1.00  0.00    -0.377 OA
BRANCH  33  34
ATOM     34  C   UNL A   1      46.245  38.525  26.427  1.00  0.00     0.188 C 
BRANCH  34  35
ATOM     35  C   UNL A   1      45.927  39.250  27.741  1.00  0.00     0.188 C 
BRANCH  35  36
ATOM     36  O   UNL A   1      47.113  39.616  28.442  1.00  0.00    -0.376 OA
BRANCH  36  37
ATOM     37  C   UNL A   1      47.546  40.964  28.388  1.00  0.00     0.202 C 
BRANCH  37  38
ATOM     38  C   UNL A   1      46.481  42.074  28.330  1.00  0.00     0.261 C 
BRANCH  38  39
ATOM     39  O   UNL A   1      45.655  42.264  29.485  1.00  0.00    -0.460 OA
BRANCH  39  40
ATOM     40  C   UNL A   1      46.234  42.136  30.699  1.00  0.00     0.338 C 
ATOM     41  O   UNL A   1      46.880  42.990  31.282  1.00  0.00    -0.246 OA
BRANCH  40  42
ATOM     42  C   UNL A   1      45.767  40.859  31.291  1.00  0.00     0.060 A 
ATOM     43  C   UNL A   1      46.637  40.143  32.123  1.00  0.00     0.016 A 
ATOM     44  C   UNL A   1      44.469  40.391  31.065  1.00  0.00     0.016 A 
ATOM     45  C   UNL A   1      46.221  38.950  32.715  1.00  0.00     0.010 A 
ATOM     46  C   UNL A   1      44.065  39.176  31.629  1.00  0.00     0.010 A 
ATOM     47  C   UNL A   1      44.949  38.435  32.434  1.00  0.00    -0.014 A 
BRANCH  47  48
ATOM     48  C   UNL A   1      44.642  37.022  32.774  1.00  0.00     0.031 A 
ATOM     49  C   UNL A   1      43.827  36.764  34.015  1.00  0.00     0.074 A 
ATOM     50  C   UNL A   1      45.031  35.997  31.992  1.00  0.00     0.049 A 
ATOM     51  N   UNL A   1      43.474  35.631  34.561  1.00  0.00    -0.248 NA
ATOM     52  C   UNL A   1      43.348  37.955  34.735  1.00  0.00     0.031 C 
ATOM     53  C   UNL A   1      45.763  36.124  30.732  1.00  0.00     0.029 A 
ATOM     54  N   UNL A   1      44.866  34.643  32.149  1.00  0.00    -0.354 N 
ATOM     55  C   UNL A   1      42.724  35.971  35.682  1.00  0.00     0.074 A 
ATOM     56  C   UNL A   1      42.713  37.415  35.763  1.00  0.00     0.031 C 
ATOM     57  C   UNL A   1      45.992  34.893  30.238  1.00  0.00     0.029 A 
ATOM     58  C   UNL A   1      45.464  33.891  31.163  1.00  0.00     0.049 A 
ATOM     59  H   UNL A   1      44.366  34.245  32.898  1.00  0.00     0.167 HD
ATOM     60  C   UNL A   1      42.092  35.154  36.560  1.00  0.00     0.034 A 
ATOM     61  C   UNL A   1      45.593  32.553  31.043  1.00  0.00     0.034 A 
ATOM     62  C   UNL A   1      42.130  33.716  36.483  1.00  0.00     0.049 A 
ATOM     63  C   UNL A   1      44.985  31.662  32.109  1.00  0.00     0.074 A 
ATOM     64  C   UNL A   1      41.547  32.793  37.332  1.00  0.00     0.029 A 
ATOM     65  N   UNL A   1      42.796  32.992  35.503  1.00  0.00    -0.354 N 
ATOM     66  N   UNL A   1      44.287  31.996  33.171  1.00  0.00    -0.248 NA
ATOM     67  C   UNL A   1      45.177  30.213  31.953  1.00  0.00     0.031 C 
ATOM     68  C   UNL A   1      41.918  31.514  36.909  1.00  0.00     0.029 A 
ATOM     69  C   UNL A   1      42.660  31.634  35.743  1.00  0.00     0.049 A 
ATOM     70  H   UNL A   1      43.292  33.385  34.748  1.00  0.00     0.167 HD
ATOM     71  C   UNL A   1      43.920  30.795  33.778  1.00  0.00     0.074 A 
ATOM     72  C   UNL A   1      44.460  29.733  32.958  1.00  0.00     0.031 C 
ATOM     73  C   UNL A   1      43.196  30.586  34.908  1.00  0.00     0.034 A 
BRANCH  60  74
ATOM     74  C   UNL A   1      41.346  35.803  37.698  1.00  0.00     0.023 A 
ATOM     75  C   UNL A   1      41.974  36.089  38.922  1.00  0.00     0.031 A 
ATOM     76  C   UNL A   1      39.986  36.131  37.560  1.00  0.00     0.131 A 
ATOM     77  C   UNL A   1      41.229  36.635  39.979  1.00  0.00     0.055 A 
ATOM     78  C   UNL A   1      39.270  36.744  38.589  1.00  0.00     0.041 A 
ATOM     79  F   UNL A   1      39.328  35.853  36.424  1.00  0.00    -0.206 F 
ATOM     80  C   UNL A   1      39.889  36.990  39.812  1.00  0.00     0.022 A 
BRANCH  77  81
ATOM     81  S   UNL A   1      42.005  36.760  41.613  1.00  0.00     0.124 S 
ATOM     82  O   UNL A   1      42.066  35.358  42.019  1.00  0.00    -0.237 OA
ATOM     83  O   UNL A   1      43.284  37.391  41.308  1.00  0.00    -0.237 OA
ATOM     84  O   UNL A   1      41.068  37.582  42.376  1.00  0.00    -0.744 OA
ENDBRANCH  77  81
ENDBRANCH  60  74
BRANCH  61  85
ATOM     85  C   UNL A   1      46.362  31.946  29.914  1.00  0.00     0.023 A 
ATOM     86  C   UNL A   1      45.773  31.758  28.652  1.00  0.00     0.031 A 
ATOM     87  C   UNL A   1      47.659  31.437  30.111  1.00  0.00     0.131 A 
ATOM     88  C   UNL A   1      46.443  31.013  27.667  1.00  0.00     0.055 A 
ATOM     89  C   UNL A   1      48.351  30.762  29.103  1.00  0.00     0.041 A 
ATOM     90  F   UNL A   1      48.272  31.577  31.297  1.00  0.00    -0.206 F 
ATOM     91  C   UNL A   1      47.733  30.528  27.878  1.00  0.00     0.022 A 
BRANCH  88  92
ATOM     92  S   UNL A   1      45.541  30.564  26.158  1.00  0.00     0.124 S 
ATOM     93  O   UNL A   1      45.187  31.875  25.625  1.00  0.00    -0.237 OA
ATOM     94  O   UNL A   1      46.551  29.819  25.414  1.00  0.00    -0.237 OA
ATOM     95  O   UNL A   1      44.422  29.768  26.656  1.00  0.00    -0.744 OA
ENDBRANCH  88  92
ENDBRANCH  61  85
BRANCH  73  96
ATOM     96  C   UNL A   1      42.887  29.156  35.282  1.00  0.00     0.023 A 
ATOM     97  C   UNL A   1      43.563  28.493  36.320  1.00  0.00     0.031 A 
ATOM     98  C   UNL A   1      41.894  28.445  34.582  1.00  0.00     0.131 A 
ATOM     99  C   UNL A   1      43.281  27.144  36.589  1.00  0.00     0.055 A 
ATOM    100  C   UNL A   1      41.569  27.126  34.900  1.00  0.00     0.041 A 
ATOM    101  F   UNL A   1      41.216  29.027  33.580  1.00  0.00    -0.206 F 
ATOM    102  C   UNL A   1      42.275  26.464  35.899  1.00  0.00     0.022 A 
BRANCH  99 103
ATOM    103  S   UNL A   1      44.313  26.261  37.791  1.00  0.00     0.124 S 
ATOM    104  O   UNL A   1      43.858  24.884  37.628  1.00  0.00    -0.237 OA
ATOM    105  O   UNL A   1      45.662  26.545  37.313  1.00  0.00    -0.237 OA
ATOM    106  O   UNL A   1      43.964  26.883  39.066  1.00  0.00    -0.744 OA
ENDBRANCH  99 103
ENDBRANCH  73  96
ENDBRANCH  47  48
ENDBRANCH  40  42
ENDBRANCH  39  40
ENDBRANCH  38  39
ENDBRANCH  37  38
ENDBRANCH  36  37
ENDBRANCH  35  36
ENDBRANCH  34  35
ENDBRANCH  33  34
ENDBRANCH   1  33
TORSDOF 28
ENDMDL
