MODEL 1
REMARK VINA RESULT:     -10.8      0.000      0.000
REMARK SMILES Cc1ccc(-c2cc(Cl)cc3c2O[C@@H](C(F)(F)F)C(C(=O)OCCOCCOCCOCCOC(=O)c2ccc(-c4c5nc(c(-c6cc(S(=O)(=O)[O-])ccc6F)c6ccc([nH]6)c(-c6cc(S(=O)(=O)[O-])ccc6F)c6nc(c(-c7cc(S(=O)(=O)[O-])ccc7F)c7ccc4[nH]7)C=C6)C=C5)cc2)=C3)cc1
REMARK SMILES IDX 29 1 28 2 27 3 26 4 25 5 24 6 23 7 22 8 20 9 21 10 19 11
REMARK SMILES IDX 6 12 7 13 12 14 8 15 11 16 13 17 9 18 10 19 100 20 14 21
REMARK SMILES IDX 5 22 1 23 2 24 3 25 102 26 4 27 101 28 15 29 16 30 17 31
REMARK SMILES IDX 18 32 30 33 31 34 32 35 33 36 34 37 35 38 36 39 37 40 38 41
REMARK SMILES IDX 99 42 39 43 98 44 40 45 41 46 42 47 92 48 43 49 97 50 91 51
REMARK SMILES IDX 93 52 44 53 96 54 90 55 89 56 45 58 77 59 57 60 76 61 58 62
REMARK SMILES IDX 61 63 75 64 94 65 59 66 60 67 74 69 95 70 62 71 46 72 47 73
REMARK SMILES IDX 55 74 48 75 54 76 56 77 53 78 49 79 50 80 51 81 52 82 78 83
REMARK SMILES IDX 79 84 87 85 80 86 86 87 88 88 85 89 81 90 82 91 83 92 84 93
REMARK SMILES IDX 63 94 64 95 72 96 65 97 71 98 73 99 70 100 66 101 67 102
REMARK SMILES IDX 68 103 69 104
REMARK H PARENT 93 57 61 68
REMARK Flexibility Score: inf
ROOT
ATOM      1  C   UNL A   1      31.708  29.647  25.422  1.00  0.00     0.188 C 
ENDROOT
BRANCH   1   2
ATOM      2  O   UNL A   1      31.019  28.708  24.625  1.00  0.00    -0.377 OA
BRANCH   2   3
ATOM      3  C   UNL A   1      31.815  28.178  23.590  1.00  0.00     0.188 C 
BRANCH   3   4
ATOM      4  C   UNL A   1      31.018  27.655  22.422  1.00  0.00     0.188 C 
BRANCH   4   5
ATOM      5  O   UNL A   1      31.215  26.392  21.802  1.00  0.00    -0.376 OA
BRANCH   5   6
ATOM      6  C   UNL A   1      32.589  26.095  21.493  1.00  0.00     0.202 C 
BRANCH   6   7
ATOM      7  C   UNL A   1      33.369  24.723  21.529  1.00  0.00     0.261 C 
BRANCH   7   8
ATOM      8  O   UNL A   1      32.912  23.654  22.360  1.00  0.00    -0.460 OA
BRANCH   8   9
ATOM      9  C   UNL A   1      32.645  23.945  23.675  1.00  0.00     0.338 C 
ATOM     10  O   UNL A   1      33.169  24.827  24.351  1.00  0.00    -0.246 OA
BRANCH   9  11
ATOM     11  C   UNL A   1      31.303  23.309  24.059  1.00  0.00     0.087 C 
ATOM     12  C   UNL A   1      34.406  21.304  25.588  1.00  0.00     0.026 A 
ATOM     13  C   UNL A   1      34.622  20.017  25.055  1.00  0.00     0.033 A 
ATOM     14  C   UNL A   1      33.053  21.811  25.418  1.00  0.00     0.135 A 
ATOM     15  C   UNL A   1      33.659  19.328  24.319  1.00  0.00     0.042 A 
ATOM     16  C   UNL A   1      32.188  21.189  24.469  1.00  0.00     0.019 A 
ATOM     17  O   UNL A   1      32.474  22.937  26.043  1.00  0.00    -0.475 OA
ATOM     18  Cl  UNL A   1      34.044  17.782  23.678  1.00  0.00    -0.084 Cl
ATOM     19  C   UNL A   1      32.452  19.921  23.990  1.00  0.00     0.032 A 
ATOM     20  C   UNL A   1      31.100  21.991  23.825  1.00  0.00     0.027 C 
ATOM     21  C   UNL A   1      31.158  23.497  25.532  1.00  0.00     0.316 C 
BRANCH  12  22
ATOM     22  C   UNL A   1      35.769  21.976  25.856  1.00  0.00    -0.015 A 
ATOM     23  C   UNL A   1      39.480  24.359  26.353  1.00  0.00     0.044 C 
ATOM     24  C   UNL A   1      38.232  23.543  26.126  1.00  0.00    -0.051 A 
ATOM     25  C   UNL A   1      38.252  22.189  25.784  1.00  0.00     0.004 A 
ATOM     26  C   UNL A   1      36.981  24.121  26.273  1.00  0.00     0.004 A 
ATOM     27  C   UNL A   1      37.047  21.427  25.634  1.00  0.00     0.009 A 
ATOM     28  C   UNL A   1      35.794  23.373  26.126  1.00  0.00     0.009 A 
ENDBRANCH  12  22
BRANCH  21  29
ATOM     29  C   UNL A   1      30.576  24.945  25.782  1.00  0.00     0.430 C 
ATOM     30  F   UNL A   1      29.507  24.820  26.637  1.00  0.00    -0.167 F 
ATOM     31  F   UNL A   1      31.436  25.766  26.419  1.00  0.00    -0.167 F 
ATOM     32  F   UNL A   1      30.067  25.603  24.726  1.00  0.00    -0.167 F 
ENDBRANCH  21  29
ENDBRANCH   9  11
ENDBRANCH   8   9
ENDBRANCH   7   8
ENDBRANCH   6   7
ENDBRANCH   5   6
ENDBRANCH   4   5
ENDBRANCH   3   4
ENDBRANCH   2   3
ENDBRANCH   1   2
BRANCH   1  33
ATOM     33  C   UNL A   1      32.202  29.131  26.736  1.00  0.00     0.188 C 
BRANCH  33  34
ATOM     34  O   UNL A   1      33.433  29.825  26.967  1.00  0.00    -0.376 OA
BRANCH  34  35
ATOM     35  C   UNL A   1      33.267  31.201  27.232  1.00  0.00     0.202 C 
BRANCH  35  36
ATOM     36  C   UNL A   1      34.526  31.797  27.869  1.00  0.00     0.261 C 
BRANCH  36  37
ATOM     37  O   UNL A   1      34.112  32.664  28.959  1.00  0.00    -0.460 OA
BRANCH  37  38
ATOM     38  C   UNL A   1      34.848  33.801  29.152  1.00  0.00     0.338 C 
ATOM     39  O   UNL A   1      34.575  34.891  28.676  1.00  0.00    -0.246 OA
BRANCH  38  40
ATOM     40  C   UNL A   1      36.135  33.495  29.874  1.00  0.00     0.060 A 
ATOM     41  C   UNL A   1      37.382  33.684  29.247  1.00  0.00     0.016 A 
ATOM     42  C   UNL A   1      36.105  32.789  31.071  1.00  0.00     0.016 A 
ATOM     43  C   UNL A   1      38.553  33.045  29.735  1.00  0.00     0.010 A 
ATOM     44  C   UNL A   1      37.257  32.149  31.531  1.00  0.00     0.010 A 
ATOM     45  C   UNL A   1      38.488  32.200  30.849  1.00  0.00    -0.014 A 
BRANCH  45  46
ATOM     46  C   UNL A   1      39.520  31.180  31.255  1.00  0.00     0.031 A 
ATOM     47  C   UNL A   1      39.653  29.901  30.445  1.00  0.00     0.074 A 
ATOM     48  C   UNL A   1      40.559  31.586  32.048  1.00  0.00     0.049 A 
ATOM     49  N   UNL A   1      40.640  29.071  30.489  1.00  0.00    -0.248 NA
ATOM     50  C   UNL A   1      38.674  29.459  29.454  1.00  0.00     0.031 C 
ATOM     51  C   UNL A   1      41.939  31.059  32.088  1.00  0.00     0.029 A 
ATOM     52  N   UNL A   1      40.681  32.699  32.883  1.00  0.00    -0.354 N 
ATOM     53  C   UNL A   1      40.611  28.200  29.400  1.00  0.00     0.074 A 
ATOM     54  C   UNL A   1      39.317  28.461  28.823  1.00  0.00     0.031 C 
ATOM     55  C   UNL A   1      42.725  31.780  32.902  1.00  0.00     0.029 A 
ATOM     56  C   UNL A   1      41.831  32.562  33.692  1.00  0.00     0.049 A 
ATOM     57  H   UNL A   1      40.059  33.463  32.906  1.00  0.00     0.167 HD
ATOM     58  C   UNL A   1      41.739  27.455  29.100  1.00  0.00     0.034 A 
ATOM     59  C   UNL A   1      41.684  32.386  35.030  1.00  0.00     0.034 A 
ATOM     60  C   UNL A   1      42.727  27.560  30.205  1.00  0.00     0.049 A 
ATOM     61  C   UNL A   1      41.915  30.867  35.300  1.00  0.00     0.074 A 
ATOM     62  C   UNL A   1      44.084  27.798  30.326  1.00  0.00     0.029 A 
ATOM     63  N   UNL A   1      42.257  27.554  31.521  1.00  0.00    -0.354 N 
ATOM     64  N   UNL A   1      41.797  29.924  34.375  1.00  0.00    -0.248 NA
ATOM     65  C   UNL A   1      42.592  30.329  36.479  1.00  0.00     0.031 C 
ATOM     66  C   UNL A   1      44.355  28.194  31.675  1.00  0.00     0.029 A 
ATOM     67  C   UNL A   1      43.196  28.015  32.419  1.00  0.00     0.049 A 
ATOM     68  H   UNL A   1      41.356  27.253  31.779  1.00  0.00     0.167 HD
ATOM     69  C   UNL A   1      42.557  28.823  34.689  1.00  0.00     0.074 A 
ATOM     70  C   UNL A   1      42.946  29.090  36.069  1.00  0.00     0.031 C 
ATOM     71  C   UNL A   1      42.964  27.814  33.839  1.00  0.00     0.034 A 
BRANCH  58  72
ATOM     72  C   UNL A   1      42.111  26.783  27.740  1.00  0.00     0.023 A 
ATOM     73  C   UNL A   1      42.712  25.491  27.706  1.00  0.00     0.031 A 
ATOM     74  C   UNL A   1      42.001  27.366  26.463  1.00  0.00     0.131 A 
ATOM     75  C   UNL A   1      43.295  24.933  26.537  1.00  0.00     0.055 A 
ATOM     76  C   UNL A   1      42.588  26.823  25.295  1.00  0.00     0.041 A 
ATOM     77  F   UNL A   1      41.340  28.511  26.263  1.00  0.00    -0.206 F 
ATOM     78  C   UNL A   1      43.269  25.619  25.333  1.00  0.00     0.022 A 
BRANCH  75  79
ATOM     79  S   UNL A   1      44.033  23.262  26.577  1.00  0.00     0.124 S 
ATOM     80  O   UNL A   1      45.026  23.318  25.512  1.00  0.00    -0.237 OA
ATOM     81  O   UNL A   1      44.548  23.179  27.939  1.00  0.00    -0.237 OA
ATOM     82  O   UNL A   1      42.896  22.381  26.305  1.00  0.00    -0.744 OA
ENDBRANCH  75  79
ENDBRANCH  58  72
BRANCH  59  83
ATOM     83  C   UNL A   1      40.781  33.523  35.483  1.00  0.00     0.023 A 
ATOM     84  C   UNL A   1      39.473  33.101  35.928  1.00  0.00     0.031 A 
ATOM     85  C   UNL A   1      41.303  34.665  36.116  1.00  0.00     0.131 A 
ATOM     86  C   UNL A   1      38.865  33.659  37.078  1.00  0.00     0.055 A 
ATOM     87  C   UNL A   1      40.669  35.239  37.241  1.00  0.00     0.041 A 
ATOM     88  F   UNL A   1      42.527  35.117  35.801  1.00  0.00    -0.206 F 
ATOM     89  C   UNL A   1      39.482  34.709  37.755  1.00  0.00     0.022 A 
BRANCH  86  90
ATOM     90  S   UNL A   1      37.430  32.834  37.886  1.00  0.00     0.124 S 
ATOM     91  O   UNL A   1      36.303  33.389  37.143  1.00  0.00    -0.237 OA
ATOM     92  O   UNL A   1      37.669  31.411  37.676  1.00  0.00    -0.237 OA
ATOM     93  O   UNL A   1      37.524  33.279  39.278  1.00  0.00    -0.744 OA
ENDBRANCH  86  90
ENDBRANCH  59  83
BRANCH  71  94
ATOM     94  C   UNL A   1      43.105  26.365  34.268  1.00  0.00     0.023 A 
ATOM     95  C   UNL A   1      44.352  25.758  34.281  1.00  0.00     0.031 A 
ATOM     96  C   UNL A   1      42.055  25.634  34.902  1.00  0.00     0.131 A 
ATOM     97  C   UNL A   1      44.521  24.488  34.839  1.00  0.00     0.055 A 
ATOM     98  C   UNL A   1      42.255  24.426  35.566  1.00  0.00     0.041 A 
ATOM     99  F   UNL A   1      40.786  26.061  34.946  1.00  0.00    -0.206 F 
ATOM    100  C   UNL A   1      43.500  23.834  35.526  1.00  0.00     0.022 A 
BRANCH  97 101
ATOM    101  S   UNL A   1      46.103  23.694  34.540  1.00  0.00     0.124 S 
ATOM    102  O   UNL A   1      45.681  22.410  33.983  1.00  0.00    -0.237 OA
ATOM    103  O   UNL A   1      46.741  24.612  33.602  1.00  0.00    -0.237 OA
ATOM    104  O   UNL A   1      46.710  23.629  35.866  1.00  0.00    -0.744 OA
ENDBRANCH  97 101
ENDBRANCH  71  94
ENDBRANCH  45  46
ENDBRANCH  38  40
ENDBRANCH  37  38
ENDBRANCH  36  37
ENDBRANCH  35  36
ENDBRANCH  34  35
ENDBRANCH  33  34
ENDBRANCH   1  33
TORSDOF 25
ENDMDL
MODEL 2
REMARK VINA RESULT:      -9.1      2.757      4.335
REMARK SMILES Cc1ccc(-c2cc(Cl)cc3c2O[C@@H](C(F)(F)F)C(C(=O)OCCOCCOCCOCCOC(=O)c2ccc(-c4c5nc(c(-c6cc(S(=O)(=O)[O-])ccc6F)c6ccc([nH]6)c(-c6cc(S(=O)(=O)[O-])ccc6F)c6nc(c(-c7cc(S(=O)(=O)[O-])ccc7F)c7ccc4[nH]7)C=C6)C=C5)cc2)=C3)cc1
REMARK SMILES IDX 29 1 28 2 27 3 26 4 25 5 24 6 23 7 22 8 20 9 21 10 19 11
REMARK SMILES IDX 6 12 7 13 12 14 8 15 11 16 13 17 9 18 10 19 100 20 14 21
REMARK SMILES IDX 5 22 1 23 2 24 3 25 102 26 4 27 101 28 15 29 16 30 17 31
REMARK SMILES IDX 18 32 30 33 31 34 32 35 33 36 34 37 35 38 36 39 37 40 38 41
REMARK SMILES IDX 99 42 39 43 98 44 40 45 41 46 42 47 92 48 43 49 97 50 91 51
REMARK SMILES IDX 93 52 44 53 96 54 90 55 89 56 45 58 77 59 57 60 76 61 58 62
REMARK SMILES IDX 61 63 75 64 94 65 59 66 60 67 74 69 95 70 62 71 46 72 47 73
REMARK SMILES IDX 55 74 48 75 54 76 56 77 53 78 49 79 50 80 51 81 52 82 78 83
REMARK SMILES IDX 79 84 87 85 80 86 86 87 88 88 85 89 81 90 82 91 83 92 84 93
REMARK SMILES IDX 63 94 64 95 72 96 65 97 71 98 73 99 70 100 66 101 67 102
REMARK SMILES IDX 68 103 69 104
REMARK H PARENT 93 57 61 68
REMARK Flexibility Score: inf
ROOT
ATOM      1  C   UNL A   1      33.075  31.547  27.667  1.00  0.00     0.188 C 
ENDROOT
BRANCH   1   2
ATOM      2  O   UNL A   1      33.940  30.913  26.750  1.00  0.00    -0.377 OA
BRANCH   2   3
ATOM      3  C   UNL A   1      33.288  29.947  25.959  1.00  0.00     0.188 C 
BRANCH   3   4
ATOM      4  C   UNL A   1      32.376  29.038  26.744  1.00  0.00     0.188 C 
BRANCH   4   5
ATOM      5  O   UNL A   1      31.353  28.228  26.183  1.00  0.00    -0.376 OA
BRANCH   5   6
ATOM      6  C   UNL A   1      31.430  26.840  26.555  1.00  0.00     0.202 C 
BRANCH   6   7
ATOM      7  C   UNL A   1      32.665  25.857  26.579  1.00  0.00     0.261 C 
BRANCH   7   8
ATOM      8  O   UNL A   1      32.467  24.446  26.472  1.00  0.00    -0.460 OA
BRANCH   8   9
ATOM      9  C   UNL A   1      32.748  23.858  25.262  1.00  0.00     0.338 C 
ATOM     10  O   UNL A   1      32.228  22.847  24.801  1.00  0.00    -0.246 OA
BRANCH   9  11
ATOM     11  C   UNL A   1      33.486  24.874  24.381  1.00  0.00     0.087 C 
ATOM     12  C   UNL A   1      35.297  21.310  24.399  1.00  0.00     0.026 A 
ATOM     13  C   UNL A   1      36.555  21.269  25.037  1.00  0.00     0.033 A 
ATOM     14  C   UNL A   1      34.884  22.634  23.960  1.00  0.00     0.135 A 
ATOM     15  C   UNL A   1      37.295  22.414  25.331  1.00  0.00     0.042 A 
ATOM     16  C   UNL A   1      35.546  23.783  24.485  1.00  0.00     0.019 A 
ATOM     17  O   UNL A   1      33.815  22.955  23.095  1.00  0.00    -0.475 OA
ATOM     18  Cl  UNL A   1      38.796  22.251  26.148  1.00  0.00    -0.084 Cl
ATOM     19  C   UNL A   1      36.782  23.676  25.091  1.00  0.00     0.032 A 
ATOM     20  C   UNL A   1      34.809  25.084  24.571  1.00  0.00     0.027 C 
ATOM     21  C   UNL A   1      33.339  24.392  22.977  1.00  0.00     0.316 C 
BRANCH  12  22
ATOM     22  C   UNL A   1      34.537  20.001  24.698  1.00  0.00    -0.015 A 
ATOM     23  C   UNL A   1      32.655  16.005  25.133  1.00  0.00     0.044 C 
ATOM     24  C   UNL A   1      33.263  17.370  24.934  1.00  0.00    -0.051 A 
ATOM     25  C   UNL A   1      32.528  18.556  25.000  1.00  0.00     0.004 A 
ATOM     26  C   UNL A   1      34.622  17.503  24.691  1.00  0.00     0.004 A 
ATOM     27  C   UNL A   1      33.148  19.842  24.866  1.00  0.00     0.009 A 
ATOM     28  C   UNL A   1      35.234  18.768  24.560  1.00  0.00     0.009 A 
ENDBRANCH  12  22
BRANCH  21  29
ATOM     29  C   UNL A   1      31.941  24.892  22.435  1.00  0.00     0.430 C 
ATOM     30  F   UNL A   1      31.633  26.058  23.095  1.00  0.00    -0.167 F 
ATOM     31  F   UNL A   1      31.961  25.227  21.128  1.00  0.00    -0.167 F 
ATOM     32  F   UNL A   1      30.871  24.107  22.653  1.00  0.00    -0.167 F 
ENDBRANCH  21  29
ENDBRANCH   9  11
ENDBRANCH   8   9
ENDBRANCH   7   8
ENDBRANCH   6   7
ENDBRANCH   5   6
ENDBRANCH   4   5
ENDBRANCH   3   4
ENDBRANCH   2   3
ENDBRANCH   1   2
BRANCH   1  33
ATOM     33  C   UNL A   1      32.809  32.994  27.402  1.00  0.00     0.188 C 
BRANCH  33  34
ATOM     34  O   UNL A   1      34.074  33.642  27.573  1.00  0.00    -0.376 OA
BRANCH  34  35
ATOM     35  C   UNL A   1      34.493  33.722  28.918  1.00  0.00     0.202 C 
BRANCH  35  36
ATOM     36  C   UNL A   1      36.016  33.846  29.016  1.00  0.00     0.261 C 
BRANCH  36  37
ATOM     37  O   UNL A   1      36.602  32.615  28.512  1.00  0.00    -0.460 OA
BRANCH  37  38
ATOM     38  C   UNL A   1      36.426  31.494  29.275  1.00  0.00     0.338 C 
ATOM     39  O   UNL A   1      35.537  31.350  30.098  1.00  0.00    -0.246 OA
BRANCH  38  40
ATOM     40  C   UNL A   1      37.578  30.537  29.102  1.00  0.00     0.060 A 
ATOM     41  C   UNL A   1      37.391  29.146  29.221  1.00  0.00     0.016 A 
ATOM     42  C   UNL A   1      38.880  31.022  29.070  1.00  0.00     0.016 A 
ATOM     43  C   UNL A   1      38.488  28.277  29.458  1.00  0.00     0.010 A 
ATOM     44  C   UNL A   1      39.950  30.162  29.324  1.00  0.00     0.010 A 
ATOM     45  C   UNL A   1      39.784  28.789  29.591  1.00  0.00    -0.014 A 
BRANCH  45  46
ATOM     46  C   UNL A   1      40.966  28.079  30.200  1.00  0.00     0.031 A 
ATOM     47  C   UNL A   1      41.702  27.032  29.380  1.00  0.00     0.074 A 
ATOM     48  C   UNL A   1      41.591  28.660  31.270  1.00  0.00     0.049 A 
ATOM     49  N   UNL A   1      42.866  26.542  29.641  1.00  0.00    -0.248 NA
ATOM     50  C   UNL A   1      41.190  26.466  28.134  1.00  0.00     0.031 C 
ATOM     51  C   UNL A   1      43.016  28.573  31.654  1.00  0.00     0.029 A 
ATOM     52  N   UNL A   1      41.136  29.623  32.173  1.00  0.00    -0.354 N 
ATOM     53  C   UNL A   1      43.387  25.872  28.535  1.00  0.00     0.074 A 
ATOM     54  C   UNL A   1      42.257  25.812  27.643  1.00  0.00     0.031 C 
ATOM     55  C   UNL A   1      43.301  29.372  32.693  1.00  0.00     0.029 A 
ATOM     56  C   UNL A   1      42.038  29.723  33.255  1.00  0.00     0.049 A 
ATOM     57  H   UNL A   1      40.311  30.152  32.071  1.00  0.00     0.167 HD
ATOM     58  C   UNL A   1      44.735  25.554  28.510  1.00  0.00     0.034 A 
ATOM     59  C   UNL A   1      41.642  29.318  34.489  1.00  0.00     0.034 A 
ATOM     60  C   UNL A   1      45.339  25.789  29.846  1.00  0.00     0.049 A 
ATOM     61  C   UNL A   1      42.289  27.917  34.718  1.00  0.00     0.074 A 
ATOM     62  C   UNL A   1      46.471  26.405  30.348  1.00  0.00     0.029 A 
ATOM     63  N   UNL A   1      44.597  25.450  30.982  1.00  0.00    -0.354 N 
ATOM     64  N   UNL A   1      42.713  27.128  33.741  1.00  0.00    -0.248 NA
ATOM     65  C   UNL A   1      42.804  27.442  36.002  1.00  0.00     0.031 C 
ATOM     66  C   UNL A   1      46.266  26.663  31.741  1.00  0.00     0.029 A 
ATOM     67  C   UNL A   1      45.088  26.036  32.128  1.00  0.00     0.049 A 
ATOM     68  H   UNL A   1      43.811  24.857  30.965  1.00  0.00     0.167 HD
ATOM     69  C   UNL A   1      43.695  26.274  34.182  1.00  0.00     0.074 A 
ATOM     70  C   UNL A   1      43.632  26.441  35.630  1.00  0.00     0.031 C 
ATOM     71  C   UNL A   1      44.603  25.570  33.416  1.00  0.00     0.034 A 
BRANCH  58  72
ATOM     72  C   UNL A   1      45.621  25.231  27.264  1.00  0.00     0.023 A 
ATOM     73  C   UNL A   1      46.239  26.277  26.518  1.00  0.00     0.031 A 
ATOM     74  C   UNL A   1      45.830  23.959  26.696  1.00  0.00     0.131 A 
ATOM     75  C   UNL A   1      46.845  26.076  25.249  1.00  0.00     0.055 A 
ATOM     76  C   UNL A   1      46.422  23.751  25.428  1.00  0.00     0.041 A 
ATOM     77  F   UNL A   1      45.454  22.837  27.317  1.00  0.00    -0.206 F 
ATOM     78  C   UNL A   1      46.902  24.813  24.681  1.00  0.00     0.022 A 
BRANCH  75  79
ATOM     79  S   UNL A   1      47.627  27.471  24.365  1.00  0.00     0.124 S 
ATOM     80  O   UNL A   1      46.601  28.505  24.414  1.00  0.00    -0.237 OA
ATOM     81  O   UNL A   1      48.827  27.712  25.158  1.00  0.00    -0.237 OA
ATOM     82  O   UNL A   1      47.882  26.927  23.030  1.00  0.00    -0.744 OA
ENDBRANCH  75  79
ENDBRANCH  58  72
BRANCH  59  83
ATOM     83  C   UNL A   1      40.335  30.050  34.747  1.00  0.00     0.023 A 
ATOM     84  C   UNL A   1      40.496  31.416  35.190  1.00  0.00     0.031 A 
ATOM     85  C   UNL A   1      39.184  29.787  33.982  1.00  0.00     0.131 A 
ATOM     86  C   UNL A   1      39.678  32.458  34.692  1.00  0.00     0.055 A 
ATOM     87  C   UNL A   1      38.351  30.832  33.520  1.00  0.00     0.041 A 
ATOM     88  F   UNL A   1      38.960  28.558  33.492  1.00  0.00    -0.206 F 
ATOM     89  C   UNL A   1      38.624  32.168  33.829  1.00  0.00     0.022 A 
BRANCH  86  90
ATOM     90  S   UNL A   1      40.157  34.224  34.909  1.00  0.00     0.124 S 
ATOM     91  O   UNL A   1      41.597  34.124  35.121  1.00  0.00    -0.237 OA
ATOM     92  O   UNL A   1      39.758  34.860  33.660  1.00  0.00    -0.237 OA
ATOM     93  O   UNL A   1      39.392  34.638  36.088  1.00  0.00    -0.744 OA
ENDBRANCH  86  90
ENDBRANCH  59  83
BRANCH  71  94
ATOM     94  C   UNL A   1      45.107  24.185  33.778  1.00  0.00     0.023 A 
ATOM     95  C   UNL A   1      46.347  24.026  34.376  1.00  0.00     0.031 A 
ATOM     96  C   UNL A   1      44.275  23.024  33.763  1.00  0.00     0.131 A 
ATOM     97  C   UNL A   1      46.745  22.783  34.873  1.00  0.00     0.055 A 
ATOM     98  C   UNL A   1      44.626  21.822  34.371  1.00  0.00     0.041 A 
ATOM     99  F   UNL A   1      43.062  22.996  33.192  1.00  0.00    -0.206 F 
ATOM    100  C   UNL A   1      45.884  21.689  34.923  1.00  0.00     0.022 A 
BRANCH  97 101
ATOM    101  S   UNL A   1      48.468  22.636  35.358  1.00  0.00     0.124 S 
ATOM    102  O   UNL A   1      48.748  23.987  35.842  1.00  0.00    -0.237 OA
ATOM    103  O   UNL A   1      48.418  21.596  36.380  1.00  0.00    -0.237 OA
ATOM    104  O   UNL A   1      49.143  22.266  34.118  1.00  0.00    -0.744 OA
ENDBRANCH  97 101
ENDBRANCH  71  94
ENDBRANCH  45  46
ENDBRANCH  38  40
ENDBRANCH  37  38
ENDBRANCH  36  37
ENDBRANCH  35  36
ENDBRANCH  34  35
ENDBRANCH  33  34
ENDBRANCH   1  33
TORSDOF 25
ENDMDL
MODEL 3
REMARK VINA RESULT:      -9.0      3.390      8.996
REMARK SMILES Cc1ccc(-c2cc(Cl)cc3c2O[C@@H](C(F)(F)F)C(C(=O)OCCOCCOCCOCCOC(=O)c2ccc(-c4c5nc(c(-c6cc(S(=O)(=O)[O-])ccc6F)c6ccc([nH]6)c(-c6cc(S(=O)(=O)[O-])ccc6F)c6nc(c(-c7cc(S(=O)(=O)[O-])ccc7F)c7ccc4[nH]7)C=C6)C=C5)cc2)=C3)cc1
REMARK SMILES IDX 29 1 28 2 27 3 26 4 25 5 24 6 23 7 22 8 20 9 21 10 19 11
REMARK SMILES IDX 6 12 7 13 12 14 8 15 11 16 13 17 9 18 10 19 100 20 14 21
REMARK SMILES IDX 5 22 1 23 2 24 3 25 102 26 4 27 101 28 15 29 16 30 17 31
REMARK SMILES IDX 18 32 30 33 31 34 32 35 33 36 34 37 35 38 36 39 37 40 38 41
REMARK SMILES IDX 99 42 39 43 98 44 40 45 41 46 42 47 92 48 43 49 97 50 91 51
REMARK SMILES IDX 93 52 44 53 96 54 90 55 89 56 45 58 77 59 57 60 76 61 58 62
REMARK SMILES IDX 61 63 75 64 94 65 59 66 60 67 74 69 95 70 62 71 46 72 47 73
REMARK SMILES IDX 55 74 48 75 54 76 56 77 53 78 49 79 50 80 51 81 52 82 78 83
REMARK SMILES IDX 79 84 87 85 80 86 86 87 88 88 85 89 81 90 82 91 83 92 84 93
REMARK SMILES IDX 63 94 64 95 72 96 65 97 71 98 73 99 70 100 66 101 67 102
REMARK SMILES IDX 68 103 69 104
REMARK H PARENT 93 57 61 68
REMARK Flexibility Score: inf
ROOT
ATOM      1  C   UNL A   1      42.840  24.272  25.331  1.00  0.00     0.188 C 
ENDROOT
BRANCH   1   2
ATOM      2  O   UNL A   1      41.710  25.023  25.719  1.00  0.00    -0.377 OA
BRANCH   2   3
ATOM      3  C   UNL A   1      41.776  25.461  27.057  1.00  0.00     0.188 C 
BRANCH   3   4
ATOM      4  C   UNL A   1      40.825  24.737  27.977  1.00  0.00     0.188 C 
BRANCH   4   5
ATOM      5  O   UNL A   1      39.448  25.049  28.134  1.00  0.00    -0.376 OA
BRANCH   5   6
ATOM      6  C   UNL A   1      38.659  24.848  26.947  1.00  0.00     0.202 C 
BRANCH   6   7
ATOM      7  C   UNL A   1      37.848  23.584  26.463  1.00  0.00     0.261 C 
BRANCH   7   8
ATOM      8  O   UNL A   1      36.583  23.742  25.817  1.00  0.00    -0.460 OA
BRANCH   8   9
ATOM      9  C   UNL A   1      35.524  23.024  26.318  1.00  0.00     0.338 C 
ATOM     10  O   UNL A   1      34.779  23.360  27.233  1.00  0.00    -0.246 OA
BRANCH   9  11
ATOM     11  C   UNL A   1      35.134  21.947  25.298  1.00  0.00     0.087 C 
ATOM     12  C   UNL A   1      32.314  24.757  25.665  1.00  0.00     0.026 A 
ATOM     13  C   UNL A   1      31.105  24.334  26.257  1.00  0.00     0.033 A 
ATOM     14  C   UNL A   1      33.113  23.686  25.090  1.00  0.00     0.135 A 
ATOM     15  C   UNL A   1      30.754  22.991  26.389  1.00  0.00     0.042 A 
ATOM     16  C   UNL A   1      32.838  22.335  25.454  1.00  0.00     0.019 A 
ATOM     17  O   UNL A   1      34.229  23.815  24.233  1.00  0.00    -0.475 OA
ATOM     18  Cl  UNL A   1      29.276  22.586  27.164  1.00  0.00    -0.084 Cl
ATOM     19  C   UNL A   1      31.630  21.984  26.023  1.00  0.00     0.032 A 
ATOM     20  C   UNL A   1      33.939  21.321  25.414  1.00  0.00     0.027 C 
ATOM     21  C   UNL A   1      35.123  22.618  23.966  1.00  0.00     0.316 C 
BRANCH  12  22
ATOM     22  C   UNL A   1      32.635  26.189  26.142  1.00  0.00    -0.015 A 
ATOM     23  C   UNL A   1      33.017  30.434  27.378  1.00  0.00     0.044 C 
ATOM     24  C   UNL A   1      32.887  29.010  26.901  1.00  0.00    -0.051 A 
ATOM     25  C   UNL A   1      33.881  28.347  26.177  1.00  0.00     0.004 A 
ATOM     26  C   UNL A   1      31.745  28.277  27.189  1.00  0.00     0.004 A 
ATOM     27  C   UNL A   1      33.750  26.974  25.790  1.00  0.00     0.009 A 
ATOM     28  C   UNL A   1      31.615  26.924  26.809  1.00  0.00     0.009 A 
ENDBRANCH  12  22
BRANCH  21  29
ATOM     29  C   UNL A   1      36.607  22.639  23.420  1.00  0.00     0.430 C 
ATOM     30  F   UNL A   1      36.553  22.420  22.064  1.00  0.00    -0.167 F 
ATOM     31  F   UNL A   1      37.211  23.836  23.556  1.00  0.00    -0.167 F 
ATOM     32  F   UNL A   1      37.448  21.688  23.865  1.00  0.00    -0.167 F 
ENDBRANCH  21  29
ENDBRANCH   9  11
ENDBRANCH   8   9
ENDBRANCH   7   8
ENDBRANCH   6   7
ENDBRANCH   5   6
ENDBRANCH   4   5
ENDBRANCH   3   4
ENDBRANCH   2   3
ENDBRANCH   1   2
BRANCH   1  33
ATOM     33  C   UNL A   1      42.695  22.788  25.449  1.00  0.00     0.188 C 
BRANCH  33  34
ATOM     34  O   UNL A   1      43.859  22.250  24.813  1.00  0.00    -0.376 OA
BRANCH  34  35
ATOM     35  C   UNL A   1      44.829  21.769  25.718  1.00  0.00     0.202 C 
BRANCH  35  36
ATOM     36  C   UNL A   1      46.090  22.637  25.690  1.00  0.00     0.261 C 
BRANCH  36  37
ATOM     37  O   UNL A   1      45.816  23.855  26.435  1.00  0.00    -0.460 OA
BRANCH  37  38
ATOM     38  C   UNL A   1      46.770  24.256  27.328  1.00  0.00     0.338 C 
ATOM     39  O   UNL A   1      47.972  24.119  27.165  1.00  0.00    -0.246 OA
BRANCH  38  40
ATOM     40  C   UNL A   1      46.142  24.717  28.618  1.00  0.00     0.060 A 
ATOM     41  C   UNL A   1      44.860  24.275  29.001  1.00  0.00     0.016 A 
ATOM     42  C   UNL A   1      46.707  25.773  29.323  1.00  0.00     0.016 A 
ATOM     43  C   UNL A   1      44.101  24.981  29.972  1.00  0.00     0.010 A 
ATOM     44  C   UNL A   1      45.945  26.472  30.260  1.00  0.00     0.010 A 
ATOM     45  C   UNL A   1      44.609  26.144  30.563  1.00  0.00    -0.014 A 
BRANCH  45  46
ATOM     46  C   UNL A   1      43.814  27.190  31.300  1.00  0.00     0.031 A 
ATOM     47  C   UNL A   1      42.983  28.183  30.504  1.00  0.00     0.074 A 
ATOM     48  C   UNL A   1      43.527  26.976  32.621  1.00  0.00     0.049 A 
ATOM     49  N   UNL A   1      42.056  28.947  30.973  1.00  0.00    -0.248 NA
ATOM     50  C   UNL A   1      43.102  28.372  29.060  1.00  0.00     0.031 C 
ATOM     51  C   UNL A   1      42.347  27.432  33.385  1.00  0.00     0.029 A 
ATOM     52  N   UNL A   1      44.136  26.138  33.558  1.00  0.00    -0.354 N 
ATOM     53  C   UNL A   1      41.277  29.478  29.946  1.00  0.00     0.074 A 
ATOM     54  C   UNL A   1      42.027  29.123  28.768  1.00  0.00     0.031 C 
ATOM     55  C   UNL A   1      42.336  26.933  34.631  1.00  0.00     0.029 A 
ATOM     56  C   UNL A   1      43.658  26.445  34.851  1.00  0.00     0.049 A 
ATOM     57  H   UNL A   1      44.798  25.440  33.348  1.00  0.00     0.167 HD
ATOM     58  C   UNL A   1      40.057  30.058  30.252  1.00  0.00     0.034 A 
ATOM     59  C   UNL A   1      44.505  26.995  35.758  1.00  0.00     0.034 A 
ATOM     60  C   UNL A   1      39.927  30.223  31.722  1.00  0.00     0.049 A 
ATOM     61  C   UNL A   1      44.165  28.518  35.806  1.00  0.00     0.074 A 
ATOM     62  C   UNL A   1      38.967  29.969  32.686  1.00  0.00     0.029 A 
ATOM     63  N   UNL A   1      41.053  30.619  32.451  1.00  0.00    -0.354 N 
ATOM     64  N   UNL A   1      43.537  29.167  34.837  1.00  0.00    -0.248 NA
ATOM     65  C   UNL A   1      44.193  29.334  37.019  1.00  0.00     0.031 C 
ATOM     66  C   UNL A   1      39.606  29.955  33.967  1.00  0.00     0.029 A 
ATOM     67  C   UNL A   1      40.916  30.387  33.802  1.00  0.00     0.049 A 
ATOM     68  H   UNL A   1      41.854  31.020  32.044  1.00  0.00     0.167 HD
ATOM     69  C   UNL A   1      42.889  30.277  35.322  1.00  0.00     0.074 A 
ATOM     70  C   UNL A   1      43.425  30.391  36.674  1.00  0.00     0.031 C 
ATOM     71  C   UNL A   1      41.872  30.989  34.716  1.00  0.00     0.034 A 
BRANCH  58  72
ATOM     72  C   UNL A   1      38.845  30.305  29.297  1.00  0.00     0.023 A 
ATOM     73  C   UNL A   1      38.095  31.514  29.369  1.00  0.00     0.031 A 
ATOM     74  C   UNL A   1      38.311  29.386  28.372  1.00  0.00     0.131 A 
ATOM     75  C   UNL A   1      36.849  31.699  28.713  1.00  0.00     0.055 A 
ATOM     76  C   UNL A   1      37.065  29.557  27.723  1.00  0.00     0.041 A 
ATOM     77  F   UNL A   1      38.945  28.253  28.054  1.00  0.00    -0.206 F 
ATOM     78  C   UNL A   1      36.310  30.700  27.917  1.00  0.00     0.022 A 
BRANCH  75  79
ATOM     79  S   UNL A   1      35.958  33.289  28.847  1.00  0.00     0.124 S 
ATOM     80  O   UNL A   1      34.963  33.020  29.878  1.00  0.00    -0.237 OA
ATOM     81  O   UNL A   1      37.025  34.217  29.204  1.00  0.00    -0.237 OA
ATOM     82  O   UNL A   1      35.408  33.485  27.505  1.00  0.00    -0.744 OA
ENDBRANCH  75  79
ENDBRANCH  58  72
BRANCH  59  83
ATOM     83  C   UNL A   1      45.714  26.073  35.784  1.00  0.00     0.023 A 
ATOM     84  C   UNL A   1      46.981  26.749  35.630  1.00  0.00     0.031 A 
ATOM     85  C   UNL A   1      45.732  24.912  36.577  1.00  0.00     0.131 A 
ATOM     86  C   UNL A   1      48.108  26.400  36.412  1.00  0.00     0.055 A 
ATOM     87  C   UNL A   1      46.875  24.550  37.326  1.00  0.00     0.041 A 
ATOM     88  F   UNL A   1      44.601  24.231  36.812  1.00  0.00    -0.206 F 
ATOM     89  C   UNL A   1      48.043  25.318  37.287  1.00  0.00     0.022 A 
BRANCH  86  90
ATOM     90  S   UNL A   1      49.562  27.524  36.534  1.00  0.00     0.124 S 
ATOM     91  O   UNL A   1      49.244  28.541  35.536  1.00  0.00    -0.237 OA
ATOM     92  O   UNL A   1      49.543  27.987  37.916  1.00  0.00    -0.237 OA
ATOM     93  O   UNL A   1      50.690  26.657  36.186  1.00  0.00    -0.744 OA
ENDBRANCH  86  90
ENDBRANCH  59  83
BRANCH  71  94
ATOM     94  C   UNL A   1      41.709  32.492  34.846  1.00  0.00     0.023 A 
ATOM     95  C   UNL A   1      42.439  33.347  34.035  1.00  0.00     0.031 A 
ATOM     96  C   UNL A   1      40.658  33.100  35.599  1.00  0.00     0.131 A 
ATOM     97  C   UNL A   1      42.170  34.718  34.021  1.00  0.00     0.055 A 
ATOM     98  C   UNL A   1      40.315  34.444  35.486  1.00  0.00     0.041 A 
ATOM     99  F   UNL A   1      39.883  32.423  36.457  1.00  0.00    -0.206 F 
ATOM    100  C   UNL A   1      41.087  35.273  34.698  1.00  0.00     0.022 A 
BRANCH  97 101
ATOM    101  S   UNL A   1      43.361  35.751  33.158  1.00  0.00     0.124 S 
ATOM    102  O   UNL A   1      43.119  37.051  33.780  1.00  0.00    -0.237 OA
ATOM    103  O   UNL A   1      44.629  35.114  33.496  1.00  0.00    -0.237 OA
ATOM    104  O   UNL A   1      42.956  35.644  31.760  1.00  0.00    -0.744 OA
ENDBRANCH  97 101
ENDBRANCH  71  94
ENDBRANCH  45  46
ENDBRANCH  38  40
ENDBRANCH  37  38
ENDBRANCH  36  37
ENDBRANCH  35  36
ENDBRANCH  34  35
ENDBRANCH  33  34
ENDBRANCH   1  33
TORSDOF 25
ENDMDL
