MODEL 1
REMARK VINA RESULT:      -9.4      0.000      0.000
REMARK SMILES Cc1nn(C)c(=O)c(C(=O)N[C@H]2C=C[C@H](C(=O)OCCOCCOCCOCCOC(=O)c3ccc(-c4c5nc(c(-c6cc(S(=O)(=O)[O-])ccc6F)c6ccc([nH]6)c(-c6cc(S(=O)(=O)[O-])ccc6F)c6nc(c(-c7cc(S(=O)(=O)[O-])ccc7F)c7ccc4[nH]7)C=C6)C=C5)cc3)C2)c1C
REMARK SMILES IDX 25 1 24 2 23 3 22 4 21 5 20 6 19 7 18 8 16 9 17 10 15 11
REMARK SMILES IDX 12 12 13 13 96 14 14 15 11 16 9 17 10 18 8 20 1 21 2 22 3 23
REMARK SMILES IDX 97 24 4 25 98 26 5 27 6 28 7 29 26 30 27 31 28 32 29 33
REMARK SMILES IDX 30 34 31 35 32 36 33 37 34 38 95 39 35 40 94 41 36 42 37 43
REMARK SMILES IDX 38 44 88 45 39 46 93 47 87 48 89 49 40 50 92 51 86 52 85 53
REMARK SMILES IDX 41 55 73 56 53 57 72 58 54 59 57 60 71 61 90 62 55 63 56 64
REMARK SMILES IDX 70 66 91 67 58 68 42 69 43 70 51 71 44 72 50 73 52 74 49 75
REMARK SMILES IDX 45 76 46 77 47 78 48 79 74 80 75 81 83 82 76 83 82 84 84 85
REMARK SMILES IDX 81 86 77 87 78 88 79 89 80 90 59 91 60 92 68 93 61 94 67 95
REMARK SMILES IDX 69 96 66 97 62 98 63 99 64 100 65 101
REMARK H PARENT 11 19 89 54 57 65
REMARK Flexibility Score: inf
ROOT
ATOM      1  C   UNL A   1      42.121  18.544  26.051  1.00  0.00     0.188 C 
ENDROOT
BRANCH   1   2
ATOM      2  O   UNL A   1      41.353  19.537  26.734  1.00  0.00    -0.377 OA
BRANCH   2   3
ATOM      3  C   UNL A   1      41.886  20.839  26.933  1.00  0.00     0.188 C 
BRANCH   3   4
ATOM      4  C   UNL A   1      40.904  21.828  27.564  1.00  0.00     0.188 C 
BRANCH   4   5
ATOM      5  O   UNL A   1      40.303  22.780  26.696  1.00  0.00    -0.376 OA
BRANCH   5   6
ATOM      6  C   UNL A   1      38.933  22.599  26.342  1.00  0.00     0.202 C 
BRANCH   6   7
ATOM      7  C   UNL A   1      38.576  21.449  25.382  1.00  0.00     0.261 C 
BRANCH   7   8
ATOM      8  O   UNL A   1      37.157  21.156  25.342  1.00  0.00    -0.463 OA
BRANCH   8   9
ATOM      9  C   UNL A   1      36.375  22.093  24.764  1.00  0.00     0.312 C 
ATOM     10  O   UNL A   1      36.673  22.692  23.729  1.00  0.00    -0.252 OA
BRANCH   9  11
ATOM     11  C   UNL A   1      34.991  22.293  25.381  1.00  0.00     0.124 C 
ATOM     12  C   UNL A   1      33.522  21.996  27.327  1.00  0.00     0.106 C 
ATOM     13  C   UNL A   1      33.415  20.850  26.376  1.00  0.00    -0.006 C 
ATOM     14  C   UNL A   1      34.685  22.848  26.777  1.00  0.00     0.048 C 
ATOM     15  C   UNL A   1      34.218  21.003  25.322  1.00  0.00    -0.014 C 
BRANCH  12  16
ATOM     16  N   UNL A   1      32.184  22.560  27.496  1.00  0.00    -0.346 N 
ATOM     17  C   UNL A   1      31.378  23.483  26.897  1.00  0.00     0.257 C 
ATOM     18  O   UNL A   1      30.197  23.514  27.247  1.00  0.00    -0.269 OA
ATOM     19  H   UNL A   1      31.731  22.156  28.271  1.00  0.00     0.164 HD
BRANCH  17  20
ATOM     20  C   UNL A   1      31.880  24.417  25.862  1.00  0.00     0.111 A 
ATOM     21  C   UNL A   1      33.665  24.536  22.651  1.00  0.00     0.069 C 
ATOM     22  C   UNL A   1      32.692  25.017  23.707  1.00  0.00     0.062 A 
ATOM     23  N   UNL A   1      32.638  26.295  23.885  1.00  0.00    -0.175 NA
ATOM     24  C   UNL A   1      31.971  24.044  24.572  1.00  0.00    -0.010 A 
ATOM     25  N   UNL A   1      31.980  26.717  25.002  1.00  0.00    -0.232 N 
ATOM     26  C   UNL A   1      31.357  22.828  23.960  1.00  0.00     0.047 C 
ATOM     27  C   UNL A   1      31.623  28.122  25.013  1.00  0.00     0.178 C 
ATOM     28  C   UNL A   1      31.780  25.900  26.114  1.00  0.00     0.279 A 
ATOM     29  O   UNL A   1      31.448  26.336  27.215  1.00  0.00    -0.267 OA
ENDBRANCH  17  20
ENDBRANCH  12  16
ENDBRANCH   9  11
ENDBRANCH   8   9
ENDBRANCH   7   8
ENDBRANCH   6   7
ENDBRANCH   5   6
ENDBRANCH   4   5
ENDBRANCH   3   4
ENDBRANCH   2   3
ENDBRANCH   1   2
BRANCH   1  30
ATOM     30  C   UNL A   1      43.591  18.442  26.447  1.00  0.00     0.188 C 
BRANCH  30  31
ATOM     31  O   UNL A   1      44.517  18.236  25.377  1.00  0.00    -0.376 OA
BRANCH  31  32
ATOM     32  C   UNL A   1      45.786  18.883  25.445  1.00  0.00     0.202 C 
BRANCH  32  33
ATOM     33  C   UNL A   1      45.900  20.206  24.690  1.00  0.00     0.261 C 
BRANCH  33  34
ATOM     34  O   UNL A   1      45.203  21.270  25.349  1.00  0.00    -0.460 OA
BRANCH  34  35
ATOM     35  C   UNL A   1      44.628  22.171  24.520  1.00  0.00     0.338 C 
ATOM     36  O   UNL A   1      44.363  22.022  23.334  1.00  0.00    -0.246 OA
BRANCH  35  37
ATOM     37  C   UNL A   1      44.200  23.336  25.304  1.00  0.00     0.060 A 
ATOM     38  C   UNL A   1      43.711  24.462  24.628  1.00  0.00     0.016 A 
ATOM     39  C   UNL A   1      44.361  23.344  26.691  1.00  0.00     0.016 A 
ATOM     40  C   UNL A   1      43.421  25.622  25.336  1.00  0.00     0.010 A 
ATOM     41  C   UNL A   1      44.097  24.515  27.396  1.00  0.00     0.010 A 
ATOM     42  C   UNL A   1      43.669  25.665  26.711  1.00  0.00    -0.014 A 
BRANCH  42  43
ATOM     43  C   UNL A   1      43.698  26.970  27.397  1.00  0.00     0.031 A 
ATOM     44  C   UNL A   1      45.023  27.661  27.540  1.00  0.00     0.074 A 
ATOM     45  C   UNL A   1      42.564  27.530  27.845  1.00  0.00     0.049 A 
ATOM     46  N   UNL A   1      45.319  28.758  28.181  1.00  0.00    -0.248 NA
ATOM     47  C   UNL A   1      46.170  27.026  26.866  1.00  0.00     0.031 C 
ATOM     48  C   UNL A   1      41.222  26.974  27.672  1.00  0.00     0.029 A 
ATOM     49  N   UNL A   1      42.363  28.693  28.539  1.00  0.00    -0.354 N 
ATOM     50  C   UNL A   1      46.683  28.946  27.991  1.00  0.00     0.074 A 
ATOM     51  C   UNL A   1      47.164  27.833  27.203  1.00  0.00     0.031 C 
ATOM     52  C   UNL A   1      40.334  27.799  28.250  1.00  0.00     0.029 A 
ATOM     53  C   UNL A   1      41.049  28.910  28.874  1.00  0.00     0.049 A 
ATOM     54  H   UNL A   1      43.090  29.313  28.775  1.00  0.00     0.167 HD
ATOM     55  C   UNL A   1      47.458  29.964  28.432  1.00  0.00     0.034 A 
ATOM     56  C   UNL A   1      40.499  29.883  29.625  1.00  0.00     0.034 A 
ATOM     57  C   UNL A   1      46.953  31.054  29.227  1.00  0.00     0.049 A 
ATOM     58  C   UNL A   1      41.398  30.943  30.207  1.00  0.00     0.074 A 
ATOM     59  C   UNL A   1      47.645  32.129  29.752  1.00  0.00     0.029 A 
ATOM     60  N   UNL A   1      45.627  31.203  29.612  1.00  0.00    -0.354 N 
ATOM     61  N   UNL A   1      42.697  31.086  30.072  1.00  0.00    -0.248 NA
ATOM     62  C   UNL A   1      40.761  31.969  31.040  1.00  0.00     0.031 C 
ATOM     63  C   UNL A   1      46.752  32.892  30.510  1.00  0.00     0.029 A 
ATOM     64  C   UNL A   1      45.485  32.338  30.392  1.00  0.00     0.049 A 
ATOM     65  H   UNL A   1      44.895  30.592  29.369  1.00  0.00     0.167 HD
ATOM     66  C   UNL A   1      43.029  32.236  30.780  1.00  0.00     0.074 A 
ATOM     67  C   UNL A   1      41.793  32.748  31.339  1.00  0.00     0.031 C 
ATOM     68  C   UNL A   1      44.242  32.823  30.945  1.00  0.00     0.034 A 
BRANCH  55  69
ATOM     69  C   UNL A   1      48.926  29.920  28.104  1.00  0.00     0.023 A 
ATOM     70  C   UNL A   1      49.501  30.798  27.169  1.00  0.00     0.031 A 
ATOM     71  C   UNL A   1      49.767  28.991  28.743  1.00  0.00     0.131 A 
ATOM     72  C   UNL A   1      50.869  30.705  26.872  1.00  0.00     0.055 A 
ATOM     73  C   UNL A   1      51.138  28.946  28.491  1.00  0.00     0.041 A 
ATOM     74  F   UNL A   1      49.266  28.111  29.625  1.00  0.00    -0.206 F 
ATOM     75  C   UNL A   1      51.696  29.802  27.546  1.00  0.00     0.022 A 
BRANCH  72  76
ATOM     76  S   UNL A   1      51.539  31.725  25.532  1.00  0.00     0.124 S 
ATOM     77  O   UNL A   1      50.496  32.735  25.380  1.00  0.00    -0.237 OA
ATOM     78  O   UNL A   1      52.803  32.192  26.091  1.00  0.00    -0.237 OA
ATOM     79  O   UNL A   1      51.661  30.789  24.417  1.00  0.00    -0.744 OA
ENDBRANCH  72  76
ENDBRANCH  55  69
BRANCH  56  80
ATOM     80  C   UNL A   1      39.032  29.884  29.877  1.00  0.00     0.023 A 
ATOM     81  C   UNL A   1      38.170  30.662  29.091  1.00  0.00     0.031 A 
ATOM     82  C   UNL A   1      38.470  29.090  30.893  1.00  0.00     0.131 A 
ATOM     83  C   UNL A   1      36.790  30.641  29.342  1.00  0.00     0.055 A 
ATOM     84  C   UNL A   1      37.094  29.044  31.115  1.00  0.00     0.041 A 
ATOM     85  F   UNL A   1      39.255  28.322  31.666  1.00  0.00    -0.206 F 
ATOM     86  C   UNL A   1      36.245  29.827  30.339  1.00  0.00     0.022 A 
BRANCH  83  87
ATOM     87  S   UNL A   1      35.713  31.712  28.354  1.00  0.00     0.124 S 
ATOM     88  O   UNL A   1      36.611  32.811  28.021  1.00  0.00    -0.237 OA
ATOM     89  O   UNL A   1      35.337  30.832  27.252  1.00  0.00    -0.237 OA
ATOM     90  O   UNL A   1      34.628  32.047  29.276  1.00  0.00    -0.744 OA
ENDBRANCH  83  87
ENDBRANCH  56  80
BRANCH  68  91
ATOM     91  C   UNL A   1      44.290  34.106  31.732  1.00  0.00     0.023 A 
ATOM     92  C   UNL A   1      44.650  34.126  33.088  1.00  0.00     0.031 A 
ATOM     93  C   UNL A   1      44.020  35.331  31.096  1.00  0.00     0.131 A 
ATOM     94  C   UNL A   1      44.696  35.347  33.777  1.00  0.00     0.055 A 
ATOM     95  C   UNL A   1      44.122  36.547  31.772  1.00  0.00     0.041 A 
ATOM     96  F   UNL A   1      43.675  35.366  29.799  1.00  0.00    -0.206 F 
ATOM     97  C   UNL A   1      44.454  36.558  33.123  1.00  0.00     0.022 A 
BRANCH  94  98
ATOM     98  S   UNL A   1      45.028  35.327  35.559  1.00  0.00     0.124 S 
ATOM     99  O   UNL A   1      46.460  35.047  35.596  1.00  0.00    -0.237 OA
ATOM    100  O   UNL A   1      44.630  36.671  35.968  1.00  0.00    -0.237 OA
ATOM    101  O   UNL A   1      44.173  34.251  36.056  1.00  0.00    -0.744 OA
ENDBRANCH  94  98
ENDBRANCH  68  91
ENDBRANCH  42  43
ENDBRANCH  35  37
ENDBRANCH  34  35
ENDBRANCH  33  34
ENDBRANCH  32  33
ENDBRANCH  31  32
ENDBRANCH  30  31
ENDBRANCH   1  30
TORSDOF 25
ENDMDL
MODEL 2
REMARK VINA RESULT:      -8.8      2.603      7.792
REMARK SMILES Cc1nn(C)c(=O)c(C(=O)N[C@H]2C=C[C@H](C(=O)OCCOCCOCCOCCOC(=O)c3ccc(-c4c5nc(c(-c6cc(S(=O)(=O)[O-])ccc6F)c6ccc([nH]6)c(-c6cc(S(=O)(=O)[O-])ccc6F)c6nc(c(-c7cc(S(=O)(=O)[O-])ccc7F)c7ccc4[nH]7)C=C6)C=C5)cc3)C2)c1C
REMARK SMILES IDX 25 1 24 2 23 3 22 4 21 5 20 6 19 7 18 8 16 9 17 10 15 11
REMARK SMILES IDX 12 12 13 13 96 14 14 15 11 16 9 17 10 18 8 20 1 21 2 22 3 23
REMARK SMILES IDX 97 24 4 25 98 26 5 27 6 28 7 29 26 30 27 31 28 32 29 33
REMARK SMILES IDX 30 34 31 35 32 36 33 37 34 38 95 39 35 40 94 41 36 42 37 43
REMARK SMILES IDX 38 44 88 45 39 46 93 47 87 48 89 49 40 50 92 51 86 52 85 53
REMARK SMILES IDX 41 55 73 56 53 57 72 58 54 59 57 60 71 61 90 62 55 63 56 64
REMARK SMILES IDX 70 66 91 67 58 68 42 69 43 70 51 71 44 72 50 73 52 74 49 75
REMARK SMILES IDX 45 76 46 77 47 78 48 79 74 80 75 81 83 82 76 83 82 84 84 85
REMARK SMILES IDX 81 86 77 87 78 88 79 89 80 90 59 91 60 92 68 93 61 94 67 95
REMARK SMILES IDX 69 96 66 97 62 98 63 99 64 100 65 101
REMARK H PARENT 11 19 89 54 57 65
REMARK Flexibility Score: inf
ROOT
ATOM      1  C   UNL A   1      40.574  25.185  28.486  1.00  0.00     0.188 C 
ENDROOT
BRANCH   1   2
ATOM      2  O   UNL A   1      40.258  25.842  27.257  1.00  0.00    -0.377 OA
BRANCH   2   3
ATOM      3  C   UNL A   1      39.711  25.103  26.174  1.00  0.00     0.188 C 
BRANCH   3   4
ATOM      4  C   UNL A   1      38.540  24.198  26.559  1.00  0.00     0.188 C 
BRANCH   4   5
ATOM      5  O   UNL A   1      38.736  22.797  26.422  1.00  0.00    -0.376 OA
BRANCH   5   6
ATOM      6  C   UNL A   1      38.031  22.115  25.387  1.00  0.00     0.202 C 
BRANCH   6   7
ATOM      7  C   UNL A   1      36.911  22.872  24.648  1.00  0.00     0.261 C 
BRANCH   7   8
ATOM      8  O   UNL A   1      35.989  21.996  23.954  1.00  0.00    -0.463 OA
BRANCH   8   9
ATOM      9  C   UNL A   1      34.984  21.484  24.698  1.00  0.00     0.312 C 
ATOM     10  O   UNL A   1      34.954  20.321  25.102  1.00  0.00    -0.252 OA
BRANCH   9  11
ATOM     11  C   UNL A   1      33.914  22.473  25.160  1.00  0.00     0.124 C 
ATOM     12  C   UNL A   1      32.398  23.206  26.947  1.00  0.00     0.106 C 
ATOM     13  C   UNL A   1      31.732  22.243  26.021  1.00  0.00    -0.006 C 
ATOM     14  C   UNL A   1      33.875  23.215  26.501  1.00  0.00     0.048 C 
ATOM     15  C   UNL A   1      32.555  21.835  25.054  1.00  0.00    -0.014 C 
BRANCH  12  16
ATOM     16  N   UNL A   1      31.603  24.433  26.960  1.00  0.00    -0.346 N 
ATOM     17  C   UNL A   1      31.344  25.494  26.143  1.00  0.00     0.257 C 
ATOM     18  O   UNL A   1      30.420  26.243  26.464  1.00  0.00    -0.269 OA
ATOM     19  H   UNL A   1      31.110  24.520  27.808  1.00  0.00     0.164 HD
BRANCH  17  20
ATOM     20  C   UNL A   1      32.125  25.752  24.911  1.00  0.00     0.111 A 
ATOM     21  C   UNL A   1      33.107  24.249  21.703  1.00  0.00     0.069 C 
ATOM     22  C   UNL A   1      32.782  25.383  22.654  1.00  0.00     0.062 A 
ATOM     23  N   UNL A   1      33.515  26.440  22.543  1.00  0.00    -0.175 NA
ATOM     24  C   UNL A   1      31.776  25.200  23.735  1.00  0.00    -0.010 A 
ATOM     25  N   UNL A   1      33.415  27.348  23.556  1.00  0.00    -0.232 N 
ATOM     26  C   UNL A   1      30.480  24.525  23.428  1.00  0.00     0.047 C 
ATOM     27  C   UNL A   1      33.955  28.660  23.264  1.00  0.00     0.178 C 
ATOM     28  C   UNL A   1      32.953  27.009  24.829  1.00  0.00     0.279 A 
ATOM     29  O   UNL A   1      33.118  27.727  25.813  1.00  0.00    -0.267 OA
ENDBRANCH  17  20
ENDBRANCH  12  16
ENDBRANCH   9  11
ENDBRANCH   8   9
ENDBRANCH   7   8
ENDBRANCH   6   7
ENDBRANCH   5   6
ENDBRANCH   4   5
ENDBRANCH   3   4
ENDBRANCH   2   3
ENDBRANCH   1   2
BRANCH   1  30
ATOM     30  C   UNL A   1      42.049  24.872  28.719  1.00  0.00     0.188 C 
BRANCH  30  31
ATOM     31  O   UNL A   1      42.369  23.498  28.956  1.00  0.00    -0.376 OA
BRANCH  31  32
ATOM     32  C   UNL A   1      42.006  22.537  27.967  1.00  0.00     0.202 C 
BRANCH  32  33
ATOM     33  C   UNL A   1      42.506  22.819  26.552  1.00  0.00     0.261 C 
BRANCH  33  34
ATOM     34  O   UNL A   1      43.933  22.945  26.494  1.00  0.00    -0.460 OA
BRANCH  34  35
ATOM     35  C   UNL A   1      44.397  23.654  25.441  1.00  0.00     0.338 C 
ATOM     36  O   UNL A   1      44.395  23.319  24.263  1.00  0.00    -0.246 OA
BRANCH  35  37
ATOM     37  C   UNL A   1      44.770  24.999  25.898  1.00  0.00     0.060 A 
ATOM     38  C   UNL A   1      45.307  25.149  27.185  1.00  0.00     0.016 A 
ATOM     39  C   UNL A   1      44.511  26.109  25.092  1.00  0.00     0.016 A 
ATOM     40  C   UNL A   1      45.547  26.421  27.688  1.00  0.00     0.010 A 
ATOM     41  C   UNL A   1      44.727  27.384  25.609  1.00  0.00     0.010 A 
ATOM     42  C   UNL A   1      45.203  27.538  26.922  1.00  0.00    -0.014 A 
BRANCH  42  43
ATOM     43  C   UNL A   1      45.127  28.861  27.569  1.00  0.00     0.031 A 
ATOM     44  C   UNL A   1      43.824  29.264  28.195  1.00  0.00     0.074 A 
ATOM     45  C   UNL A   1      46.206  29.657  27.623  1.00  0.00     0.049 A 
ATOM     46  N   UNL A   1      43.482  30.403  28.734  1.00  0.00    -0.248 NA
ATOM     47  C   UNL A   1      42.761  28.243  28.216  1.00  0.00     0.031 C 
ATOM     48  C   UNL A   1      47.535  29.311  27.121  1.00  0.00     0.029 A 
ATOM     49  N   UNL A   1      46.351  30.922  28.125  1.00  0.00    -0.354 N 
ATOM     50  C   UNL A   1      42.168  30.238  29.156  1.00  0.00     0.074 A 
ATOM     51  C   UNL A   1      41.762  28.902  28.782  1.00  0.00     0.031 C 
ATOM     52  C   UNL A   1      48.363  30.346  27.339  1.00  0.00     0.029 A 
ATOM     53  C   UNL A   1      47.610  31.440  27.948  1.00  0.00     0.049 A 
ATOM     54  H   UNL A   1      45.623  31.413  28.569  1.00  0.00     0.167 HD
ATOM     55  C   UNL A   1      41.379  31.126  29.805  1.00  0.00     0.034 A 
ATOM     56  C   UNL A   1      48.085  32.670  28.224  1.00  0.00     0.034 A 
ATOM     57  C   UNL A   1      41.807  32.455  30.154  1.00  0.00     0.049 A 
ATOM     58  C   UNL A   1      47.154  33.683  28.838  1.00  0.00     0.074 A 
ATOM     59  C   UNL A   1      41.090  33.451  30.790  1.00  0.00     0.029 A 
ATOM     60  N   UNL A   1      43.069  32.974  29.892  1.00  0.00    -0.354 N 
ATOM     61  N   UNL A   1      45.895  33.541  29.184  1.00  0.00    -0.248 NA
ATOM     62  C   UNL A   1      47.704  35.018  29.098  1.00  0.00     0.031 C 
ATOM     63  C   UNL A   1      41.893  34.593  30.851  1.00  0.00     0.029 A 
ATOM     64  C   UNL A   1      43.141  34.286  30.328  1.00  0.00     0.049 A 
ATOM     65  H   UNL A   1      43.803  32.483  29.459  1.00  0.00     0.167 HD
ATOM     66  C   UNL A   1      45.509  34.761  29.730  1.00  0.00     0.074 A 
ATOM     67  C   UNL A   1      46.672  35.626  29.669  1.00  0.00     0.031 C 
ATOM     68  C   UNL A   1      44.309  35.131  30.246  1.00  0.00     0.034 A 
BRANCH  55  69
ATOM     69  C   UNL A   1      39.972  30.702  30.134  1.00  0.00     0.023 A 
ATOM     70  C   UNL A   1      38.884  31.062  29.321  1.00  0.00     0.031 A 
ATOM     71  C   UNL A   1      39.717  29.917  31.272  1.00  0.00     0.131 A 
ATOM     72  C   UNL A   1      37.586  30.668  29.678  1.00  0.00     0.055 A 
ATOM     73  C   UNL A   1      38.431  29.475  31.587  1.00  0.00     0.041 A 
ATOM     74  F   UNL A   1      40.716  29.567  32.098  1.00  0.00    -0.206 F 
ATOM     75  C   UNL A   1      37.355  29.856  30.791  1.00  0.00     0.022 A 
BRANCH  72  76
ATOM     76  S   UNL A   1      36.188  31.302  28.711  1.00  0.00     0.124 S 
ATOM     77  O   UNL A   1      36.695  32.600  28.276  1.00  0.00    -0.237 OA
ATOM     78  O   UNL A   1      36.040  30.293  27.669  1.00  0.00    -0.237 OA
ATOM     79  O   UNL A   1      35.098  31.359  29.683  1.00  0.00    -0.744 OA
ENDBRANCH  72  76
ENDBRANCH  55  69
BRANCH  56  80
ATOM     80  C   UNL A   1      49.499  33.007  27.905  1.00  0.00     0.023 A 
ATOM     81  C   UNL A   1      49.846  33.536  26.654  1.00  0.00     0.031 A 
ATOM     82  C   UNL A   1      50.520  32.824  28.855  1.00  0.00     0.131 A 
ATOM     83  C   UNL A   1      51.184  33.853  26.378  1.00  0.00     0.055 A 
ATOM     84  C   UNL A   1      51.843  33.176  28.590  1.00  0.00     0.041 A 
ATOM     85  F   UNL A   1      50.235  32.328  30.070  1.00  0.00    -0.206 F 
ATOM     86  C   UNL A   1      52.183  33.690  27.342  1.00  0.00     0.022 A 
BRANCH  83  87
ATOM     87  S   UNL A   1      51.607  34.468  24.726  1.00  0.00     0.124 S 
ATOM     88  O   UNL A   1      52.909  35.081  24.962  1.00  0.00    -0.237 OA
ATOM     89  O   UNL A   1      51.606  33.241  23.936  1.00  0.00    -0.237 OA
ATOM     90  O   UNL A   1      50.522  35.400  24.423  1.00  0.00    -0.744 OA
ENDBRANCH  83  87
ENDBRANCH  56  80
BRANCH  68  91
ATOM     91  C   UNL A   1      44.200  36.519  30.820  1.00  0.00     0.023 A 
ATOM     92  C   UNL A   1      43.860  37.621  30.021  1.00  0.00     0.031 A 
ATOM     93  C   UNL A   1      44.389  36.727  32.198  1.00  0.00     0.131 A 
ATOM     94  C   UNL A   1      43.754  38.894  30.601  1.00  0.00     0.055 A 
ATOM     95  C   UNL A   1      44.227  37.985  32.779  1.00  0.00     0.041 A 
ATOM     96  F   UNL A   1      44.712  35.704  33.006  1.00  0.00    -0.206 F 
ATOM     97  C   UNL A   1      43.916  39.079  31.977  1.00  0.00     0.022 A 
BRANCH  94  98
ATOM     98  S   UNL A   1      43.452  40.319  29.522  1.00  0.00     0.124 S 
ATOM     99  O   UNL A   1      43.482  39.705  28.197  1.00  0.00    -0.237 OA
ATOM    100  O   UNL A   1      42.146  40.787  29.978  1.00  0.00    -0.237 OA
ATOM    101  O   UNL A   1      44.567  41.215  29.816  1.00  0.00    -0.744 OA
ENDBRANCH  94  98
ENDBRANCH  68  91
ENDBRANCH  42  43
ENDBRANCH  35  37
ENDBRANCH  34  35
ENDBRANCH  33  34
ENDBRANCH  32  33
ENDBRANCH  31  32
ENDBRANCH  30  31
ENDBRANCH   1  30
TORSDOF 25
ENDMDL
MODEL 3
REMARK VINA RESULT:      -8.8      2.719      3.419
REMARK SMILES Cc1nn(C)c(=O)c(C(=O)N[C@H]2C=C[C@H](C(=O)OCCOCCOCCOCCOC(=O)c3ccc(-c4c5nc(c(-c6cc(S(=O)(=O)[O-])ccc6F)c6ccc([nH]6)c(-c6cc(S(=O)(=O)[O-])ccc6F)c6nc(c(-c7cc(S(=O)(=O)[O-])ccc7F)c7ccc4[nH]7)C=C6)C=C5)cc3)C2)c1C
REMARK SMILES IDX 25 1 24 2 23 3 22 4 21 5 20 6 19 7 18 8 16 9 17 10 15 11
REMARK SMILES IDX 12 12 13 13 96 14 14 15 11 16 9 17 10 18 8 20 1 21 2 22 3 23
REMARK SMILES IDX 97 24 4 25 98 26 5 27 6 28 7 29 26 30 27 31 28 32 29 33
REMARK SMILES IDX 30 34 31 35 32 36 33 37 34 38 95 39 35 40 94 41 36 42 37 43
REMARK SMILES IDX 38 44 88 45 39 46 93 47 87 48 89 49 40 50 92 51 86 52 85 53
REMARK SMILES IDX 41 55 73 56 53 57 72 58 54 59 57 60 71 61 90 62 55 63 56 64
REMARK SMILES IDX 70 66 91 67 58 68 42 69 43 70 51 71 44 72 50 73 52 74 49 75
REMARK SMILES IDX 45 76 46 77 47 78 48 79 74 80 75 81 83 82 76 83 82 84 84 85
REMARK SMILES IDX 81 86 77 87 78 88 79 89 80 90 59 91 60 92 68 93 61 94 67 95
REMARK SMILES IDX 69 96 66 97 62 98 63 99 64 100 65 101
REMARK H PARENT 11 19 89 54 57 65
REMARK Flexibility Score: inf
ROOT
ATOM      1  C   UNL A   1      40.834  20.492  26.985  1.00  0.00     0.188 C 
ENDROOT
BRANCH   1   2
ATOM      2  O   UNL A   1      39.868  21.533  27.140  1.00  0.00    -0.377 OA
BRANCH   2   3
ATOM      3  C   UNL A   1      39.996  22.742  26.405  1.00  0.00     0.188 C 
BRANCH   3   4
ATOM      4  C   UNL A   1      38.918  23.782  26.714  1.00  0.00     0.188 C 
BRANCH   4   5
ATOM      5  O   UNL A   1      37.795  23.823  25.844  1.00  0.00    -0.376 OA
BRANCH   5   6
ATOM      6  C   UNL A   1      36.795  22.815  25.985  1.00  0.00     0.202 C 
BRANCH   6   7
ATOM      7  C   UNL A   1      36.662  21.761  24.870  1.00  0.00     0.261 C 
BRANCH   7   8
ATOM      8  O   UNL A   1      35.367  21.775  24.221  1.00  0.00    -0.463 OA
BRANCH   8   9
ATOM      9  C   UNL A   1      35.028  22.927  23.602  1.00  0.00     0.312 C 
ATOM     10  O   UNL A   1      35.693  23.444  22.703  1.00  0.00    -0.252 OA
BRANCH   9  11
ATOM     11  C   UNL A   1      33.666  23.517  23.969  1.00  0.00     0.124 C 
ATOM     12  C   UNL A   1      31.398  23.127  24.825  1.00  0.00     0.106 C 
ATOM     13  C   UNL A   1      31.447  23.037  23.336  1.00  0.00    -0.006 C 
ATOM     14  C   UNL A   1      32.874  23.252  25.255  1.00  0.00     0.048 C 
ATOM     15  C   UNL A   1      32.680  23.239  22.867  1.00  0.00    -0.014 C 
BRANCH  12  16
ATOM     16  N   UNL A   1      30.416  24.152  25.177  1.00  0.00    -0.346 N 
ATOM     17  C   UNL A   1      30.303  25.511  25.157  1.00  0.00     0.257 C 
ATOM     18  O   UNL A   1      29.186  25.988  25.360  1.00  0.00    -0.269 OA
ATOM     19  H   UNL A   1      29.597  23.741  25.535  1.00  0.00     0.164 HD
BRANCH  17  20
ATOM     20  C   UNL A   1      31.462  26.397  24.898  1.00  0.00     0.111 A 
ATOM     21  C   UNL A   1      33.888  27.355  22.307  1.00  0.00     0.069 C 
ATOM     22  C   UNL A   1      33.025  27.564  23.535  1.00  0.00     0.062 A 
ATOM     23  N   UNL A   1      33.557  28.255  24.487  1.00  0.00    -0.175 NA
ATOM     24  C   UNL A   1      31.713  26.874  23.665  1.00  0.00    -0.010 A 
ATOM     25  N   UNL A   1      32.909  28.220  25.687  1.00  0.00    -0.232 N 
ATOM     26  C   UNL A   1      30.781  26.840  22.499  1.00  0.00     0.047 C 
ATOM     27  C   UNL A   1      33.300  29.252  26.628  1.00  0.00     0.178 C 
ATOM     28  C   UNL A   1      32.035  27.193  26.042  1.00  0.00     0.279 A 
ATOM     29  O   UNL A   1      31.669  26.997  27.199  1.00  0.00    -0.267 OA
ENDBRANCH  17  20
ENDBRANCH  12  16
ENDBRANCH   9  11
ENDBRANCH   8   9
ENDBRANCH   7   8
ENDBRANCH   6   7
ENDBRANCH   5   6
ENDBRANCH   4   5
ENDBRANCH   3   4
ENDBRANCH   2   3
ENDBRANCH   1   2
BRANCH   1  30
ATOM     30  C   UNL A   1      42.279  20.942  26.789  1.00  0.00     0.188 C 
BRANCH  30  31
ATOM     31  O   UNL A   1      42.828  20.738  25.483  1.00  0.00    -0.376 OA
BRANCH  31  32
ATOM     32  C   UNL A   1      44.059  21.381  25.158  1.00  0.00     0.202 C 
BRANCH  32  33
ATOM     33  C   UNL A   1      44.016  22.907  25.098  1.00  0.00     0.261 C 
BRANCH  33  34
ATOM     34  O   UNL A   1      45.059  23.511  25.873  1.00  0.00    -0.460 OA
BRANCH  34  35
ATOM     35  C   UNL A   1      45.567  24.650  25.351  1.00  0.00     0.338 C 
ATOM     36  O   UNL A   1      46.239  24.764  24.335  1.00  0.00    -0.246 OA
BRANCH  35  37
ATOM     37  C   UNL A   1      45.045  25.796  26.108  1.00  0.00     0.060 A 
ATOM     38  C   UNL A   1      44.345  26.797  25.421  1.00  0.00     0.016 A 
ATOM     39  C   UNL A   1      45.322  25.918  27.471  1.00  0.00     0.016 A 
ATOM     40  C   UNL A   1      43.954  27.950  26.089  1.00  0.00     0.010 A 
ATOM     41  C   UNL A   1      44.955  27.086  28.133  1.00  0.00     0.010 A 
ATOM     42  C   UNL A   1      44.310  28.118  27.431  1.00  0.00    -0.014 A 
BRANCH  42  43
ATOM     43  C   UNL A   1      44.211  29.458  28.039  1.00  0.00     0.031 A 
ATOM     44  C   UNL A   1      45.362  30.404  27.850  1.00  0.00     0.074 A 
ATOM     45  C   UNL A   1      43.108  29.822  28.710  1.00  0.00     0.049 A 
ATOM     46  N   UNL A   1      45.552  31.588  28.363  1.00  0.00    -0.248 NA
ATOM     47  C   UNL A   1      46.445  29.950  26.959  1.00  0.00     0.031 C 
ATOM     48  C   UNL A   1      41.908  29.002  28.869  1.00  0.00     0.029 A 
ATOM     49  N   UNL A   1      42.822  30.978  29.385  1.00  0.00    -0.354 N 
ATOM     50  C   UNL A   1      46.773  32.022  27.861  1.00  0.00     0.074 A 
ATOM     51  C   UNL A   1      47.296  30.961  27.030  1.00  0.00     0.031 C 
ATOM     52  C   UNL A   1      41.011  29.685  29.600  1.00  0.00     0.029 A 
ATOM     53  C   UNL A   1      41.594  30.963  30.000  1.00  0.00     0.049 A 
ATOM     54  H   UNL A   1      43.435  31.746  29.425  1.00  0.00     0.167 HD
ATOM     55  C   UNL A   1      47.393  33.206  28.074  1.00  0.00     0.034 A 
ATOM     56  C   UNL A   1      41.026  31.870  30.817  1.00  0.00     0.034 A 
ATOM     57  C   UNL A   1      46.853  34.240  28.918  1.00  0.00     0.049 A 
ATOM     58  C   UNL A   1      41.786  33.131  31.137  1.00  0.00     0.074 A 
ATOM     59  C   UNL A   1      47.401  35.471  29.228  1.00  0.00     0.029 A 
ATOM     60  N   UNL A   1      45.639  34.160  29.588  1.00  0.00    -0.354 N 
ATOM     61  N   UNL A   1      42.967  33.513  30.705  1.00  0.00    -0.248 NA
ATOM     62  C   UNL A   1      41.142  34.081  32.051  1.00  0.00     0.031 C 
ATOM     63  C   UNL A   1      46.551  36.106  30.139  1.00  0.00     0.029 A 
ATOM     64  C   UNL A   1      45.433  35.308  30.333  1.00  0.00     0.049 A 
ATOM     65  H   UNL A   1      45.017  33.399  29.541  1.00  0.00     0.167 HD
ATOM     66  C   UNL A   1      43.195  34.762  31.273  1.00  0.00     0.074 A 
ATOM     67  C   UNL A   1      42.027  35.069  32.077  1.00  0.00     0.031 C 
ATOM     68  C   UNL A   1      44.265  35.586  31.135  1.00  0.00     0.034 A 
BRANCH  55  69
ATOM     69  C   UNL A   1      48.733  33.421  27.423  1.00  0.00     0.023 A 
ATOM     70  C   UNL A   1      49.929  33.029  28.049  1.00  0.00     0.031 A 
ATOM     71  C   UNL A   1      48.817  34.018  26.152  1.00  0.00     0.131 A 
ATOM     72  C   UNL A   1      51.159  33.272  27.419  1.00  0.00     0.055 A 
ATOM     73  C   UNL A   1      50.038  34.199  25.504  1.00  0.00     0.041 A 
ATOM     74  F   UNL A   1      47.708  34.436  25.521  1.00  0.00    -0.206 F 
ATOM     75  C   UNL A   1      51.221  33.830  26.140  1.00  0.00     0.022 A 
BRANCH  72  76
ATOM     76  S   UNL A   1      52.687  32.922  28.331  1.00  0.00     0.124 S 
ATOM     77  O   UNL A   1      52.197  32.071  29.412  1.00  0.00    -0.237 OA
ATOM     78  O   UNL A   1      53.514  32.265  27.325  1.00  0.00    -0.237 OA
ATOM     79  O   UNL A   1      53.148  34.245  28.748  1.00  0.00    -0.744 OA
ENDBRANCH  72  76
ENDBRANCH  55  69
BRANCH  56  80
ATOM     80  C   UNL A   1      39.680  31.607  31.395  1.00  0.00     0.023 A 
ATOM     81  C   UNL A   1      38.520  32.048  30.743  1.00  0.00     0.031 A 
ATOM     82  C   UNL A   1      39.535  30.891  32.598  1.00  0.00     0.131 A 
ATOM     83  C   UNL A   1      37.262  31.781  31.303  1.00  0.00     0.055 A 
ATOM     84  C   UNL A   1      38.281  30.595  33.131  1.00  0.00     0.041 A 
ATOM     85  F   UNL A   1      40.616  30.440  33.254  1.00  0.00    -0.206 F 
ATOM     86  C   UNL A   1      37.134  31.046  32.485  1.00  0.00     0.022 A 
BRANCH  83  87
ATOM     87  S   UNL A   1      35.788  32.427  30.470  1.00  0.00     0.124 S 
ATOM     88  O   UNL A   1      36.166  33.814  30.229  1.00  0.00    -0.237 OA
ATOM     89  O   UNL A   1      35.704  31.569  29.292  1.00  0.00    -0.237 OA
ATOM     90  O   UNL A   1      34.727  32.230  31.456  1.00  0.00    -0.744 OA
ENDBRANCH  83  87
ENDBRANCH  56  80
BRANCH  68  91
ATOM     91  C   UNL A   1      44.210  36.917  31.838  1.00  0.00     0.023 A 
ATOM     92  C   UNL A   1      43.701  38.063  31.206  1.00  0.00     0.031 A 
ATOM     93  C   UNL A   1      44.626  37.023  33.177  1.00  0.00     0.131 A 
ATOM     94  C   UNL A   1      43.655  39.278  31.905  1.00  0.00     0.055 A 
ATOM     95  C   UNL A   1      44.524  38.221  33.884  1.00  0.00     0.041 A 
ATOM     96  F   UNL A   1      45.116  35.955  33.827  1.00  0.00    -0.206 F 
ATOM     97  C   UNL A   1      44.044  39.360  33.245  1.00  0.00     0.022 A 
BRANCH  94  98
ATOM     98  S   UNL A   1      43.125  40.769  31.021  1.00  0.00     0.124 S 
ATOM     99  O   UNL A   1      42.217  41.385  31.985  1.00  0.00    -0.237 OA
ATOM    100  O   UNL A   1      44.387  41.468  30.797  1.00  0.00    -0.237 OA
ATOM    101  O   UNL A   1      42.486  40.245  29.816  1.00  0.00    -0.744 OA
ENDBRANCH  94  98
ENDBRANCH  68  91
ENDBRANCH  42  43
ENDBRANCH  35  37
ENDBRANCH  34  35
ENDBRANCH  33  34
ENDBRANCH  32  33
ENDBRANCH  31  32
ENDBRANCH  30  31
ENDBRANCH   1  30
TORSDOF 25
ENDMDL
