MODEL 1
REMARK VINA RESULT:      -8.6      0.000      0.000
REMARK SMILES NS(=O)(=O)c1ccc(-n2nc(C(=O)OCCOCCOCCOCCOC(=O)c3ccc(-c4c5nc(c(-c6cc(S(=O)(=O)[O-])ccc6F)c6ccc([nH]6)c(-c6cc(S(=O)(=O)[O-])ccc6F)c6nc(c(-c7cc(S(=O)(=O)[O-])ccc7F)c7ccc4[nH]7)C=C6)C=C5)cc3)cc2-c2ccc(Cl)s2)cc1
REMARK SMILES IDX 20 1 19 2 18 3 17 4 16 5 15 6 14 7 12 8 13 9 11 10 9 11
REMARK SMILES IDX 10 12 93 13 92 14 8 15 5 16 6 17 101 18 7 19 100 20 2 21
REMARK SMILES IDX 3 22 4 23 1 24 94 27 95 28 99 29 96 30 97 31 98 32 21 33
REMARK SMILES IDX 22 34 23 35 24 36 25 37 26 38 27 39 28 40 29 41 30 42 91 43
REMARK SMILES IDX 31 44 90 45 32 46 33 47 34 48 84 49 35 50 89 51 83 52 85 53
REMARK SMILES IDX 36 54 88 55 82 56 81 57 37 59 69 60 49 61 68 62 50 63 53 64
REMARK SMILES IDX 67 65 86 66 51 67 52 68 66 70 87 71 54 72 38 73 39 74 47 75
REMARK SMILES IDX 40 76 46 77 48 78 45 79 41 80 42 81 43 82 44 83 70 84 71 85
REMARK SMILES IDX 79 86 72 87 78 88 80 89 77 90 73 91 74 92 75 93 76 94 55 95
REMARK SMILES IDX 56 96 64 97 57 98 63 99 65 100 62 101 58 102 59 103 60 104
REMARK SMILES IDX 61 105
REMARK H PARENT 1 25 1 26 85 58 53 69
REMARK Flexibility Score: inf
ROOT
ATOM      1  O   UNL A   1      38.997  28.864  31.582  1.00  0.00    -0.377 OA
ENDROOT
BRANCH   1   2
ATOM      2  C   UNL A   1      38.178  29.335  30.523  1.00  0.00     0.188 C 
BRANCH   2   3
ATOM      3  C   UNL A   1      37.916  30.861  30.542  1.00  0.00     0.188 C 
BRANCH   3   4
ATOM      4  O   UNL A   1      36.641  31.420  30.846  1.00  0.00    -0.376 OA
BRANCH   4   5
ATOM      5  C   UNL A   1      35.947  32.275  29.955  1.00  0.00     0.202 C 
BRANCH   5   6
ATOM      6  C   UNL A   1      35.753  31.908  28.477  1.00  0.00     0.261 C 
BRANCH   6   7
ATOM      7  O   UNL A   1      34.866  30.824  28.206  1.00  0.00    -0.458 OA
BRANCH   7   8
ATOM      8  C   UNL A   1      35.391  29.806  27.467  1.00  0.00     0.358 C 
ATOM      9  O   UNL A   1      36.553  29.419  27.539  1.00  0.00    -0.244 OA
BRANCH   8  10
ATOM     10  C   UNL A   1      34.359  29.180  26.629  1.00  0.00     0.171 A 
ATOM     11  N   UNL A   1      32.779  28.982  25.201  1.00  0.00    -0.231 N 
ATOM     12  N   UNL A   1      33.616  29.886  25.754  1.00  0.00    -0.160 NA
ATOM     13  C   UNL A   1      32.979  27.706  25.698  1.00  0.00     0.085 A 
ATOM     14  C   UNL A   1      34.054  27.799  26.553  1.00  0.00     0.068 A 
BRANCH  11  15
ATOM     15  C   UNL A   1      31.695  29.427  24.414  1.00  0.00     0.065 A 
ATOM     16  C   UNL A   1      29.427  30.174  23.008  1.00  0.00     0.082 A 
ATOM     17  C   UNL A   1      29.729  30.807  24.219  1.00  0.00     0.024 A 
ATOM     18  C   UNL A   1      30.261  29.172  22.492  1.00  0.00     0.024 A 
ATOM     19  C   UNL A   1      30.863  30.428  24.929  1.00  0.00     0.030 A 
ATOM     20  C   UNL A   1      31.419  28.809  23.189  1.00  0.00     0.030 A 
BRANCH  16  21
ATOM     21  S   UNL A   1      27.948  30.661  22.173  1.00  0.00     0.238 S 
ATOM     22  O   UNL A   1      28.067  30.279  20.781  1.00  0.00    -0.207 OA
ATOM     23  O   UNL A   1      27.604  31.999  22.581  1.00  0.00    -0.207 OA
BRANCH  21  24
ATOM     24  N   UNL A   1      26.752  29.680  22.824  1.00  0.00    -0.225 NA
ATOM     25  H   UNL A   1      27.179  28.972  23.419  1.00  0.00     0.137 HD
ATOM     26  H   UNL A   1      26.237  29.225  22.068  1.00  0.00     0.137 HD
ENDBRANCH  21  24
ENDBRANCH  16  21
ENDBRANCH  11  15
BRANCH  13  27
ATOM     27  C   UNL A   1      32.172  26.562  25.401  1.00  0.00     0.054 A 
ATOM     28  C   UNL A   1      30.982  26.240  26.025  1.00  0.00     0.024 A 
ATOM     29  S   UNL A   1      32.566  25.429  24.176  1.00  0.00    -0.122 S 
ATOM     30  C   UNL A   1      30.343  25.118  25.420  1.00  0.00     0.033 A 
ATOM     31  C   UNL A   1      31.103  24.612  24.398  1.00  0.00     0.094 A 
ATOM     32  Cl  UNL A   1      30.694  23.293  23.379  1.00  0.00    -0.072 Cl
ENDBRANCH  13  27
ENDBRANCH   8  10
ENDBRANCH   7   8
ENDBRANCH   6   7
ENDBRANCH   5   6
ENDBRANCH   4   5
ENDBRANCH   3   4
ENDBRANCH   2   3
ENDBRANCH   1   2
BRANCH   1  33
ATOM     33  C   UNL A   1      38.437  28.987  32.891  1.00  0.00     0.188 C 
BRANCH  33  34
ATOM     34  C   UNL A   1      38.391  30.403  33.526  1.00  0.00     0.188 C 
BRANCH  34  35
ATOM     35  O   UNL A   1      39.588  30.778  34.192  1.00  0.00    -0.376 OA
BRANCH  35  36
ATOM     36  C   UNL A   1      39.648  31.884  35.076  1.00  0.00     0.202 C 
BRANCH  36  37
ATOM     37  C   UNL A   1      39.159  33.228  34.552  1.00  0.00     0.261 C 
BRANCH  37  38
ATOM     38  O   UNL A   1      40.126  33.922  33.792  1.00  0.00    -0.460 OA
BRANCH  38  39
ATOM     39  C   UNL A   1      39.983  33.817  32.460  1.00  0.00     0.338 C 
ATOM     40  O   UNL A   1      38.950  33.961  31.816  1.00  0.00    -0.246 OA
BRANCH  39  41
ATOM     41  C   UNL A   1      41.259  33.368  31.911  1.00  0.00     0.060 A 
ATOM     42  C   UNL A   1      41.200  32.759  30.660  1.00  0.00     0.016 A 
ATOM     43  C   UNL A   1      42.320  33.164  32.809  1.00  0.00     0.016 A 
ATOM     44  C   UNL A   1      42.030  31.690  30.447  1.00  0.00     0.010 A 
ATOM     45  C   UNL A   1      43.119  32.075  32.610  1.00  0.00     0.010 A 
ATOM     46  C   UNL A   1      42.881  31.296  31.485  1.00  0.00    -0.014 A 
BRANCH  46  47
ATOM     47  C   UNL A   1      43.622  30.072  31.328  1.00  0.00     0.031 A 
ATOM     48  C   UNL A   1      44.815  30.281  30.496  1.00  0.00     0.074 A 
ATOM     49  C   UNL A   1      43.295  28.928  31.952  1.00  0.00     0.049 A 
ATOM     50  N   UNL A   1      44.926  30.031  29.235  1.00  0.00    -0.248 NA
ATOM     51  C   UNL A   1      45.891  31.122  31.044  1.00  0.00     0.031 C 
ATOM     52  C   UNL A   1      42.298  28.699  32.997  1.00  0.00     0.029 A 
ATOM     53  N   UNL A   1      43.880  27.714  31.816  1.00  0.00    -0.354 N 
ATOM     54  C   UNL A   1      46.213  30.426  28.914  1.00  0.00     0.074 A 
ATOM     55  C   UNL A   1      46.608  31.345  29.942  1.00  0.00     0.031 C 
ATOM     56  C   UNL A   1      42.510  27.479  33.550  1.00  0.00     0.029 A 
ATOM     57  C   UNL A   1      43.565  26.800  32.814  1.00  0.00     0.049 A 
ATOM     58  H   UNL A   1      44.480  27.495  31.067  1.00  0.00     0.167 HD
ATOM     59  C   UNL A   1      46.954  29.704  28.032  1.00  0.00     0.034 A 
ATOM     60  C   UNL A   1      44.198  25.615  33.039  1.00  0.00     0.034 A 
ATOM     61  C   UNL A   1      46.106  28.817  27.258  1.00  0.00     0.049 A 
ATOM     62  C   UNL A   1      44.871  25.245  31.763  1.00  0.00     0.074 A 
ATOM     63  C   UNL A   1      45.007  29.008  26.439  1.00  0.00     0.029 A 
ATOM     64  N   UNL A   1      46.080  27.480  27.601  1.00  0.00    -0.354 N 
ATOM     65  N   UNL A   1      44.214  24.954  30.670  1.00  0.00    -0.248 NA
ATOM     66  C   UNL A   1      46.238  25.703  31.548  1.00  0.00     0.031 C 
ATOM     67  C   UNL A   1      44.128  27.925  26.738  1.00  0.00     0.029 A 
ATOM     68  C   UNL A   1      44.765  27.079  27.649  1.00  0.00     0.049 A 
ATOM     69  H   UNL A   1      46.864  26.914  27.780  1.00  0.00     0.167 HD
ATOM     70  C   UNL A   1      44.901  25.596  29.649  1.00  0.00     0.074 A 
ATOM     71  C   UNL A   1      46.190  25.961  30.236  1.00  0.00     0.031 C 
ATOM     72  C   UNL A   1      44.258  26.036  28.526  1.00  0.00     0.034 A 
BRANCH  59  73
ATOM     73  C   UNL A   1      48.447  29.495  28.164  1.00  0.00     0.023 A 
ATOM     74  C   UNL A   1      49.199  29.608  26.983  1.00  0.00     0.031 A 
ATOM     75  C   UNL A   1      49.133  28.939  29.272  1.00  0.00     0.131 A 
ATOM     76  C   UNL A   1      50.496  29.076  26.900  1.00  0.00     0.055 A 
ATOM     77  C   UNL A   1      50.447  28.474  29.202  1.00  0.00     0.041 A 
ATOM     78  F   UNL A   1      48.565  28.727  30.463  1.00  0.00    -0.206 F 
ATOM     79  C   UNL A   1      51.125  28.506  28.001  1.00  0.00     0.022 A 
BRANCH  76  80
ATOM     80  S   UNL A   1      51.268  28.984  25.269  1.00  0.00     0.124 S 
ATOM     81  O   UNL A   1      52.373  28.067  25.523  1.00  0.00    -0.237 OA
ATOM     82  O   UNL A   1      50.174  28.469  24.452  1.00  0.00    -0.237 OA
ATOM     83  O   UNL A   1      51.651  30.368  25.000  1.00  0.00    -0.744 OA
ENDBRANCH  76  80
ENDBRANCH  59  73
BRANCH  60  84
ATOM     84  C   UNL A   1      44.555  25.027  34.364  1.00  0.00     0.023 A 
ATOM     85  C   UNL A   1      44.945  25.808  35.475  1.00  0.00     0.031 A 
ATOM     86  C   UNL A   1      44.273  23.665  34.621  1.00  0.00     0.131 A 
ATOM     87  C   UNL A   1      45.040  25.222  36.763  1.00  0.00     0.055 A 
ATOM     88  C   UNL A   1      44.369  23.094  35.892  1.00  0.00     0.041 A 
ATOM     89  F   UNL A   1      43.807  22.856  33.657  1.00  0.00    -0.206 F 
ATOM     90  C   UNL A   1      44.745  23.873  36.972  1.00  0.00     0.022 A 
BRANCH  87  91
ATOM     91  S   UNL A   1      45.472  26.233  38.219  1.00  0.00     0.124 S 
ATOM     92  O   UNL A   1      44.184  26.800  38.599  1.00  0.00    -0.237 OA
ATOM     93  O   UNL A   1      46.041  25.245  39.129  1.00  0.00    -0.237 OA
ATOM     94  O   UNL A   1      46.436  27.200  37.691  1.00  0.00    -0.744 OA
ENDBRANCH  87  91
ENDBRANCH  60  84
BRANCH  72  95
ATOM     95  C   UNL A   1      42.837  25.556  28.273  1.00  0.00     0.023 A 
ATOM     96  C   UNL A   1      42.485  24.307  27.709  1.00  0.00     0.031 A 
ATOM     97  C   UNL A   1      41.792  26.372  28.740  1.00  0.00     0.131 A 
ATOM     98  C   UNL A   1      41.129  23.926  27.623  1.00  0.00     0.055 A 
ATOM     99  C   UNL A   1      40.455  25.984  28.675  1.00  0.00     0.041 A 
ATOM    100  F   UNL A   1      42.060  27.560  29.309  1.00  0.00    -0.206 F 
ATOM    101  C   UNL A   1      40.118  24.760  28.110  1.00  0.00     0.022 A 
BRANCH  98 102
ATOM    102  S   UNL A   1      40.646  22.343  26.857  1.00  0.00     0.124 S 
ATOM    103  O   UNL A   1      39.288  22.592  26.387  1.00  0.00    -0.237 OA
ATOM    104  O   UNL A   1      41.661  22.173  25.820  1.00  0.00    -0.237 OA
ATOM    105  O   UNL A   1      40.742  21.387  27.962  1.00  0.00    -0.744 OA
ENDBRANCH  98 102
ENDBRANCH  72  95
ENDBRANCH  46  47
ENDBRANCH  39  41
ENDBRANCH  38  39
ENDBRANCH  37  38
ENDBRANCH  36  37
ENDBRANCH  35  36
ENDBRANCH  34  35
ENDBRANCH  33  34
ENDBRANCH   1  33
TORSDOF 27
ENDMDL
MODEL 2
REMARK VINA RESULT:      -8.3      8.817     13.635
REMARK SMILES NS(=O)(=O)c1ccc(-n2nc(C(=O)OCCOCCOCCOCCOC(=O)c3ccc(-c4c5nc(c(-c6cc(S(=O)(=O)[O-])ccc6F)c6ccc([nH]6)c(-c6cc(S(=O)(=O)[O-])ccc6F)c6nc(c(-c7cc(S(=O)(=O)[O-])ccc7F)c7ccc4[nH]7)C=C6)C=C5)cc3)cc2-c2ccc(Cl)s2)cc1
REMARK SMILES IDX 20 1 19 2 18 3 17 4 16 5 15 6 14 7 12 8 13 9 11 10 9 11
REMARK SMILES IDX 10 12 93 13 92 14 8 15 5 16 6 17 101 18 7 19 100 20 2 21
REMARK SMILES IDX 3 22 4 23 1 24 94 27 95 28 99 29 96 30 97 31 98 32 21 33
REMARK SMILES IDX 22 34 23 35 24 36 25 37 26 38 27 39 28 40 29 41 30 42 91 43
REMARK SMILES IDX 31 44 90 45 32 46 33 47 34 48 84 49 35 50 89 51 83 52 85 53
REMARK SMILES IDX 36 54 88 55 82 56 81 57 37 59 69 60 49 61 68 62 50 63 53 64
REMARK SMILES IDX 67 65 86 66 51 67 52 68 66 70 87 71 54 72 38 73 39 74 47 75
REMARK SMILES IDX 40 76 46 77 48 78 45 79 41 80 42 81 43 82 44 83 70 84 71 85
REMARK SMILES IDX 79 86 72 87 78 88 80 89 77 90 73 91 74 92 75 93 76 94 55 95
REMARK SMILES IDX 56 96 64 97 57 98 63 99 65 100 62 101 58 102 59 103 60 104
REMARK SMILES IDX 61 105
REMARK H PARENT 1 25 1 26 85 58 53 69
REMARK Flexibility Score: inf
ROOT
ATOM      1  O   UNL A   1      42.926  41.860  31.875  1.00  0.00    -0.377 OA
ENDROOT
BRANCH   1   2
ATOM      2  C   UNL A   1      42.001  42.034  30.812  1.00  0.00     0.188 C 
BRANCH   2   3
ATOM      3  C   UNL A   1      41.347  40.725  30.307  1.00  0.00     0.188 C 
BRANCH   3   4
ATOM      4  O   UNL A   1      41.294  40.373  28.928  1.00  0.00    -0.376 OA
BRANCH   4   5
ATOM      5  C   UNL A   1      42.213  40.874  27.973  1.00  0.00     0.202 C 
BRANCH   5   6
ATOM      6  C   UNL A   1      43.248  39.964  27.299  1.00  0.00     0.261 C 
BRANCH   6   7
ATOM      7  O   UNL A   1      43.765  40.413  26.047  1.00  0.00    -0.458 OA
BRANCH   7   8
ATOM      8  C   UNL A   1      45.104  40.664  26.020  1.00  0.00     0.358 C 
ATOM      9  O   UNL A   1      45.909  40.243  26.844  1.00  0.00    -0.244 OA
BRANCH   8  10
ATOM     10  C   UNL A   1      45.467  41.442  24.828  1.00  0.00     0.171 A 
ATOM     11  N   UNL A   1      45.252  42.625  23.058  1.00  0.00    -0.231 N 
ATOM     12  N   UNL A   1      44.544  42.037  24.047  1.00  0.00    -0.160 NA
ATOM     13  C   UNL A   1      46.615  42.426  23.197  1.00  0.00     0.085 A 
ATOM     14  C   UNL A   1      46.777  41.743  24.381  1.00  0.00     0.068 A 
BRANCH  11  15
ATOM     15  C   UNL A   1      44.578  43.134  21.927  1.00  0.00     0.065 A 
ATOM     16  C   UNL A   1      43.398  44.002  19.576  1.00  0.00     0.082 A 
ATOM     17  C   UNL A   1      43.050  42.753  20.104  1.00  0.00     0.024 A 
ATOM     18  C   UNL A   1      44.330  44.823  20.225  1.00  0.00     0.024 A 
ATOM     19  C   UNL A   1      43.647  42.314  21.280  1.00  0.00     0.030 A 
ATOM     20  C   UNL A   1      44.911  44.397  21.424  1.00  0.00     0.030 A 
BRANCH  16  21
ATOM     21  S   UNL A   1      42.645  44.489  18.053  1.00  0.00     0.238 S 
ATOM     22  O   UNL A   1      43.393  43.891  16.967  1.00  0.00    -0.207 OA
ATOM     23  O   UNL A   1      42.355  45.899  18.109  1.00  0.00    -0.207 OA
BRANCH  21  24
ATOM     24  N   UNL A   1      41.148  43.731  18.058  1.00  0.00    -0.225 NA
ATOM     25  H   UNL A   1      41.116  43.035  17.314  1.00  0.00     0.137 HD
ATOM     26  H   UNL A   1      40.415  44.425  17.907  1.00  0.00     0.137 HD
ENDBRANCH  21  24
ENDBRANCH  16  21
ENDBRANCH  11  15
BRANCH  13  27
ATOM     27  C   UNL A   1      47.613  42.818  22.249  1.00  0.00     0.054 A 
ATOM     28  C   UNL A   1      47.902  42.153  21.073  1.00  0.00     0.024 A 
ATOM     29  S   UNL A   1      48.584  44.219  22.434  1.00  0.00    -0.122 S 
ATOM     30  C   UNL A   1      48.849  42.858  20.274  1.00  0.00     0.033 A 
ATOM     31  C   UNL A   1      49.271  44.000  20.905  1.00  0.00     0.094 A 
ATOM     32  Cl  UNL A   1      50.373  45.160  20.286  1.00  0.00    -0.072 Cl
ENDBRANCH  13  27
ENDBRANCH   8  10
ENDBRANCH   7   8
ENDBRANCH   6   7
ENDBRANCH   5   6
ENDBRANCH   4   5
ENDBRANCH   3   4
ENDBRANCH   2   3
ENDBRANCH   1   2
BRANCH   1  33
ATOM     33  C   UNL A   1      43.747  42.994  32.163  1.00  0.00     0.188 C 
BRANCH  33  34
ATOM     34  C   UNL A   1      45.283  42.776  32.222  1.00  0.00     0.188 C 
BRANCH  34  35
ATOM     35  O   UNL A   1      45.668  41.484  32.671  1.00  0.00    -0.376 OA
BRANCH  35  36
ATOM     36  C   UNL A   1      46.229  40.517  31.800  1.00  0.00     0.202 C 
BRANCH  36  37
ATOM     37  C   UNL A   1      46.902  39.307  32.434  1.00  0.00     0.261 C 
BRANCH  37  38
ATOM     38  O   UNL A   1      46.102  38.145  32.418  1.00  0.00    -0.460 OA
BRANCH  38  39
ATOM     39  C   UNL A   1      45.366  37.947  33.525  1.00  0.00     0.338 C 
ATOM     40  O   UNL A   1      45.737  38.062  34.688  1.00  0.00    -0.246 OA
BRANCH  39  41
ATOM     41  C   UNL A   1      44.063  37.437  33.106  1.00  0.00     0.060 A 
ATOM     42  C   UNL A   1      43.072  37.430  34.084  1.00  0.00     0.016 A 
ATOM     43  C   UNL A   1      44.020  36.611  31.970  1.00  0.00     0.016 A 
ATOM     44  C   UNL A   1      42.215  36.360  34.094  1.00  0.00     0.010 A 
ATOM     45  C   UNL A   1      43.190  35.527  32.004  1.00  0.00     0.010 A 
ATOM     46  C   UNL A   1      42.383  35.367  33.123  1.00  0.00    -0.014 A 
BRANCH  46  47
ATOM     47  C   UNL A   1      41.602  34.164  33.239  1.00  0.00     0.031 A 
ATOM     48  C   UNL A   1      40.446  34.196  32.333  1.00  0.00     0.074 A 
ATOM     49  C   UNL A   1      41.961  33.126  34.013  1.00  0.00     0.049 A 
ATOM     50  N   UNL A   1      39.237  34.524  32.640  1.00  0.00    -0.248 NA
ATOM     51  C   UNL A   1      40.712  34.148  30.887  1.00  0.00     0.031 C 
ATOM     52  C   UNL A   1      43.215  32.898  34.730  1.00  0.00     0.029 A 
ATOM     53  N   UNL A   1      41.265  31.987  34.245  1.00  0.00    -0.354 N 
ATOM     54  C   UNL A   1      38.537  34.430  31.449  1.00  0.00     0.074 A 
ATOM     55  C   UNL A   1      39.523  34.515  30.410  1.00  0.00     0.031 C 
ATOM     56  C   UNL A   1      43.269  31.602  35.125  1.00  0.00     0.029 A 
ATOM     57  C   UNL A   1      42.007  30.954  34.803  1.00  0.00     0.049 A 
ATOM     58  H   UNL A   1      40.307  31.898  34.036  1.00  0.00     0.167 HD
ATOM     59  C   UNL A   1      37.267  33.947  31.435  1.00  0.00     0.034 A 
ATOM     60  C   UNL A   1      41.613  29.654  34.907  1.00  0.00     0.034 A 
ATOM     61  C   UNL A   1      36.698  33.965  32.770  1.00  0.00     0.049 A 
ATOM     62  C   UNL A   1      40.125  29.655  34.832  1.00  0.00     0.074 A 
ATOM     63  C   UNL A   1      36.493  34.954  33.716  1.00  0.00     0.029 A 
ATOM     64  N   UNL A   1      36.635  32.774  33.465  1.00  0.00    -0.354 N 
ATOM     65  N   UNL A   1      39.366  30.202  35.746  1.00  0.00    -0.248 NA
ATOM     66  C   UNL A   1      39.502  29.528  33.520  1.00  0.00     0.031 C 
ATOM     67  C   UNL A   1      36.814  34.346  34.965  1.00  0.00     0.029 A 
ATOM     68  C   UNL A   1      37.107  32.999  34.737  1.00  0.00     0.049 A 
ATOM     69  H   UNL A   1      36.311  31.915  33.112  1.00  0.00     0.167 HD
ATOM     70  C   UNL A   1      38.376  30.874  35.044  1.00  0.00     0.074 A 
ATOM     71  C   UNL A   1      38.455  30.345  33.683  1.00  0.00     0.031 C 
ATOM     72  C   UNL A   1      37.788  32.002  35.547  1.00  0.00     0.034 A 
BRANCH  59  73
ATOM     73  C   UNL A   1      36.708  33.088  30.322  1.00  0.00     0.023 A 
ATOM     74  C   UNL A   1      37.229  31.787  30.218  1.00  0.00     0.031 A 
ATOM     75  C   UNL A   1      35.931  33.524  29.220  1.00  0.00     0.131 A 
ATOM     76  C   UNL A   1      37.083  31.045  29.035  1.00  0.00     0.055 A 
ATOM     77  C   UNL A   1      35.733  32.753  28.074  1.00  0.00     0.041 A 
ATOM     78  F   UNL A   1      35.388  34.741  29.134  1.00  0.00    -0.206 F 
ATOM     79  C   UNL A   1      36.342  31.520  27.959  1.00  0.00     0.022 A 
BRANCH  76  80
ATOM     80  S   UNL A   1      38.042  29.522  28.870  1.00  0.00     0.124 S 
ATOM     81  O   UNL A   1      39.292  30.026  28.314  1.00  0.00    -0.237 OA
ATOM     82  O   UNL A   1      38.090  29.052  30.250  1.00  0.00    -0.237 OA
ATOM     83  O   UNL A   1      37.232  28.714  27.961  1.00  0.00    -0.744 OA
ENDBRANCH  76  80
ENDBRANCH  59  73
BRANCH  60  84
ATOM     84  C   UNL A   1      42.452  28.441  34.677  1.00  0.00     0.023 A 
ATOM     85  C   UNL A   1      42.345  27.268  35.458  1.00  0.00     0.031 A 
ATOM     86  C   UNL A   1      43.223  28.341  33.495  1.00  0.00     0.131 A 
ATOM     87  C   UNL A   1      42.990  26.074  35.048  1.00  0.00     0.055 A 
ATOM     88  C   UNL A   1      43.858  27.162  33.097  1.00  0.00     0.041 A 
ATOM     89  F   UNL A   1      43.316  29.366  32.634  1.00  0.00    -0.206 F 
ATOM     90  C   UNL A   1      43.736  26.019  33.868  1.00  0.00     0.022 A 
BRANCH  87  91
ATOM     91  S   UNL A   1      42.802  24.534  36.006  1.00  0.00     0.124 S 
ATOM     92  O   UNL A   1      43.598  23.587  35.235  1.00  0.00    -0.237 OA
ATOM     93  O   UNL A   1      43.327  24.911  37.314  1.00  0.00    -0.237 OA
ATOM     94  O   UNL A   1      41.359  24.287  35.978  1.00  0.00    -0.744 OA
ENDBRANCH  87  91
ENDBRANCH  60  84
BRANCH  72  95
ATOM     95  C   UNL A   1      38.020  32.345  37.010  1.00  0.00     0.023 A 
ATOM     96  C   UNL A   1      37.214  31.913  38.089  1.00  0.00     0.031 A 
ATOM     97  C   UNL A   1      39.193  33.056  37.322  1.00  0.00     0.131 A 
ATOM     98  C   UNL A   1      37.592  32.207  39.416  1.00  0.00     0.055 A 
ATOM     99  C   UNL A   1      39.575  33.325  38.635  1.00  0.00     0.041 A 
ATOM    100  F   UNL A   1      40.016  33.474  36.346  1.00  0.00    -0.206 F 
ATOM    101  C   UNL A   1      38.772  32.906  39.689  1.00  0.00     0.022 A 
BRANCH  98 102
ATOM    102  S   UNL A   1      36.545  31.703  40.822  1.00  0.00     0.124 S 
ATOM    103  O   UNL A   1      35.445  30.983  40.189  1.00  0.00    -0.237 OA
ATOM    104  O   UNL A   1      37.461  30.895  41.623  1.00  0.00    -0.237 OA
ATOM    105  O   UNL A   1      36.164  32.977  41.437  1.00  0.00    -0.744 OA
ENDBRANCH  98 102
ENDBRANCH  72  95
ENDBRANCH  46  47
ENDBRANCH  39  41
ENDBRANCH  38  39
ENDBRANCH  37  38
ENDBRANCH  36  37
ENDBRANCH  35  36
ENDBRANCH  34  35
ENDBRANCH  33  34
ENDBRANCH   1  33
TORSDOF 27
ENDMDL
MODEL 3
REMARK VINA RESULT:      -8.2      5.482     12.254
REMARK SMILES NS(=O)(=O)c1ccc(-n2nc(C(=O)OCCOCCOCCOCCOC(=O)c3ccc(-c4c5nc(c(-c6cc(S(=O)(=O)[O-])ccc6F)c6ccc([nH]6)c(-c6cc(S(=O)(=O)[O-])ccc6F)c6nc(c(-c7cc(S(=O)(=O)[O-])ccc7F)c7ccc4[nH]7)C=C6)C=C5)cc3)cc2-c2ccc(Cl)s2)cc1
REMARK SMILES IDX 20 1 19 2 18 3 17 4 16 5 15 6 14 7 12 8 13 9 11 10 9 11
REMARK SMILES IDX 10 12 93 13 92 14 8 15 5 16 6 17 101 18 7 19 100 20 2 21
REMARK SMILES IDX 3 22 4 23 1 24 94 27 95 28 99 29 96 30 97 31 98 32 21 33
REMARK SMILES IDX 22 34 23 35 24 36 25 37 26 38 27 39 28 40 29 41 30 42 91 43
REMARK SMILES IDX 31 44 90 45 32 46 33 47 34 48 84 49 35 50 89 51 83 52 85 53
REMARK SMILES IDX 36 54 88 55 82 56 81 57 37 59 69 60 49 61 68 62 50 63 53 64
REMARK SMILES IDX 67 65 86 66 51 67 52 68 66 70 87 71 54 72 38 73 39 74 47 75
REMARK SMILES IDX 40 76 46 77 48 78 45 79 41 80 42 81 43 82 44 83 70 84 71 85
REMARK SMILES IDX 79 86 72 87 78 88 80 89 77 90 73 91 74 92 75 93 76 94 55 95
REMARK SMILES IDX 56 96 64 97 57 98 63 99 65 100 62 101 58 102 59 103 60 104
REMARK SMILES IDX 61 105
REMARK H PARENT 1 25 1 26 85 58 53 69
REMARK Flexibility Score: inf
ROOT
ATOM      1  O   UNL A   1      50.438  28.197  32.961  1.00  0.00    -0.377 OA
ENDROOT
BRANCH   1   2
ATOM      2  C   UNL A   1      50.829  26.985  32.334  1.00  0.00     0.188 C 
BRANCH   2   3
ATOM      3  C   UNL A   1      49.847  26.475  31.251  1.00  0.00     0.188 C 
BRANCH   3   4
ATOM      4  O   UNL A   1      50.285  25.957  29.997  1.00  0.00    -0.376 OA
BRANCH   4   5
ATOM      5  C   UNL A   1      49.457  25.161  29.166  1.00  0.00     0.202 C 
BRANCH   5   6
ATOM      6  C   UNL A   1      49.616  25.160  27.640  1.00  0.00     0.261 C 
BRANCH   6   7
ATOM      7  O   UNL A   1      48.496  25.622  26.887  1.00  0.00    -0.458 OA
BRANCH   7   8
ATOM      8  C   UNL A   1      47.860  26.716  27.394  1.00  0.00     0.358 C 
ATOM      9  O   UNL A   1      48.380  27.814  27.555  1.00  0.00    -0.244 OA
BRANCH   8  10
ATOM     10  C   UNL A   1      46.442  26.424  27.651  1.00  0.00     0.171 A 
ATOM     11  N   UNL A   1      44.609  25.329  27.788  1.00  0.00    -0.231 N 
ATOM     12  N   UNL A   1      45.917  25.194  27.481  1.00  0.00    -0.160 NA
ATOM     13  C   UNL A   1      44.288  26.622  28.163  1.00  0.00     0.085 A 
ATOM     14  C   UNL A   1      45.475  27.320  28.167  1.00  0.00     0.068 A 
BRANCH  11  15
ATOM     15  C   UNL A   1      43.711  24.284  27.483  1.00  0.00     0.065 A 
ATOM     16  C   UNL A   1      42.134  22.093  26.861  1.00  0.00     0.082 A 
ATOM     17  C   UNL A   1      42.637  22.236  28.159  1.00  0.00     0.024 A 
ATOM     18  C   UNL A   1      42.411  23.047  25.872  1.00  0.00     0.024 A 
ATOM     19  C   UNL A   1      43.434  23.332  28.471  1.00  0.00     0.030 A 
ATOM     20  C   UNL A   1      43.189  24.166  26.190  1.00  0.00     0.030 A 
BRANCH  16  21
ATOM     21  S   UNL A   1      41.168  20.655  26.508  1.00  0.00     0.238 S 
ATOM     22  O   UNL A   1      41.945  19.787  25.649  1.00  0.00    -0.207 OA
ATOM     23  O   UNL A   1      39.826  21.067  26.183  1.00  0.00    -0.207 OA
BRANCH  21  24
ATOM     24  N   UNL A   1      41.039  19.859  27.980  1.00  0.00    -0.225 NA
ATOM     25  H   UNL A   1      40.147  20.090  28.415  1.00  0.00     0.137 HD
ATOM     26  H   UNL A   1      41.802  20.151  28.592  1.00  0.00     0.137 HD
ENDBRANCH  21  24
ENDBRANCH  16  21
ENDBRANCH  11  15
BRANCH  13  27
ATOM     27  C   UNL A   1      42.967  27.107  28.427  1.00  0.00     0.054 A 
ATOM     28  C   UNL A   1      42.368  27.155  29.671  1.00  0.00     0.024 A 
ATOM     29  S   UNL A   1      41.938  27.738  27.209  1.00  0.00    -0.122 S 
ATOM     30  C   UNL A   1      41.103  27.812  29.635  1.00  0.00     0.033 A 
ATOM     31  C   UNL A   1      40.780  28.185  28.357  1.00  0.00     0.094 A 
ATOM     32  Cl  UNL A   1      39.372  29.035  27.868  1.00  0.00    -0.072 Cl
ENDBRANCH  13  27
ENDBRANCH   8  10
ENDBRANCH   7   8
ENDBRANCH   6   7
ENDBRANCH   5   6
ENDBRANCH   4   5
ENDBRANCH   3   4
ENDBRANCH   2   3
ENDBRANCH   1   2
BRANCH   1  33
ATOM     33  C   UNL A   1      49.246  28.793  32.449  1.00  0.00     0.188 C 
BRANCH  33  34
ATOM     34  C   UNL A   1      48.024  28.898  33.400  1.00  0.00     0.188 C 
BRANCH  34  35
ATOM     35  O   UNL A   1      47.042  27.892  33.195  1.00  0.00    -0.376 OA
BRANCH  35  36
ATOM     36  C   UNL A   1      47.151  26.601  33.768  1.00  0.00     0.202 C 
BRANCH  36  37
ATOM     37  C   UNL A   1      46.506  26.379  35.130  1.00  0.00     0.261 C 
BRANCH  37  38
ATOM     38  O   UNL A   1      45.137  26.723  35.167  1.00  0.00    -0.460 OA
BRANCH  38  39
ATOM     39  C   UNL A   1      44.316  25.848  34.560  1.00  0.00     0.338 C 
ATOM     40  O   UNL A   1      44.493  24.643  34.424  1.00  0.00    -0.246 OA
BRANCH  39  41
ATOM     41  C   UNL A   1      43.219  26.609  33.967  1.00  0.00     0.060 A 
ATOM     42  C   UNL A   1      43.588  27.579  33.039  1.00  0.00     0.016 A 
ATOM     43  C   UNL A   1      41.997  26.640  34.659  1.00  0.00     0.016 A 
ATOM     44  C   UNL A   1      42.884  28.755  33.054  1.00  0.00     0.010 A 
ATOM     45  C   UNL A   1      41.321  27.826  34.699  1.00  0.00     0.010 A 
ATOM     46  C   UNL A   1      41.845  28.893  33.981  1.00  0.00    -0.014 A 
BRANCH  46  47
ATOM     47  C   UNL A   1      41.224  30.183  34.117  1.00  0.00     0.031 A 
ATOM     48  C   UNL A   1      40.331  30.462  32.984  1.00  0.00     0.074 A 
ATOM     49  C   UNL A   1      41.384  30.967  35.197  1.00  0.00     0.049 A 
ATOM     50  N   UNL A   1      40.612  31.161  31.938  1.00  0.00    -0.248 NA
ATOM     51  C   UNL A   1      39.115  29.643  32.857  1.00  0.00     0.031 C 
ATOM     52  C   UNL A   1      42.027  30.660  36.474  1.00  0.00     0.029 A 
ATOM     53  N   UNL A   1      40.905  32.219  35.390  1.00  0.00    -0.354 N 
ATOM     54  C   UNL A   1      39.469  31.098  31.158  1.00  0.00     0.074 A 
ATOM     55  C   UNL A   1      38.755  29.937  31.607  1.00  0.00     0.031 C 
ATOM     56  C   UNL A   1      41.696  31.615  37.377  1.00  0.00     0.029 A 
ATOM     57  C   UNL A   1      40.932  32.658  36.708  1.00  0.00     0.049 A 
ATOM     58  H   UNL A   1      40.564  32.776  34.654  1.00  0.00     0.167 HD
ATOM     59  C   UNL A   1      39.050  32.187  30.462  1.00  0.00     0.034 A 
ATOM     60  C   UNL A   1      40.298  33.759  37.196  1.00  0.00     0.034 A 
ATOM     61  C   UNL A   1      40.119  33.162  30.346  1.00  0.00     0.049 A 
ATOM     62  C   UNL A   1      40.052  34.657  36.033  1.00  0.00     0.074 A 
ATOM     63  C   UNL A   1      41.407  33.123  29.841  1.00  0.00     0.029 A 
ATOM     64  N   UNL A   1      40.082  34.267  31.172  1.00  0.00    -0.354 N 
ATOM     65  N   UNL A   1      41.015  35.224  35.354  1.00  0.00    -0.248 NA
ATOM     66  C   UNL A   1      38.798  34.508  35.302  1.00  0.00     0.031 C 
ATOM     67  C   UNL A   1      42.188  33.888  30.757  1.00  0.00     0.029 A 
ATOM     68  C   UNL A   1      41.333  34.431  31.719  1.00  0.00     0.049 A 
ATOM     69  H   UNL A   1      39.298  34.837  31.341  1.00  0.00     0.167 HD
ATOM     70  C   UNL A   1      40.647  35.097  34.022  1.00  0.00     0.074 A 
ATOM     71  C   UNL A   1      39.231  34.735  34.056  1.00  0.00     0.031 C 
ATOM     72  C   UNL A   1      41.585  35.004  33.031  1.00  0.00     0.034 A 
BRANCH  59  73
ATOM     73  C   UNL A   1      37.594  32.546  30.262  1.00  0.00     0.023 A 
ATOM     74  C   UNL A   1      36.984  33.278  31.294  1.00  0.00     0.031 A 
ATOM     75  C   UNL A   1      36.711  32.005  29.295  1.00  0.00     0.131 A 
ATOM     76  C   UNL A   1      35.586  33.339  31.406  1.00  0.00     0.055 A 
ATOM     77  C   UNL A   1      35.323  32.128  29.374  1.00  0.00     0.041 A 
ATOM     78  F   UNL A   1      37.112  31.255  28.264  1.00  0.00    -0.206 F 
ATOM     79  C   UNL A   1      34.749  32.766  30.455  1.00  0.00     0.022 A 
BRANCH  76  80
ATOM     80  S   UNL A   1      34.890  34.029  32.924  1.00  0.00     0.124 S 
ATOM     81  O   UNL A   1      35.772  35.167  33.156  1.00  0.00    -0.237 OA
ATOM     82  O   UNL A   1      33.527  34.341  32.510  1.00  0.00    -0.237 OA
ATOM     83  O   UNL A   1      35.018  32.932  33.881  1.00  0.00    -0.744 OA
ENDBRANCH  76  80
ENDBRANCH  59  73
BRANCH  60  84
ATOM     84  C   UNL A   1      39.578  33.876  38.498  1.00  0.00     0.023 A 
ATOM     85  C   UNL A   1      38.461  33.079  38.837  1.00  0.00     0.031 A 
ATOM     86  C   UNL A   1      40.151  34.632  39.547  1.00  0.00     0.131 A 
ATOM     87  C   UNL A   1      37.969  33.065  40.166  1.00  0.00     0.055 A 
ATOM     88  C   UNL A   1      39.661  34.614  40.855  1.00  0.00     0.041 A 
ATOM     89  F   UNL A   1      41.268  35.351  39.358  1.00  0.00    -0.206 F 
ATOM     90  C   UNL A   1      38.571  33.822  41.173  1.00  0.00     0.022 A 
BRANCH  87  91
ATOM     91  S   UNL A   1      36.573  31.986  40.635  1.00  0.00     0.124 S 
ATOM     92  O   UNL A   1      35.780  32.858  41.492  1.00  0.00    -0.237 OA
ATOM     93  O   UNL A   1      35.994  31.644  39.341  1.00  0.00    -0.237 OA
ATOM     94  O   UNL A   1      37.221  30.870  41.326  1.00  0.00    -0.744 OA
ENDBRANCH  87  91
ENDBRANCH  60  84
BRANCH  72  95
ATOM     95  C   UNL A   1      43.030  35.335  33.371  1.00  0.00     0.023 A 
ATOM     96  C   UNL A   1      43.581  36.637  33.420  1.00  0.00     0.031 A 
ATOM     97  C   UNL A   1      43.852  34.269  33.779  1.00  0.00     0.131 A 
ATOM     98  C   UNL A   1      44.909  36.827  33.854  1.00  0.00     0.055 A 
ATOM     99  C   UNL A   1      45.156  34.463  34.229  1.00  0.00     0.041 A 
ATOM    100  F   UNL A   1      43.382  33.010  33.780  1.00  0.00    -0.206 F 
ATOM    101  C   UNL A   1      45.693  35.744  34.263  1.00  0.00     0.022 A 
BRANCH  98 102
ATOM    102  S   UNL A   1      45.658  38.490  33.880  1.00  0.00     0.124 S 
ATOM    103  O   UNL A   1      46.462  38.522  32.663  1.00  0.00    -0.237 OA
ATOM    104  O   UNL A   1      44.487  39.363  33.897  1.00  0.00    -0.237 OA
ATOM    105  O   UNL A   1      46.435  38.494  35.122  1.00  0.00    -0.744 OA
ENDBRANCH  98 102
ENDBRANCH  72  95
ENDBRANCH  46  47
ENDBRANCH  39  41
ENDBRANCH  38  39
ENDBRANCH  37  38
ENDBRANCH  36  37
ENDBRANCH  35  36
ENDBRANCH  34  35
ENDBRANCH  33  34
ENDBRANCH   1  33
TORSDOF 27
ENDMDL
