MODEL 1
REMARK VINA RESULT:      -9.2      0.000      0.000
REMARK SMILES CC(C)(C)N(CC(=O)OCCOCCOCCOCCOC(=O)c1ccc(-c2c3nc(c(-c4cc(S(=O)(=O)[O-])ccc4F)c4ccc([nH]4)c(-c4cc(S(=O)(=O)[O-])ccc4F)c4nc(c(-c5cc(S(=O)(=O)[O-])ccc5F)c5ccc2[nH]5)C=C4)C=C3)cc1)C(=O)C1(c2ccccc2)CCC1
REMARK SMILES IDX 14 1 13 2 12 3 11 4 10 5 9 6 7 7 8 8 6 9 5 10 2 11 1 12 3 13
REMARK SMILES IDX 4 14 87 15 88 16 89 17 96 18 98 19 97 20 90 21 91 22 95 23
REMARK SMILES IDX 92 24 94 25 93 26 15 27 16 28 17 29 18 30 19 31 20 32 21 33
REMARK SMILES IDX 22 34 23 35 24 36 25 37 86 38 26 39 85 40 27 41 28 42 29 43
REMARK SMILES IDX 79 44 30 45 84 46 78 47 80 48 31 49 83 50 77 51 76 52 32 54
REMARK SMILES IDX 64 55 44 56 63 57 45 58 48 59 62 60 81 61 46 62 47 63 61 65
REMARK SMILES IDX 82 66 49 67 33 68 34 69 42 70 35 71 41 72 43 73 40 74 36 75
REMARK SMILES IDX 37 76 38 77 39 78 65 79 66 80 74 81 67 82 73 83 75 84 72 85
REMARK SMILES IDX 68 86 69 87 70 88 71 89 50 90 51 91 59 92 52 93 58 94 60 95
REMARK SMILES IDX 57 96 53 97 54 98 55 99 56 100
REMARK H PARENT 80 53 48 64
REMARK Flexibility Score: inf
ROOT
ATOM      1  C   UNL A   1      34.743  22.998  23.913  1.00  0.00     0.188 C 
ENDROOT
BRANCH   1   2
ATOM      2  C   UNL A   1      33.606  22.171  23.256  1.00  0.00     0.188 C 
BRANCH   2   3
ATOM      3  O   UNL A   1      32.818  21.253  23.998  1.00  0.00    -0.376 OA
BRANCH   3   4
ATOM      4  C   UNL A   1      33.470  20.426  24.944  1.00  0.00     0.202 C 
BRANCH   4   5
ATOM      5  C   UNL A   1      33.785  21.018  26.337  1.00  0.00     0.261 C 
BRANCH   5   6
ATOM      6  O   UNL A   1      32.728  21.815  26.944  1.00  0.00    -0.462 OA
BRANCH   6   7
ATOM      7  C   UNL A   1      32.805  23.162  26.804  1.00  0.00     0.325 C 
ATOM      8  O   UNL A   1      33.826  23.802  27.059  1.00  0.00    -0.250 OA
BRANCH   7   9
ATOM      9  C   UNL A   1      31.637  23.830  26.001  1.00  0.00     0.242 C 
BRANCH   9  10
ATOM     10  N   UNL A   1      31.359  25.162  25.369  1.00  0.00    -0.326 N 
BRANCH  10  11
ATOM     11  C   UNL A   1      30.929  25.134  23.910  1.00  0.00     0.035 C 
ATOM     12  C   UNL A   1      30.442  23.733  23.457  1.00  0.00     0.034 C 
ATOM     13  C   UNL A   1      32.122  25.526  23.022  1.00  0.00     0.034 C 
ATOM     14  C   UNL A   1      29.730  26.074  23.592  1.00  0.00     0.034 C 
ENDBRANCH  10  11
BRANCH  10  15
ATOM     15  C   UNL A   1      31.321  26.443  26.077  1.00  0.00     0.234 C 
ATOM     16  O   UNL A   1      30.417  26.624  26.917  1.00  0.00    -0.274 OA
BRANCH  15  17
ATOM     17  C   UNL A   1      32.321  27.713  25.834  1.00  0.00     0.074 C 
ATOM     18  C   UNL A   1      32.899  28.175  27.227  1.00  0.00     0.022 C 
ATOM     19  C   UNL A   1      33.892  27.413  25.551  1.00  0.00     0.022 C 
ATOM     20  C   UNL A   1      34.220  28.522  26.572  1.00  0.00     0.003 C 
BRANCH  17  21
ATOM     21  C   UNL A   1      31.798  28.635  24.635  1.00  0.00    -0.032 A 
ATOM     22  C   UNL A   1      30.598  29.368  24.628  1.00  0.00     0.005 A 
ATOM     23  C   UNL A   1      32.531  28.615  23.422  1.00  0.00     0.005 A 
ATOM     24  C   UNL A   1      30.045  29.824  23.425  1.00  0.00     0.000 A 
ATOM     25  C   UNL A   1      32.004  29.098  22.230  1.00  0.00     0.000 A 
ATOM     26  C   UNL A   1      30.733  29.656  22.224  1.00  0.00     0.000 A 
ENDBRANCH  17  21
ENDBRANCH  15  17
ENDBRANCH  10  15
ENDBRANCH   9  10
ENDBRANCH   7   9
ENDBRANCH   6   7
ENDBRANCH   5   6
ENDBRANCH   4   5
ENDBRANCH   3   4
ENDBRANCH   2   3
ENDBRANCH   1   2
BRANCH   1  27
ATOM     27  O   UNL A   1      35.858  23.184  23.070  1.00  0.00    -0.377 OA
BRANCH  27  28
ATOM     28  C   UNL A   1      37.027  22.507  23.504  1.00  0.00     0.188 C 
BRANCH  28  29
ATOM     29  C   UNL A   1      36.894  21.584  24.736  1.00  0.00     0.188 C 
BRANCH  29  30
ATOM     30  O   UNL A   1      38.101  20.903  25.087  1.00  0.00    -0.376 OA
BRANCH  30  31
ATOM     31  C   UNL A   1      39.069  21.612  25.848  1.00  0.00     0.202 C 
BRANCH  31  32
ATOM     32  C   UNL A   1      40.388  20.855  26.066  1.00  0.00     0.261 C 
BRANCH  32  33
ATOM     33  O   UNL A   1      41.345  21.573  26.848  1.00  0.00    -0.460 OA
BRANCH  33  34
ATOM     34  C   UNL A   1      41.994  22.551  26.172  1.00  0.00     0.338 C 
ATOM     35  O   UNL A   1      42.500  22.458  25.077  1.00  0.00    -0.246 OA
BRANCH  34  36
ATOM     36  C   UNL A   1      41.714  23.821  26.868  1.00  0.00     0.060 A 
ATOM     37  C   UNL A   1      41.539  24.949  26.058  1.00  0.00     0.016 A 
ATOM     38  C   UNL A   1      41.556  23.898  28.257  1.00  0.00     0.016 A 
ATOM     39  C   UNL A   1      41.244  26.171  26.634  1.00  0.00     0.010 A 
ATOM     40  C   UNL A   1      41.315  25.142  28.844  1.00  0.00     0.010 A 
ATOM     41  C   UNL A   1      41.217  26.284  28.029  1.00  0.00    -0.014 A 
BRANCH  41  42
ATOM     42  C   UNL A   1      41.485  27.634  28.563  1.00  0.00     0.031 A 
ATOM     43  C   UNL A   1      42.918  28.094  28.537  1.00  0.00     0.074 A 
ATOM     44  C   UNL A   1      40.485  28.470  28.883  1.00  0.00     0.049 A 
ATOM     45  N   UNL A   1      43.426  29.266  28.807  1.00  0.00    -0.248 NA
ATOM     46  C   UNL A   1      43.912  27.087  28.131  1.00  0.00     0.031 C 
ATOM     47  C   UNL A   1      39.063  28.132  28.860  1.00  0.00     0.029 A 
ATOM     48  N   UNL A   1      40.518  29.783  29.265  1.00  0.00    -0.354 N 
ATOM     49  C   UNL A   1      44.796  29.133  28.600  1.00  0.00     0.074 A 
ATOM     50  C   UNL A   1      45.043  27.760  28.230  1.00  0.00     0.031 C 
ATOM     51  C   UNL A   1      38.356  29.219  29.218  1.00  0.00     0.029 A 
ATOM     52  C   UNL A   1      39.277  30.313  29.521  1.00  0.00     0.049 A 
ATOM     53  H   UNL A   1      41.353  30.300  29.350  1.00  0.00     0.167 HD
ATOM     54  C   UNL A   1      45.760  30.080  28.702  1.00  0.00     0.034 A 
ATOM     55  C   UNL A   1      38.937  31.539  29.965  1.00  0.00     0.034 A 
ATOM     56  C   UNL A   1      45.481  31.433  29.106  1.00  0.00     0.049 A 
ATOM     57  C   UNL A   1      40.033  32.557  30.166  1.00  0.00     0.074 A 
ATOM     58  C   UNL A   1      46.363  32.485  29.270  1.00  0.00     0.029 A 
ATOM     59  N   UNL A   1      44.218  31.917  29.434  1.00  0.00    -0.354 N 
ATOM     60  N   UNL A   1      41.328  32.429  29.975  1.00  0.00    -0.248 NA
ATOM     61  C   UNL A   1      39.619  33.888  30.619  1.00  0.00     0.031 C 
ATOM     62  C   UNL A   1      45.648  33.573  29.785  1.00  0.00     0.029 A 
ATOM     63  C   UNL A   1      44.302  33.238  29.839  1.00  0.00     0.049 A 
ATOM     64  H   UNL A   1      43.384  31.395  29.385  1.00  0.00     0.167 HD
ATOM     65  C   UNL A   1      41.881  33.676  30.256  1.00  0.00     0.074 A 
ATOM     66  C   UNL A   1      40.773  34.540  30.614  1.00  0.00     0.031 C 
ATOM     67  C   UNL A   1      43.181  34.075  30.212  1.00  0.00     0.034 A 
BRANCH  54  68
ATOM     68  C   UNL A   1      47.186  29.633  28.468  1.00  0.00     0.023 A 
ATOM     69  C   UNL A   1      47.935  28.964  29.456  1.00  0.00     0.031 A 
ATOM     70  C   UNL A   1      47.843  29.981  27.276  1.00  0.00     0.131 A 
ATOM     71  C   UNL A   1      49.312  28.763  29.275  1.00  0.00     0.055 A 
ATOM     72  C   UNL A   1      49.190  29.684  27.061  1.00  0.00     0.041 A 
ATOM     73  F   UNL A   1      47.196  30.651  26.309  1.00  0.00    -0.206 F 
ATOM     74  C   UNL A   1      49.939  29.092  28.072  1.00  0.00     0.022 A 
BRANCH  71  75
ATOM     75  S   UNL A   1      50.312  28.259  30.706  1.00  0.00     0.124 S 
ATOM     76  O   UNL A   1      51.586  28.915  30.419  1.00  0.00    -0.237 OA
ATOM     77  O   UNL A   1      49.553  28.800  31.827  1.00  0.00    -0.237 OA
ATOM     78  O   UNL A   1      50.336  26.801  30.611  1.00  0.00    -0.744 OA
ENDBRANCH  71  75
ENDBRANCH  54  68
BRANCH  55  79
ATOM     79  C   UNL A   1      37.514  31.843  30.289  1.00  0.00     0.023 A 
ATOM     80  C   UNL A   1      36.606  32.286  29.314  1.00  0.00     0.031 A 
ATOM     81  C   UNL A   1      37.045  31.695  31.609  1.00  0.00     0.131 A 
ATOM     82  C   UNL A   1      35.282  32.586  29.679  1.00  0.00     0.055 A 
ATOM     83  C   UNL A   1      35.718  31.948  31.955  1.00  0.00     0.041 A 
ATOM     84  F   UNL A   1      37.872  31.278  32.580  1.00  0.00    -0.206 F 
ATOM     85  C   UNL A   1      34.829  32.404  30.989  1.00  0.00     0.022 A 
BRANCH  82  86
ATOM     86  S   UNL A   1      34.164  33.274  28.427  1.00  0.00     0.124 S 
ATOM     87  O   UNL A   1      33.590  32.066  27.845  1.00  0.00    -0.237 OA
ATOM     88  O   UNL A   1      33.264  34.088  29.238  1.00  0.00    -0.237 OA
ATOM     89  O   UNL A   1      35.058  34.027  27.549  1.00  0.00    -0.744 OA
ENDBRANCH  82  86
ENDBRANCH  55  79
BRANCH  67  90
ATOM     90  C   UNL A   1      43.460  35.530  30.512  1.00  0.00     0.023 A 
ATOM     91  C   UNL A   1      43.567  36.013  31.828  1.00  0.00     0.031 A 
ATOM     92  C   UNL A   1      43.601  36.452  29.458  1.00  0.00     0.131 A 
ATOM     93  C   UNL A   1      43.723  37.388  32.056  1.00  0.00     0.055 A 
ATOM     94  C   UNL A   1      43.841  37.806  29.692  1.00  0.00     0.041 A 
ATOM     95  F   UNL A   1      43.505  36.051  28.181  1.00  0.00    -0.206 F 
ATOM     96  C   UNL A   1      43.883  38.285  30.996  1.00  0.00     0.022 A 
BRANCH  93  97
ATOM     97  S   UNL A   1      43.564  38.008  33.753  1.00  0.00     0.124 S 
ATOM     98  O   UNL A   1      44.943  37.948  34.226  1.00  0.00    -0.237 OA
ATOM     99  O   UNL A   1      43.019  39.345  33.546  1.00  0.00    -0.237 OA
ATOM    100  O   UNL A   1      42.651  37.054  34.381  1.00  0.00    -0.744 OA
ENDBRANCH  93  97
ENDBRANCH  67  90
ENDBRANCH  41  42
ENDBRANCH  34  36
ENDBRANCH  33  34
ENDBRANCH  32  33
ENDBRANCH  31  32
ENDBRANCH  30  31
ENDBRANCH  29  30
ENDBRANCH  28  29
ENDBRANCH  27  28
ENDBRANCH   1  27
TORSDOF 28
ENDMDL
MODEL 2
REMARK VINA RESULT:      -9.0      2.796      7.893
REMARK SMILES CC(C)(C)N(CC(=O)OCCOCCOCCOCCOC(=O)c1ccc(-c2c3nc(c(-c4cc(S(=O)(=O)[O-])ccc4F)c4ccc([nH]4)c(-c4cc(S(=O)(=O)[O-])ccc4F)c4nc(c(-c5cc(S(=O)(=O)[O-])ccc5F)c5ccc2[nH]5)C=C4)C=C3)cc1)C(=O)C1(c2ccccc2)CCC1
REMARK SMILES IDX 14 1 13 2 12 3 11 4 10 5 9 6 7 7 8 8 6 9 5 10 2 11 1 12 3 13
REMARK SMILES IDX 4 14 87 15 88 16 89 17 96 18 98 19 97 20 90 21 91 22 95 23
REMARK SMILES IDX 92 24 94 25 93 26 15 27 16 28 17 29 18 30 19 31 20 32 21 33
REMARK SMILES IDX 22 34 23 35 24 36 25 37 86 38 26 39 85 40 27 41 28 42 29 43
REMARK SMILES IDX 79 44 30 45 84 46 78 47 80 48 31 49 83 50 77 51 76 52 32 54
REMARK SMILES IDX 64 55 44 56 63 57 45 58 48 59 62 60 81 61 46 62 47 63 61 65
REMARK SMILES IDX 82 66 49 67 33 68 34 69 42 70 35 71 41 72 43 73 40 74 36 75
REMARK SMILES IDX 37 76 38 77 39 78 65 79 66 80 74 81 67 82 73 83 75 84 72 85
REMARK SMILES IDX 68 86 69 87 70 88 71 89 50 90 51 91 59 92 52 93 58 94 60 95
REMARK SMILES IDX 57 96 53 97 54 98 55 99 56 100
REMARK H PARENT 80 53 48 64
REMARK Flexibility Score: inf
ROOT
ATOM      1  C   UNL A   1      34.626  23.047  24.165  1.00  0.00     0.188 C 
ENDROOT
BRANCH   1   2
ATOM      2  C   UNL A   1      33.612  22.941  22.995  1.00  0.00     0.188 C 
BRANCH   2   3
ATOM      3  O   UNL A   1      32.213  23.073  23.197  1.00  0.00    -0.376 OA
BRANCH   3   4
ATOM      4  C   UNL A   1      31.632  22.399  24.297  1.00  0.00     0.202 C 
BRANCH   4   5
ATOM      5  C   UNL A   1      30.824  23.230  25.321  1.00  0.00     0.261 C 
BRANCH   5   6
ATOM      6  O   UNL A   1      30.942  24.677  25.200  1.00  0.00    -0.462 OA
BRANCH   6   7
ATOM      7  C   UNL A   1      29.830  25.415  25.440  1.00  0.00     0.325 C 
ATOM      8  O   UNL A   1      29.326  25.518  26.559  1.00  0.00    -0.250 OA
BRANCH   7   9
ATOM      9  C   UNL A   1      29.399  26.388  24.290  1.00  0.00     0.242 C 
BRANCH   9  10
ATOM     10  N   UNL A   1      30.076  27.316  23.325  1.00  0.00    -0.326 N 
BRANCH  10  11
ATOM     11  C   UNL A   1      29.380  28.647  23.077  1.00  0.00     0.035 C 
ATOM     12  C   UNL A   1      29.723  29.710  24.154  1.00  0.00     0.034 C 
ATOM     13  C   UNL A   1      27.857  28.435  23.095  1.00  0.00     0.034 C 
ATOM     14  C   UNL A   1      29.782  29.324  21.735  1.00  0.00     0.034 C 
ENDBRANCH  10  11
BRANCH  10  15
ATOM     15  C   UNL A   1      31.401  27.110  22.739  1.00  0.00     0.234 C 
ATOM     16  O   UNL A   1      31.514  26.273  21.820  1.00  0.00    -0.274 OA
BRANCH  15  17
ATOM     17  C   UNL A   1      32.791  27.828  23.212  1.00  0.00     0.074 C 
ATOM     18  C   UNL A   1      33.989  27.190  22.408  1.00  0.00     0.022 C 
ATOM     19  C   UNL A   1      33.280  29.158  22.417  1.00  0.00     0.022 C 
ATOM     20  C   UNL A   1      34.689  28.533  22.371  1.00  0.00     0.003 C 
BRANCH  17  21
ATOM     21  C   UNL A   1      32.744  28.205  24.767  1.00  0.00    -0.032 A 
ATOM     22  C   UNL A   1      32.529  27.300  25.823  1.00  0.00     0.005 A 
ATOM     23  C   UNL A   1      32.789  29.578  25.113  1.00  0.00     0.005 A 
ATOM     24  C   UNL A   1      32.127  27.756  27.084  1.00  0.00     0.000 A 
ATOM     25  C   UNL A   1      32.425  30.037  26.374  1.00  0.00     0.000 A 
ATOM     26  C   UNL A   1      32.041  29.123  27.346  1.00  0.00     0.000 A 
ENDBRANCH  17  21
ENDBRANCH  15  17
ENDBRANCH  10  15
ENDBRANCH   9  10
ENDBRANCH   7   9
ENDBRANCH   6   7
ENDBRANCH   5   6
ENDBRANCH   4   5
ENDBRANCH   3   4
ENDBRANCH   2   3
ENDBRANCH   1   2
BRANCH   1  27
ATOM     27  O   UNL A   1      35.963  23.179  23.735  1.00  0.00    -0.377 OA
BRANCH  27  28
ATOM     28  C   UNL A   1      36.870  22.315  24.400  1.00  0.00     0.188 C 
BRANCH  28  29
ATOM     29  C   UNL A   1      36.346  20.921  24.813  1.00  0.00     0.188 C 
BRANCH  29  30
ATOM     30  O   UNL A   1      37.362  19.920  24.907  1.00  0.00    -0.376 OA
BRANCH  30  31
ATOM     31  C   UNL A   1      38.614  20.294  25.465  1.00  0.00     0.202 C 
BRANCH  31  32
ATOM     32  C   UNL A   1      39.607  19.134  25.638  1.00  0.00     0.261 C 
BRANCH  32  33
ATOM     33  O   UNL A   1      40.601  19.367  26.638  1.00  0.00    -0.460 OA
BRANCH  33  34
ATOM     34  C   UNL A   1      41.763  19.872  26.159  1.00  0.00     0.338 C 
ATOM     35  O   UNL A   1      42.476  19.373  25.319  1.00  0.00    -0.246 OA
BRANCH  34  36
ATOM     36  C   UNL A   1      41.850  21.272  26.617  1.00  0.00     0.060 A 
ATOM     37  C   UNL A   1      41.428  22.251  25.710  1.00  0.00     0.016 A 
ATOM     38  C   UNL A   1      42.261  21.615  27.911  1.00  0.00     0.016 A 
ATOM     39  C   UNL A   1      41.451  23.585  26.076  1.00  0.00     0.010 A 
ATOM     40  C   UNL A   1      42.338  22.964  28.262  1.00  0.00     0.010 A 
ATOM     41  C   UNL A   1      41.986  23.946  27.318  1.00  0.00    -0.014 A 
BRANCH  41  42
ATOM     42  C   UNL A   1      42.516  25.322  27.407  1.00  0.00     0.031 A 
ATOM     43  C   UNL A   1      41.642  26.333  28.099  1.00  0.00     0.074 A 
ATOM     44  C   UNL A   1      43.778  25.609  27.054  1.00  0.00     0.049 A 
ATOM     45  N   UNL A   1      41.900  27.566  28.443  1.00  0.00    -0.248 NA
ATOM     46  C   UNL A   1      40.292  25.877  28.466  1.00  0.00     0.031 C 
ATOM     47  C   UNL A   1      44.721  24.668  26.451  1.00  0.00     0.029 A 
ATOM     48  N   UNL A   1      44.489  26.771  27.179  1.00  0.00    -0.354 N 
ATOM     49  C   UNL A   1      40.745  28.026  29.069  1.00  0.00     0.074 A 
ATOM     50  C   UNL A   1      39.774  26.960  29.014  1.00  0.00     0.031 C 
ATOM     51  C   UNL A   1      45.892  25.297  26.254  1.00  0.00     0.029 A 
ATOM     52  C   UNL A   1      45.770  26.687  26.692  1.00  0.00     0.049 A 
ATOM     53  H   UNL A   1      44.117  27.591  27.579  1.00  0.00     0.167 HD
ATOM     54  C   UNL A   1      40.522  29.231  29.647  1.00  0.00     0.034 A 
ATOM     55  C   UNL A   1      46.722  27.636  26.599  1.00  0.00     0.034 A 
ATOM     56  C   UNL A   1      41.504  30.284  29.654  1.00  0.00     0.049 A 
ATOM     57  C   UNL A   1      46.425  29.005  27.162  1.00  0.00     0.074 A 
ATOM     58  C   UNL A   1      41.402  31.556  30.184  1.00  0.00     0.029 A 
ATOM     59  N   UNL A   1      42.769  30.190  29.081  1.00  0.00    -0.354 N 
ATOM     60  N   UNL A   1      45.332  29.440  27.748  1.00  0.00    -0.248 NA
ATOM     61  C   UNL A   1      47.498  30.000  27.072  1.00  0.00     0.031 C 
ATOM     62  C   UNL A   1      42.566  32.259  29.849  1.00  0.00     0.029 A 
ATOM     63  C   UNL A   1      43.441  31.394  29.207  1.00  0.00     0.049 A 
ATOM     64  H   UNL A   1      43.133  29.384  28.647  1.00  0.00     0.167 HD
ATOM     65  C   UNL A   1      45.597  30.754  28.125  1.00  0.00     0.074 A 
ATOM     66  C   UNL A   1      46.959  31.029  27.710  1.00  0.00     0.031 C 
ATOM     67  C   UNL A   1      44.796  31.649  28.765  1.00  0.00     0.034 A 
BRANCH  54  68
ATOM     68  C   UNL A   1      39.140  29.475  30.209  1.00  0.00     0.023 A 
ATOM     69  C   UNL A   1      38.155  30.190  29.499  1.00  0.00     0.031 A 
ATOM     70  C   UNL A   1      38.838  29.081  31.524  1.00  0.00     0.131 A 
ATOM     71  C   UNL A   1      36.969  30.577  30.142  1.00  0.00     0.055 A 
ATOM     72  C   UNL A   1      37.612  29.380  32.122  1.00  0.00     0.041 A 
ATOM     73  F   UNL A   1      39.745  28.428  32.267  1.00  0.00    -0.206 F 
ATOM     74  C   UNL A   1      36.678  30.152  31.439  1.00  0.00     0.022 A 
BRANCH  71  75
ATOM     75  S   UNL A   1      35.908  31.813  29.338  1.00  0.00     0.124 S 
ATOM     76  O   UNL A   1      35.313  31.031  28.258  1.00  0.00    -0.237 OA
ATOM     77  O   UNL A   1      35.007  32.204  30.416  1.00  0.00    -0.237 OA
ATOM     78  O   UNL A   1      36.850  32.843  28.905  1.00  0.00    -0.744 OA
ENDBRANCH  71  75
ENDBRANCH  54  68
BRANCH  55  79
ATOM     79  C   UNL A   1      48.009  27.332  25.911  1.00  0.00     0.023 A 
ATOM     80  C   UNL A   1      48.180  27.522  24.530  1.00  0.00     0.031 A 
ATOM     81  C   UNL A   1      49.100  26.830  26.647  1.00  0.00     0.131 A 
ATOM     82  C   UNL A   1      49.406  27.192  23.927  1.00  0.00     0.055 A 
ATOM     83  C   UNL A   1      50.329  26.550  26.051  1.00  0.00     0.041 A 
ATOM     84  F   UNL A   1      48.989  26.626  27.969  1.00  0.00    -0.206 F 
ATOM     85  C   UNL A   1      50.485  26.723  24.681  1.00  0.00     0.022 A 
BRANCH  82  86
ATOM     86  S   UNL A   1      49.559  27.330  22.125  1.00  0.00     0.124 S 
ATOM     87  O   UNL A   1      49.363  28.760  21.918  1.00  0.00    -0.237 OA
ATOM     88  O   UNL A   1      50.910  26.826  21.895  1.00  0.00    -0.237 OA
ATOM     89  O   UNL A   1      48.486  26.473  21.625  1.00  0.00    -0.744 OA
ENDBRANCH  82  86
ENDBRANCH  55  79
BRANCH  67  90
ATOM     90  C   UNL A   1      45.401  32.994  29.096  1.00  0.00     0.023 A 
ATOM     91  C   UNL A   1      46.111  33.219  30.288  1.00  0.00     0.031 A 
ATOM     92  C   UNL A   1      45.244  34.075  28.208  1.00  0.00     0.131 A 
ATOM     93  C   UNL A   1      46.564  34.510  30.597  1.00  0.00     0.055 A 
ATOM     94  C   UNL A   1      45.771  35.336  28.484  1.00  0.00     0.041 A 
ATOM     95  F   UNL A   1      44.573  33.921  27.056  1.00  0.00    -0.206 F 
ATOM     96  C   UNL A   1      46.418  35.566  29.693  1.00  0.00     0.022 A 
BRANCH  93  97
ATOM     97  S   UNL A   1      47.213  34.825  32.261  1.00  0.00     0.124 S 
ATOM     98  O   UNL A   1      46.976  36.257  32.412  1.00  0.00    -0.237 OA
ATOM     99  O   UNL A   1      46.388  33.951  33.088  1.00  0.00    -0.237 OA
ATOM    100  O   UNL A   1      48.619  34.437  32.158  1.00  0.00    -0.744 OA
ENDBRANCH  93  97
ENDBRANCH  67  90
ENDBRANCH  41  42
ENDBRANCH  34  36
ENDBRANCH  33  34
ENDBRANCH  32  33
ENDBRANCH  31  32
ENDBRANCH  30  31
ENDBRANCH  29  30
ENDBRANCH  28  29
ENDBRANCH  27  28
ENDBRANCH   1  27
TORSDOF 28
ENDMDL
MODEL 3
REMARK VINA RESULT:      -8.2      3.313      8.701
REMARK SMILES CC(C)(C)N(CC(=O)OCCOCCOCCOCCOC(=O)c1ccc(-c2c3nc(c(-c4cc(S(=O)(=O)[O-])ccc4F)c4ccc([nH]4)c(-c4cc(S(=O)(=O)[O-])ccc4F)c4nc(c(-c5cc(S(=O)(=O)[O-])ccc5F)c5ccc2[nH]5)C=C4)C=C3)cc1)C(=O)C1(c2ccccc2)CCC1
REMARK SMILES IDX 14 1 13 2 12 3 11 4 10 5 9 6 7 7 8 8 6 9 5 10 2 11 1 12 3 13
REMARK SMILES IDX 4 14 87 15 88 16 89 17 96 18 98 19 97 20 90 21 91 22 95 23
REMARK SMILES IDX 92 24 94 25 93 26 15 27 16 28 17 29 18 30 19 31 20 32 21 33
REMARK SMILES IDX 22 34 23 35 24 36 25 37 86 38 26 39 85 40 27 41 28 42 29 43
REMARK SMILES IDX 79 44 30 45 84 46 78 47 80 48 31 49 83 50 77 51 76 52 32 54
REMARK SMILES IDX 64 55 44 56 63 57 45 58 48 59 62 60 81 61 46 62 47 63 61 65
REMARK SMILES IDX 82 66 49 67 33 68 34 69 42 70 35 71 41 72 43 73 40 74 36 75
REMARK SMILES IDX 37 76 38 77 39 78 65 79 66 80 74 81 67 82 73 83 75 84 72 85
REMARK SMILES IDX 68 86 69 87 70 88 71 89 50 90 51 91 59 92 52 93 58 94 60 95
REMARK SMILES IDX 57 96 53 97 54 98 55 99 56 100
REMARK H PARENT 80 53 48 64
REMARK Flexibility Score: inf
ROOT
ATOM      1  C   UNL A   1      34.415  23.489  22.949  1.00  0.00     0.188 C 
ENDROOT
BRANCH   1   2
ATOM      2  C   UNL A   1      33.543  23.656  21.676  1.00  0.00     0.188 C 
BRANCH   2   3
ATOM      3  O   UNL A   1      33.100  24.928  21.228  1.00  0.00    -0.376 OA
BRANCH   3   4
ATOM      4  C   UNL A   1      33.491  26.069  21.968  1.00  0.00     0.202 C 
BRANCH   4   5
ATOM      5  C   UNL A   1      32.613  27.339  21.875  1.00  0.00     0.261 C 
BRANCH   5   6
ATOM      6  O   UNL A   1      31.192  27.150  22.134  1.00  0.00    -0.462 OA
BRANCH   6   7
ATOM      7  C   UNL A   1      30.508  28.199  22.655  1.00  0.00     0.325 C 
ATOM      8  O   UNL A   1      29.590  28.760  22.057  1.00  0.00    -0.250 OA
BRANCH   7   9
ATOM      9  C   UNL A   1      30.729  28.461  24.185  1.00  0.00     0.242 C 
BRANCH   9  10
ATOM     10  N   UNL A   1      31.655  27.976  25.260  1.00  0.00    -0.326 N 
BRANCH  10  11
ATOM     11  C   UNL A   1      32.894  28.824  25.510  1.00  0.00     0.035 C 
ATOM     12  C   UNL A   1      33.551  29.325  24.196  1.00  0.00     0.034 C 
ATOM     13  C   UNL A   1      33.938  27.987  26.267  1.00  0.00     0.034 C 
ATOM     14  C   UNL A   1      32.610  30.127  26.313  1.00  0.00     0.034 C 
ENDBRANCH  10  11
BRANCH  10  15
ATOM     15  C   UNL A   1      31.386  26.862  26.170  1.00  0.00     0.234 C 
ATOM     16  O   UNL A   1      31.264  27.112  27.386  1.00  0.00    -0.274 OA
BRANCH  15  17
ATOM     17  C   UNL A   1      31.288  25.281  25.763  1.00  0.00     0.074 C 
ATOM     18  C   UNL A   1      29.779  24.926  25.474  1.00  0.00     0.022 C 
ATOM     19  C   UNL A   1      31.433  24.879  24.196  1.00  0.00     0.022 C 
ATOM     20  C   UNL A   1      30.206  23.964  24.384  1.00  0.00     0.003 C 
BRANCH  17  21
ATOM     21  C   UNL A   1      32.364  24.413  26.570  1.00  0.00    -0.032 A 
ATOM     22  C   UNL A   1      33.761  24.527  26.455  1.00  0.00     0.005 A 
ATOM     23  C   UNL A   1      31.882  23.348  27.371  1.00  0.00     0.005 A 
ATOM     24  C   UNL A   1      34.601  23.496  26.893  1.00  0.00     0.000 A 
ATOM     25  C   UNL A   1      32.715  22.339  27.840  1.00  0.00     0.000 A 
ATOM     26  C   UNL A   1      34.072  22.387  27.553  1.00  0.00     0.000 A 
ENDBRANCH  17  21
ENDBRANCH  15  17
ENDBRANCH  10  15
ENDBRANCH   9  10
ENDBRANCH   7   9
ENDBRANCH   6   7
ENDBRANCH   5   6
ENDBRANCH   4   5
ENDBRANCH   3   4
ENDBRANCH   2   3
ENDBRANCH   1   2
BRANCH   1  27
ATOM     27  O   UNL A   1      35.790  23.351  22.670  1.00  0.00    -0.377 OA
BRANCH  27  28
ATOM     28  C   UNL A   1      36.556  22.884  23.770  1.00  0.00     0.188 C 
BRANCH  28  29
ATOM     29  C   UNL A   1      35.939  21.765  24.638  1.00  0.00     0.188 C 
BRANCH  29  30
ATOM     30  O   UNL A   1      36.900  20.876  25.212  1.00  0.00    -0.376 OA
BRANCH  30  31
ATOM     31  C   UNL A   1      38.200  21.383  25.479  1.00  0.00     0.202 C 
BRANCH  31  32
ATOM     32  C   UNL A   1      39.207  20.332  25.970  1.00  0.00     0.261 C 
BRANCH  32  33
ATOM     33  O   UNL A   1      40.166  20.838  26.901  1.00  0.00    -0.460 OA
BRANCH  33  34
ATOM     34  C   UNL A   1      41.414  20.337  26.739  1.00  0.00     0.338 C 
ATOM     35  O   UNL A   1      41.704  19.209  26.412  1.00  0.00    -0.246 OA
BRANCH  34  36
ATOM     36  C   UNL A   1      42.345  21.482  26.738  1.00  0.00     0.060 A 
ATOM     37  C   UNL A   1      42.664  22.027  27.987  1.00  0.00     0.016 A 
ATOM     38  C   UNL A   1      42.943  21.963  25.567  1.00  0.00     0.016 A 
ATOM     39  C   UNL A   1      43.553  23.083  28.072  1.00  0.00     0.010 A 
ATOM     40  C   UNL A   1      43.796  23.066  25.645  1.00  0.00     0.010 A 
ATOM     41  C   UNL A   1      44.051  23.656  26.896  1.00  0.00    -0.014 A 
BRANCH  41  42
ATOM     42  C   UNL A   1      44.481  25.065  27.007  1.00  0.00     0.031 A 
ATOM     43  C   UNL A   1      43.465  26.036  27.545  1.00  0.00     0.074 A 
ATOM     44  C   UNL A   1      45.760  25.423  26.812  1.00  0.00     0.049 A 
ATOM     45  N   UNL A   1      43.601  27.291  27.880  1.00  0.00    -0.248 NA
ATOM     46  C   UNL A   1      42.107  25.504  27.749  1.00  0.00     0.031 C 
ATOM     47  C   UNL A   1      46.827  24.528  26.368  1.00  0.00     0.029 A 
ATOM     48  N   UNL A   1      46.377  26.630  26.990  1.00  0.00    -0.354 N 
ATOM     49  C   UNL A   1      42.349  27.692  28.335  1.00  0.00     0.074 A 
ATOM     50  C   UNL A   1      41.458  26.565  28.189  1.00  0.00     0.031 C 
ATOM     51  C   UNL A   1      47.975  25.226  26.305  1.00  0.00     0.029 A 
ATOM     52  C   UNL A   1      47.714  26.615  26.677  1.00  0.00     0.049 A 
ATOM     53  H   UNL A   1      45.907  27.434  27.311  1.00  0.00     0.167 HD
ATOM     54  C   UNL A   1      41.980  28.894  28.838  1.00  0.00     0.034 A 
ATOM     55  C   UNL A   1      48.611  27.620  26.677  1.00  0.00     0.034 A 
ATOM     56  C   UNL A   1      42.888  30.007  28.939  1.00  0.00     0.049 A 
ATOM     57  C   UNL A   1      48.162  28.981  27.151  1.00  0.00     0.074 A 
ATOM     58  C   UNL A   1      42.642  31.284  29.408  1.00  0.00     0.029 A 
ATOM     59  N   UNL A   1      44.220  29.979  28.538  1.00  0.00    -0.354 N 
ATOM     60  N   UNL A   1      46.977  29.360  27.576  1.00  0.00    -0.248 NA
ATOM     61  C   UNL A   1      49.176  30.039  27.168  1.00  0.00     0.031 C 
ATOM     62  C   UNL A   1      43.795  32.050  29.204  1.00  0.00     0.029 A 
ATOM     63  C   UNL A   1      44.798  31.227  28.710  1.00  0.00     0.049 A 
ATOM     64  H   UNL A   1      44.686  29.188  28.182  1.00  0.00     0.167 HD
ATOM     65  C   UNL A   1      47.111  30.698  27.940  1.00  0.00     0.074 A 
ATOM     66  C   UNL A   1      48.497  31.048  27.696  1.00  0.00     0.031 C 
ATOM     67  C   UNL A   1      46.181  31.556  28.440  1.00  0.00     0.034 A 
BRANCH  54  68
ATOM     68  C   UNL A   1      40.523  29.064  29.208  1.00  0.00     0.023 A 
ATOM     69  C   UNL A   1      40.085  29.080  30.547  1.00  0.00     0.031 A 
ATOM     70  C   UNL A   1      39.544  29.101  28.200  1.00  0.00     0.131 A 
ATOM     71  C   UNL A   1      38.712  29.022  30.835  1.00  0.00     0.055 A 
ATOM     72  C   UNL A   1      38.180  29.149  28.497  1.00  0.00     0.041 A 
ATOM     73  F   UNL A   1      39.894  29.053  26.905  1.00  0.00    -0.206 F 
ATOM     74  C   UNL A   1      37.757  29.086  29.820  1.00  0.00     0.022 A 
BRANCH  71  75
ATOM     75  S   UNL A   1      38.197  28.652  32.538  1.00  0.00     0.124 S 
ATOM     76  O   UNL A   1      39.221  29.351  33.312  1.00  0.00    -0.237 OA
ATOM     77  O   UNL A   1      36.856  29.221  32.592  1.00  0.00    -0.237 OA
ATOM     78  O   UNL A   1      38.262  27.194  32.606  1.00  0.00    -0.744 OA
ENDBRANCH  71  75
ENDBRANCH  54  68
BRANCH  55  79
ATOM     79  C   UNL A   1      49.994  27.381  26.172  1.00  0.00     0.023 A 
ATOM     80  C   UNL A   1      51.062  27.087  27.035  1.00  0.00     0.031 A 
ATOM     81  C   UNL A   1      50.263  27.455  24.792  1.00  0.00     0.131 A 
ATOM     82  C   UNL A   1      52.352  26.899  26.509  1.00  0.00     0.055 A 
ATOM     83  C   UNL A   1      51.535  27.220  24.272  1.00  0.00     0.041 A 
ATOM     84  F   UNL A   1      49.278  27.737  23.924  1.00  0.00    -0.206 F 
ATOM     85  C   UNL A   1      52.591  26.947  25.132  1.00  0.00     0.022 A 
BRANCH  82  86
ATOM     86  S   UNL A   1      53.735  26.643  27.655  1.00  0.00     0.124 S 
ATOM     87  O   UNL A   1      54.300  25.391  27.164  1.00  0.00    -0.237 OA
ATOM     88  O   UNL A   1      54.538  27.842  27.434  1.00  0.00    -0.237 OA
ATOM     89  O   UNL A   1      53.085  26.566  28.961  1.00  0.00    -0.744 OA
ENDBRANCH  82  86
ENDBRANCH  55  79
BRANCH  67  90
ATOM     90  C   UNL A   1      46.656  32.944  28.803  1.00  0.00     0.023 A 
ATOM     91  C   UNL A   1      46.476  34.042  27.945  1.00  0.00     0.031 A 
ATOM     92  C   UNL A   1      47.322  33.163  30.024  1.00  0.00     0.131 A 
ATOM     93  C   UNL A   1      47.026  35.288  28.281  1.00  0.00     0.055 A 
ATOM     94  C   UNL A   1      47.792  34.424  30.389  1.00  0.00     0.041 A 
ATOM     95  F   UNL A   1      47.526  32.152  30.883  1.00  0.00    -0.206 F 
ATOM     96  C   UNL A   1      47.664  35.492  29.508  1.00  0.00     0.022 A 
BRANCH  93  97
ATOM     97  S   UNL A   1      47.028  36.600  27.029  1.00  0.00     0.124 S 
ATOM     98  O   UNL A   1      47.648  37.706  27.752  1.00  0.00    -0.237 OA
ATOM     99  O   UNL A   1      47.828  36.009  25.960  1.00  0.00    -0.237 OA
ATOM    100  O   UNL A   1      45.611  36.778  26.718  1.00  0.00    -0.744 OA
ENDBRANCH  93  97
ENDBRANCH  67  90
ENDBRANCH  41  42
ENDBRANCH  34  36
ENDBRANCH  33  34
ENDBRANCH  32  33
ENDBRANCH  31  32
ENDBRANCH  30  31
ENDBRANCH  29  30
ENDBRANCH  28  29
ENDBRANCH  27  28
ENDBRANCH   1  27
TORSDOF 28
ENDMDL
