MODEL 1
REMARK VINA RESULT:      -8.9      0.000      0.000
REMARK SMILES O=C(N[C@@H](Cc1ccc(O)cc1)C(=O)N[C@@H](CO)C(=O)OCCOCCOCCOCCOC(=O)c1ccc(-c2c3nc(c(-c4cc(S(=O)(=O)[O-])ccc4F)c4ccc([nH]4)c(-c4cc(S(=O)(=O)[O-])ccc4F)c4nc(c(-c5cc(S(=O)(=O)[O-])ccc5F)c5ccc2[nH]5)C=C4)C=C3)cc1)c1ccc(F)cc1
REMARK SMILES IDX 26 1 25 2 24 3 23 4 22 5 21 6 19 7 20 8 16 9 15 10 13 11
REMARK SMILES IDX 14 12 4 14 3 15 1 16 2 17 99 19 100 20 105 21 101 22 104 23
REMARK SMILES IDX 102 24 103 25 5 26 6 27 7 28 12 29 8 30 11 31 9 32 10 33
REMARK SMILES IDX 17 35 18 36 27 38 28 39 29 40 30 41 31 42 32 43 33 44 34 45
REMARK SMILES IDX 35 46 36 47 37 48 98 49 38 50 97 51 39 52 40 53 41 54 91 55
REMARK SMILES IDX 42 56 96 57 90 58 92 59 43 60 95 61 89 62 88 63 44 65 76 66
REMARK SMILES IDX 56 67 75 68 57 69 60 70 74 71 93 72 58 73 59 74 73 76 94 77
REMARK SMILES IDX 61 78 45 79 46 80 54 81 47 82 53 83 55 84 52 85 48 86 49 87
REMARK SMILES IDX 50 88 51 89 77 90 78 91 86 92 79 93 85 94 87 95 84 96 80 97
REMARK SMILES IDX 81 98 82 99 83 100 62 101 63 102 71 103 64 104 70 105 72 106
REMARK SMILES IDX 69 107 65 108 66 109 67 110 68 111
REMARK H PARENT 15 13 3 18 10 34 18 37 92 64 60 75
REMARK Flexibility Score: inf
ROOT
ATOM      1  C   UNL A   1      38.176  23.046  26.207  1.00  0.00     0.188 C 
ENDROOT
BRANCH   1   2
ATOM      2  C   UNL A   1      36.766  23.035  25.619  1.00  0.00     0.188 C 
BRANCH   2   3
ATOM      3  O   UNL A   1      36.655  23.545  24.298  1.00  0.00    -0.376 OA
BRANCH   3   4
ATOM      4  C   UNL A   1      35.565  23.020  23.544  1.00  0.00     0.202 C 
BRANCH   4   5
ATOM      5  C   UNL A   1      34.219  23.026  24.280  1.00  0.00     0.261 C 
BRANCH   5   6
ATOM      6  O   UNL A   1      33.301  22.013  23.813  1.00  0.00    -0.462 OA
BRANCH   6   7
ATOM      7  C   UNL A   1      32.548  21.357  24.733  1.00  0.00     0.331 C 
ATOM      8  O   UNL A   1      31.851  20.376  24.488  1.00  0.00    -0.250 OA
BRANCH   7   9
ATOM      9  C   UNL A   1      32.640  22.021  26.131  1.00  0.00     0.218 C 
BRANCH   9  10
ATOM     10  N   UNL A   1      31.369  22.288  26.818  1.00  0.00    -0.339 N 
ATOM     11  C   UNL A   1      30.546  23.370  26.872  1.00  0.00     0.243 C 
ATOM     12  O   UNL A   1      29.495  23.221  27.512  1.00  0.00    -0.273 OA
ATOM     13  H   UNL A   1      31.046  21.526  27.350  1.00  0.00     0.164 HD
BRANCH  11  14
ATOM     14  C   UNL A   1      30.816  24.752  26.223  1.00  0.00     0.176 C 
BRANCH  14  15
ATOM     15  N   UNL A   1      29.600  25.346  25.679  1.00  0.00    -0.340 N 
ATOM     16  O   UNL A   1      28.346  26.536  24.247  1.00  0.00    -0.269 OA
ATOM     17  C   UNL A   1      29.401  25.945  24.460  1.00  0.00     0.251 C 
ATOM     18  H   UNL A   1      28.812  25.314  26.268  1.00  0.00     0.164 HD
BRANCH  17  19
ATOM     19  C   UNL A   1      30.443  25.923  23.404  1.00  0.00     0.040 A 
ATOM     20  C   UNL A   1      31.151  24.755  23.088  1.00  0.00     0.017 A 
ATOM     21  C   UNL A   1      30.648  27.090  22.655  1.00  0.00     0.017 A 
ATOM     22  C   UNL A   1      32.101  24.772  22.063  1.00  0.00     0.040 A 
ATOM     23  C   UNL A   1      31.589  27.098  21.622  1.00  0.00     0.040 A 
ATOM     24  C   UNL A   1      32.311  25.942  21.340  1.00  0.00     0.123 A 
ATOM     25  F   UNL A   1      33.212  25.954  20.349  1.00  0.00    -0.207 F 
ENDBRANCH  17  19
ENDBRANCH  14  15
BRANCH  14  26
ATOM     26  C   UNL A   1      31.813  25.741  26.885  1.00  0.00     0.070 C 
BRANCH  26  27
ATOM     27  C   UNL A   1      32.479  26.854  26.112  1.00  0.00    -0.045 A 
ATOM     28  C   UNL A   1      33.602  26.666  25.305  1.00  0.00     0.007 A 
ATOM     29  C   UNL A   1      31.956  28.155  26.210  1.00  0.00     0.007 A 
ATOM     30  C   UNL A   1      33.967  27.641  24.374  1.00  0.00     0.046 A 
ATOM     31  C   UNL A   1      32.342  29.150  25.310  1.00  0.00     0.046 A 
ATOM     32  C   UNL A   1      33.276  28.842  24.338  1.00  0.00     0.115 A 
BRANCH  32  33
ATOM     33  O   UNL A   1      33.446  29.700  23.295  1.00  0.00    -0.508 OA
ATOM     34  H   UNL A   1      34.240  29.681  22.798  1.00  0.00     0.293 HD
ENDBRANCH  32  33
ENDBRANCH  26  27
ENDBRANCH  14  26
ENDBRANCH  11  14
ENDBRANCH   9  10
BRANCH   9  35
ATOM     35  C   UNL A   1      33.555  21.166  27.012  1.00  0.00     0.193 C 
BRANCH  35  36
ATOM     36  O   UNL A   1      33.278  19.777  26.877  1.00  0.00    -0.394 OA
ATOM     37  H   UNL A   1      33.436  19.504  25.960  1.00  0.00     0.210 HD
ENDBRANCH  35  36
ENDBRANCH   9  35
ENDBRANCH   7   9
ENDBRANCH   6   7
ENDBRANCH   5   6
ENDBRANCH   4   5
ENDBRANCH   3   4
ENDBRANCH   2   3
ENDBRANCH   1   2
BRANCH   1  38
ATOM     38  O   UNL A   1      39.129  22.161  25.673  1.00  0.00    -0.377 OA
BRANCH  38  39
ATOM     39  C   UNL A   1      39.654  21.159  26.525  1.00  0.00     0.188 C 
BRANCH  39  40
ATOM     40  C   UNL A   1      40.231  19.853  25.941  1.00  0.00     0.188 C 
BRANCH  40  41
ATOM     41  O   UNL A   1      41.304  19.262  26.672  1.00  0.00    -0.376 OA
BRANCH  41  42
ATOM     42  C   UNL A   1      42.610  19.466  26.146  1.00  0.00     0.202 C 
BRANCH  42  43
ATOM     43  C   UNL A   1      43.030  20.938  26.054  1.00  0.00     0.261 C 
BRANCH  43  44
ATOM     44  O   UNL A   1      44.365  21.156  25.580  1.00  0.00    -0.460 OA
BRANCH  44  45
ATOM     45  C   UNL A   1      44.568  22.207  24.745  1.00  0.00     0.338 C 
ATOM     46  O   UNL A   1      44.449  22.221  23.542  1.00  0.00    -0.246 OA
BRANCH  45  47
ATOM     47  C   UNL A   1      44.744  23.395  25.609  1.00  0.00     0.060 A 
ATOM     48  C   UNL A   1      46.016  23.661  26.137  1.00  0.00     0.016 A 
ATOM     49  C   UNL A   1      43.696  24.302  25.783  1.00  0.00     0.016 A 
ATOM     50  C   UNL A   1      46.244  24.853  26.828  1.00  0.00     0.010 A 
ATOM     51  C   UNL A   1      43.914  25.470  26.511  1.00  0.00     0.010 A 
ATOM     52  C   UNL A   1      45.184  25.744  27.047  1.00  0.00    -0.014 A 
BRANCH  52  53
ATOM     53  C   UNL A   1      45.320  26.827  28.047  1.00  0.00     0.031 A 
ATOM     54  C   UNL A   1      45.067  26.468  29.484  1.00  0.00     0.074 A 
ATOM     55  C   UNL A   1      45.615  28.092  27.696  1.00  0.00     0.049 A 
ATOM     56  N   UNL A   1      45.017  27.235  30.538  1.00  0.00    -0.248 NA
ATOM     57  C   UNL A   1      44.830  25.041  29.760  1.00  0.00     0.031 C 
ATOM     58  C   UNL A   1      45.921  28.548  26.342  1.00  0.00     0.029 A 
ATOM     59  N   UNL A   1      45.687  29.230  28.460  1.00  0.00    -0.354 N 
ATOM     60  C   UNL A   1      44.750  26.384  31.605  1.00  0.00     0.074 A 
ATOM     61  C   UNL A   1      44.618  25.051  31.064  1.00  0.00     0.031 C 
ATOM     62  C   UNL A   1      46.124  29.879  26.367  1.00  0.00     0.029 A 
ATOM     63  C   UNL A   1      45.923  30.373  27.730  1.00  0.00     0.049 A 
ATOM     64  H   UNL A   1      45.578  29.230  29.438  1.00  0.00     0.167 HD
ATOM     65  C   UNL A   1      44.627  26.689  32.919  1.00  0.00     0.034 A 
ATOM     66  C   UNL A   1      45.935  31.666  28.119  1.00  0.00     0.034 A 
ATOM     67  C   UNL A   1      44.707  28.028  33.436  1.00  0.00     0.049 A 
ATOM     68  C   UNL A   1      45.666  31.996  29.570  1.00  0.00     0.074 A 
ATOM     69  C   UNL A   1      44.594  28.455  34.747  1.00  0.00     0.029 A 
ATOM     70  N   UNL A   1      44.893  29.165  32.660  1.00  0.00    -0.354 N 
ATOM     71  N   UNL A   1      45.434  31.183  30.577  1.00  0.00    -0.248 NA
ATOM     72  C   UNL A   1      45.654  33.419  29.938  1.00  0.00     0.031 C 
ATOM     73  C   UNL A   1      44.638  29.854  34.754  1.00  0.00     0.029 A 
ATOM     74  C   UNL A   1      44.856  30.297  33.459  1.00  0.00     0.049 A 
ATOM     75  H   UNL A   1      45.031  29.167  31.685  1.00  0.00     0.167 HD
ATOM     76  C   UNL A   1      45.276  31.997  31.697  1.00  0.00     0.074 A 
ATOM     77  C   UNL A   1      45.449  33.361  31.246  1.00  0.00     0.031 C 
ATOM     78  C   UNL A   1      45.016  31.651  32.984  1.00  0.00     0.034 A 
BRANCH  65  79
ATOM     79  C   UNL A   1      44.324  25.548  33.855  1.00  0.00     0.023 A 
ATOM     80  C   UNL A   1      45.309  24.610  34.212  1.00  0.00     0.031 A 
ATOM     81  C   UNL A   1      43.021  25.358  34.344  1.00  0.00     0.131 A 
ATOM     82  C   UNL A   1      44.959  23.485  34.973  1.00  0.00     0.055 A 
ATOM     83  C   UNL A   1      42.696  24.278  35.165  1.00  0.00     0.041 A 
ATOM     84  F   UNL A   1      42.035  26.205  34.009  1.00  0.00    -0.206 F 
ATOM     85  C   UNL A   1      43.664  23.325  35.472  1.00  0.00     0.022 A 
BRANCH  82  86
ATOM     86  S   UNL A   1      46.182  22.161  35.176  1.00  0.00     0.124 S 
ATOM     87  O   UNL A   1      46.124  21.503  33.873  1.00  0.00    -0.237 OA
ATOM     88  O   UNL A   1      47.404  22.903  35.464  1.00  0.00    -0.237 OA
ATOM     89  O   UNL A   1      45.653  21.374  36.288  1.00  0.00    -0.744 OA
ENDBRANCH  82  86
ENDBRANCH  65  79
BRANCH  66  90
ATOM     90  C   UNL A   1      46.142  32.761  27.125  1.00  0.00     0.023 A 
ATOM     91  C   UNL A   1      47.422  33.276  26.867  1.00  0.00     0.031 A 
ATOM     92  C   UNL A   1      45.048  33.363  26.477  1.00  0.00     0.131 A 
ATOM     93  C   UNL A   1      47.573  34.389  26.022  1.00  0.00     0.055 A 
ATOM     94  C   UNL A   1      45.208  34.436  25.598  1.00  0.00     0.041 A 
ATOM     95  F   UNL A   1      43.800  32.916  26.693  1.00  0.00    -0.206 F 
ATOM     96  C   UNL A   1      46.476  34.965  25.377  1.00  0.00     0.022 A 
BRANCH  93  97
ATOM     97  S   UNL A   1      49.220  35.132  25.846  1.00  0.00     0.124 S 
ATOM     98  O   UNL A   1      49.898  34.152  25.005  1.00  0.00    -0.237 OA
ATOM     99  O   UNL A   1      48.908  36.412  25.219  1.00  0.00    -0.237 OA
ATOM    100  O   UNL A   1      49.705  35.217  27.222  1.00  0.00    -0.744 OA
ENDBRANCH  93  97
ENDBRANCH  66  90
BRANCH  78 101
ATOM    101  C   UNL A   1      44.945  32.765  33.999  1.00  0.00     0.023 A 
ATOM    102  C   UNL A   1      46.091  33.235  34.664  1.00  0.00     0.031 A 
ATOM    103  C   UNL A   1      43.712  33.376  34.290  1.00  0.00     0.131 A 
ATOM    104  C   UNL A   1      45.972  34.257  35.619  1.00  0.00     0.055 A 
ATOM    105  C   UNL A   1      43.610  34.429  35.200  1.00  0.00     0.041 A 
ATOM    106  F   UNL A   1      42.587  32.966  33.682  1.00  0.00    -0.206 F 
ATOM    107  C   UNL A   1      44.743  34.869  35.877  1.00  0.00     0.022 A 
BRANCH 104 108
ATOM    108  S   UNL A   1      47.441  34.737  36.571  1.00  0.00     0.124 S 
ATOM    109  O   UNL A   1      48.218  35.473  35.579  1.00  0.00    -0.237 OA
ATOM    110  O   UNL A   1      46.867  35.535  37.650  1.00  0.00    -0.237 OA
ATOM    111  O   UNL A   1      48.015  33.458  36.985  1.00  0.00    -0.744 OA
ENDBRANCH 104 108
ENDBRANCH  78 101
ENDBRANCH  52  53
ENDBRANCH  45  47
ENDBRANCH  44  45
ENDBRANCH  43  44
ENDBRANCH  42  43
ENDBRANCH  41  42
ENDBRANCH  40  41
ENDBRANCH  39  40
ENDBRANCH  38  39
ENDBRANCH   1  38
TORSDOF 32
ENDMDL
MODEL 2
REMARK VINA RESULT:      -8.7      3.870      8.227
REMARK SMILES O=C(N[C@@H](Cc1ccc(O)cc1)C(=O)N[C@@H](CO)C(=O)OCCOCCOCCOCCOC(=O)c1ccc(-c2c3nc(c(-c4cc(S(=O)(=O)[O-])ccc4F)c4ccc([nH]4)c(-c4cc(S(=O)(=O)[O-])ccc4F)c4nc(c(-c5cc(S(=O)(=O)[O-])ccc5F)c5ccc2[nH]5)C=C4)C=C3)cc1)c1ccc(F)cc1
REMARK SMILES IDX 26 1 25 2 24 3 23 4 22 5 21 6 19 7 20 8 16 9 15 10 13 11
REMARK SMILES IDX 14 12 4 14 3 15 1 16 2 17 99 19 100 20 105 21 101 22 104 23
REMARK SMILES IDX 102 24 103 25 5 26 6 27 7 28 12 29 8 30 11 31 9 32 10 33
REMARK SMILES IDX 17 35 18 36 27 38 28 39 29 40 30 41 31 42 32 43 33 44 34 45
REMARK SMILES IDX 35 46 36 47 37 48 98 49 38 50 97 51 39 52 40 53 41 54 91 55
REMARK SMILES IDX 42 56 96 57 90 58 92 59 43 60 95 61 89 62 88 63 44 65 76 66
REMARK SMILES IDX 56 67 75 68 57 69 60 70 74 71 93 72 58 73 59 74 73 76 94 77
REMARK SMILES IDX 61 78 45 79 46 80 54 81 47 82 53 83 55 84 52 85 48 86 49 87
REMARK SMILES IDX 50 88 51 89 77 90 78 91 86 92 79 93 85 94 87 95 84 96 80 97
REMARK SMILES IDX 81 98 82 99 83 100 62 101 63 102 71 103 64 104 70 105 72 106
REMARK SMILES IDX 69 107 65 108 66 109 67 110 68 111
REMARK H PARENT 15 13 3 18 10 34 18 37 92 64 60 75
REMARK Flexibility Score: inf
ROOT
ATOM      1  C   UNL A   1      37.982  22.339  25.449  1.00  0.00     0.188 C 
ENDROOT
BRANCH   1   2
ATOM      2  C   UNL A   1      36.950  21.566  24.630  1.00  0.00     0.188 C 
BRANCH   2   3
ATOM      3  O   UNL A   1      35.810  21.122  25.352  1.00  0.00    -0.376 OA
BRANCH   3   4
ATOM      4  C   UNL A   1      35.570  21.816  26.573  1.00  0.00     0.202 C 
BRANCH   4   5
ATOM      5  C   UNL A   1      34.203  21.535  27.209  1.00  0.00     0.261 C 
BRANCH   5   6
ATOM      6  O   UNL A   1      33.548  22.718  27.718  1.00  0.00    -0.462 OA
BRANCH   6   7
ATOM      7  C   UNL A   1      32.690  23.379  26.899  1.00  0.00     0.331 C 
ATOM      8  O   UNL A   1      31.530  23.036  26.686  1.00  0.00    -0.250 OA
BRANCH   7   9
ATOM      9  C   UNL A   1      33.364  24.603  26.227  1.00  0.00     0.218 C 
BRANCH   9  10
ATOM     10  N   UNL A   1      34.159  24.336  25.020  1.00  0.00    -0.339 N 
ATOM     11  C   UNL A   1      33.836  24.134  23.714  1.00  0.00     0.243 C 
ATOM     12  O   UNL A   1      34.789  23.998  22.934  1.00  0.00    -0.273 OA
ATOM     13  H   UNL A   1      35.128  24.294  25.193  1.00  0.00     0.164 HD
BRANCH  11  14
ATOM     14  C   UNL A   1      32.400  24.044  23.135  1.00  0.00     0.176 C 
BRANCH  14  15
ATOM     15  N   UNL A   1      32.331  24.545  21.768  1.00  0.00    -0.340 N 
ATOM     16  O   UNL A   1      31.827  25.982  20.118  1.00  0.00    -0.269 OA
ATOM     17  C   UNL A   1      31.988  25.797  21.321  1.00  0.00     0.251 C 
ATOM     18  H   UNL A   1      32.563  23.895  21.066  1.00  0.00     0.164 HD
BRANCH  17  19
ATOM     19  C   UNL A   1      31.776  26.926  22.261  1.00  0.00     0.040 A 
ATOM     20  C   UNL A   1      30.506  27.238  22.766  1.00  0.00     0.017 A 
ATOM     21  C   UNL A   1      32.901  27.631  22.711  1.00  0.00     0.017 A 
ATOM     22  C   UNL A   1      30.358  28.290  23.675  1.00  0.00     0.040 A 
ATOM     23  C   UNL A   1      32.749  28.672  23.630  1.00  0.00     0.040 A 
ATOM     24  C   UNL A   1      31.479  28.995  24.098  1.00  0.00     0.123 A 
ATOM     25  F   UNL A   1      31.337  29.995  24.980  1.00  0.00    -0.207 F 
ENDBRANCH  17  19
ENDBRANCH  14  15
BRANCH  14  26
ATOM     26  C   UNL A   1      31.509  22.812  23.449  1.00  0.00     0.070 C 
BRANCH  26  27
ATOM     27  C   UNL A   1      31.993  21.396  23.250  1.00  0.00    -0.045 A 
ATOM     28  C   UNL A   1      32.507  20.606  24.280  1.00  0.00     0.007 A 
ATOM     29  C   UNL A   1      31.938  20.834  21.963  1.00  0.00     0.007 A 
ATOM     30  C   UNL A   1      32.627  19.225  24.111  1.00  0.00     0.046 A 
ATOM     31  C   UNL A   1      32.095  19.460  21.775  1.00  0.00     0.046 A 
ATOM     32  C   UNL A   1      32.340  18.661  22.877  1.00  0.00     0.115 A 
BRANCH  32  33
ATOM     33  O   UNL A   1      32.212  17.312  22.752  1.00  0.00    -0.508 OA
ATOM     34  H   UNL A   1      31.464  16.951  22.317  1.00  0.00     0.293 HD
ENDBRANCH  32  33
ENDBRANCH  26  27
ENDBRANCH  14  26
ENDBRANCH  11  14
ENDBRANCH   9  10
BRANCH   9  35
ATOM     35  C   UNL A   1      32.285  25.648  25.935  1.00  0.00     0.193 C 
BRANCH  35  36
ATOM     36  O   UNL A   1      31.126  25.456  26.738  1.00  0.00    -0.394 OA
ATOM     37  H   UNL A   1      30.479  24.925  26.250  1.00  0.00     0.210 HD
ENDBRANCH  35  36
ENDBRANCH   9  35
ENDBRANCH   7   9
ENDBRANCH   6   7
ENDBRANCH   5   6
ENDBRANCH   4   5
ENDBRANCH   3   4
ENDBRANCH   2   3
ENDBRANCH   1   2
BRANCH   1  38
ATOM     38  O   UNL A   1      39.149  21.668  25.858  1.00  0.00    -0.377 OA
BRANCH  38  39
ATOM     39  C   UNL A   1      40.119  22.404  26.578  1.00  0.00     0.188 C 
BRANCH  39  40
ATOM     40  C   UNL A   1      41.624  22.181  26.325  1.00  0.00     0.188 C 
BRANCH  40  41
ATOM     41  O   UNL A   1      42.489  23.245  26.720  1.00  0.00    -0.376 OA
BRANCH  41  42
ATOM     42  C   UNL A   1      43.092  23.988  25.668  1.00  0.00     0.202 C 
BRANCH  42  43
ATOM     43  C   UNL A   1      42.302  25.230  25.240  1.00  0.00     0.261 C 
BRANCH  43  44
ATOM     44  O   UNL A   1      43.097  26.398  25.000  1.00  0.00    -0.460 OA
BRANCH  44  45
ATOM     45  C   UNL A   1      42.685  27.562  25.564  1.00  0.00     0.338 C 
ATOM     46  O   UNL A   1      42.044  28.444  25.043  1.00  0.00    -0.246 OA
BRANCH  45  47
ATOM     47  C   UNL A   1      42.974  27.445  27.011  1.00  0.00     0.060 A 
ATOM     48  C   UNL A   1      41.927  27.111  27.882  1.00  0.00     0.016 A 
ATOM     49  C   UNL A   1      44.289  27.533  27.477  1.00  0.00     0.016 A 
ATOM     50  C   UNL A   1      42.201  26.846  29.225  1.00  0.00     0.010 A 
ATOM     51  C   UNL A   1      44.554  27.312  28.827  1.00  0.00     0.010 A 
ATOM     52  C   UNL A   1      43.510  26.981  29.709  1.00  0.00    -0.014 A 
BRANCH  52  53
ATOM     53  C   UNL A   1      43.761  27.035  31.167  1.00  0.00     0.031 A 
ATOM     54  C   UNL A   1      43.549  28.358  31.848  1.00  0.00     0.074 A 
ATOM     55  C   UNL A   1      44.200  25.968  31.858  1.00  0.00     0.049 A 
ATOM     56  N   UNL A   1      43.792  28.707  33.082  1.00  0.00    -0.248 NA
ATOM     57  C   UNL A   1      42.993  29.434  31.011  1.00  0.00     0.031 C 
ATOM     58  C   UNL A   1      44.401  24.627  31.312  1.00  0.00     0.029 A 
ATOM     59  N   UNL A   1      44.574  25.856  33.174  1.00  0.00    -0.354 N 
ATOM     60  C   UNL A   1      43.411  30.041  33.172  1.00  0.00     0.074 A 
ATOM     61  C   UNL A   1      42.953  30.444  31.862  1.00  0.00     0.031 C 
ATOM     62  C   UNL A   1      44.886  23.831  32.283  1.00  0.00     0.029 A 
ATOM     63  C   UNL A   1      45.067  24.614  33.506  1.00  0.00     0.049 A 
ATOM     64  H   UNL A   1      44.497  26.594  33.820  1.00  0.00     0.167 HD
ATOM     65  C   UNL A   1      43.440  30.858  34.252  1.00  0.00     0.034 A 
ATOM     66  C   UNL A   1      45.633  24.183  34.652  1.00  0.00     0.034 A 
ATOM     67  C   UNL A   1      43.950  30.460  35.537  1.00  0.00     0.049 A 
ATOM     68  C   UNL A   1      45.776  25.150  35.808  1.00  0.00     0.074 A 
ATOM     69  C   UNL A   1      44.031  31.203  36.700  1.00  0.00     0.029 A 
ATOM     70  N   UNL A   1      44.491  29.212  35.820  1.00  0.00    -0.354 N 
ATOM     71  N   UNL A   1      45.394  26.405  35.891  1.00  0.00    -0.248 NA
ATOM     72  C   UNL A   1      46.431  24.643  37.022  1.00  0.00     0.031 C 
ATOM     73  C   UNL A   1      44.689  30.430  37.665  1.00  0.00     0.029 A 
ATOM     74  C   UNL A   1      44.948  29.179  37.128  1.00  0.00     0.049 A 
ATOM     75  H   UNL A   1      44.542  28.462  35.185  1.00  0.00     0.167 HD
ATOM     76  C   UNL A   1      45.741  26.825  37.174  1.00  0.00     0.074 A 
ATOM     77  C   UNL A   1      46.350  25.689  37.832  1.00  0.00     0.031 C 
ATOM     78  C   UNL A   1      45.567  28.037  37.760  1.00  0.00     0.034 A 
BRANCH  65  79
ATOM     79  C   UNL A   1      42.968  32.273  34.046  1.00  0.00     0.023 A 
ATOM     80  C   UNL A   1      41.609  32.618  34.156  1.00  0.00     0.031 A 
ATOM     81  C   UNL A   1      43.878  33.277  33.673  1.00  0.00     0.131 A 
ATOM     82  C   UNL A   1      41.188  33.913  33.823  1.00  0.00     0.055 A 
ATOM     83  C   UNL A   1      43.462  34.585  33.418  1.00  0.00     0.041 A 
ATOM     84  F   UNL A   1      45.181  32.997  33.523  1.00  0.00    -0.206 F 
ATOM     85  C   UNL A   1      42.108  34.906  33.478  1.00  0.00     0.022 A 
BRANCH  82  86
ATOM     86  S   UNL A   1      39.408  34.242  33.703  1.00  0.00     0.124 S 
ATOM     87  O   UNL A   1      38.843  32.940  34.052  1.00  0.00    -0.237 OA
ATOM     88  O   UNL A   1      39.218  35.305  34.684  1.00  0.00    -0.237 OA
ATOM     89  O   UNL A   1      39.226  34.639  32.309  1.00  0.00    -0.744 OA
ENDBRANCH  82  86
ENDBRANCH  65  79
BRANCH  66  90
ATOM     90  C   UNL A   1      46.174  22.796  34.763  1.00  0.00     0.023 A 
ATOM     91  C   UNL A   1      47.551  22.542  34.658  1.00  0.00     0.031 A 
ATOM     92  C   UNL A   1      45.311  21.693  34.898  1.00  0.00     0.131 A 
ATOM     93  C   UNL A   1      48.021  21.218  34.641  1.00  0.00     0.055 A 
ATOM     94  C   UNL A   1      45.788  20.381  34.933  1.00  0.00     0.041 A 
ATOM     95  F   UNL A   1      43.984  21.877  34.996  1.00  0.00    -0.206 F 
ATOM     96  C   UNL A   1      47.150  20.137  34.790  1.00  0.00     0.022 A 
BRANCH  93  97
ATOM     97  S   UNL A   1      49.785  20.923  34.333  1.00  0.00     0.124 S 
ATOM     98  O   UNL A   1      49.763  20.376  32.982  1.00  0.00    -0.237 OA
ATOM     99  O   UNL A   1      50.345  22.263  34.475  1.00  0.00    -0.237 OA
ATOM    100  O   UNL A   1      50.161  19.979  35.384  1.00  0.00    -0.744 OA
ENDBRANCH  93  97
ENDBRANCH  66  90
BRANCH  78 101
ATOM    101  C   UNL A   1      46.007  28.181  39.196  1.00  0.00     0.023 A 
ATOM    102  C   UNL A   1      47.143  28.930  39.550  1.00  0.00     0.031 A 
ATOM    103  C   UNL A   1      45.266  27.574  40.225  1.00  0.00     0.131 A 
ATOM    104  C   UNL A   1      47.529  29.016  40.897  1.00  0.00     0.055 A 
ATOM    105  C   UNL A   1      45.623  27.709  41.567  1.00  0.00     0.041 A 
ATOM    106  F   UNL A   1      44.171  26.849  39.941  1.00  0.00    -0.206 F 
ATOM    107  C   UNL A   1      46.765  28.426  41.908  1.00  0.00     0.022 A 
BRANCH 104 108
ATOM    108  S   UNL A   1      49.082  29.860  41.308  1.00  0.00     0.124 S 
ATOM    109  O   UNL A   1      50.078  28.876  40.901  1.00  0.00    -0.237 OA
ATOM    110  O   UNL A   1      49.007  31.068  40.492  1.00  0.00    -0.237 OA
ATOM    111  O   UNL A   1      48.980  30.081  42.750  1.00  0.00    -0.744 OA
ENDBRANCH 104 108
ENDBRANCH  78 101
ENDBRANCH  52  53
ENDBRANCH  45  47
ENDBRANCH  44  45
ENDBRANCH  43  44
ENDBRANCH  42  43
ENDBRANCH  41  42
ENDBRANCH  40  41
ENDBRANCH  39  40
ENDBRANCH  38  39
ENDBRANCH   1  38
TORSDOF 32
ENDMDL
MODEL 3
REMARK VINA RESULT:      -8.5      3.992      7.614
REMARK SMILES O=C(N[C@@H](Cc1ccc(O)cc1)C(=O)N[C@@H](CO)C(=O)OCCOCCOCCOCCOC(=O)c1ccc(-c2c3nc(c(-c4cc(S(=O)(=O)[O-])ccc4F)c4ccc([nH]4)c(-c4cc(S(=O)(=O)[O-])ccc4F)c4nc(c(-c5cc(S(=O)(=O)[O-])ccc5F)c5ccc2[nH]5)C=C4)C=C3)cc1)c1ccc(F)cc1
REMARK SMILES IDX 26 1 25 2 24 3 23 4 22 5 21 6 19 7 20 8 16 9 15 10 13 11
REMARK SMILES IDX 14 12 4 14 3 15 1 16 2 17 99 19 100 20 105 21 101 22 104 23
REMARK SMILES IDX 102 24 103 25 5 26 6 27 7 28 12 29 8 30 11 31 9 32 10 33
REMARK SMILES IDX 17 35 18 36 27 38 28 39 29 40 30 41 31 42 32 43 33 44 34 45
REMARK SMILES IDX 35 46 36 47 37 48 98 49 38 50 97 51 39 52 40 53 41 54 91 55
REMARK SMILES IDX 42 56 96 57 90 58 92 59 43 60 95 61 89 62 88 63 44 65 76 66
REMARK SMILES IDX 56 67 75 68 57 69 60 70 74 71 93 72 58 73 59 74 73 76 94 77
REMARK SMILES IDX 61 78 45 79 46 80 54 81 47 82 53 83 55 84 52 85 48 86 49 87
REMARK SMILES IDX 50 88 51 89 77 90 78 91 86 92 79 93 85 94 87 95 84 96 80 97
REMARK SMILES IDX 81 98 82 99 83 100 62 101 63 102 71 103 64 104 70 105 72 106
REMARK SMILES IDX 69 107 65 108 66 109 67 110 68 111
REMARK H PARENT 15 13 3 18 10 34 18 37 92 64 60 75
REMARK Flexibility Score: inf
ROOT
ATOM      1  C   UNL A   1      37.659  22.348  25.436  1.00  0.00     0.188 C 
ENDROOT
BRANCH   1   2
ATOM      2  C   UNL A   1      36.677  21.435  24.704  1.00  0.00     0.188 C 
BRANCH   2   3
ATOM      3  O   UNL A   1      35.534  21.046  25.454  1.00  0.00    -0.376 OA
BRANCH   3   4
ATOM      4  C   UNL A   1      35.359  21.748  26.682  1.00  0.00     0.202 C 
BRANCH   4   5
ATOM      5  C   UNL A   1      34.023  21.480  27.385  1.00  0.00     0.261 C 
BRANCH   5   6
ATOM      6  O   UNL A   1      33.279  22.680  27.690  1.00  0.00    -0.462 OA
BRANCH   6   7
ATOM      7  C   UNL A   1      32.550  23.252  26.698  1.00  0.00     0.331 C 
ATOM      8  O   UNL A   1      31.441  22.863  26.339  1.00  0.00    -0.250 OA
BRANCH   7   9
ATOM      9  C   UNL A   1      33.303  24.436  26.039  1.00  0.00     0.218 C 
BRANCH   9  10
ATOM     10  N   UNL A   1      34.191  24.108  24.915  1.00  0.00    -0.339 N 
ATOM     11  C   UNL A   1      33.976  23.873  23.593  1.00  0.00     0.243 C 
ATOM     12  O   UNL A   1      34.988  23.685  22.903  1.00  0.00    -0.273 OA
ATOM     13  H   UNL A   1      35.139  24.044  25.173  1.00  0.00     0.164 HD
BRANCH  11  14
ATOM     14  C   UNL A   1      32.593  23.805  22.893  1.00  0.00     0.176 C 
BRANCH  14  15
ATOM     15  N   UNL A   1      32.649  24.306  21.525  1.00  0.00    -0.340 N 
ATOM     16  O   UNL A   1      32.350  25.767  19.847  1.00  0.00    -0.269 OA
ATOM     17  C   UNL A   1      32.418  25.576  21.058  1.00  0.00     0.251 C 
ATOM     18  H   UNL A   1      32.886  23.640  20.839  1.00  0.00     0.164 HD
BRANCH  17  19
ATOM     19  C   UNL A   1      32.214  26.718  21.983  1.00  0.00     0.040 A 
ATOM     20  C   UNL A   1      30.938  27.093  22.425  1.00  0.00     0.017 A 
ATOM     21  C   UNL A   1      33.348  27.371  22.486  1.00  0.00     0.017 A 
ATOM     22  C   UNL A   1      30.796  28.155  23.323  1.00  0.00     0.040 A 
ATOM     23  C   UNL A   1      33.202  28.422  23.394  1.00  0.00     0.040 A 
ATOM     24  C   UNL A   1      31.928  28.809  23.798  1.00  0.00     0.123 A 
ATOM     25  F   UNL A   1      31.792  29.818  24.669  1.00  0.00    -0.207 F 
ENDBRANCH  17  19
ENDBRANCH  14  15
BRANCH  14  26
ATOM     26  C   UNL A   1      31.660  22.587  23.129  1.00  0.00     0.070 C 
BRANCH  26  27
ATOM     27  C   UNL A   1      32.152  21.163  23.029  1.00  0.00    -0.045 A 
ATOM     28  C   UNL A   1      32.770  20.486  24.082  1.00  0.00     0.007 A 
ATOM     29  C   UNL A   1      31.994  20.474  21.814  1.00  0.00     0.007 A 
ATOM     30  C   UNL A   1      32.901  19.097  24.041  1.00  0.00     0.046 A 
ATOM     31  C   UNL A   1      32.161  19.090  21.750  1.00  0.00     0.046 A 
ATOM     32  C   UNL A   1      32.518  18.409  22.899  1.00  0.00     0.115 A 
BRANCH  32  33
ATOM     33  O   UNL A   1      32.406  17.052  22.921  1.00  0.00    -0.508 OA
ATOM     34  H   UNL A   1      31.727  16.631  22.430  1.00  0.00     0.293 HD
ENDBRANCH  32  33
ENDBRANCH  26  27
ENDBRANCH  14  26
ENDBRANCH  11  14
ENDBRANCH   9  10
BRANCH   9  35
ATOM     35  C   UNL A   1      32.273  25.488  25.617  1.00  0.00     0.193 C 
BRANCH  35  36
ATOM     36  O   UNL A   1      31.194  25.577  26.540  1.00  0.00    -0.394 OA
ATOM     37  H   UNL A   1      31.504  25.329  27.424  1.00  0.00     0.210 HD
ENDBRANCH  35  36
ENDBRANCH   9  35
ENDBRANCH   7   9
ENDBRANCH   6   7
ENDBRANCH   5   6
ENDBRANCH   4   5
ENDBRANCH   3   4
ENDBRANCH   2   3
ENDBRANCH   1   2
BRANCH   1  38
ATOM     38  O   UNL A   1      38.919  21.830  25.786  1.00  0.00    -0.377 OA
BRANCH  38  39
ATOM     39  C   UNL A   1      39.609  22.436  26.863  1.00  0.00     0.188 C 
BRANCH  39  40
ATOM     40  C   UNL A   1      41.119  22.735  26.761  1.00  0.00     0.188 C 
BRANCH  40  41
ATOM     41  O   UNL A   1      41.779  23.045  27.987  1.00  0.00    -0.376 OA
BRANCH  41  42
ATOM     42  C   UNL A   1      43.193  22.882  27.999  1.00  0.00     0.202 C 
BRANCH  42  43
ATOM     43  C   UNL A   1      43.821  22.726  26.610  1.00  0.00     0.261 C 
BRANCH  43  44
ATOM     44  O   UNL A   1      45.207  23.084  26.530  1.00  0.00    -0.460 OA
BRANCH  44  45
ATOM     45  C   UNL A   1      45.589  23.879  25.499  1.00  0.00     0.338 C 
ATOM     46  O   UNL A   1      45.840  23.541  24.366  1.00  0.00    -0.246 OA
BRANCH  45  47
ATOM     47  C   UNL A   1      45.421  25.273  25.966  1.00  0.00     0.060 A 
ATOM     48  C   UNL A   1      45.871  25.612  27.250  1.00  0.00     0.016 A 
ATOM     49  C   UNL A   1      44.947  26.257  25.094  1.00  0.00     0.016 A 
ATOM     50  C   UNL A   1      45.863  26.947  27.658  1.00  0.00     0.010 A 
ATOM     51  C   UNL A   1      44.899  27.583  25.518  1.00  0.00     0.010 A 
ATOM     52  C   UNL A   1      45.344  27.932  26.806  1.00  0.00    -0.014 A 
BRANCH  52  53
ATOM     53  C   UNL A   1      45.019  29.276  27.335  1.00  0.00     0.031 A 
ATOM     54  C   UNL A   1      46.087  30.328  27.231  1.00  0.00     0.074 A 
ATOM     55  C   UNL A   1      43.841  29.547  27.925  1.00  0.00     0.049 A 
ATOM     56  N   UNL A   1      46.106  31.545  27.701  1.00  0.00    -0.248 NA
ATOM     57  C   UNL A   1      47.304  29.942  26.498  1.00  0.00     0.031 C 
ATOM     58  C   UNL A   1      42.718  28.620  28.046  1.00  0.00     0.029 A 
ATOM     59  N   UNL A   1      43.405  30.689  28.551  1.00  0.00    -0.354 N 
ATOM     60  C   UNL A   1      47.332  32.074  27.315  1.00  0.00     0.074 A 
ATOM     61  C   UNL A   1      48.039  31.035  26.601  1.00  0.00     0.031 C 
ATOM     62  C   UNL A   1      41.727  29.224  28.729  1.00  0.00     0.029 A 
ATOM     63  C   UNL A   1      42.161  30.563  29.127  1.00  0.00     0.049 A 
ATOM     64  H   UNL A   1      43.932  31.519  28.585  1.00  0.00     0.167 HD
ATOM     65  C   UNL A   1      47.824  33.316  27.536  1.00  0.00     0.034 A 
ATOM     66  C   UNL A   1      41.479  31.420  29.916  1.00  0.00     0.034 A 
ATOM     67  C   UNL A   1      47.132  34.323  28.295  1.00  0.00     0.049 A 
ATOM     68  C   UNL A   1      42.104  32.755  30.259  1.00  0.00     0.074 A 
ATOM     69  C   UNL A   1      47.536  35.613  28.585  1.00  0.00     0.029 A 
ATOM     70  N   UNL A   1      45.899  34.141  28.909  1.00  0.00    -0.354 N 
ATOM     71  N   UNL A   1      43.256  33.255  29.873  1.00  0.00    -0.248 NA
ATOM     72  C   UNL A   1      41.338  33.638  31.150  1.00  0.00     0.031 C 
ATOM     73  C   UNL A   1      46.583  36.186  29.436  1.00  0.00     0.029 A 
ATOM     74  C   UNL A   1      45.547  35.282  29.613  1.00  0.00     0.049 A 
ATOM     75  H   UNL A   1      45.356  33.323  28.853  1.00  0.00     0.167 HD
ATOM     76  C   UNL A   1      43.337  34.520  30.453  1.00  0.00     0.074 A 
ATOM     77  C   UNL A   1      42.115  34.710  31.205  1.00  0.00     0.031 C 
ATOM     78  C   UNL A   1      44.328  35.445  30.370  1.00  0.00     0.034 A 
BRANCH  65  79
ATOM     79  C   UNL A   1      49.202  33.606  27.001  1.00  0.00     0.023 A 
ATOM     80  C   UNL A   1      50.357  33.312  27.748  1.00  0.00     0.031 A 
ATOM     81  C   UNL A   1      49.362  34.242  25.759  1.00  0.00     0.131 A 
ATOM     82  C   UNL A   1      51.614  33.720  27.280  1.00  0.00     0.055 A 
ATOM     83  C   UNL A   1      50.622  34.577  25.263  1.00  0.00     0.041 A 
ATOM     84  F   UNL A   1      48.293  34.574  25.019  1.00  0.00    -0.206 F 
ATOM     85  C   UNL A   1      51.757  34.329  26.031  1.00  0.00     0.022 A 
BRANCH  82  86
ATOM     86  S   UNL A   1      53.041  33.578  28.391  1.00  0.00     0.124 S 
ATOM     87  O   UNL A   1      53.608  34.922  28.317  1.00  0.00    -0.237 OA
ATOM     88  O   UNL A   1      52.418  33.215  29.659  1.00  0.00    -0.237 OA
ATOM     89  O   UNL A   1      53.853  32.532  27.772  1.00  0.00    -0.744 OA
ENDBRANCH  82  86
ENDBRANCH  65  79
BRANCH  66  90
ATOM     90  C   UNL A   1      40.159  31.037  30.500  1.00  0.00     0.023 A 
ATOM     91  C   UNL A   1      38.957  31.332  29.836  1.00  0.00     0.031 A 
ATOM     92  C   UNL A   1      40.079  30.439  31.770  1.00  0.00     0.131 A 
ATOM     93  C   UNL A   1      37.728  31.073  30.464  1.00  0.00     0.055 A 
ATOM     94  C   UNL A   1      38.854  30.136  32.368  1.00  0.00     0.041 A 
ATOM     95  F   UNL A   1      41.196  30.141  32.453  1.00  0.00    -0.206 F 
ATOM     96  C   UNL A   1      37.668  30.466  31.720  1.00  0.00     0.022 A 
BRANCH  93  97
ATOM     97  S   UNL A   1      36.201  31.622  29.650  1.00  0.00     0.124 S 
ATOM     98  O   UNL A   1      35.772  30.405  28.971  1.00  0.00    -0.237 OA
ATOM     99  O   UNL A   1      35.388  32.045  30.786  1.00  0.00    -0.237 OA
ATOM    100  O   UNL A   1      36.651  32.702  28.774  1.00  0.00    -0.744 OA
ENDBRANCH  93  97
ENDBRANCH  66  90
BRANCH  78 101
ATOM    101  C   UNL A   1      44.110  36.759  31.078  1.00  0.00     0.023 A 
ATOM    102  C   UNL A   1      44.276  36.886  32.468  1.00  0.00     0.031 A 
ATOM    103  C   UNL A   1      43.748  37.903  30.346  1.00  0.00     0.131 A 
ATOM    104  C   UNL A   1      44.038  38.123  33.087  1.00  0.00     0.055 A 
ATOM    105  C   UNL A   1      43.567  39.142  30.960  1.00  0.00     0.041 A 
ATOM    106  F   UNL A   1      43.579  37.836  29.015  1.00  0.00    -0.206 F 
ATOM    107  C   UNL A   1      43.703  39.255  32.340  1.00  0.00     0.022 A 
BRANCH 104 108
ATOM    108  S   UNL A   1      44.110  38.222  34.898  1.00  0.00     0.124 S 
ATOM    109  O   UNL A   1      45.336  37.487  35.193  1.00  0.00    -0.237 OA
ATOM    110  O   UNL A   1      44.159  39.661  35.131  1.00  0.00    -0.237 OA
ATOM    111  O   UNL A   1      42.876  37.566  35.327  1.00  0.00    -0.744 OA
ENDBRANCH 104 108
ENDBRANCH  78 101
ENDBRANCH  52  53
ENDBRANCH  45  47
ENDBRANCH  44  45
ENDBRANCH  43  44
ENDBRANCH  42  43
ENDBRANCH  41  42
ENDBRANCH  40  41
ENDBRANCH  39  40
ENDBRANCH  38  39
ENDBRANCH   1  38
TORSDOF 32
ENDMDL
