MODEL 1
REMARK VINA RESULT:      -9.4      0.000      0.000
REMARK SMILES COc1cc(/C=C/C(=O)OCCOCCOCCOCCOC(=O)c2ccc(-c3c4nc(c(-c5cc(S(=O)(=O)[O-])ccc5F)c5ccc([nH]5)c(-c5cc(S(=O)(=O)[O-])ccc5F)c5nc(c(-c6cc(S(=O)(=O)[O-])ccc6F)c6ccc3[nH]6)C=C5)C=C4)cc2)cc(OC)c1O
REMARK SMILES IDX 17 1 16 2 15 3 14 4 13 5 12 6 11 7 10 8 8 9 9 10 7 11 6 12
REMARK SMILES IDX 5 13 3 14 4 15 92 16 89 17 88 18 2 19 1 20 93 21 90 23 91 24
REMARK SMILES IDX 18 25 19 26 20 27 21 28 22 29 23 30 24 31 25 32 26 33 87 34
REMARK SMILES IDX 27 35 86 36 28 37 29 38 30 39 80 40 31 41 85 42 79 43 81 44
REMARK SMILES IDX 32 45 84 46 78 47 77 48 33 50 65 51 45 52 64 53 46 54 49 55
REMARK SMILES IDX 63 56 82 57 47 58 48 59 62 61 83 62 50 63 34 64 35 65 43 66
REMARK SMILES IDX 36 67 42 68 44 69 41 70 37 71 38 72 39 73 40 74 66 75 67 76
REMARK SMILES IDX 75 77 68 78 74 79 76 80 73 81 69 82 70 83 71 84 72 85 51 86
REMARK SMILES IDX 52 87 60 88 53 89 59 90 61 91 58 92 54 93 55 94 56 95 57 96
REMARK H PARENT 93 22 81 49 49 60
REMARK Flexibility Score: inf
ROOT
ATOM      1  C   UNL A   1      33.113  20.105  25.017  1.00  0.00     0.188 C 
ENDROOT
BRANCH   1   2
ATOM      2  O   UNL A   1      31.907  20.847  25.197  1.00  0.00    -0.377 OA
BRANCH   2   3
ATOM      3  C   UNL A   1      31.975  22.227  25.504  1.00  0.00     0.188 C 
BRANCH   3   4
ATOM      4  C   UNL A   1      31.203  23.154  24.546  1.00  0.00     0.188 C 
BRANCH   4   5
ATOM      5  O   UNL A   1      31.414  22.879  23.176  1.00  0.00    -0.376 OA
BRANCH   5   6
ATOM      6  C   UNL A   1      32.559  23.357  22.491  1.00  0.00     0.202 C 
BRANCH   6   7
ATOM      7  C   UNL A   1      34.013  23.137  22.950  1.00  0.00     0.261 C 
BRANCH   7   8
ATOM      8  O   UNL A   1      34.791  24.292  23.262  1.00  0.00    -0.460 OA
BRANCH   8   9
ATOM      9  C   UNL A   1      34.780  24.715  24.539  1.00  0.00     0.330 C 
ATOM     10  O   UNL A   1      35.368  24.203  25.479  1.00  0.00    -0.247 OA
BRANCH   9  11
ATOM     11  C   UNL A   1      34.078  26.012  24.658  1.00  0.00     0.094 C 
ATOM     12  C   UNL A   1      32.803  26.180  25.053  1.00  0.00     0.016 C 
BRANCH  12  13
ATOM     13  C   UNL A   1      32.171  27.507  25.139  1.00  0.00    -0.018 A 
ATOM     14  C   UNL A   1      30.620  29.194  24.285  1.00  0.00     0.165 A 
ATOM     15  C   UNL A   1      31.123  27.887  24.294  1.00  0.00     0.058 A 
ATOM     16  C   UNL A   1      31.165  30.139  25.167  1.00  0.00     0.200 A 
ATOM     17  C   UNL A   1      32.140  29.752  26.102  1.00  0.00     0.165 A 
ATOM     18  C   UNL A   1      32.624  28.433  26.081  1.00  0.00     0.058 A 
BRANCH  14  19
ATOM     19  O   UNL A   1      29.651  29.362  23.333  1.00  0.00    -0.493 OA
ATOM     20  C   UNL A   1      29.947  30.038  22.123  1.00  0.00     0.278 C 
ENDBRANCH  14  19
BRANCH  16  21
ATOM     21  O   UNL A   1      30.808  31.455  25.066  1.00  0.00    -0.502 OA
ATOM     22  H   UNL A   1      29.905  31.691  24.988  1.00  0.00     0.293 HD
ENDBRANCH  16  21
BRANCH  17  23
ATOM     23  O   UNL A   1      32.765  30.518  27.051  1.00  0.00    -0.493 OA
ATOM     24  C   UNL A   1      34.156  30.351  27.267  1.00  0.00     0.278 C 
ENDBRANCH  17  23
ENDBRANCH  12  13
ENDBRANCH   9  11
ENDBRANCH   8   9
ENDBRANCH   7   8
ENDBRANCH   6   7
ENDBRANCH   5   6
ENDBRANCH   4   5
ENDBRANCH   3   4
ENDBRANCH   2   3
ENDBRANCH   1   2
BRANCH   1  25
ATOM     25  C   UNL A   1      34.514  20.667  25.367  1.00  0.00     0.188 C 
BRANCH  25  26
ATOM     26  O   UNL A   1      35.604  19.841  24.986  1.00  0.00    -0.376 OA
BRANCH  26  27
ATOM     27  C   UNL A   1      36.841  20.467  24.697  1.00  0.00     0.202 C 
BRANCH  27  28
ATOM     28  C   UNL A   1      38.088  19.820  25.312  1.00  0.00     0.261 C 
BRANCH  28  29
ATOM     29  O   UNL A   1      39.262  20.643  25.363  1.00  0.00    -0.460 OA
BRANCH  29  30
ATOM     30  C   UNL A   1      40.042  20.532  26.460  1.00  0.00     0.338 C 
ATOM     31  O   UNL A   1      40.529  19.505  26.908  1.00  0.00    -0.246 OA
BRANCH  30  32
ATOM     32  C   UNL A   1      40.362  21.896  26.926  1.00  0.00     0.060 A 
ATOM     33  C   UNL A   1      39.690  22.987  26.360  1.00  0.00     0.016 A 
ATOM     34  C   UNL A   1      41.315  22.095  27.929  1.00  0.00     0.016 A 
ATOM     35  C   UNL A   1      39.998  24.285  26.771  1.00  0.00     0.010 A 
ATOM     36  C   UNL A   1      41.633  23.396  28.326  1.00  0.00     0.010 A 
ATOM     37  C   UNL A   1      41.001  24.499  27.725  1.00  0.00    -0.014 A 
BRANCH  37  38
ATOM     38  C   UNL A   1      41.532  25.870  27.948  1.00  0.00     0.031 A 
ATOM     39  C   UNL A   1      42.907  26.193  27.425  1.00  0.00     0.074 A 
ATOM     40  C   UNL A   1      40.808  26.813  28.576  1.00  0.00     0.049 A 
ATOM     41  N   UNL A   1      43.608  27.289  27.545  1.00  0.00    -0.248 NA
ATOM     42  C   UNL A   1      43.580  25.125  26.670  1.00  0.00     0.031 C 
ATOM     43  C   UNL A   1      39.447  26.636  29.080  1.00  0.00     0.029 A 
ATOM     44  N   UNL A   1      41.122  28.109  28.903  1.00  0.00    -0.354 N 
ATOM     45  C   UNL A   1      44.809  27.043  26.887  1.00  0.00     0.074 A 
ATOM     46  C   UNL A   1      44.754  25.679  26.408  1.00  0.00     0.031 C 
ATOM     47  C   UNL A   1      39.047  27.783  29.660  1.00  0.00     0.029 A 
ATOM     48  C   UNL A   1      40.135  28.758  29.609  1.00  0.00     0.049 A 
ATOM     49  H   UNL A   1      41.974  28.535  28.655  1.00  0.00     0.167 HD
ATOM     50  C   UNL A   1      45.856  27.881  26.692  1.00  0.00     0.034 A 
ATOM     51  C   UNL A   1      40.126  29.983  30.174  1.00  0.00     0.034 A 
ATOM     52  C   UNL A   1      45.902  29.233  27.190  1.00  0.00     0.049 A 
ATOM     53  C   UNL A   1      41.347  30.866  30.033  1.00  0.00     0.074 A 
ATOM     54  C   UNL A   1      46.907  30.173  27.042  1.00  0.00     0.029 A 
ATOM     55  N   UNL A   1      44.905  29.838  27.948  1.00  0.00    -0.354 N 
ATOM     56  N   UNL A   1      42.474  30.626  29.402  1.00  0.00    -0.248 NA
ATOM     57  C   UNL A   1      41.288  32.186  30.672  1.00  0.00     0.031 C 
ATOM     58  C   UNL A   1      46.559  31.308  27.781  1.00  0.00     0.029 A 
ATOM     59  C   UNL A   1      45.292  31.121  28.307  1.00  0.00     0.049 A 
ATOM     60  H   UNL A   1      44.050  29.417  28.193  1.00  0.00     0.167 HD
ATOM     61  C   UNL A   1      43.241  31.781  29.540  1.00  0.00     0.074 A 
ATOM     62  C   UNL A   1      42.443  32.719  30.300  1.00  0.00     0.031 C 
ATOM     63  C   UNL A   1      44.490  32.047  29.074  1.00  0.00     0.034 A 
BRANCH  50  64
ATOM     64  C   UNL A   1      47.058  27.332  25.959  1.00  0.00     0.023 A 
ATOM     65  C   UNL A   1      48.071  26.618  26.624  1.00  0.00     0.031 A 
ATOM     66  C   UNL A   1      47.208  27.553  24.579  1.00  0.00     0.131 A 
ATOM     67  C   UNL A   1      49.219  26.217  25.925  1.00  0.00     0.055 A 
ATOM     68  C   UNL A   1      48.313  27.075  23.872  1.00  0.00     0.041 A 
ATOM     69  F   UNL A   1      46.289  28.252  23.894  1.00  0.00    -0.206 F 
ATOM     70  C   UNL A   1      49.334  26.416  24.547  1.00  0.00     0.022 A 
BRANCH  67  71
ATOM     71  S   UNL A   1      50.628  25.573  26.869  1.00  0.00     0.124 S 
ATOM     72  O   UNL A   1      51.569  25.237  25.804  1.00  0.00    -0.237 OA
ATOM     73  O   UNL A   1      50.991  26.709  27.708  1.00  0.00    -0.237 OA
ATOM     74  O   UNL A   1      50.068  24.426  27.581  1.00  0.00    -0.744 OA
ENDBRANCH  67  71
ENDBRANCH  50  64
BRANCH  51  75
ATOM     75  C   UNL A   1      38.947  30.446  30.965  1.00  0.00     0.023 A 
ATOM     76  C   UNL A   1      37.941  31.233  30.383  1.00  0.00     0.031 A 
ATOM     77  C   UNL A   1      38.846  30.163  32.340  1.00  0.00     0.131 A 
ATOM     78  C   UNL A   1      36.907  31.751  31.180  1.00  0.00     0.055 A 
ATOM     79  C   UNL A   1      37.782  30.630  33.115  1.00  0.00     0.041 A 
ATOM     80  F   UNL A   1      39.784  29.425  32.954  1.00  0.00    -0.206 F 
ATOM     81  C   UNL A   1      36.811  31.441  32.538  1.00  0.00     0.022 A 
BRANCH  78  82
ATOM     82  S   UNL A   1      35.740  32.925  30.434  1.00  0.00     0.124 S 
ATOM     83  O   UNL A   1      34.457  32.374  30.856  1.00  0.00    -0.237 OA
ATOM     84  O   UNL A   1      36.136  34.182  31.057  1.00  0.00    -0.237 OA
ATOM     85  O   UNL A   1      36.024  32.823  29.004  1.00  0.00    -0.744 OA
ENDBRANCH  78  82
ENDBRANCH  51  75
BRANCH  63  86
ATOM     86  C   UNL A   1      45.046  33.431  29.323  1.00  0.00     0.023 A 
ATOM     87  C   UNL A   1      44.846  34.491  28.422  1.00  0.00     0.031 A 
ATOM     88  C   UNL A   1      45.796  33.689  30.486  1.00  0.00     0.131 A 
ATOM     89  C   UNL A   1      45.438  35.739  28.667  1.00  0.00     0.055 A 
ATOM     90  C   UNL A   1      46.321  34.953  30.760  1.00  0.00     0.041 A 
ATOM     91  F   UNL A   1      46.026  32.716  31.382  1.00  0.00    -0.206 F 
ATOM     92  C   UNL A   1      46.157  35.983  29.840  1.00  0.00     0.022 A 
BRANCH  89  93
ATOM     93  S   UNL A   1      45.349  37.014  27.379  1.00  0.00     0.124 S 
ATOM     94  O   UNL A   1      46.254  36.483  26.365  1.00  0.00    -0.237 OA
ATOM     95  O   UNL A   1      43.931  37.010  27.032  1.00  0.00    -0.237 OA
ATOM     96  O   UNL A   1      45.817  38.221  28.057  1.00  0.00    -0.744 OA
ENDBRANCH  89  93
ENDBRANCH  63  86
ENDBRANCH  37  38
ENDBRANCH  30  32
ENDBRANCH  29  30
ENDBRANCH  28  29
ENDBRANCH  27  28
ENDBRANCH  26  27
ENDBRANCH  25  26
ENDBRANCH   1  25
TORSDOF 27
ENDMDL
MODEL 2
REMARK VINA RESULT:      -9.4      1.589      2.030
REMARK SMILES COc1cc(/C=C/C(=O)OCCOCCOCCOCCOC(=O)c2ccc(-c3c4nc(c(-c5cc(S(=O)(=O)[O-])ccc5F)c5ccc([nH]5)c(-c5cc(S(=O)(=O)[O-])ccc5F)c5nc(c(-c6cc(S(=O)(=O)[O-])ccc6F)c6ccc3[nH]6)C=C5)C=C4)cc2)cc(OC)c1O
REMARK SMILES IDX 17 1 16 2 15 3 14 4 13 5 12 6 11 7 10 8 8 9 9 10 7 11 6 12
REMARK SMILES IDX 5 13 3 14 4 15 92 16 89 17 88 18 2 19 1 20 93 21 90 23 91 24
REMARK SMILES IDX 18 25 19 26 20 27 21 28 22 29 23 30 24 31 25 32 26 33 87 34
REMARK SMILES IDX 27 35 86 36 28 37 29 38 30 39 80 40 31 41 85 42 79 43 81 44
REMARK SMILES IDX 32 45 84 46 78 47 77 48 33 50 65 51 45 52 64 53 46 54 49 55
REMARK SMILES IDX 63 56 82 57 47 58 48 59 62 61 83 62 50 63 34 64 35 65 43 66
REMARK SMILES IDX 36 67 42 68 44 69 41 70 37 71 38 72 39 73 40 74 66 75 67 76
REMARK SMILES IDX 75 77 68 78 74 79 76 80 73 81 69 82 70 83 71 84 72 85 51 86
REMARK SMILES IDX 52 87 60 88 53 89 59 90 61 91 58 92 54 93 55 94 56 95 57 96
REMARK H PARENT 93 22 81 49 49 60
REMARK Flexibility Score: inf
ROOT
ATOM      1  C   UNL A   1      33.040  20.340  24.984  1.00  0.00     0.188 C 
ENDROOT
BRANCH   1   2
ATOM      2  O   UNL A   1      31.833  21.045  25.275  1.00  0.00    -0.377 OA
BRANCH   2   3
ATOM      3  C   UNL A   1      31.879  22.198  26.096  1.00  0.00     0.188 C 
BRANCH   3   4
ATOM      4  C   UNL A   1      31.089  23.412  25.572  1.00  0.00     0.188 C 
BRANCH   4   5
ATOM      5  O   UNL A   1      30.796  23.360  24.191  1.00  0.00    -0.376 OA
BRANCH   5   6
ATOM      6  C   UNL A   1      30.873  24.514  23.372  1.00  0.00     0.202 C 
BRANCH   6   7
ATOM      7  C   UNL A   1      31.978  24.780  22.332  1.00  0.00     0.261 C 
BRANCH   7   8
ATOM      8  O   UNL A   1      32.921  25.813  22.617  1.00  0.00    -0.460 OA
BRANCH   8   9
ATOM      9  C   UNL A   1      33.674  25.671  23.722  1.00  0.00     0.330 C 
ATOM     10  O   UNL A   1      34.344  24.695  24.024  1.00  0.00    -0.247 OA
BRANCH   9  11
ATOM     11  C   UNL A   1      33.730  26.936  24.487  1.00  0.00     0.094 C 
ATOM     12  C   UNL A   1      33.001  27.225  25.580  1.00  0.00     0.016 C 
BRANCH  12  13
ATOM     13  C   UNL A   1      33.108  28.515  26.283  1.00  0.00    -0.018 A 
ATOM     14  C   UNL A   1      32.340  30.801  26.680  1.00  0.00     0.165 A 
ATOM     15  C   UNL A   1      32.161  29.530  26.120  1.00  0.00     0.058 A 
ATOM     16  C   UNL A   1      33.488  31.052  27.446  1.00  0.00     0.200 A 
ATOM     17  C   UNL A   1      34.396  30.015  27.716  1.00  0.00     0.165 A 
ATOM     18  C   UNL A   1      34.187  28.752  27.137  1.00  0.00     0.058 A 
BRANCH  14  19
ATOM     19  O   UNL A   1      31.330  31.659  26.334  1.00  0.00    -0.493 OA
ATOM     20  C   UNL A   1      30.474  31.354  25.247  1.00  0.00     0.278 C 
ENDBRANCH  14  19
BRANCH  16  21
ATOM     21  O   UNL A   1      33.767  32.323  27.865  1.00  0.00    -0.502 OA
ATOM     22  H   UNL A   1      34.458  32.810  27.460  1.00  0.00     0.293 HD
ENDBRANCH  16  21
BRANCH  17  23
ATOM     23  O   UNL A   1      35.548  30.059  28.459  1.00  0.00    -0.493 OA
ATOM     24  C   UNL A   1      36.769  29.655  27.863  1.00  0.00     0.278 C 
ENDBRANCH  17  23
ENDBRANCH  12  13
ENDBRANCH   9  11
ENDBRANCH   8   9
ENDBRANCH   7   8
ENDBRANCH   6   7
ENDBRANCH   5   6
ENDBRANCH   4   5
ENDBRANCH   3   4
ENDBRANCH   2   3
ENDBRANCH   1   2
BRANCH   1  25
ATOM     25  C   UNL A   1      34.437  20.821  25.450  1.00  0.00     0.188 C 
BRANCH  25  26
ATOM     26  O   UNL A   1      35.523  20.015  25.019  1.00  0.00    -0.376 OA
BRANCH  26  27
ATOM     27  C   UNL A   1      36.720  20.666  24.635  1.00  0.00     0.202 C 
BRANCH  27  28
ATOM     28  C   UNL A   1      38.013  20.135  25.265  1.00  0.00     0.261 C 
BRANCH  28  29
ATOM     29  O   UNL A   1      39.086  21.080  25.388  1.00  0.00    -0.460 OA
BRANCH  29  30
ATOM     30  C   UNL A   1      39.943  20.905  26.416  1.00  0.00     0.338 C 
ATOM     31  O   UNL A   1      40.478  19.859  26.750  1.00  0.00    -0.246 OA
BRANCH  30  32
ATOM     32  C   UNL A   1      40.274  22.238  26.960  1.00  0.00     0.060 A 
ATOM     33  C   UNL A   1      39.554  23.354  26.517  1.00  0.00     0.016 A 
ATOM     34  C   UNL A   1      41.283  22.381  27.917  1.00  0.00     0.016 A 
ATOM     35  C   UNL A   1      39.869  24.625  27.002  1.00  0.00     0.010 A 
ATOM     36  C   UNL A   1      41.607  23.655  28.387  1.00  0.00     0.010 A 
ATOM     37  C   UNL A   1      40.925  24.788  27.907  1.00  0.00    -0.014 A 
BRANCH  37  38
ATOM     38  C   UNL A   1      41.450  26.147  28.197  1.00  0.00     0.031 A 
ATOM     39  C   UNL A   1      42.839  26.488  27.725  1.00  0.00     0.074 A 
ATOM     40  C   UNL A   1      40.709  27.067  28.840  1.00  0.00     0.049 A 
ATOM     41  N   UNL A   1      43.537  27.578  27.907  1.00  0.00    -0.248 NA
ATOM     42  C   UNL A   1      43.533  25.449  26.949  1.00  0.00     0.031 C 
ATOM     43  C   UNL A   1      39.335  26.874  29.299  1.00  0.00     0.029 A 
ATOM     44  N   UNL A   1      41.015  28.350  29.225  1.00  0.00    -0.354 N 
ATOM     45  C   UNL A   1      44.756  27.355  27.273  1.00  0.00     0.074 A 
ATOM     46  C   UNL A   1      44.713  26.011  26.741  1.00  0.00     0.031 C 
ATOM     47  C   UNL A   1      38.919  27.997  29.911  1.00  0.00     0.029 A 
ATOM     48  C   UNL A   1      40.009  28.972  29.928  1.00  0.00     0.049 A 
ATOM     49  H   UNL A   1      41.874  28.783  29.017  1.00  0.00     0.167 HD
ATOM     50  C   UNL A   1      45.809  28.199  27.139  1.00  0.00     0.034 A 
ATOM     51  C   UNL A   1      39.985  30.175  30.539  1.00  0.00     0.034 A 
ATOM     52  C   UNL A   1      45.841  29.531  27.691  1.00  0.00     0.049 A 
ATOM     53  C   UNL A   1      41.210  31.060  30.466  1.00  0.00     0.074 A 
ATOM     54  C   UNL A   1      46.851  30.474  27.607  1.00  0.00     0.029 A 
ATOM     55  N   UNL A   1      44.824  30.108  28.443  1.00  0.00    -0.354 N 
ATOM     56  N   UNL A   1      42.354  30.843  29.858  1.00  0.00    -0.248 NA
ATOM     57  C   UNL A   1      41.134  32.356  31.154  1.00  0.00     0.031 C 
ATOM     58  C   UNL A   1      46.483  31.581  28.378  1.00  0.00     0.029 A 
ATOM     59  C   UNL A   1      45.201  31.375  28.861  1.00  0.00     0.049 A 
ATOM     60  H   UNL A   1      43.963  29.679  28.647  1.00  0.00     0.167 HD
ATOM     61  C   UNL A   1      43.118  31.991  30.061  1.00  0.00     0.074 A 
ATOM     62  C   UNL A   1      42.299  32.900  30.834  1.00  0.00     0.031 C 
ATOM     63  C   UNL A   1      44.379  32.272  29.640  1.00  0.00     0.034 A 
BRANCH  50  64
ATOM     64  C   UNL A   1      47.030  27.676  26.420  1.00  0.00     0.023 A 
ATOM     65  C   UNL A   1      47.266  27.950  25.061  1.00  0.00     0.031 A 
ATOM     66  C   UNL A   1      47.958  26.865  27.098  1.00  0.00     0.131 A 
ATOM     67  C   UNL A   1      48.358  27.359  24.407  1.00  0.00     0.055 A 
ATOM     68  C   UNL A   1      49.089  26.350  26.462  1.00  0.00     0.041 A 
ATOM     69  F   UNL A   1      47.772  26.545  28.388  1.00  0.00    -0.206 F 
ATOM     70  C   UNL A   1      49.287  26.584  25.105  1.00  0.00     0.022 A 
BRANCH  67  71
ATOM     71  S   UNL A   1      48.459  27.487  22.601  1.00  0.00     0.124 S 
ATOM     72  O   UNL A   1      47.232  28.215  22.287  1.00  0.00    -0.237 OA
ATOM     73  O   UNL A   1      49.704  28.219  22.405  1.00  0.00    -0.237 OA
ATOM     74  O   UNL A   1      48.478  26.094  22.159  1.00  0.00    -0.744 OA
ENDBRANCH  67  71
ENDBRANCH  50  64
BRANCH  51  75
ATOM     75  C   UNL A   1      38.785  30.609  31.314  1.00  0.00     0.023 A 
ATOM     76  C   UNL A   1      37.812  31.447  30.746  1.00  0.00     0.031 A 
ATOM     77  C   UNL A   1      38.629  30.245  32.665  1.00  0.00     0.131 A 
ATOM     78  C   UNL A   1      36.758  31.933  31.535  1.00  0.00     0.055 A 
ATOM     79  C   UNL A   1      37.544  30.682  33.428  1.00  0.00     0.041 A 
ATOM     80  F   UNL A   1      39.532  29.455  33.265  1.00  0.00    -0.206 F 
ATOM     81  C   UNL A   1      36.607  31.543  32.867  1.00  0.00     0.022 A 
BRANCH  78  82
ATOM     82  S   UNL A   1      35.637  33.170  30.821  1.00  0.00     0.124 S 
ATOM     83  O   UNL A   1      36.141  33.273  29.457  1.00  0.00    -0.237 OA
ATOM     84  O   UNL A   1      34.337  32.528  30.980  1.00  0.00    -0.237 OA
ATOM     85  O   UNL A   1      35.854  34.348  31.658  1.00  0.00    -0.744 OA
ENDBRANCH  78  82
ENDBRANCH  51  75
BRANCH  63  86
ATOM     86  C   UNL A   1      44.929  33.645  29.958  1.00  0.00     0.023 A 
ATOM     87  C   UNL A   1      44.682  34.758  29.136  1.00  0.00     0.031 A 
ATOM     88  C   UNL A   1      45.720  33.838  31.107  1.00  0.00     0.131 A 
ATOM     89  C   UNL A   1      45.269  35.996  29.439  1.00  0.00     0.055 A 
ATOM     90  C   UNL A   1      46.241  35.089  31.441  1.00  0.00     0.041 A 
ATOM     91  F   UNL A   1      45.995  32.812  31.927  1.00  0.00    -0.206 F 
ATOM     92  C   UNL A   1      46.030  36.174  30.597  1.00  0.00     0.022 A 
BRANCH  89  93
ATOM     93  S   UNL A   1      45.116  37.350  28.240  1.00  0.00     0.124 S 
ATOM     94  O   UNL A   1      44.667  38.452  29.085  1.00  0.00    -0.237 OA
ATOM     95  O   UNL A   1      46.475  37.461  27.718  1.00  0.00    -0.237 OA
ATOM     96  O   UNL A   1      44.125  36.855  27.288  1.00  0.00    -0.744 OA
ENDBRANCH  89  93
ENDBRANCH  63  86
ENDBRANCH  37  38
ENDBRANCH  30  32
ENDBRANCH  29  30
ENDBRANCH  28  29
ENDBRANCH  27  28
ENDBRANCH  26  27
ENDBRANCH  25  26
ENDBRANCH   1  25
TORSDOF 27
ENDMDL
MODEL 3
REMARK VINA RESULT:      -8.8      2.146      2.845
REMARK SMILES COc1cc(/C=C/C(=O)OCCOCCOCCOCCOC(=O)c2ccc(-c3c4nc(c(-c5cc(S(=O)(=O)[O-])ccc5F)c5ccc([nH]5)c(-c5cc(S(=O)(=O)[O-])ccc5F)c5nc(c(-c6cc(S(=O)(=O)[O-])ccc6F)c6ccc3[nH]6)C=C5)C=C4)cc2)cc(OC)c1O
REMARK SMILES IDX 17 1 16 2 15 3 14 4 13 5 12 6 11 7 10 8 8 9 9 10 7 11 6 12
REMARK SMILES IDX 5 13 3 14 4 15 92 16 89 17 88 18 2 19 1 20 93 21 90 23 91 24
REMARK SMILES IDX 18 25 19 26 20 27 21 28 22 29 23 30 24 31 25 32 26 33 87 34
REMARK SMILES IDX 27 35 86 36 28 37 29 38 30 39 80 40 31 41 85 42 79 43 81 44
REMARK SMILES IDX 32 45 84 46 78 47 77 48 33 50 65 51 45 52 64 53 46 54 49 55
REMARK SMILES IDX 63 56 82 57 47 58 48 59 62 61 83 62 50 63 34 64 35 65 43 66
REMARK SMILES IDX 36 67 42 68 44 69 41 70 37 71 38 72 39 73 40 74 66 75 67 76
REMARK SMILES IDX 75 77 68 78 74 79 76 80 73 81 69 82 70 83 71 84 72 85 51 86
REMARK SMILES IDX 52 87 60 88 53 89 59 90 61 91 58 92 54 93 55 94 56 95 57 96
REMARK H PARENT 93 22 81 49 49 60
REMARK Flexibility Score: inf
ROOT
ATOM      1  C   UNL A   1      33.032  20.254  24.762  1.00  0.00     0.188 C 
ENDROOT
BRANCH   1   2
ATOM      2  O   UNL A   1      31.786  20.911  24.995  1.00  0.00    -0.377 OA
BRANCH   2   3
ATOM      3  C   UNL A   1      31.650  21.777  26.107  1.00  0.00     0.188 C 
BRANCH   3   4
ATOM      4  C   UNL A   1      31.208  23.213  25.773  1.00  0.00     0.188 C 
BRANCH   4   5
ATOM      5  O   UNL A   1      30.817  23.402  24.428  1.00  0.00    -0.376 OA
BRANCH   5   6
ATOM      6  C   UNL A   1      31.380  24.427  23.628  1.00  0.00     0.202 C 
BRANCH   6   7
ATOM      7  C   UNL A   1      32.709  24.310  22.858  1.00  0.00     0.261 C 
BRANCH   7   8
ATOM      8  O   UNL A   1      33.807  25.105  23.306  1.00  0.00    -0.460 OA
BRANCH   8   9
ATOM      9  C   UNL A   1      34.062  25.113  24.627  1.00  0.00     0.330 C 
ATOM     10  O   UNL A   1      34.321  24.142  25.322  1.00  0.00    -0.247 OA
BRANCH   9  11
ATOM     11  C   UNL A   1      34.156  26.498  25.137  1.00  0.00     0.094 C 
ATOM     12  C   UNL A   1      33.205  27.142  25.838  1.00  0.00     0.016 C 
BRANCH  12  13
ATOM     13  C   UNL A   1      33.371  28.528  26.306  1.00  0.00    -0.018 A 
ATOM     14  C   UNL A   1      34.707  30.280  27.365  1.00  0.00     0.165 A 
ATOM     15  C   UNL A   1      34.591  29.007  26.794  1.00  0.00     0.058 A 
ATOM     16  C   UNL A   1      33.575  31.106  27.425  1.00  0.00     0.200 A 
ATOM     17  C   UNL A   1      32.367  30.690  26.839  1.00  0.00     0.165 A 
ATOM     18  C   UNL A   1      32.284  29.405  26.277  1.00  0.00     0.058 A 
BRANCH  14  19
ATOM     19  O   UNL A   1      35.969  30.513  27.841  1.00  0.00    -0.493 OA
ATOM     20  C   UNL A   1      36.981  29.530  27.698  1.00  0.00     0.278 C 
ENDBRANCH  14  19
BRANCH  16  21
ATOM     21  O   UNL A   1      33.621  32.282  28.120  1.00  0.00    -0.502 OA
ATOM     22  H   UNL A   1      33.099  32.392  28.891  1.00  0.00     0.293 HD
ENDBRANCH  16  21
BRANCH  17  23
ATOM     23  O   UNL A   1      31.174  31.362  26.774  1.00  0.00    -0.493 OA
ATOM     24  C   UNL A   1      30.669  31.752  25.508  1.00  0.00     0.278 C 
ENDBRANCH  17  23
ENDBRANCH  12  13
ENDBRANCH   9  11
ENDBRANCH   8   9
ENDBRANCH   7   8
ENDBRANCH   6   7
ENDBRANCH   5   6
ENDBRANCH   4   5
ENDBRANCH   3   4
ENDBRANCH   2   3
ENDBRANCH   1   2
BRANCH   1  25
ATOM     25  C   UNL A   1      34.353  20.671  25.456  1.00  0.00     0.188 C 
BRANCH  25  26
ATOM     26  O   UNL A   1      35.503  20.634  24.626  1.00  0.00    -0.376 OA
BRANCH  26  27
ATOM     27  C   UNL A   1      36.573  21.509  24.936  1.00  0.00     0.202 C 
BRANCH  27  28
ATOM     28  C   UNL A   1      37.735  20.903  25.733  1.00  0.00     0.261 C 
BRANCH  28  29
ATOM     29  O   UNL A   1      38.985  21.602  25.648  1.00  0.00    -0.460 OA
BRANCH  29  30
ATOM     30  C   UNL A   1      39.839  21.461  26.685  1.00  0.00     0.338 C 
ATOM     31  O   UNL A   1      40.304  20.414  27.110  1.00  0.00    -0.246 OA
BRANCH  30  32
ATOM     32  C   UNL A   1      40.265  22.810  27.105  1.00  0.00     0.060 A 
ATOM     33  C   UNL A   1      39.654  23.931  26.528  1.00  0.00     0.016 A 
ATOM     34  C   UNL A   1      41.257  22.968  28.078  1.00  0.00     0.016 A 
ATOM     35  C   UNL A   1      40.062  25.214  26.896  1.00  0.00     0.010 A 
ATOM     36  C   UNL A   1      41.675  24.253  28.431  1.00  0.00     0.010 A 
ATOM     37  C   UNL A   1      41.104  25.382  27.817  1.00  0.00    -0.014 A 
BRANCH  37  38
ATOM     38  C   UNL A   1      41.733  26.718  27.989  1.00  0.00     0.031 A 
ATOM     39  C   UNL A   1      43.082  26.953  27.361  1.00  0.00     0.074 A 
ATOM     40  C   UNL A   1      41.118  27.706  28.663  1.00  0.00     0.049 A 
ATOM     41  N   UNL A   1      43.856  28.004  27.420  1.00  0.00    -0.248 NA
ATOM     42  C   UNL A   1      43.629  25.844  26.566  1.00  0.00     0.031 C 
ATOM     43  C   UNL A   1      39.791  27.616  29.269  1.00  0.00     0.029 A 
ATOM     44  N   UNL A   1      41.536  28.981  28.955  1.00  0.00    -0.354 N 
ATOM     45  C   UNL A   1      44.987  27.682  26.675  1.00  0.00     0.074 A 
ATOM     46  C   UNL A   1      44.811  26.323  26.211  1.00  0.00     0.031 C 
ATOM     47  C   UNL A   1      39.507  28.786  29.869  1.00  0.00     0.029 A 
ATOM     48  C   UNL A   1      40.647  29.691  29.729  1.00  0.00     0.049 A 
ATOM     49  H   UNL A   1      42.391  29.352  28.640  1.00  0.00     0.167 HD
ATOM     50  C   UNL A   1      46.065  28.453  26.395  1.00  0.00     0.034 A 
ATOM     51  C   UNL A   1      40.756  30.917  30.284  1.00  0.00     0.034 A 
ATOM     52  C   UNL A   1      46.232  29.801  26.879  1.00  0.00     0.049 A 
ATOM     53  C   UNL A   1      42.015  31.721  30.044  1.00  0.00     0.074 A 
ATOM     54  C   UNL A   1      47.279  30.676  26.648  1.00  0.00     0.029 A 
ATOM     55  N   UNL A   1      45.335  30.469  27.704  1.00  0.00    -0.354 N 
ATOM     56  N   UNL A   1      43.075  31.410  29.332  1.00  0.00    -0.248 NA
ATOM     57  C   UNL A   1      42.087  33.045  30.676  1.00  0.00     0.031 C 
ATOM     58  C   UNL A   1      47.059  31.833  27.402  1.00  0.00     0.029 A 
ATOM     59  C   UNL A   1      45.826  31.726  28.024  1.00  0.00     0.049 A 
ATOM     60  H   UNL A   1      44.477  30.103  28.016  1.00  0.00     0.167 HD
ATOM     61  C   UNL A   1      43.920  32.516  29.403  1.00  0.00     0.074 A 
ATOM     62  C   UNL A   1      43.240  33.504  30.214  1.00  0.00     0.031 C 
ATOM     63  C   UNL A   1      45.143  32.702  28.842  1.00  0.00     0.034 A 
BRANCH  50  64
ATOM     64  C   UNL A   1      47.172  27.828  25.578  1.00  0.00     0.023 A 
ATOM     65  C   UNL A   1      47.371  28.153  24.224  1.00  0.00     0.031 A 
ATOM     66  C   UNL A   1      48.023  26.869  26.155  1.00  0.00     0.131 A 
ATOM     67  C   UNL A   1      48.344  27.472  23.476  1.00  0.00     0.055 A 
ATOM     68  C   UNL A   1      49.046  26.258  25.427  1.00  0.00     0.041 A 
ATOM     69  F   UNL A   1      47.865  26.496  27.435  1.00  0.00    -0.206 F 
ATOM     70  C   UNL A   1      49.201  26.548  24.076  1.00  0.00     0.022 A 
BRANCH  67  71
ATOM     71  S   UNL A   1      48.367  27.697  21.677  1.00  0.00     0.124 S 
ATOM     72  O   UNL A   1      49.450  28.663  21.513  1.00  0.00    -0.237 OA
ATOM     73  O   UNL A   1      48.634  26.348  21.193  1.00  0.00    -0.237 OA
ATOM     74  O   UNL A   1      47.032  28.213  21.379  1.00  0.00    -0.744 OA
ENDBRANCH  67  71
ENDBRANCH  50  64
BRANCH  51  75
ATOM     75  C   UNL A   1      39.671  31.454  31.158  1.00  0.00     0.023 A 
ATOM     76  C   UNL A   1      39.744  31.353  32.556  1.00  0.00     0.031 A 
ATOM     77  C   UNL A   1      38.509  32.018  30.601  1.00  0.00     0.131 A 
ATOM     78  C   UNL A   1      38.657  31.761  33.347  1.00  0.00     0.055 A 
ATOM     79  C   UNL A   1      37.456  32.479  31.394  1.00  0.00     0.041 A 
ATOM     80  F   UNL A   1      38.378  32.130  29.270  1.00  0.00    -0.206 F 
ATOM     81  C   UNL A   1      37.521  32.338  32.776  1.00  0.00     0.022 A 
BRANCH  78  82
ATOM     82  S   UNL A   1      38.707  31.431  35.131  1.00  0.00     0.124 S 
ATOM     83  O   UNL A   1      37.754  32.410  35.640  1.00  0.00    -0.237 OA
ATOM     84  O   UNL A   1      38.290  30.035  35.192  1.00  0.00    -0.237 OA
ATOM     85  O   UNL A   1      40.104  31.677  35.483  1.00  0.00    -0.744 OA
ENDBRANCH  78  82
ENDBRANCH  51  75
BRANCH  63  86
ATOM     86  C   UNL A   1      45.801  34.050  29.039  1.00  0.00     0.023 A 
ATOM     87  C   UNL A   1      45.576  35.126  28.163  1.00  0.00     0.031 A 
ATOM     88  C   UNL A   1      46.675  34.255  30.123  1.00  0.00     0.131 A 
ATOM     89  C   UNL A   1      46.261  36.337  28.351  1.00  0.00     0.055 A 
ATOM     90  C   UNL A   1      47.297  35.485  30.346  1.00  0.00     0.041 A 
ATOM     91  F   UNL A   1      46.934  33.264  30.990  1.00  0.00    -0.206 F 
ATOM     92  C   UNL A   1      47.104  36.529  29.448  1.00  0.00     0.022 A 
BRANCH  89  93
ATOM     93  S   UNL A   1      46.122  37.624  27.080  1.00  0.00     0.124 S 
ATOM     94  O   UNL A   1      46.680  36.956  25.909  1.00  0.00    -0.237 OA
ATOM     95  O   UNL A   1      44.684  37.875  27.045  1.00  0.00    -0.237 OA
ATOM     96  O   UNL A   1      46.929  38.720  27.612  1.00  0.00    -0.744 OA
ENDBRANCH  89  93
ENDBRANCH  63  86
ENDBRANCH  37  38
ENDBRANCH  30  32
ENDBRANCH  29  30
ENDBRANCH  28  29
ENDBRANCH  27  28
ENDBRANCH  26  27
ENDBRANCH  25  26
ENDBRANCH   1  25
TORSDOF 27
ENDMDL
