MODEL 1
REMARK VINA RESULT:      -8.8      0.000      0.000
REMARK SMILES Cc1ccc(CSCC(=O)N[C@H]2C=C[C@@H](C(=O)OCCOCCOCCOCCOC(=O)c3ccc(-c4c5nc(c(-c6cc(S(=O)(=O)[O-])ccc6F)c6ccc([nH]6)c(-c6cc(S(=O)(=O)[O-])ccc6F)c6nc(c(-c7cc(S(=O)(=O)[O-])ccc7F)c7ccc4[nH]7)C=C6)C=C5)cc3)C2)cc1
REMARK SMILES IDX 23 1 22 2 21 3 20 4 19 5 18 6 16 7 17 8 15 9 12 10 13 11
REMARK SMILES IDX 96 12 14 13 11 14 9 15 10 16 8 18 7 19 6 20 5 21 1 22 2 23
REMARK SMILES IDX 3 24 98 25 4 26 97 27 24 28 25 29 26 30 27 31 28 32 29 33
REMARK SMILES IDX 30 34 31 35 32 36 33 37 34 38 95 39 35 40 94 41 36 42 37 43
REMARK SMILES IDX 38 44 88 45 39 46 93 47 87 48 89 49 40 50 92 51 86 52 85 53
REMARK SMILES IDX 41 55 73 56 53 57 72 58 54 59 57 60 71 61 90 62 55 63 56 64
REMARK SMILES IDX 70 66 91 67 58 68 42 69 43 70 51 71 44 72 50 73 52 74 49 75
REMARK SMILES IDX 45 76 46 77 47 78 48 79 74 80 75 81 83 82 76 83 82 84 84 85
REMARK SMILES IDX 81 86 77 87 78 88 79 89 80 90 59 91 60 92 68 93 61 94 67 95
REMARK SMILES IDX 69 96 66 97 62 98 63 99 64 100 65 101
REMARK H PARENT 11 17 89 54 57 65
REMARK Flexibility Score: inf
ROOT
ATOM      1  C   UNL A   1      39.532  28.975  28.697  1.00  0.00     0.188 C 
ENDROOT
BRANCH   1   2
ATOM      2  C   UNL A   1      38.065  29.044  28.278  1.00  0.00     0.188 C 
BRANCH   2   3
ATOM      3  O   UNL A   1      37.451  30.256  27.903  1.00  0.00    -0.376 OA
BRANCH   3   4
ATOM      4  C   UNL A   1      36.084  30.408  27.631  1.00  0.00     0.202 C 
BRANCH   4   5
ATOM      5  C   UNL A   1      35.151  29.214  27.631  1.00  0.00     0.261 C 
BRANCH   5   6
ATOM      6  O   UNL A   1      34.201  29.139  26.559  1.00  0.00    -0.463 OA
BRANCH   6   7
ATOM      7  C   UNL A   1      32.957  29.654  26.702  1.00  0.00     0.312 C 
ATOM      8  O   UNL A   1      32.683  30.739  27.200  1.00  0.00    -0.252 OA
BRANCH   7   9
ATOM      9  C   UNL A   1      31.888  28.681  26.267  1.00  0.00     0.124 C 
ATOM     10  C   UNL A   1      32.079  26.925  24.539  1.00  0.00     0.106 C 
ATOM     11  C   UNL A   1      32.279  26.402  25.921  1.00  0.00    -0.006 C 
ATOM     12  C   UNL A   1      31.847  28.429  24.757  1.00  0.00     0.048 C 
ATOM     13  C   UNL A   1      32.147  27.342  26.860  1.00  0.00    -0.014 C 
BRANCH  10  14
ATOM     14  N   UNL A   1      33.202  26.699  23.655  1.00  0.00    -0.349 N 
ATOM     15  C   UNL A   1      33.343  25.808  22.638  1.00  0.00     0.230 C 
ATOM     16  O   UNL A   1      33.817  26.165  21.557  1.00  0.00    -0.274 OA
ATOM     17  H   UNL A   1      33.981  27.280  23.813  1.00  0.00     0.164 HD
BRANCH  15  18
ATOM     18  C   UNL A   1      33.036  24.351  22.878  1.00  0.00     0.169 C 
BRANCH  18  19
ATOM     19  S   UNL A   1      34.392  23.533  23.797  1.00  0.00    -0.147 SA
BRANCH  19  20
ATOM     20  C   UNL A   1      33.406  22.534  24.981  1.00  0.00     0.105 C 
BRANCH  20  21
ATOM     21  C   UNL A   1      33.419  21.032  24.775  1.00  0.00    -0.038 A 
ATOM     22  C   UNL A   1      33.986  17.032  23.309  1.00  0.00     0.044 C 
ATOM     23  C   UNL A   1      33.757  18.349  23.984  1.00  0.00    -0.051 A 
ATOM     24  C   UNL A   1      32.498  18.951  23.921  1.00  0.00     0.004 A 
ATOM     25  C   UNL A   1      34.800  19.031  24.614  1.00  0.00     0.004 A 
ATOM     26  C   UNL A   1      32.332  20.282  24.314  1.00  0.00     0.005 A 
ATOM     27  C   UNL A   1      34.628  20.357  25.016  1.00  0.00     0.005 A 
ENDBRANCH  20  21
ENDBRANCH  19  20
ENDBRANCH  18  19
ENDBRANCH  15  18
ENDBRANCH  10  14
ENDBRANCH   7   9
ENDBRANCH   6   7
ENDBRANCH   5   6
ENDBRANCH   4   5
ENDBRANCH   3   4
ENDBRANCH   2   3
ENDBRANCH   1   2
BRANCH   1  28
ATOM     28  O   UNL A   1      40.427  28.257  27.852  1.00  0.00    -0.377 OA
BRANCH  28  29
ATOM     29  C   UNL A   1      41.219  29.012  26.947  1.00  0.00     0.188 C 
BRANCH  29  30
ATOM     30  C   UNL A   1      41.157  28.390  25.546  1.00  0.00     0.188 C 
BRANCH  30  31
ATOM     31  O   UNL A   1      42.377  28.335  24.829  1.00  0.00    -0.376 OA
BRANCH  31  32
ATOM     32  C   UNL A   1      43.189  27.220  25.155  1.00  0.00     0.202 C 
BRANCH  32  33
ATOM     33  C   UNL A   1      42.479  25.846  25.297  1.00  0.00     0.261 C 
BRANCH  33  34
ATOM     34  O   UNL A   1      43.385  24.721  25.452  1.00  0.00    -0.460 OA
BRANCH  34  35
ATOM     35  C   UNL A   1      43.345  24.065  26.657  1.00  0.00     0.338 C 
ATOM     36  O   UNL A   1      43.012  22.900  26.800  1.00  0.00    -0.246 OA
BRANCH  35  37
ATOM     37  C   UNL A   1      43.583  25.003  27.818  1.00  0.00     0.060 A 
ATOM     38  C   UNL A   1      42.527  25.345  28.676  1.00  0.00     0.016 A 
ATOM     39  C   UNL A   1      44.786  25.688  27.976  1.00  0.00     0.016 A 
ATOM     40  C   UNL A   1      42.627  26.457  29.548  1.00  0.00     0.010 A 
ATOM     41  C   UNL A   1      44.872  26.794  28.841  1.00  0.00     0.010 A 
ATOM     42  C   UNL A   1      43.768  27.275  29.564  1.00  0.00    -0.014 A 
BRANCH  42  43
ATOM     43  C   UNL A   1      43.757  28.677  30.120  1.00  0.00     0.031 A 
ATOM     44  C   UNL A   1      42.634  29.272  30.869  1.00  0.00     0.074 A 
ATOM     45  C   UNL A   1      44.872  29.446  30.203  1.00  0.00     0.049 A 
ATOM     46  N   UNL A   1      42.074  30.407  30.574  1.00  0.00    -0.248 NA
ATOM     47  C   UNL A   1      42.123  28.653  32.090  1.00  0.00     0.031 C 
ATOM     48  C   UNL A   1      45.127  30.655  30.984  1.00  0.00     0.029 A 
ATOM     49  N   UNL A   1      46.111  29.181  29.652  1.00  0.00    -0.354 N 
ATOM     50  C   UNL A   1      41.348  30.750  31.698  1.00  0.00     0.074 A 
ATOM     51  C   UNL A   1      41.178  29.521  32.451  1.00  0.00     0.031 C 
ATOM     52  C   UNL A   1      46.327  31.169  30.659  1.00  0.00     0.029 A 
ATOM     53  C   UNL A   1      46.913  30.313  29.647  1.00  0.00     0.049 A 
ATOM     54  H   UNL A   1      46.389  28.301  29.308  1.00  0.00     0.167 HD
ATOM     55  C   UNL A   1      41.355  32.001  32.250  1.00  0.00     0.034 A 
ATOM     56  C   UNL A   1      47.669  30.614  28.570  1.00  0.00     0.034 A 
ATOM     57  C   UNL A   1      42.475  32.836  31.774  1.00  0.00     0.049 A 
ATOM     58  C   UNL A   1      46.977  31.850  28.067  1.00  0.00     0.074 A 
ATOM     59  C   UNL A   1      43.540  33.427  32.445  1.00  0.00     0.029 A 
ATOM     60  N   UNL A   1      42.787  32.953  30.412  1.00  0.00    -0.354 N 
ATOM     61  N   UNL A   1      45.693  32.059  28.261  1.00  0.00    -0.248 NA
ATOM     62  C   UNL A   1      47.703  33.048  27.664  1.00  0.00     0.031 C 
ATOM     63  C   UNL A   1      44.464  33.920  31.487  1.00  0.00     0.029 A 
ATOM     64  C   UNL A   1      43.994  33.608  30.220  1.00  0.00     0.049 A 
ATOM     65  H   UNL A   1      42.220  32.612  29.683  1.00  0.00     0.167 HD
ATOM     66  C   UNL A   1      45.492  33.409  28.294  1.00  0.00     0.074 A 
ATOM     67  C   UNL A   1      46.752  33.984  27.823  1.00  0.00     0.031 C 
ATOM     68  C   UNL A   1      44.450  34.047  28.907  1.00  0.00     0.034 A 
BRANCH  55  69
ATOM     69  C   UNL A   1      40.563  32.275  33.533  1.00  0.00     0.023 A 
ATOM     70  C   UNL A   1      39.223  32.699  33.505  1.00  0.00     0.031 A 
ATOM     71  C   UNL A   1      41.098  32.082  34.831  1.00  0.00     0.131 A 
ATOM     72  C   UNL A   1      38.525  33.032  34.685  1.00  0.00     0.055 A 
ATOM     73  C   UNL A   1      40.425  32.457  36.004  1.00  0.00     0.041 A 
ATOM     74  F   UNL A   1      42.304  31.516  35.008  1.00  0.00    -0.206 F 
ATOM     75  C   UNL A   1      39.131  32.949  35.934  1.00  0.00     0.022 A 
BRANCH  72  76
ATOM     76  S   UNL A   1      36.776  33.505  34.565  1.00  0.00     0.124 S 
ATOM     77  O   UNL A   1      36.337  33.406  35.953  1.00  0.00    -0.237 OA
ATOM     78  O   UNL A   1      36.852  34.851  34.009  1.00  0.00    -0.237 OA
ATOM     79  O   UNL A   1      36.215  32.500  33.663  1.00  0.00    -0.744 OA
ENDBRANCH  72  76
ENDBRANCH  55  69
BRANCH  56  80
ATOM     80  C   UNL A   1      48.209  29.372  27.918  1.00  0.00     0.023 A 
ATOM     81  C   UNL A   1      47.576  28.949  26.705  1.00  0.00     0.031 A 
ATOM     82  C   UNL A   1      49.456  28.807  28.193  1.00  0.00     0.131 A 
ATOM     83  C   UNL A   1      48.198  28.055  25.807  1.00  0.00     0.055 A 
ATOM     84  C   UNL A   1      50.083  27.927  27.285  1.00  0.00     0.041 A 
ATOM     85  F   UNL A   1      50.151  29.179  29.276  1.00  0.00    -0.206 F 
ATOM     86  C   UNL A   1      49.469  27.567  26.084  1.00  0.00     0.022 A 
BRANCH  83  87
ATOM     87  S   UNL A   1      47.473  27.624  24.181  1.00  0.00     0.124 S 
ATOM     88  O   UNL A   1      48.636  27.674  23.304  1.00  0.00    -0.237 OA
ATOM     89  O   UNL A   1      46.888  26.300  24.380  1.00  0.00    -0.237 OA
ATOM     90  O   UNL A   1      46.481  28.680  23.991  1.00  0.00    -0.744 OA
ENDBRANCH  83  87
ENDBRANCH  56  80
BRANCH  68  91
ATOM     91  C   UNL A   1      43.929  35.337  28.358  1.00  0.00     0.023 A 
ATOM     92  C   UNL A   1      44.190  36.545  29.011  1.00  0.00     0.031 A 
ATOM     93  C   UNL A   1      43.284  35.423  27.106  1.00  0.00     0.131 A 
ATOM     94  C   UNL A   1      43.720  37.754  28.503  1.00  0.00     0.055 A 
ATOM     95  C   UNL A   1      42.897  36.642  26.553  1.00  0.00     0.041 A 
ATOM     96  F   UNL A   1      43.039  34.342  26.351  1.00  0.00    -0.206 F 
ATOM     97  C   UNL A   1      43.097  37.819  27.262  1.00  0.00     0.022 A 
BRANCH  94  98
ATOM     98  S   UNL A   1      43.898  39.199  29.565  1.00  0.00     0.124 S 
ATOM     99  O   UNL A   1      45.263  39.619  29.264  1.00  0.00    -0.237 OA
ATOM    100  O   UNL A   1      42.843  40.082  29.086  1.00  0.00    -0.237 OA
ATOM    101  O   UNL A   1      43.694  38.655  30.910  1.00  0.00    -0.744 OA
ENDBRANCH  94  98
ENDBRANCH  68  91
ENDBRANCH  42  43
ENDBRANCH  35  37
ENDBRANCH  34  35
ENDBRANCH  33  34
ENDBRANCH  32  33
ENDBRANCH  31  32
ENDBRANCH  30  31
ENDBRANCH  29  30
ENDBRANCH  28  29
ENDBRANCH   1  28
TORSDOF 28
ENDMDL
MODEL 2
REMARK VINA RESULT:      -8.2      4.254      8.634
REMARK SMILES Cc1ccc(CSCC(=O)N[C@H]2C=C[C@@H](C(=O)OCCOCCOCCOCCOC(=O)c3ccc(-c4c5nc(c(-c6cc(S(=O)(=O)[O-])ccc6F)c6ccc([nH]6)c(-c6cc(S(=O)(=O)[O-])ccc6F)c6nc(c(-c7cc(S(=O)(=O)[O-])ccc7F)c7ccc4[nH]7)C=C6)C=C5)cc3)C2)cc1
REMARK SMILES IDX 23 1 22 2 21 3 20 4 19 5 18 6 16 7 17 8 15 9 12 10 13 11
REMARK SMILES IDX 96 12 14 13 11 14 9 15 10 16 8 18 7 19 6 20 5 21 1 22 2 23
REMARK SMILES IDX 3 24 98 25 4 26 97 27 24 28 25 29 26 30 27 31 28 32 29 33
REMARK SMILES IDX 30 34 31 35 32 36 33 37 34 38 95 39 35 40 94 41 36 42 37 43
REMARK SMILES IDX 38 44 88 45 39 46 93 47 87 48 89 49 40 50 92 51 86 52 85 53
REMARK SMILES IDX 41 55 73 56 53 57 72 58 54 59 57 60 71 61 90 62 55 63 56 64
REMARK SMILES IDX 70 66 91 67 58 68 42 69 43 70 51 71 44 72 50 73 52 74 49 75
REMARK SMILES IDX 45 76 46 77 47 78 48 79 74 80 75 81 83 82 76 83 82 84 84 85
REMARK SMILES IDX 81 86 77 87 78 88 79 89 80 90 59 91 60 92 68 93 61 94 67 95
REMARK SMILES IDX 69 96 66 97 62 98 63 99 64 100 65 101
REMARK H PARENT 11 17 89 54 57 65
REMARK Flexibility Score: inf
ROOT
ATOM      1  C   UNL A   1      36.425  29.930  30.062  1.00  0.00     0.188 C 
ENDROOT
BRANCH   1   2
ATOM      2  C   UNL A   1      37.521  29.420  29.129  1.00  0.00     0.188 C 
BRANCH   2   3
ATOM      3  O   UNL A   1      38.322  28.307  29.455  1.00  0.00    -0.376 OA
BRANCH   3   4
ATOM      4  C   UNL A   1      39.625  28.095  28.985  1.00  0.00     0.202 C 
BRANCH   4   5
ATOM      5  C   UNL A   1      40.121  26.699  28.663  1.00  0.00     0.261 C 
BRANCH   5   6
ATOM      6  O   UNL A   1      41.000  26.573  27.536  1.00  0.00    -0.463 OA
BRANCH   6   7
ATOM      7  C   UNL A   1      40.839  25.566  26.645  1.00  0.00     0.312 C 
ATOM      8  O   UNL A   1      40.796  25.688  25.427  1.00  0.00    -0.252 OA
BRANCH   7   9
ATOM      9  C   UNL A   1      40.604  24.239  27.325  1.00  0.00     0.124 C 
ATOM     10  C   UNL A   1      39.238  22.355  26.494  1.00  0.00     0.106 C 
ATOM     11  C   UNL A   1      40.693  22.184  26.215  1.00  0.00    -0.006 C 
ATOM     12  C   UNL A   1      39.169  23.719  27.201  1.00  0.00     0.048 C 
ATOM     13  C   UNL A   1      41.438  23.186  26.689  1.00  0.00    -0.014 C 
BRANCH  10  14
ATOM     14  N   UNL A   1      38.406  22.345  25.310  1.00  0.00    -0.349 N 
ATOM     15  C   UNL A   1      37.238  22.996  25.063  1.00  0.00     0.230 C 
ATOM     16  O   UNL A   1      37.065  23.580  23.991  1.00  0.00    -0.274 OA
ATOM     17  H   UNL A   1      38.736  21.783  24.573  1.00  0.00     0.164 HD
BRANCH  15  18
ATOM     18  C   UNL A   1      36.105  22.894  26.054  1.00  0.00     0.169 C 
BRANCH  18  19
ATOM     19  S   UNL A   1      34.482  23.000  25.213  1.00  0.00    -0.147 SA
BRANCH  19  20
ATOM     20  C   UNL A   1      33.878  24.591  25.905  1.00  0.00     0.105 C 
BRANCH  20  21
ATOM     21  C   UNL A   1      32.444  24.966  25.587  1.00  0.00    -0.038 A 
ATOM     22  C   UNL A   1      28.830  26.534  23.868  1.00  0.00     0.044 C 
ATOM     23  C   UNL A   1      29.982  25.867  24.555  1.00  0.00    -0.051 A 
ATOM     24  C   UNL A   1      30.496  26.412  25.734  1.00  0.00     0.004 A 
ATOM     25  C   UNL A   1      30.608  24.749  24.000  1.00  0.00     0.004 A 
ATOM     26  C   UNL A   1      31.717  25.964  26.244  1.00  0.00     0.005 A 
ATOM     27  C   UNL A   1      31.822  24.297  24.520  1.00  0.00     0.005 A 
ENDBRANCH  20  21
ENDBRANCH  19  20
ENDBRANCH  18  19
ENDBRANCH  15  18
ENDBRANCH  10  14
ENDBRANCH   7   9
ENDBRANCH   6   7
ENDBRANCH   5   6
ENDBRANCH   4   5
ENDBRANCH   3   4
ENDBRANCH   2   3
ENDBRANCH   1   2
BRANCH   1  28
ATOM     28  O   UNL A   1      36.459  29.499  31.419  1.00  0.00    -0.377 OA
BRANCH  28  29
ATOM     29  C   UNL A   1      36.590  30.499  32.420  1.00  0.00     0.188 C 
BRANCH  29  30
ATOM     30  C   UNL A   1      36.099  31.850  31.882  1.00  0.00     0.188 C 
BRANCH  30  31
ATOM     31  O   UNL A   1      34.820  32.272  32.320  1.00  0.00    -0.376 OA
BRANCH  31  32
ATOM     32  C   UNL A   1      34.830  33.495  33.035  1.00  0.00     0.202 C 
BRANCH  32  33
ATOM     33  C   UNL A   1      36.216  34.132  33.329  1.00  0.00     0.261 C 
BRANCH  33  34
ATOM     34  O   UNL A   1      36.535  34.239  34.742  1.00  0.00    -0.460 OA
BRANCH  34  35
ATOM     35  C   UNL A   1      37.442  33.334  35.235  1.00  0.00     0.338 C 
ATOM     36  O   UNL A   1      37.144  32.283  35.778  1.00  0.00    -0.246 OA
BRANCH  35  37
ATOM     37  C   UNL A   1      38.854  33.873  35.197  1.00  0.00     0.060 A 
ATOM     38  C   UNL A   1      39.108  35.212  35.530  1.00  0.00     0.016 A 
ATOM     39  C   UNL A   1      39.910  33.131  34.674  1.00  0.00     0.016 A 
ATOM     40  C   UNL A   1      40.336  35.828  35.188  1.00  0.00     0.010 A 
ATOM     41  C   UNL A   1      41.124  33.754  34.332  1.00  0.00     0.010 A 
ATOM     42  C   UNL A   1      41.329  35.136  34.477  1.00  0.00    -0.014 A 
BRANCH  42  43
ATOM     43  C   UNL A   1      42.428  35.840  33.720  1.00  0.00     0.031 A 
ATOM     44  C   UNL A   1      43.071  37.096  34.151  1.00  0.00     0.074 A 
ATOM     45  C   UNL A   1      43.106  35.261  32.697  1.00  0.00     0.049 A 
ATOM     46  N   UNL A   1      43.184  38.156  33.407  1.00  0.00    -0.248 NA
ATOM     47  C   UNL A   1      43.730  37.203  35.451  1.00  0.00     0.031 C 
ATOM     48  C   UNL A   1      44.377  35.634  32.078  1.00  0.00     0.029 A 
ATOM     49  N   UNL A   1      42.808  34.068  32.068  1.00  0.00    -0.354 N 
ATOM     50  C   UNL A   1      44.134  38.934  34.039  1.00  0.00     0.074 A 
ATOM     51  C   UNL A   1      44.201  38.449  35.406  1.00  0.00     0.031 C 
ATOM     52  C   UNL A   1      44.610  34.861  31.002  1.00  0.00     0.029 A 
ATOM     53  C   UNL A   1      43.496  33.943  30.870  1.00  0.00     0.049 A 
ATOM     54  H   UNL A   1      42.187  33.392  32.425  1.00  0.00     0.167 HD
ATOM     55  C   UNL A   1      45.167  39.547  33.384  1.00  0.00     0.034 A 
ATOM     56  C   UNL A   1      42.878  33.461  29.771  1.00  0.00     0.034 A 
ATOM     57  C   UNL A   1      45.392  39.007  32.029  1.00  0.00     0.049 A 
ATOM     58  C   UNL A   1      42.825  34.690  28.906  1.00  0.00     0.074 A 
ATOM     59  C   UNL A   1      46.488  38.371  31.456  1.00  0.00     0.029 A 
ATOM     60  N   UNL A   1      44.341  38.822  31.120  1.00  0.00    -0.354 N 
ATOM     61  N   UNL A   1      42.779  35.902  29.417  1.00  0.00    -0.248 NA
ATOM     62  C   UNL A   1      43.181  34.672  27.493  1.00  0.00     0.031 C 
ATOM     63  C   UNL A   1      46.099  37.838  30.199  1.00  0.00     0.029 A 
ATOM     64  C   UNL A   1      44.753  38.111  30.002  1.00  0.00     0.049 A 
ATOM     65  H   UNL A   1      43.425  39.154  31.257  1.00  0.00     0.167 HD
ATOM     66  C   UNL A   1      43.358  36.752  28.519  1.00  0.00     0.074 A 
ATOM     67  C   UNL A   1      43.505  35.961  27.298  1.00  0.00     0.031 C 
ATOM     68  C   UNL A   1      43.921  37.962  28.815  1.00  0.00     0.034 A 
BRANCH  55  69
ATOM     69  C   UNL A   1      46.209  40.345  34.176  1.00  0.00     0.023 A 
ATOM     70  C   UNL A   1      46.035  41.709  34.470  1.00  0.00     0.031 A 
ATOM     71  C   UNL A   1      47.389  39.768  34.706  1.00  0.00     0.131 A 
ATOM     72  C   UNL A   1      47.035  42.460  35.124  1.00  0.00     0.055 A 
ATOM     73  C   UNL A   1      48.406  40.519  35.314  1.00  0.00     0.041 A 
ATOM     74  F   UNL A   1      47.598  38.442  34.652  1.00  0.00    -0.206 F 
ATOM     75  C   UNL A   1      48.237  41.880  35.515  1.00  0.00     0.022 A 
BRANCH  72  76
ATOM     76  S   UNL A   1      46.703  44.199  35.526  1.00  0.00     0.124 S 
ATOM     77  O   UNL A   1      45.255  44.277  35.375  1.00  0.00    -0.237 OA
ATOM     78  O   UNL A   1      47.216  44.311  36.886  1.00  0.00    -0.237 OA
ATOM     79  O   UNL A   1      47.472  44.930  34.519  1.00  0.00    -0.744 OA
ENDBRANCH  72  76
ENDBRANCH  55  69
BRANCH  56  80
ATOM     80  C   UNL A   1      41.894  32.383  30.126  1.00  0.00     0.023 A 
ATOM     81  C   UNL A   1      42.434  31.119  30.530  1.00  0.00     0.031 A 
ATOM     82  C   UNL A   1      40.548  32.602  30.426  1.00  0.00     0.131 A 
ATOM     83  C   UNL A   1      41.668  30.167  31.238  1.00  0.00     0.055 A 
ATOM     84  C   UNL A   1      39.790  31.657  31.150  1.00  0.00     0.041 A 
ATOM     85  F   UNL A   1      39.967  33.774  30.138  1.00  0.00    -0.206 F 
ATOM     86  C   UNL A   1      40.351  30.452  31.575  1.00  0.00     0.022 A 
BRANCH  83  87
ATOM     87  S   UNL A   1      42.382  28.614  31.894  1.00  0.00     0.124 S 
ATOM     88  O   UNL A   1      42.701  27.884  30.673  1.00  0.00    -0.237 OA
ATOM     89  O   UNL A   1      43.528  29.046  32.690  1.00  0.00    -0.237 OA
ATOM     90  O   UNL A   1      41.283  28.077  32.694  1.00  0.00    -0.744 OA
ENDBRANCH  83  87
ENDBRANCH  56  80
BRANCH  68  91
ATOM     91  C   UNL A   1      43.893  39.071  27.812  1.00  0.00     0.023 A 
ATOM     92  C   UNL A   1      45.015  39.348  27.026  1.00  0.00     0.031 A 
ATOM     93  C   UNL A   1      42.717  39.789  27.507  1.00  0.00     0.131 A 
ATOM     94  C   UNL A   1      44.998  40.371  26.080  1.00  0.00     0.055 A 
ATOM     95  C   UNL A   1      42.673  40.747  26.496  1.00  0.00     0.041 A 
ATOM     96  F   UNL A   1      41.557  39.567  28.143  1.00  0.00    -0.206 F 
ATOM     97  C   UNL A   1      43.826  41.058  25.787  1.00  0.00     0.022 A 
BRANCH  94  98
ATOM     98  S   UNL A   1      46.576  40.795  25.322  1.00  0.00     0.124 S 
ATOM     99  O   UNL A   1      46.419  42.228  25.096  1.00  0.00    -0.237 OA
ATOM    100  O   UNL A   1      47.538  40.418  26.349  1.00  0.00    -0.237 OA
ATOM    101  O   UNL A   1      46.601  39.971  24.111  1.00  0.00    -0.744 OA
ENDBRANCH  94  98
ENDBRANCH  68  91
ENDBRANCH  42  43
ENDBRANCH  35  37
ENDBRANCH  34  35
ENDBRANCH  33  34
ENDBRANCH  32  33
ENDBRANCH  31  32
ENDBRANCH  30  31
ENDBRANCH  29  30
ENDBRANCH  28  29
ENDBRANCH   1  28
TORSDOF 28
ENDMDL
MODEL 3
REMARK VINA RESULT:      -7.3      4.924     10.282
REMARK SMILES Cc1ccc(CSCC(=O)N[C@H]2C=C[C@@H](C(=O)OCCOCCOCCOCCOC(=O)c3ccc(-c4c5nc(c(-c6cc(S(=O)(=O)[O-])ccc6F)c6ccc([nH]6)c(-c6cc(S(=O)(=O)[O-])ccc6F)c6nc(c(-c7cc(S(=O)(=O)[O-])ccc7F)c7ccc4[nH]7)C=C6)C=C5)cc3)C2)cc1
REMARK SMILES IDX 23 1 22 2 21 3 20 4 19 5 18 6 16 7 17 8 15 9 12 10 13 11
REMARK SMILES IDX 96 12 14 13 11 14 9 15 10 16 8 18 7 19 6 20 5 21 1 22 2 23
REMARK SMILES IDX 3 24 98 25 4 26 97 27 24 28 25 29 26 30 27 31 28 32 29 33
REMARK SMILES IDX 30 34 31 35 32 36 33 37 34 38 95 39 35 40 94 41 36 42 37 43
REMARK SMILES IDX 38 44 88 45 39 46 93 47 87 48 89 49 40 50 92 51 86 52 85 53
REMARK SMILES IDX 41 55 73 56 53 57 72 58 54 59 57 60 71 61 90 62 55 63 56 64
REMARK SMILES IDX 70 66 91 67 58 68 42 69 43 70 51 71 44 72 50 73 52 74 49 75
REMARK SMILES IDX 45 76 46 77 47 78 48 79 74 80 75 81 83 82 76 83 82 84 84 85
REMARK SMILES IDX 81 86 77 87 78 88 79 89 80 90 59 91 60 92 68 93 61 94 67 95
REMARK SMILES IDX 69 96 66 97 62 98 63 99 64 100 65 101
REMARK H PARENT 11 17 89 54 57 65
REMARK Flexibility Score: inf
ROOT
ATOM      1  C   UNL A   1      36.403  30.034  30.180  1.00  0.00     0.188 C 
ENDROOT
BRANCH   1   2
ATOM      2  C   UNL A   1      37.399  29.511  29.147  1.00  0.00     0.188 C 
BRANCH   2   3
ATOM      3  O   UNL A   1      38.421  28.603  29.488  1.00  0.00    -0.376 OA
BRANCH   3   4
ATOM      4  C   UNL A   1      39.283  27.989  28.569  1.00  0.00     0.202 C 
BRANCH   4   5
ATOM      5  C   UNL A   1      39.820  26.593  28.817  1.00  0.00     0.261 C 
BRANCH   5   6
ATOM      6  O   UNL A   1      41.171  26.498  29.288  1.00  0.00    -0.463 OA
BRANCH   6   7
ATOM      7  C   UNL A   1      42.115  25.862  28.553  1.00  0.00     0.312 C 
ATOM      8  O   UNL A   1      43.301  26.160  28.499  1.00  0.00    -0.252 OA
BRANCH   7   9
ATOM      9  C   UNL A   1      41.524  24.773  27.691  1.00  0.00     0.124 C 
ATOM     10  C   UNL A   1      42.564  23.691  25.727  1.00  0.00     0.106 C 
ATOM     11  C   UNL A   1      42.721  22.895  26.979  1.00  0.00    -0.006 C 
ATOM     12  C   UNL A   1      41.800  24.941  26.194  1.00  0.00     0.048 C 
ATOM     13  C   UNL A   1      42.135  23.462  28.037  1.00  0.00    -0.014 C 
BRANCH  10  14
ATOM     14  N   UNL A   1      43.815  24.056  25.100  1.00  0.00    -0.349 N 
ATOM     15  C   UNL A   1      44.641  25.106  25.351  1.00  0.00     0.230 C 
ATOM     16  O   UNL A   1      45.859  24.936  25.438  1.00  0.00    -0.274 OA
ATOM     17  H   UNL A   1      44.114  23.451  24.382  1.00  0.00     0.164 HD
BRANCH  15  18
ATOM     18  C   UNL A   1      44.073  26.504  25.397  1.00  0.00     0.169 C 
BRANCH  18  19
ATOM     19  S   UNL A   1      45.408  27.758  25.406  1.00  0.00    -0.147 SA
BRANCH  19  20
ATOM     20  C   UNL A   1      45.016  28.617  26.981  1.00  0.00     0.105 C 
BRANCH  20  21
ATOM     21  C   UNL A   1      45.748  29.918  27.242  1.00  0.00    -0.038 A 
ATOM     22  C   UNL A   1      47.145  33.983  27.262  1.00  0.00     0.044 C 
ATOM     23  C   UNL A   1      46.742  32.548  27.418  1.00  0.00    -0.051 A 
ATOM     24  C   UNL A   1      47.502  31.545  26.812  1.00  0.00     0.004 A 
ATOM     25  C   UNL A   1      45.573  32.194  28.095  1.00  0.00     0.004 A 
ATOM     26  C   UNL A   1      47.007  30.241  26.726  1.00  0.00     0.005 A 
ATOM     27  C   UNL A   1      45.088  30.887  28.017  1.00  0.00     0.005 A 
ENDBRANCH  20  21
ENDBRANCH  19  20
ENDBRANCH  18  19
ENDBRANCH  15  18
ENDBRANCH  10  14
ENDBRANCH   7   9
ENDBRANCH   6   7
ENDBRANCH   5   6
ENDBRANCH   4   5
ENDBRANCH   3   4
ENDBRANCH   2   3
ENDBRANCH   1   2
BRANCH   1  28
ATOM     28  O   UNL A   1      36.593  29.646  31.537  1.00  0.00    -0.377 OA
BRANCH  28  29
ATOM     29  C   UNL A   1      36.752  30.681  32.497  1.00  0.00     0.188 C 
BRANCH  29  30
ATOM     30  C   UNL A   1      35.928  31.909  32.090  1.00  0.00     0.188 C 
BRANCH  30  31
ATOM     31  O   UNL A   1      34.750  32.151  32.838  1.00  0.00    -0.376 OA
BRANCH  31  32
ATOM     32  C   UNL A   1      34.723  33.413  33.480  1.00  0.00     0.202 C 
BRANCH  32  33
ATOM     33  C   UNL A   1      36.041  34.236  33.479  1.00  0.00     0.261 C 
BRANCH  33  34
ATOM     34  O   UNL A   1      36.623  34.429  34.796  1.00  0.00    -0.460 OA
BRANCH  34  35
ATOM     35  C   UNL A   1      37.540  33.491  35.203  1.00  0.00     0.338 C 
ATOM     36  O   UNL A   1      37.253  32.416  35.703  1.00  0.00    -0.246 OA
BRANCH  35  37
ATOM     37  C   UNL A   1      38.955  34.018  35.135  1.00  0.00     0.060 A 
ATOM     38  C   UNL A   1      39.230  35.349  35.484  1.00  0.00     0.016 A 
ATOM     39  C   UNL A   1      39.990  33.276  34.571  1.00  0.00     0.016 A 
ATOM     40  C   UNL A   1      40.454  35.961  35.118  1.00  0.00     0.010 A 
ATOM     41  C   UNL A   1      41.199  33.895  34.207  1.00  0.00     0.010 A 
ATOM     42  C   UNL A   1      41.421  35.273  34.368  1.00  0.00    -0.014 A 
BRANCH  42  43
ATOM     43  C   UNL A   1      42.504  35.979  33.593  1.00  0.00     0.031 A 
ATOM     44  C   UNL A   1      43.160  37.230  34.020  1.00  0.00     0.074 A 
ATOM     45  C   UNL A   1      43.158  35.407  32.551  1.00  0.00     0.049 A 
ATOM     46  N   UNL A   1      43.260  38.296  33.283  1.00  0.00    -0.248 NA
ATOM     47  C   UNL A   1      43.848  37.325  35.306  1.00  0.00     0.031 C 
ATOM     48  C   UNL A   1      44.416  35.781  31.907  1.00  0.00     0.029 A 
ATOM     49  N   UNL A   1      42.843  34.219  31.919  1.00  0.00    -0.354 N 
ATOM     50  C   UNL A   1      44.226  39.066  33.899  1.00  0.00     0.074 A 
ATOM     51  C   UNL A   1      44.322  38.570  35.260  1.00  0.00     0.031 C 
ATOM     52  C   UNL A   1      44.623  35.017  30.820  1.00  0.00     0.029 A 
ATOM     53  C   UNL A   1      43.504  34.102  30.705  1.00  0.00     0.049 A 
ATOM     54  H   UNL A   1      42.228  33.542  32.285  1.00  0.00     0.167 HD
ATOM     55  C   UNL A   1      45.246  39.681  33.227  1.00  0.00     0.034 A 
ATOM     56  C   UNL A   1      42.861  33.631  29.616  1.00  0.00     0.034 A 
ATOM     57  C   UNL A   1      45.440  39.152  31.863  1.00  0.00     0.049 A 
ATOM     58  C   UNL A   1      42.792  34.867  28.763  1.00  0.00     0.074 A 
ATOM     59  C   UNL A   1      46.521  38.518  31.261  1.00  0.00     0.029 A 
ATOM     60  N   UNL A   1      44.369  38.977  30.975  1.00  0.00    -0.354 N 
ATOM     61  N   UNL A   1      42.761  36.075  29.284  1.00  0.00    -0.248 NA
ATOM     62  C   UNL A   1      43.117  34.859  27.341  1.00  0.00     0.031 C 
ATOM     63  C   UNL A   1      46.103  37.996  30.009  1.00  0.00     0.029 A 
ATOM     64  C   UNL A   1      44.753  38.274  29.843  1.00  0.00     0.049 A 
ATOM     65  H   UNL A   1      43.456  39.311  31.136  1.00  0.00     0.167 HD
ATOM     66  C   UNL A   1      43.322  36.931  28.381  1.00  0.00     0.074 A 
ATOM     67  C   UNL A   1      43.441  36.149  27.150  1.00  0.00     0.031 C 
ATOM     68  C   UNL A   1      43.896  38.137  28.674  1.00  0.00     0.034 A 
BRANCH  55  69
ATOM     69  C   UNL A   1      46.307  40.470  34.002  1.00  0.00     0.023 A 
ATOM     70  C   UNL A   1      46.096  41.799  34.410  1.00  0.00     0.031 A 
ATOM     71  C   UNL A   1      47.548  39.916  34.402  1.00  0.00     0.131 A 
ATOM     72  C   UNL A   1      47.107  42.549  35.047  1.00  0.00     0.055 A 
ATOM     73  C   UNL A   1      48.573  40.670  34.992  1.00  0.00     0.041 A 
ATOM     74  F   UNL A   1      47.810  38.609  34.233  1.00  0.00    -0.206 F 
ATOM     75  C   UNL A   1      48.360  42.003  35.308  1.00  0.00     0.022 A 
BRANCH  72  76
ATOM     76  S   UNL A   1      46.730  44.236  35.602  1.00  0.00     0.124 S 
ATOM     77  O   UNL A   1      45.298  44.331  35.342  1.00  0.00    -0.237 OA
ATOM     78  O   UNL A   1      47.128  44.202  37.005  1.00  0.00    -0.237 OA
ATOM     79  O   UNL A   1      47.574  45.069  34.745  1.00  0.00    -0.744 OA
ENDBRANCH  72  76
ENDBRANCH  55  69
BRANCH  56  80
ATOM     80  C   UNL A   1      41.882  32.553  29.985  1.00  0.00     0.023 A 
ATOM     81  C   UNL A   1      42.425  31.327  30.488  1.00  0.00     0.031 A 
ATOM     82  C   UNL A   1      40.518  32.758  30.203  1.00  0.00     0.131 A 
ATOM     83  C   UNL A   1      41.643  30.401  31.212  1.00  0.00     0.055 A 
ATOM     84  C   UNL A   1      39.743  31.839  30.942  1.00  0.00     0.041 A 
ATOM     85  F   UNL A   1      39.929  33.897  29.817  1.00  0.00    -0.206 F 
ATOM     86  C   UNL A   1      40.305  30.673  31.465  1.00  0.00     0.022 A 
BRANCH  83  87
ATOM     87  S   UNL A   1      42.355  28.905  31.994  1.00  0.00     0.124 S 
ATOM     88  O   UNL A   1      41.171  28.087  32.223  1.00  0.00    -0.237 OA
ATOM     89  O   UNL A   1      43.298  28.388  31.006  1.00  0.00    -0.237 OA
ATOM     90  O   UNL A   1      42.998  29.452  33.187  1.00  0.00    -0.744 OA
ENDBRANCH  83  87
ENDBRANCH  56  80
BRANCH  68  91
ATOM     91  C   UNL A   1      43.848  39.254  27.680  1.00  0.00     0.023 A 
ATOM     92  C   UNL A   1      44.902  39.453  26.783  1.00  0.00     0.031 A 
ATOM     93  C   UNL A   1      42.705  40.061  27.499  1.00  0.00     0.131 A 
ATOM     94  C   UNL A   1      44.865  40.483  25.846  1.00  0.00     0.055 A 
ATOM     95  C   UNL A   1      42.630  41.029  26.499  1.00  0.00     0.041 A 
ATOM     96  F   UNL A   1      41.603  39.920  28.250  1.00  0.00    -0.206 F 
ATOM     97  C   UNL A   1      43.724  41.259  25.676  1.00  0.00     0.022 A 
BRANCH  94  98
ATOM     98  S   UNL A   1      46.385  40.795  24.930  1.00  0.00     0.124 S 
ATOM     99  O   UNL A   1      47.204  41.463  25.936  1.00  0.00    -0.237 OA
ATOM    100  O   UNL A   1      46.813  39.454  24.553  1.00  0.00    -0.237 OA
ATOM    101  O   UNL A   1      45.942  41.643  23.821  1.00  0.00    -0.744 OA
ENDBRANCH  94  98
ENDBRANCH  68  91
ENDBRANCH  42  43
ENDBRANCH  35  37
ENDBRANCH  34  35
ENDBRANCH  33  34
ENDBRANCH  32  33
ENDBRANCH  31  32
ENDBRANCH  30  31
ENDBRANCH  29  30
ENDBRANCH  28  29
ENDBRANCH   1  28
TORSDOF 28
ENDMDL
