MODEL 1
REMARK VINA RESULT:      -9.1      0.000      0.000
REMARK SMILES O=C(Cc1ccccc1C(=O)OCCOCCOCCOCCOC(=O)c1ccc(-c2c3nc(c(-c4cc(S(=O)(=O)[O-])ccc4F)c4ccc([nH]4)c(-c4cc(S(=O)(=O)[O-])ccc4F)c4nc(c(-c5cc(S(=O)(=O)[O-])ccc5F)c5ccc2[nH]5)C=C4)C=C3)cc1)Nc1ccc(S(=O)(=O)N2CCCC2)cc1
REMARK SMILES IDX 17 1 16 2 15 3 14 4 13 5 12 6 10 7 11 8 9 9 4 10 5 11 6 12
REMARK SMILES IDX 8 13 7 14 3 15 2 16 1 17 90 18 91 20 92 21 104 22 93 23
REMARK SMILES IDX 103 24 94 25 95 26 96 27 97 28 98 29 99 30 102 31 100 32
REMARK SMILES IDX 101 33 18 34 19 35 20 36 21 37 22 38 23 39 24 40 25 41 26 42
REMARK SMILES IDX 27 43 28 44 89 45 29 46 88 47 30 48 31 49 32 50 82 51 33 52
REMARK SMILES IDX 87 53 81 54 83 55 34 56 86 57 80 58 79 59 35 61 67 62 47 63
REMARK SMILES IDX 66 64 48 65 51 66 65 67 84 68 49 69 50 70 64 72 85 73 52 74
REMARK SMILES IDX 36 75 37 76 45 77 38 78 44 79 46 80 43 81 39 82 40 83 41 84
REMARK SMILES IDX 42 85 68 86 69 87 77 88 70 89 76 90 78 91 75 92 71 93 72 94
REMARK SMILES IDX 73 95 74 96 53 97 54 98 62 99 55 100 61 101 63 102 60 103
REMARK SMILES IDX 56 104 57 105 58 106 59 107
REMARK H PARENT 90 19 83 60 51 71
REMARK Flexibility Score: inf
ROOT
ATOM      1  C   UNL A   1      39.122  30.112  28.824  1.00  0.00     0.188 C 
ENDROOT
BRANCH   1   2
ATOM      2  C   UNL A   1      39.819  29.065  29.722  1.00  0.00     0.188 C 
BRANCH   2   3
ATOM      3  O   UNL A   1      39.888  27.777  29.093  1.00  0.00    -0.376 OA
BRANCH   3   4
ATOM      4  C   UNL A   1      41.137  27.459  28.455  1.00  0.00     0.202 C 
BRANCH   4   5
ATOM      5  C   UNL A   1      41.447  25.954  28.333  1.00  0.00     0.261 C 
BRANCH   5   6
ATOM      6  O   UNL A   1      42.337  25.691  27.243  1.00  0.00    -0.460 OA
BRANCH   6   7
ATOM      7  C   UNL A   1      41.790  25.310  26.074  1.00  0.00     0.338 C 
ATOM      8  O   UNL A   1      41.334  26.036  25.220  1.00  0.00    -0.246 OA
BRANCH   7   9
ATOM      9  C   UNL A   1      42.226  23.900  25.854  1.00  0.00     0.063 A 
ATOM     10  C   UNL A   1      41.719  22.748  26.500  1.00  0.00    -0.024 A 
ATOM     11  C   UNL A   1      42.398  21.529  26.237  1.00  0.00     0.005 A 
ATOM     12  C   UNL A   1      43.541  21.460  25.428  1.00  0.00     0.000 A 
ATOM     13  C   UNL A   1      43.381  23.813  25.035  1.00  0.00     0.016 A 
ATOM     14  C   UNL A   1      44.041  22.606  24.832  1.00  0.00     0.001 A 
BRANCH  10  15
ATOM     15  C   UNL A   1      40.410  22.627  27.285  1.00  0.00     0.136 C 
BRANCH  15  16
ATOM     16  C   UNL A   1      39.023  23.015  26.758  1.00  0.00     0.228 C 
ATOM     17  O   UNL A   1      38.619  24.166  26.929  1.00  0.00    -0.274 OA
ATOM     18  N   UNL A   1      38.338  22.059  26.043  1.00  0.00    -0.326 N 
ATOM     19  H   UNL A   1      38.788  21.189  25.940  1.00  0.00     0.169 HD
BRANCH  18  20
ATOM     20  C   UNL A   1      37.060  22.178  25.436  1.00  0.00     0.041 A 
ATOM     21  C   UNL A   1      37.045  22.701  24.146  1.00  0.00     0.027 A 
ATOM     22  C   UNL A   1      35.832  21.827  25.980  1.00  0.00     0.027 A 
ATOM     23  C   UNL A   1      35.897  22.952  23.420  1.00  0.00     0.024 A 
ATOM     24  C   UNL A   1      34.637  22.082  25.257  1.00  0.00     0.024 A 
ATOM     25  C   UNL A   1      34.673  22.679  23.991  1.00  0.00     0.082 A 
BRANCH  25  26
ATOM     26  S   UNL A   1      33.297  23.189  22.988  1.00  0.00     0.243 S 
ATOM     27  O   UNL A   1      33.838  24.156  22.052  1.00  0.00    -0.207 OA
ATOM     28  O   UNL A   1      32.673  21.969  22.518  1.00  0.00    -0.207 OA
BRANCH  26  29
ATOM     29  N   UNL A   1      32.211  23.982  23.962  1.00  0.00    -0.198 NA
ATOM     30  C   UNL A   1      32.603  25.153  24.747  1.00  0.00     0.102 C 
ATOM     31  C   UNL A   1      31.138  23.242  24.621  1.00  0.00     0.102 C 
ATOM     32  C   UNL A   1      32.195  24.813  26.165  1.00  0.00     0.018 C 
ATOM     33  C   UNL A   1      31.039  23.830  26.022  1.00  0.00     0.018 C 
ENDBRANCH  26  29
ENDBRANCH  25  26
ENDBRANCH  18  20
ENDBRANCH  15  16
ENDBRANCH  10  15
ENDBRANCH   7   9
ENDBRANCH   6   7
ENDBRANCH   5   6
ENDBRANCH   4   5
ENDBRANCH   3   4
ENDBRANCH   2   3
ENDBRANCH   1   2
BRANCH   1  34
ATOM     34  O   UNL A   1      37.906  29.533  28.328  1.00  0.00    -0.377 OA
BRANCH  34  35
ATOM     35  C   UNL A   1      36.705  30.316  28.421  1.00  0.00     0.188 C 
BRANCH  35  36
ATOM     36  C   UNL A   1      36.876  31.840  28.572  1.00  0.00     0.188 C 
BRANCH  36  37
ATOM     37  O   UNL A   1      35.650  32.569  28.605  1.00  0.00    -0.376 OA
BRANCH  37  38
ATOM     38  C   UNL A   1      35.631  33.741  29.419  1.00  0.00     0.202 C 
BRANCH  38  39
ATOM     39  C   UNL A   1      34.382  33.958  30.286  1.00  0.00     0.261 C 
BRANCH  39  40
ATOM     40  O   UNL A   1      34.068  32.827  31.130  1.00  0.00    -0.460 OA
BRANCH  40  41
ATOM     41  C   UNL A   1      34.430  32.991  32.432  1.00  0.00     0.338 C 
ATOM     42  O   UNL A   1      33.709  33.374  33.339  1.00  0.00    -0.246 OA
BRANCH  41  43
ATOM     43  C   UNL A   1      35.817  32.544  32.691  1.00  0.00     0.060 A 
ATOM     44  C   UNL A   1      36.703  33.468  33.261  1.00  0.00     0.016 A 
ATOM     45  C   UNL A   1      36.298  31.345  32.158  1.00  0.00     0.016 A 
ATOM     46  C   UNL A   1      38.082  33.237  33.211  1.00  0.00     0.010 A 
ATOM     47  C   UNL A   1      37.684  31.123  32.102  1.00  0.00     0.010 A 
ATOM     48  C   UNL A   1      38.585  32.102  32.564  1.00  0.00    -0.014 A 
BRANCH  48  49
ATOM     49  C   UNL A   1      39.999  32.111  32.082  1.00  0.00     0.031 A 
ATOM     50  C   UNL A   1      40.905  30.993  32.546  1.00  0.00     0.074 A 
ATOM     51  C   UNL A   1      40.475  33.023  31.214  1.00  0.00     0.049 A 
ATOM     52  N   UNL A   1      42.188  30.817  32.353  1.00  0.00    -0.248 NA
ATOM     53  C   UNL A   1      40.265  29.934  33.340  1.00  0.00     0.031 C 
ATOM     54  C   UNL A   1      39.700  34.102  30.608  1.00  0.00     0.029 A 
ATOM     55  N   UNL A   1      41.740  33.184  30.700  1.00  0.00    -0.354 N 
ATOM     56  C   UNL A   1      42.512  29.637  33.019  1.00  0.00     0.074 A 
ATOM     57  C   UNL A   1      41.295  29.161  33.641  1.00  0.00     0.031 C 
ATOM     58  C   UNL A   1      40.515  34.828  29.818  1.00  0.00     0.029 A 
ATOM     59  C   UNL A   1      41.875  34.291  29.896  1.00  0.00     0.049 A 
ATOM     60  H   UNL A   1      42.481  32.564  30.891  1.00  0.00     0.167 HD
ATOM     61  C   UNL A   1      43.708  29.003  33.107  1.00  0.00     0.034 A 
ATOM     62  C   UNL A   1      42.973  34.829  29.320  1.00  0.00     0.034 A 
ATOM     63  C   UNL A   1      44.925  29.482  32.498  1.00  0.00     0.049 A 
ATOM     64  C   UNL A   1      44.320  34.163  29.507  1.00  0.00     0.074 A 
ATOM     65  C   UNL A   1      46.194  28.932  32.554  1.00  0.00     0.029 A 
ATOM     66  N   UNL A   1      45.027  30.631  31.725  1.00  0.00    -0.354 N 
ATOM     67  N   UNL A   1      44.623  33.074  30.175  1.00  0.00    -0.248 NA
ATOM     68  C   UNL A   1      45.473  34.804  28.856  1.00  0.00     0.031 C 
ATOM     69  C   UNL A   1      47.073  29.781  31.871  1.00  0.00     0.029 A 
ATOM     70  C   UNL A   1      46.340  30.819  31.319  1.00  0.00     0.049 A 
ATOM     71  H   UNL A   1      44.276  31.226  31.499  1.00  0.00     0.167 HD
ATOM     72  C   UNL A   1      45.994  32.882  29.990  1.00  0.00     0.074 A 
ATOM     73  C   UNL A   1      46.454  33.960  29.143  1.00  0.00     0.031 C 
ATOM     74  C   UNL A   1      46.796  31.897  30.473  1.00  0.00     0.034 A 
BRANCH  61  75
ATOM     75  C   UNL A   1      43.757  27.761  33.966  1.00  0.00     0.023 A 
ATOM     76  C   UNL A   1      43.832  27.830  35.368  1.00  0.00     0.031 A 
ATOM     77  C   UNL A   1      43.813  26.490  33.365  1.00  0.00     0.131 A 
ATOM     78  C   UNL A   1      44.056  26.662  36.113  1.00  0.00     0.055 A 
ATOM     79  C   UNL A   1      43.946  25.323  34.120  1.00  0.00     0.041 A 
ATOM     80  F   UNL A   1      43.771  26.363  32.029  1.00  0.00    -0.206 F 
ATOM     81  C   UNL A   1      44.088  25.407  35.501  1.00  0.00     0.022 A 
BRANCH  78  82
ATOM     82  S   UNL A   1      44.487  26.824  37.868  1.00  0.00     0.124 S 
ATOM     83  O   UNL A   1      44.608  28.273  38.006  1.00  0.00    -0.237 OA
ATOM     84  O   UNL A   1      43.342  26.210  38.531  1.00  0.00    -0.237 OA
ATOM     85  O   UNL A   1      45.744  26.088  37.981  1.00  0.00    -0.744 OA
ENDBRANCH  78  82
ENDBRANCH  61  75
BRANCH  62  86
ATOM     86  C   UNL A   1      42.877  36.106  28.553  1.00  0.00     0.023 A 
ATOM     87  C   UNL A   1      43.045  37.352  29.182  1.00  0.00     0.031 A 
ATOM     88  C   UNL A   1      42.534  36.098  27.189  1.00  0.00     0.131 A 
ATOM     89  C   UNL A   1      42.821  38.535  28.459  1.00  0.00     0.055 A 
ATOM     90  C   UNL A   1      42.364  37.277  26.462  1.00  0.00     0.041 A 
ATOM     91  F   UNL A   1      42.355  34.935  26.542  1.00  0.00    -0.206 F 
ATOM     92  C   UNL A   1      42.495  38.506  27.101  1.00  0.00     0.022 A 
BRANCH  89  93
ATOM     93  S   UNL A   1      42.885  40.119  29.340  1.00  0.00     0.124 S 
ATOM     94  O   UNL A   1      43.818  40.878  28.515  1.00  0.00    -0.237 OA
ATOM     95  O   UNL A   1      41.491  40.549  29.292  1.00  0.00    -0.237 OA
ATOM     96  O   UNL A   1      43.376  39.754  30.667  1.00  0.00    -0.744 OA
ENDBRANCH  89  93
ENDBRANCH  62  86
BRANCH  74  97
ATOM     97  C   UNL A   1      48.245  31.900  30.035  1.00  0.00     0.023 A 
ATOM     98  C   UNL A   1      48.647  31.452  28.764  1.00  0.00     0.031 A 
ATOM     99  C   UNL A   1      49.243  32.353  30.918  1.00  0.00     0.131 A 
ATOM    100  C   UNL A   1      50.012  31.411  28.434  1.00  0.00     0.055 A 
ATOM    101  C   UNL A   1      50.593  32.366  30.562  1.00  0.00     0.041 A 
ATOM    102  F   UNL A   1      48.923  32.791  32.146  1.00  0.00    -0.206 F 
ATOM    103  C   UNL A   1      50.986  31.880  29.319  1.00  0.00     0.022 A 
BRANCH 100 104
ATOM    104  S   UNL A   1      50.511  30.640  26.869  1.00  0.00     0.124 S 
ATOM    105  O   UNL A   1      49.421  29.698  26.631  1.00  0.00    -0.237 OA
ATOM    106  O   UNL A   1      50.575  31.783  25.965  1.00  0.00    -0.237 OA
ATOM    107  O   UNL A   1      51.801  30.027  27.184  1.00  0.00    -0.744 OA
ENDBRANCH 100 104
ENDBRANCH  74  97
ENDBRANCH  48  49
ENDBRANCH  41  43
ENDBRANCH  40  41
ENDBRANCH  39  40
ENDBRANCH  38  39
ENDBRANCH  37  38
ENDBRANCH  36  37
ENDBRANCH  35  36
ENDBRANCH  34  35
ENDBRANCH   1  34
TORSDOF 28
ENDMDL
MODEL 2
REMARK VINA RESULT:      -8.7      4.052     10.442
REMARK SMILES O=C(Cc1ccccc1C(=O)OCCOCCOCCOCCOC(=O)c1ccc(-c2c3nc(c(-c4cc(S(=O)(=O)[O-])ccc4F)c4ccc([nH]4)c(-c4cc(S(=O)(=O)[O-])ccc4F)c4nc(c(-c5cc(S(=O)(=O)[O-])ccc5F)c5ccc2[nH]5)C=C4)C=C3)cc1)Nc1ccc(S(=O)(=O)N2CCCC2)cc1
REMARK SMILES IDX 17 1 16 2 15 3 14 4 13 5 12 6 10 7 11 8 9 9 4 10 5 11 6 12
REMARK SMILES IDX 8 13 7 14 3 15 2 16 1 17 90 18 91 20 92 21 104 22 93 23
REMARK SMILES IDX 103 24 94 25 95 26 96 27 97 28 98 29 99 30 102 31 100 32
REMARK SMILES IDX 101 33 18 34 19 35 20 36 21 37 22 38 23 39 24 40 25 41 26 42
REMARK SMILES IDX 27 43 28 44 89 45 29 46 88 47 30 48 31 49 32 50 82 51 33 52
REMARK SMILES IDX 87 53 81 54 83 55 34 56 86 57 80 58 79 59 35 61 67 62 47 63
REMARK SMILES IDX 66 64 48 65 51 66 65 67 84 68 49 69 50 70 64 72 85 73 52 74
REMARK SMILES IDX 36 75 37 76 45 77 38 78 44 79 46 80 43 81 39 82 40 83 41 84
REMARK SMILES IDX 42 85 68 86 69 87 77 88 70 89 76 90 78 91 75 92 71 93 72 94
REMARK SMILES IDX 73 95 74 96 53 97 54 98 62 99 55 100 61 101 63 102 60 103
REMARK SMILES IDX 56 104 57 105 58 106 59 107
REMARK H PARENT 90 19 83 60 51 71
REMARK Flexibility Score: inf
ROOT
ATOM      1  C   UNL A   1      37.639  30.677  42.340  1.00  0.00     0.188 C 
ENDROOT
BRANCH   1   2
ATOM      2  C   UNL A   1      36.727  31.407  41.330  1.00  0.00     0.188 C 
BRANCH   2   3
ATOM      3  O   UNL A   1      37.343  31.525  40.038  1.00  0.00    -0.376 OA
BRANCH   3   4
ATOM      4  C   UNL A   1      36.554  32.178  39.028  1.00  0.00     0.202 C 
BRANCH   4   5
ATOM      5  C   UNL A   1      37.352  33.027  38.019  1.00  0.00     0.261 C 
BRANCH   5   6
ATOM      6  O   UNL A   1      36.681  33.106  36.757  1.00  0.00    -0.460 OA
BRANCH   6   7
ATOM      7  C   UNL A   1      37.446  33.206  35.654  1.00  0.00     0.338 C 
ATOM      8  O   UNL A   1      38.654  33.142  35.604  1.00  0.00    -0.246 OA
BRANCH   7   9
ATOM      9  C   UNL A   1      36.530  32.993  34.495  1.00  0.00     0.063 A 
ATOM     10  C   UNL A   1      36.683  32.039  33.461  1.00  0.00    -0.024 A 
ATOM     11  C   UNL A   1      35.764  32.127  32.384  1.00  0.00     0.005 A 
ATOM     12  C   UNL A   1      34.786  33.129  32.305  1.00  0.00     0.000 A 
ATOM     13  C   UNL A   1      35.533  33.998  34.403  1.00  0.00     0.016 A 
ATOM     14  C   UNL A   1      34.674  34.073  33.311  1.00  0.00     0.001 A 
BRANCH  10  15
ATOM     15  C   UNL A   1      37.591  30.806  33.465  1.00  0.00     0.136 C 
BRANCH  15  16
ATOM     16  C   UNL A   1      38.349  30.262  32.249  1.00  0.00     0.228 C 
ATOM     17  O   UNL A   1      39.432  30.764  31.946  1.00  0.00    -0.274 OA
ATOM     18  N   UNL A   1      37.800  29.174  31.607  1.00  0.00    -0.326 N 
ATOM     19  H   UNL A   1      36.950  28.839  31.973  1.00  0.00     0.169 HD
BRANCH  18  20
ATOM     20  C   UNL A   1      38.316  28.478  30.483  1.00  0.00     0.041 A 
ATOM     21  C   UNL A   1      38.755  27.178  30.720  1.00  0.00     0.027 A 
ATOM     22  C   UNL A   1      38.424  28.944  29.179  1.00  0.00     0.027 A 
ATOM     23  C   UNL A   1      39.345  26.369  29.768  1.00  0.00     0.024 A 
ATOM     24  C   UNL A   1      39.033  28.134  28.185  1.00  0.00     0.024 A 
ATOM     25  C   UNL A   1      39.526  26.860  28.494  1.00  0.00     0.082 A 
BRANCH  25  26
ATOM     26  S   UNL A   1      40.424  25.753  27.432  1.00  0.00     0.243 S 
ATOM     27  O   UNL A   1      40.282  26.297  26.095  1.00  0.00    -0.207 OA
ATOM     28  O   UNL A   1      41.732  25.597  28.035  1.00  0.00    -0.207 OA
BRANCH  26  29
ATOM     29  N   UNL A   1      39.663  24.277  27.460  1.00  0.00    -0.198 NA
ATOM     30  C   UNL A   1      40.375  23.058  27.845  1.00  0.00     0.102 C 
ATOM     31  C   UNL A   1      38.593  23.984  26.510  1.00  0.00     0.102 C 
ATOM     32  C   UNL A   1      40.142  22.102  26.694  1.00  0.00     0.018 C 
ATOM     33  C   UNL A   1      38.823  22.544  26.071  1.00  0.00     0.018 C 
ENDBRANCH  26  29
ENDBRANCH  25  26
ENDBRANCH  18  20
ENDBRANCH  15  16
ENDBRANCH  10  15
ENDBRANCH   7   9
ENDBRANCH   6   7
ENDBRANCH   5   6
ENDBRANCH   4   5
ENDBRANCH   3   4
ENDBRANCH   2   3
ENDBRANCH   1   2
BRANCH   1  34
ATOM     34  O   UNL A   1      38.938  30.534  41.746  1.00  0.00    -0.377 OA
BRANCH  34  35
ATOM     35  C   UNL A   1      40.043  31.197  42.382  1.00  0.00     0.188 C 
BRANCH  35  36
ATOM     36  C   UNL A   1      40.661  32.394  41.634  1.00  0.00     0.188 C 
BRANCH  36  37
ATOM     37  O   UNL A   1      40.027  33.646  41.900  1.00  0.00    -0.376 OA
BRANCH  37  38
ATOM     38  C   UNL A   1      39.477  34.329  40.776  1.00  0.00     0.202 C 
BRANCH  38  39
ATOM     39  C   UNL A   1      40.357  34.410  39.519  1.00  0.00     0.261 C 
BRANCH  39  40
ATOM     40  O   UNL A   1      41.118  35.637  39.432  1.00  0.00    -0.460 OA
BRANCH  40  41
ATOM     41  C   UNL A   1      40.652  36.512  38.500  1.00  0.00     0.338 C 
ATOM     42  O   UNL A   1      39.892  37.445  38.703  1.00  0.00    -0.246 OA
BRANCH  41  43
ATOM     43  C   UNL A   1      41.254  36.289  37.166  1.00  0.00     0.060 A 
ATOM     44  C   UNL A   1      40.386  36.118  36.080  1.00  0.00     0.016 A 
ATOM     45  C   UNL A   1      42.615  36.004  37.030  1.00  0.00     0.016 A 
ATOM     46  C   UNL A   1      40.861  35.569  34.885  1.00  0.00     0.010 A 
ATOM     47  C   UNL A   1      43.085  35.442  35.831  1.00  0.00     0.010 A 
ATOM     48  C   UNL A   1      42.195  35.157  34.778  1.00  0.00    -0.014 A 
BRANCH  48  49
ATOM     49  C   UNL A   1      42.559  34.150  33.737  1.00  0.00     0.031 A 
ATOM     50  C   UNL A   1      42.917  34.662  32.360  1.00  0.00     0.074 A 
ATOM     51  C   UNL A   1      42.644  32.830  33.987  1.00  0.00     0.049 A 
ATOM     52  N   UNL A   1      43.178  34.003  31.259  1.00  0.00    -0.248 NA
ATOM     53  C   UNL A   1      42.983  36.124  32.215  1.00  0.00     0.031 C 
ATOM     54  C   UNL A   1      42.421  32.196  35.283  1.00  0.00     0.029 A 
ATOM     55  N   UNL A   1      42.936  31.783  33.144  1.00  0.00    -0.354 N 
ATOM     56  C   UNL A   1      43.420  34.970  30.287  1.00  0.00     0.074 A 
ATOM     57  C   UNL A   1      43.246  36.257  30.925  1.00  0.00     0.031 C 
ATOM     58  C   UNL A   1      42.563  30.864  35.143  1.00  0.00     0.029 A 
ATOM     59  C   UNL A   1      42.847  30.548  33.742  1.00  0.00     0.049 A 
ATOM     60  H   UNL A   1      43.185  31.907  32.199  1.00  0.00     0.167 HD
ATOM     61  C   UNL A   1      43.757  34.809  28.983  1.00  0.00     0.034 A 
ATOM     62  C   UNL A   1      42.946  29.308  33.214  1.00  0.00     0.034 A 
ATOM     63  C   UNL A   1      43.919  33.527  28.341  1.00  0.00     0.049 A 
ATOM     64  C   UNL A   1      43.227  29.143  31.735  1.00  0.00     0.074 A 
ATOM     65  C   UNL A   1      44.227  33.256  27.019  1.00  0.00     0.029 A 
ATOM     66  N   UNL A   1      43.779  32.299  28.973  1.00  0.00    -0.354 N 
ATOM     67  N   UNL A   1      43.410  30.063  30.816  1.00  0.00    -0.248 NA
ATOM     68  C   UNL A   1      43.318  27.766  31.227  1.00  0.00     0.031 C 
ATOM     69  C   UNL A   1      44.209  31.868  26.838  1.00  0.00     0.029 A 
ATOM     70  C   UNL A   1      43.971  31.269  28.065  1.00  0.00     0.049 A 
ATOM     71  H   UNL A   1      43.572  32.178  29.928  1.00  0.00     0.167 HD
ATOM     72  C   UNL A   1      43.674  29.373  29.632  1.00  0.00     0.074 A 
ATOM     73  C   UNL A   1      43.636  27.964  29.956  1.00  0.00     0.031 C 
ATOM     74  C   UNL A   1      43.932  29.862  28.391  1.00  0.00     0.034 A 
BRANCH  61  75
ATOM     75  C   UNL A   1      43.890  36.066  28.156  1.00  0.00     0.023 A 
ATOM     76  C   UNL A   1      45.125  36.716  27.985  1.00  0.00     0.031 A 
ATOM     77  C   UNL A   1      42.747  36.668  27.599  1.00  0.00     0.131 A 
ATOM     78  C   UNL A   1      45.173  37.973  27.362  1.00  0.00     0.055 A 
ATOM     79  C   UNL A   1      42.816  37.876  26.901  1.00  0.00     0.041 A 
ATOM     80  F   UNL A   1      41.536  36.107  27.750  1.00  0.00    -0.206 F 
ATOM     81  C   UNL A   1      44.030  38.545  26.797  1.00  0.00     0.022 A 
BRANCH  78  82
ATOM     82  S   UNL A   1      46.710  38.931  27.463  1.00  0.00     0.124 S 
ATOM     83  O   UNL A   1      46.294  40.066  28.282  1.00  0.00    -0.237 OA
ATOM     84  O   UNL A   1      47.627  37.987  28.092  1.00  0.00    -0.237 OA
ATOM     85  O   UNL A   1      47.005  39.253  26.068  1.00  0.00    -0.744 OA
ENDBRANCH  78  82
ENDBRANCH  61  75
BRANCH  62  86
ATOM     86  C   UNL A   1      42.719  28.102  34.064  1.00  0.00     0.023 A 
ATOM     87  C   UNL A   1      43.778  27.470  34.737  1.00  0.00     0.031 A 
ATOM     88  C   UNL A   1      41.443  27.517  34.148  1.00  0.00     0.131 A 
ATOM     89  C   UNL A   1      43.551  26.266  35.422  1.00  0.00     0.055 A 
ATOM     90  C   UNL A   1      41.212  26.348  34.874  1.00  0.00     0.041 A 
ATOM     91  F   UNL A   1      40.397  28.076  33.517  1.00  0.00    -0.206 F 
ATOM     92  C   UNL A   1      42.273  25.707  35.507  1.00  0.00     0.022 A 
BRANCH  89  93
ATOM     93  S   UNL A   1      44.968  25.391  36.141  1.00  0.00     0.124 S 
ATOM     94  O   UNL A   1      44.445  25.002  37.446  1.00  0.00    -0.237 OA
ATOM     95  O   UNL A   1      45.174  24.309  35.183  1.00  0.00    -0.237 OA
ATOM     96  O   UNL A   1      46.020  26.406  36.165  1.00  0.00    -0.744 OA
ENDBRANCH  89  93
ENDBRANCH  62  86
BRANCH  74  97
ATOM     97  C   UNL A   1      44.266  28.866  27.303  1.00  0.00     0.023 A 
ATOM     98  C   UNL A   1      45.574  28.391  27.095  1.00  0.00     0.031 A 
ATOM     99  C   UNL A   1      43.252  28.391  26.450  1.00  0.00     0.131 A 
ATOM    100  C   UNL A   1      45.842  27.518  26.026  1.00  0.00     0.055 A 
ATOM    101  C   UNL A   1      43.514  27.477  25.427  1.00  0.00     0.041 A 
ATOM    102  F   UNL A   1      41.984  28.808  26.597  1.00  0.00    -0.206 F 
ATOM    103  C   UNL A   1      44.818  27.047  25.201  1.00  0.00     0.022 A 
BRANCH 100 104
ATOM    104  S   UNL A   1      47.566  27.086  25.661  1.00  0.00     0.124 S 
ATOM    105  O   UNL A   1      47.950  28.132  24.717  1.00  0.00    -0.237 OA
ATOM    106  O   UNL A   1      48.191  27.154  26.977  1.00  0.00    -0.237 OA
ATOM    107  O   UNL A   1      47.470  25.743  25.089  1.00  0.00    -0.744 OA
ENDBRANCH 100 104
ENDBRANCH  74  97
ENDBRANCH  48  49
ENDBRANCH  41  43
ENDBRANCH  40  41
ENDBRANCH  39  40
ENDBRANCH  38  39
ENDBRANCH  37  38
ENDBRANCH  36  37
ENDBRANCH  35  36
ENDBRANCH  34  35
ENDBRANCH   1  34
TORSDOF 28
ENDMDL
MODEL 3
REMARK VINA RESULT:      -8.6      1.980      2.322
REMARK SMILES O=C(Cc1ccccc1C(=O)OCCOCCOCCOCCOC(=O)c1ccc(-c2c3nc(c(-c4cc(S(=O)(=O)[O-])ccc4F)c4ccc([nH]4)c(-c4cc(S(=O)(=O)[O-])ccc4F)c4nc(c(-c5cc(S(=O)(=O)[O-])ccc5F)c5ccc2[nH]5)C=C4)C=C3)cc1)Nc1ccc(S(=O)(=O)N2CCCC2)cc1
REMARK SMILES IDX 17 1 16 2 15 3 14 4 13 5 12 6 10 7 11 8 9 9 4 10 5 11 6 12
REMARK SMILES IDX 8 13 7 14 3 15 2 16 1 17 90 18 91 20 92 21 104 22 93 23
REMARK SMILES IDX 103 24 94 25 95 26 96 27 97 28 98 29 99 30 102 31 100 32
REMARK SMILES IDX 101 33 18 34 19 35 20 36 21 37 22 38 23 39 24 40 25 41 26 42
REMARK SMILES IDX 27 43 28 44 89 45 29 46 88 47 30 48 31 49 32 50 82 51 33 52
REMARK SMILES IDX 87 53 81 54 83 55 34 56 86 57 80 58 79 59 35 61 67 62 47 63
REMARK SMILES IDX 66 64 48 65 51 66 65 67 84 68 49 69 50 70 64 72 85 73 52 74
REMARK SMILES IDX 36 75 37 76 45 77 38 78 44 79 46 80 43 81 39 82 40 83 41 84
REMARK SMILES IDX 42 85 68 86 69 87 77 88 70 89 76 90 78 91 75 92 71 93 72 94
REMARK SMILES IDX 73 95 74 96 53 97 54 98 62 99 55 100 61 101 63 102 60 103
REMARK SMILES IDX 56 104 57 105 58 106 59 107
REMARK H PARENT 90 19 83 60 51 71
REMARK Flexibility Score: inf
ROOT
ATOM      1  C   UNL A   1      39.379  30.202  28.984  1.00  0.00     0.188 C 
ENDROOT
BRANCH   1   2
ATOM      2  C   UNL A   1      40.038  29.153  29.907  1.00  0.00     0.188 C 
BRANCH   2   3
ATOM      3  O   UNL A   1      40.135  27.867  29.276  1.00  0.00    -0.376 OA
BRANCH   3   4
ATOM      4  C   UNL A   1      41.367  27.602  28.584  1.00  0.00     0.202 C 
BRANCH   4   5
ATOM      5  C   UNL A   1      41.649  26.115  28.292  1.00  0.00     0.261 C 
BRANCH   5   6
ATOM      6  O   UNL A   1      42.578  25.961  27.215  1.00  0.00    -0.460 OA
BRANCH   6   7
ATOM      7  C   UNL A   1      42.096  25.523  26.037  1.00  0.00     0.338 C 
ATOM      8  O   UNL A   1      41.511  26.181  25.207  1.00  0.00    -0.246 OA
BRANCH   7   9
ATOM      9  C   UNL A   1      42.770  24.218  25.774  1.00  0.00     0.063 A 
ATOM     10  C   UNL A   1      42.526  22.992  26.437  1.00  0.00    -0.024 A 
ATOM     11  C   UNL A   1      43.401  21.920  26.119  1.00  0.00     0.005 A 
ATOM     12  C   UNL A   1      44.482  22.063  25.238  1.00  0.00     0.000 A 
ATOM     13  C   UNL A   1      43.866  24.346  24.883  1.00  0.00     0.016 A 
ATOM     14  C   UNL A   1      44.723  23.281  24.625  1.00  0.00     0.001 A 
BRANCH  10  15
ATOM     15  C   UNL A   1      41.315  22.631  27.303  1.00  0.00     0.136 C 
BRANCH  15  16
ATOM     16  C   UNL A   1      39.856  22.953  26.959  1.00  0.00     0.228 C 
ATOM     17  O   UNL A   1      39.261  23.807  27.618  1.00  0.00    -0.274 OA
ATOM     18  N   UNL A   1      39.317  22.313  25.866  1.00  0.00    -0.326 N 
ATOM     19  H   UNL A   1      39.911  21.683  25.396  1.00  0.00     0.169 HD
BRANCH  18  20
ATOM     20  C   UNL A   1      38.009  22.456  25.333  1.00  0.00     0.041 A 
ATOM     21  C   UNL A   1      37.370  23.663  25.603  1.00  0.00     0.027 A 
ATOM     22  C   UNL A   1      37.303  21.534  24.572  1.00  0.00     0.027 A 
ATOM     23  C   UNL A   1      36.075  23.960  25.225  1.00  0.00     0.024 A 
ATOM     24  C   UNL A   1      35.968  21.813  24.179  1.00  0.00     0.024 A 
ATOM     25  C   UNL A   1      35.345  23.014  24.540  1.00  0.00     0.082 A 
BRANCH  25  26
ATOM     26  S   UNL A   1      33.657  23.495  24.255  1.00  0.00     0.243 S 
ATOM     27  O   UNL A   1      33.354  24.471  25.283  1.00  0.00    -0.207 OA
ATOM     28  O   UNL A   1      33.575  23.844  22.852  1.00  0.00    -0.207 OA
BRANCH  26  29
ATOM     29  N   UNL A   1      32.690  22.170  24.515  1.00  0.00    -0.198 NA
ATOM     30  C   UNL A   1      32.721  21.440  25.783  1.00  0.00     0.102 C 
ATOM     31  C   UNL A   1      32.341  21.286  23.407  1.00  0.00     0.102 C 
ATOM     32  C   UNL A   1      32.976  20.001  25.386  1.00  0.00     0.018 C 
ATOM     33  C   UNL A   1      32.423  19.874  23.972  1.00  0.00     0.018 C 
ENDBRANCH  26  29
ENDBRANCH  25  26
ENDBRANCH  18  20
ENDBRANCH  15  16
ENDBRANCH  10  15
ENDBRANCH   7   9
ENDBRANCH   6   7
ENDBRANCH   5   6
ENDBRANCH   4   5
ENDBRANCH   3   4
ENDBRANCH   2   3
ENDBRANCH   1   2
BRANCH   1  34
ATOM     34  O   UNL A   1      38.155  29.646  28.479  1.00  0.00    -0.377 OA
BRANCH  34  35
ATOM     35  C   UNL A   1      36.977  30.466  28.528  1.00  0.00     0.188 C 
BRANCH  35  36
ATOM     36  C   UNL A   1      37.190  31.985  28.666  1.00  0.00     0.188 C 
BRANCH  36  37
ATOM     37  O   UNL A   1      35.992  32.757  28.589  1.00  0.00    -0.376 OA
BRANCH  37  38
ATOM     38  C   UNL A   1      35.879  33.846  29.504  1.00  0.00     0.202 C 
BRANCH  38  39
ATOM     39  C   UNL A   1      34.580  33.929  30.320  1.00  0.00     0.261 C 
BRANCH  39  40
ATOM     40  O   UNL A   1      34.311  32.734  31.089  1.00  0.00    -0.460 OA
BRANCH  40  41
ATOM     41  C   UNL A   1      34.601  32.851  32.414  1.00  0.00     0.338 C 
ATOM     42  O   UNL A   1      33.839  33.229  33.288  1.00  0.00    -0.246 OA
BRANCH  41  43
ATOM     43  C   UNL A   1      35.958  32.358  32.738  1.00  0.00     0.060 A 
ATOM     44  C   UNL A   1      36.813  33.218  33.441  1.00  0.00     0.016 A 
ATOM     45  C   UNL A   1      36.460  31.193  32.151  1.00  0.00     0.016 A 
ATOM     46  C   UNL A   1      38.187  32.963  33.475  1.00  0.00     0.010 A 
ATOM     47  C   UNL A   1      37.843  30.949  32.179  1.00  0.00     0.010 A 
ATOM     48  C   UNL A   1      38.721  31.871  32.781  1.00  0.00    -0.014 A 
BRANCH  48  49
ATOM     49  C   UNL A   1      40.167  31.888  32.406  1.00  0.00     0.031 A 
ATOM     50  C   UNL A   1      41.071  30.861  33.049  1.00  0.00     0.074 A 
ATOM     51  C   UNL A   1      40.679  32.726  31.486  1.00  0.00     0.049 A 
ATOM     52  N   UNL A   1      42.369  30.717  32.971  1.00  0.00    -0.248 NA
ATOM     53  C   UNL A   1      40.406  29.862  33.900  1.00  0.00     0.031 C 
ATOM     54  C   UNL A   1      39.920  33.706  30.715  1.00  0.00     0.029 A 
ATOM     55  N   UNL A   1      41.975  32.885  31.053  1.00  0.00    -0.354 N 
ATOM     56  C   UNL A   1      42.679  29.624  33.778  1.00  0.00     0.074 A 
ATOM     57  C   UNL A   1      41.434  29.165  34.355  1.00  0.00     0.031 C 
ATOM     58  C   UNL A   1      40.769  34.381  29.917  1.00  0.00     0.029 A 
ATOM     59  C   UNL A   1      42.135  33.910  30.150  1.00  0.00     0.049 A 
ATOM     60  H   UNL A   1      42.718  32.318  31.361  1.00  0.00     0.167 HD
ATOM     61  C   UNL A   1      43.885  29.051  34.020  1.00  0.00     0.034 A 
ATOM     62  C   UNL A   1      43.257  34.430  29.604  1.00  0.00     0.034 A 
ATOM     63  C   UNL A   1      45.129  29.515  33.455  1.00  0.00     0.049 A 
ATOM     64  C   UNL A   1      44.606  33.842  29.958  1.00  0.00     0.074 A 
ATOM     65  C   UNL A   1      46.407  29.025  33.662  1.00  0.00     0.029 A 
ATOM     66  N   UNL A   1      45.254  30.584  32.577  1.00  0.00    -0.354 N 
ATOM     67  N   UNL A   1      44.892  32.839  30.756  1.00  0.00    -0.248 NA
ATOM     68  C   UNL A   1      45.785  34.459  29.331  1.00  0.00     0.031 C 
ATOM     69  C   UNL A   1      47.308  29.836  32.962  1.00  0.00     0.029 A 
ATOM     70  C   UNL A   1      46.587  30.782  32.251  1.00  0.00     0.049 A 
ATOM     71  H   UNL A   1      44.503  31.122  32.236  1.00  0.00     0.167 HD
ATOM     72  C   UNL A   1      46.278  32.684  30.694  1.00  0.00     0.074 A 
ATOM     73  C   UNL A   1      46.767  33.689  29.776  1.00  0.00     0.031 C 
ATOM     74  C   UNL A   1      47.072  31.787  31.334  1.00  0.00     0.034 A 
BRANCH  61  75
ATOM     75  C   UNL A   1      43.907  27.906  35.004  1.00  0.00     0.023 A 
ATOM     76  C   UNL A   1      43.865  26.564  34.584  1.00  0.00     0.031 A 
ATOM     77  C   UNL A   1      43.886  28.164  36.387  1.00  0.00     0.131 A 
ATOM     78  C   UNL A   1      43.706  25.541  35.531  1.00  0.00     0.055 A 
ATOM     79  C   UNL A   1      43.819  27.135  37.327  1.00  0.00     0.041 A 
ATOM     80  F   UNL A   1      43.900  29.425  36.847  1.00  0.00    -0.206 F 
ATOM     81  C   UNL A   1      43.709  25.816  36.901  1.00  0.00     0.022 A 
BRANCH  78  82
ATOM     82  S   UNL A   1      43.314  23.870  34.943  1.00  0.00     0.124 S 
ATOM     83  O   UNL A   1      41.884  23.788  35.229  1.00  0.00    -0.237 OA
ATOM     84  O   UNL A   1      43.683  23.939  33.533  1.00  0.00    -0.237 OA
ATOM     85  O   UNL A   1      44.157  23.009  35.769  1.00  0.00    -0.744 OA
ENDBRANCH  78  82
ENDBRANCH  61  75
BRANCH  62  86
ATOM     86  C   UNL A   1      43.180  35.619  28.704  1.00  0.00     0.023 A 
ATOM     87  C   UNL A   1      43.185  36.927  29.216  1.00  0.00     0.031 A 
ATOM     88  C   UNL A   1      43.016  35.456  27.317  1.00  0.00     0.131 A 
ATOM     89  C   UNL A   1      42.982  38.017  28.354  1.00  0.00     0.055 A 
ATOM     90  C   UNL A   1      42.866  36.545  26.457  1.00  0.00     0.041 A 
ATOM     91  F   UNL A   1      42.995  34.227  26.776  1.00  0.00    -0.206 F 
ATOM     92  C   UNL A   1      42.836  37.836  26.976  1.00  0.00     0.022 A 
BRANCH  89  93
ATOM     93  S   UNL A   1      42.832  39.677  29.068  1.00  0.00     0.124 S 
ATOM     94  O   UNL A   1      41.403  39.932  28.926  1.00  0.00    -0.237 OA
ATOM     95  O   UNL A   1      43.314  39.466  30.430  1.00  0.00    -0.237 OA
ATOM     96  O   UNL A   1      43.701  40.493  28.223  1.00  0.00    -0.744 OA
ENDBRANCH  89  93
ENDBRANCH  62  86
BRANCH  74  97
ATOM     97  C   UNL A   1      48.549  31.804  31.007  1.00  0.00     0.023 A 
ATOM     98  C   UNL A   1      49.473  32.572  31.739  1.00  0.00     0.031 A 
ATOM     99  C   UNL A   1      49.038  31.039  29.931  1.00  0.00     0.131 A 
ATOM    100  C   UNL A   1      50.822  32.605  31.350  1.00  0.00     0.055 A 
ATOM    101  C   UNL A   1      50.391  31.029  29.586  1.00  0.00     0.041 A 
ATOM    102  F   UNL A   1      48.207  30.286  29.193  1.00  0.00    -0.206 F 
ATOM    103  C   UNL A   1      51.290  31.827  30.288  1.00  0.00     0.022 A 
BRANCH 100 104
ATOM    104  S   UNL A   1      51.946  33.760  32.185  1.00  0.00     0.124 S 
ATOM    105  O   UNL A   1      51.159  34.167  33.346  1.00  0.00    -0.237 OA
ATOM    106  O   UNL A   1      53.106  32.921  32.462  1.00  0.00    -0.237 OA
ATOM    107  O   UNL A   1      52.164  34.808  31.188  1.00  0.00    -0.744 OA
ENDBRANCH 100 104
ENDBRANCH  74  97
ENDBRANCH  48  49
ENDBRANCH  41  43
ENDBRANCH  40  41
ENDBRANCH  39  40
ENDBRANCH  38  39
ENDBRANCH  37  38
ENDBRANCH  36  37
ENDBRANCH  35  36
ENDBRANCH  34  35
ENDBRANCH   1  34
TORSDOF 28
ENDMDL
