MODEL 1
REMARK VINA RESULT:     -10.9      0.000      0.000
REMARK SMILES O=C(OCCOCCOCCOCCOC(=O)c1cc2c(C(F)(F)F)onc2c2ccccc12)c1ccc(-c2c3nc(c(-c4cc(S(=O)(=O)[O-])ccc4F)c4ccc([nH]4)c(-c4cc(S(=O)(=O)[O-])ccc4F)c4nc(c(-c5cc(S(=O)(=O)[O-])ccc5F)c5ccc2[nH]5)C=C4)C=C3)cc1
REMARK SMILES IDX 8 1 7 2 6 3 5 4 4 5 3 6 2 7 1 8 35 9 36 10 97 11 37 12 96 13
REMARK SMILES IDX 38 14 39 15 40 16 90 17 41 18 95 19 89 20 91 21 42 22 94 23
REMARK SMILES IDX 88 24 87 25 43 27 75 28 55 29 74 30 56 31 59 32 73 33 92 34
REMARK SMILES IDX 57 35 58 36 72 38 93 39 60 40 44 41 45 42 53 43 46 44 52 45
REMARK SMILES IDX 54 46 51 47 47 48 48 49 49 50 50 51 76 52 77 53 85 54 78 55
REMARK SMILES IDX 84 56 86 57 83 58 79 59 80 60 81 61 82 62 61 63 62 64 70 65
REMARK SMILES IDX 63 66 69 67 71 68 68 69 64 70 65 71 66 72 67 73 9 74 10 75
REMARK SMILES IDX 11 76 12 77 13 78 14 79 15 80 16 81 17 82 18 83 19 84 34 85
REMARK SMILES IDX 20 86 29 87 33 88 21 89 28 90 30 91 32 92 26 93 27 94 31 95
REMARK SMILES IDX 22 96 23 97 24 98 25 99
REMARK H PARENT 91 26 59 37
REMARK Flexibility Score: inf
ROOT
ATOM      1  C   UNL A   1      34.373  22.817  26.237  1.00  0.00     0.188 C 
ENDROOT
BRANCH   1   2
ATOM      2  C   UNL A   1      34.812  21.363  26.078  1.00  0.00     0.188 C 
BRANCH   2   3
ATOM      3  O   UNL A   1      35.871  21.213  25.153  1.00  0.00    -0.376 OA
BRANCH   3   4
ATOM      4  C   UNL A   1      36.917  22.161  25.170  1.00  0.00     0.202 C 
BRANCH   4   5
ATOM      5  C   UNL A   1      38.237  21.570  25.653  1.00  0.00     0.261 C 
BRANCH   5   6
ATOM      6  O   UNL A   1      39.442  22.381  25.591  1.00  0.00    -0.460 OA
BRANCH   6   7
ATOM      7  C   UNL A   1      40.332  22.692  26.570  1.00  0.00     0.338 C 
ATOM      8  O   UNL A   1      41.090  21.829  27.003  1.00  0.00    -0.246 OA
BRANCH   7   9
ATOM      9  C   UNL A   1      40.364  24.067  27.135  1.00  0.00     0.060 A 
ATOM     10  C   UNL A   1      41.472  24.437  27.914  1.00  0.00     0.016 A 
ATOM     11  C   UNL A   1      39.289  24.948  27.005  1.00  0.00     0.016 A 
ATOM     12  C   UNL A   1      41.441  25.621  28.654  1.00  0.00     0.010 A 
ATOM     13  C   UNL A   1      39.240  26.107  27.788  1.00  0.00     0.010 A 
ATOM     14  C   UNL A   1      40.298  26.436  28.649  1.00  0.00    -0.014 A 
BRANCH  14  15
ATOM     15  C   UNL A   1      40.390  27.797  29.221  1.00  0.00     0.031 A 
ATOM     16  C   UNL A   1      41.521  28.502  28.618  1.00  0.00     0.074 A 
ATOM     17  C   UNL A   1      39.590  28.494  30.055  1.00  0.00     0.049 A 
ATOM     18  N   UNL A   1      42.700  28.609  29.133  1.00  0.00    -0.248 NA
ATOM     19  C   UNL A   1      41.412  28.885  27.205  1.00  0.00     0.031 C 
ATOM     20  C   UNL A   1      38.372  28.029  30.644  1.00  0.00     0.029 A 
ATOM     21  N   UNL A   1      39.648  29.772  30.554  1.00  0.00    -0.354 N 
ATOM     22  C   UNL A   1      43.384  29.355  28.195  1.00  0.00     0.074 A 
ATOM     23  C   UNL A   1      42.690  29.157  26.945  1.00  0.00     0.031 C 
ATOM     24  C   UNL A   1      37.631  29.024  31.152  1.00  0.00     0.029 A 
ATOM     25  C   UNL A   1      38.447  30.207  31.122  1.00  0.00     0.049 A 
ATOM     26  H   UNL A   1      40.459  30.329  30.517  1.00  0.00     0.167 HD
ATOM     27  C   UNL A   1      44.149  30.409  28.589  1.00  0.00     0.034 A 
ATOM     28  C   UNL A   1      38.072  31.359  31.731  1.00  0.00     0.034 A 
ATOM     29  C   UNL A   1      44.467  30.346  29.994  1.00  0.00     0.049 A 
ATOM     30  C   UNL A   1      39.296  32.086  32.098  1.00  0.00     0.074 A 
ATOM     31  C   UNL A   1      45.047  29.398  30.814  1.00  0.00     0.029 A 
ATOM     32  N   UNL A   1      43.824  31.227  30.828  1.00  0.00    -0.354 N 
ATOM     33  N   UNL A   1      40.101  31.709  33.052  1.00  0.00    -0.248 NA
ATOM     34  C   UNL A   1      39.889  32.896  31.051  1.00  0.00     0.031 C 
ATOM     35  C   UNL A   1      44.397  29.527  32.072  1.00  0.00     0.029 A 
ATOM     36  C   UNL A   1      43.496  30.592  31.998  1.00  0.00     0.049 A 
ATOM     37  H   UNL A   1      43.628  32.169  30.618  1.00  0.00     0.167 HD
ATOM     38  C   UNL A   1      41.362  31.792  32.477  1.00  0.00     0.074 A 
ATOM     39  C   UNL A   1      41.172  32.609  31.278  1.00  0.00     0.031 C 
ATOM     40  C   UNL A   1      42.373  30.953  32.850  1.00  0.00     0.034 A 
BRANCH  27  41
ATOM     41  C   UNL A   1      44.230  31.664  27.760  1.00  0.00     0.023 A 
ATOM     42  C   UNL A   1      43.686  32.896  28.182  1.00  0.00     0.031 A 
ATOM     43  C   UNL A   1      44.995  31.706  26.589  1.00  0.00     0.131 A 
ATOM     44  C   UNL A   1      43.779  34.055  27.416  1.00  0.00     0.055 A 
ATOM     45  C   UNL A   1      45.182  32.893  25.868  1.00  0.00     0.041 A 
ATOM     46  F   UNL A   1      45.613  30.605  26.135  1.00  0.00    -0.206 F 
ATOM     47  C   UNL A   1      44.553  34.072  26.265  1.00  0.00     0.022 A 
BRANCH  44  48
ATOM     48  S   UNL A   1      42.844  35.534  27.900  1.00  0.00     0.124 S 
ATOM     49  O   UNL A   1      42.364  36.020  26.612  1.00  0.00    -0.237 OA
ATOM     50  O   UNL A   1      41.830  34.966  28.785  1.00  0.00    -0.237 OA
ATOM     51  O   UNL A   1      43.841  36.369  28.565  1.00  0.00    -0.744 OA
ENDBRANCH  44  48
ENDBRANCH  27  41
BRANCH  28  52
ATOM     52  C   UNL A   1      36.730  31.976  31.552  1.00  0.00     0.023 A 
ATOM     53  C   UNL A   1      36.334  32.406  30.269  1.00  0.00     0.031 A 
ATOM     54  C   UNL A   1      35.920  32.378  32.624  1.00  0.00     0.131 A 
ATOM     55  C   UNL A   1      35.226  33.236  30.081  1.00  0.00     0.055 A 
ATOM     56  C   UNL A   1      34.796  33.200  32.437  1.00  0.00     0.041 A 
ATOM     57  F   UNL A   1      36.230  32.028  33.881  1.00  0.00    -0.206 F 
ATOM     58  C   UNL A   1      34.450  33.645  31.160  1.00  0.00     0.022 A 
BRANCH  55  59
ATOM     59  S   UNL A   1      34.841  33.818  28.408  1.00  0.00     0.124 S 
ATOM     60  O   UNL A   1      35.782  33.063  27.584  1.00  0.00    -0.237 OA
ATOM     61  O   UNL A   1      33.440  33.436  28.278  1.00  0.00    -0.237 OA
ATOM     62  O   UNL A   1      35.109  35.251  28.492  1.00  0.00    -0.744 OA
ENDBRANCH  55  59
ENDBRANCH  28  52
BRANCH  40  63
ATOM     63  C   UNL A   1      42.239  30.150  34.131  1.00  0.00     0.023 A 
ATOM     64  C   UNL A   1      42.968  30.601  35.248  1.00  0.00     0.031 A 
ATOM     65  C   UNL A   1      41.649  28.876  34.214  1.00  0.00     0.131 A 
ATOM     66  C   UNL A   1      43.143  29.776  36.366  1.00  0.00     0.055 A 
ATOM     67  C   UNL A   1      41.754  28.089  35.371  1.00  0.00     0.041 A 
ATOM     68  F   UNL A   1      41.053  28.320  33.151  1.00  0.00    -0.206 F 
ATOM     69  C   UNL A   1      42.525  28.527  36.444  1.00  0.00     0.022 A 
BRANCH  66  70
ATOM     70  S   UNL A   1      44.321  30.238  37.665  1.00  0.00     0.124 S 
ATOM     71  O   UNL A   1      45.440  30.775  36.895  1.00  0.00    -0.237 OA
ATOM     72  O   UNL A   1      43.562  31.221  38.433  1.00  0.00    -0.237 OA
ATOM     73  O   UNL A   1      44.590  28.983  38.363  1.00  0.00    -0.744 OA
ENDBRANCH  66  70
ENDBRANCH  40  63
ENDBRANCH  14  15
ENDBRANCH   7   9
ENDBRANCH   6   7
ENDBRANCH   5   6
ENDBRANCH   4   5
ENDBRANCH   3   4
ENDBRANCH   2   3
ENDBRANCH   1   2
BRANCH   1  74
ATOM     74  O   UNL A   1      33.552  23.215  25.156  1.00  0.00    -0.377 OA
BRANCH  74  75
ATOM     75  C   UNL A   1      32.913  24.477  25.316  1.00  0.00     0.188 C 
BRANCH  75  76
ATOM     76  C   UNL A   1      32.058  24.840  26.546  1.00  0.00     0.188 C 
BRANCH  76  77
ATOM     77  O   UNL A   1      31.102  25.887  26.419  1.00  0.00    -0.376 OA
BRANCH  77  78
ATOM     78  C   UNL A   1      29.847  25.472  25.865  1.00  0.00     0.202 C 
BRANCH  78  79
ATOM     79  C   UNL A   1      29.512  26.285  24.612  1.00  0.00     0.261 C 
BRANCH  79  80
ATOM     80  O   UNL A   1      30.431  26.028  23.527  1.00  0.00    -0.460 OA
BRANCH  80  81
ATOM     81  C   UNL A   1      30.801  27.075  22.741  1.00  0.00     0.338 C 
ATOM     82  O   UNL A   1      31.089  27.047  21.581  1.00  0.00    -0.246 OA
BRANCH  81  83
ATOM     83  C   UNL A   1      30.846  28.297  23.602  1.00  0.00     0.068 A 
ATOM     84  C   UNL A   1      31.823  28.374  24.633  1.00  0.00     0.030 A 
ATOM     85  C   UNL A   1      29.898  29.337  23.323  1.00  0.00    -0.002 A 
ATOM     86  C   UNL A   1      31.763  29.551  25.368  1.00  0.00     0.056 A 
ATOM     87  C   UNL A   1      29.861  30.531  24.116  1.00  0.00     0.012 A 
ATOM     88  C   UNL A   1      28.976  29.254  22.261  1.00  0.00     0.010 A 
ATOM     89  C   UNL A   1      32.607  29.943  26.375  1.00  0.00     0.248 A 
ATOM     90  C   UNL A   1      30.832  30.620  25.161  1.00  0.00     0.122 A 
ATOM     91  C   UNL A   1      28.938  31.557  23.855  1.00  0.00     0.011 A 
ATOM     92  C   UNL A   1      28.070  30.283  21.997  1.00  0.00     0.001 A 
ATOM     93  O   UNL A   1      32.190  31.173  26.793  1.00  0.00    -0.350 OA
ATOM     94  N   UNL A   1      31.101  31.595  26.049  1.00  0.00    -0.079 NA
ATOM     95  C   UNL A   1      28.047  31.424  22.794  1.00  0.00     0.001 A 
BRANCH  89  96
ATOM     96  C   UNL A   1      33.836  29.434  27.022  1.00  0.00     0.453 C 
ATOM     97  F   UNL A   1      33.569  28.264  27.676  1.00  0.00    -0.163 F 
ATOM     98  F   UNL A   1      34.825  29.154  26.149  1.00  0.00    -0.163 F 
ATOM     99  F   UNL A   1      34.314  30.275  27.974  1.00  0.00    -0.163 F 
ENDBRANCH  89  96
ENDBRANCH  81  83
ENDBRANCH  80  81
ENDBRANCH  79  80
ENDBRANCH  78  79
ENDBRANCH  77  78
ENDBRANCH  76  77
ENDBRANCH  75  76
ENDBRANCH  74  75
ENDBRANCH   1  74
TORSDOF 24
ENDMDL
MODEL 2
REMARK VINA RESULT:     -10.8      3.540      7.524
REMARK SMILES O=C(OCCOCCOCCOCCOC(=O)c1cc2c(C(F)(F)F)onc2c2ccccc12)c1ccc(-c2c3nc(c(-c4cc(S(=O)(=O)[O-])ccc4F)c4ccc([nH]4)c(-c4cc(S(=O)(=O)[O-])ccc4F)c4nc(c(-c5cc(S(=O)(=O)[O-])ccc5F)c5ccc2[nH]5)C=C4)C=C3)cc1
REMARK SMILES IDX 8 1 7 2 6 3 5 4 4 5 3 6 2 7 1 8 35 9 36 10 97 11 37 12 96 13
REMARK SMILES IDX 38 14 39 15 40 16 90 17 41 18 95 19 89 20 91 21 42 22 94 23
REMARK SMILES IDX 88 24 87 25 43 27 75 28 55 29 74 30 56 31 59 32 73 33 92 34
REMARK SMILES IDX 57 35 58 36 72 38 93 39 60 40 44 41 45 42 53 43 46 44 52 45
REMARK SMILES IDX 54 46 51 47 47 48 48 49 49 50 50 51 76 52 77 53 85 54 78 55
REMARK SMILES IDX 84 56 86 57 83 58 79 59 80 60 81 61 82 62 61 63 62 64 70 65
REMARK SMILES IDX 63 66 69 67 71 68 68 69 64 70 65 71 66 72 67 73 9 74 10 75
REMARK SMILES IDX 11 76 12 77 13 78 14 79 15 80 16 81 17 82 18 83 19 84 34 85
REMARK SMILES IDX 20 86 29 87 33 88 21 89 28 90 30 91 32 92 26 93 27 94 31 95
REMARK SMILES IDX 22 96 23 97 24 98 25 99
REMARK H PARENT 91 26 59 37
REMARK Flexibility Score: inf
ROOT
ATOM      1  C   UNL A   1      34.515  23.008  26.775  1.00  0.00     0.188 C 
ENDROOT
BRANCH   1   2
ATOM      2  C   UNL A   1      34.451  21.486  26.883  1.00  0.00     0.188 C 
BRANCH   2   3
ATOM      3  O   UNL A   1      34.712  20.843  25.652  1.00  0.00    -0.376 OA
BRANCH   3   4
ATOM      4  C   UNL A   1      35.958  21.069  25.026  1.00  0.00     0.202 C 
BRANCH   4   5
ATOM      5  C   UNL A   1      36.884  19.860  25.107  1.00  0.00     0.261 C 
BRANCH   5   6
ATOM      6  O   UNL A   1      38.290  20.022  24.776  1.00  0.00    -0.460 OA
BRANCH   6   7
ATOM      7  C   UNL A   1      39.393  19.827  25.546  1.00  0.00     0.338 C 
ATOM      8  O   UNL A   1      39.933  18.726  25.573  1.00  0.00    -0.246 OA
BRANCH   7   9
ATOM      9  C   UNL A   1      39.923  20.941  26.378  1.00  0.00     0.060 A 
ATOM     10  C   UNL A   1      39.487  22.245  26.093  1.00  0.00     0.016 A 
ATOM     11  C   UNL A   1      40.909  20.740  27.345  1.00  0.00     0.016 A 
ATOM     12  C   UNL A   1      40.125  23.339  26.683  1.00  0.00     0.010 A 
ATOM     13  C   UNL A   1      41.581  21.839  27.893  1.00  0.00     0.010 A 
ATOM     14  C   UNL A   1      41.222  23.149  27.538  1.00  0.00    -0.014 A 
BRANCH  14  15
ATOM     15  C   UNL A   1      41.702  24.291  28.345  1.00  0.00     0.031 A 
ATOM     16  C   UNL A   1      40.757  25.402  28.229  1.00  0.00     0.074 A 
ATOM     17  C   UNL A   1      42.729  24.432  29.209  1.00  0.00     0.049 A 
ATOM     18  N   UNL A   1      40.871  26.403  27.422  1.00  0.00    -0.248 NA
ATOM     19  C   UNL A   1      39.442  25.247  28.862  1.00  0.00     0.031 C 
ATOM     20  C   UNL A   1      43.684  23.425  29.560  1.00  0.00     0.029 A 
ATOM     21  N   UNL A   1      43.155  25.476  29.993  1.00  0.00    -0.354 N 
ATOM     22  C   UNL A   1      39.747  27.155  27.698  1.00  0.00     0.074 A 
ATOM     23  C   UNL A   1      38.786  26.242  28.267  1.00  0.00     0.031 C 
ATOM     24  C   UNL A   1      44.376  23.732  30.666  1.00  0.00     0.029 A 
ATOM     25  C   UNL A   1      44.062  25.098  30.987  1.00  0.00     0.049 A 
ATOM     26  H   UNL A   1      42.850  26.404  29.867  1.00  0.00     0.167 HD
ATOM     27  C   UNL A   1      39.854  28.500  27.875  1.00  0.00     0.034 A 
ATOM     28  C   UNL A   1      44.730  25.787  31.945  1.00  0.00     0.034 A 
ATOM     29  C   UNL A   1      41.088  29.016  27.335  1.00  0.00     0.049 A 
ATOM     30  C   UNL A   1      44.675  27.211  31.587  1.00  0.00     0.074 A 
ATOM     31  C   UNL A   1      41.706  28.955  26.102  1.00  0.00     0.029 A 
ATOM     32  N   UNL A   1      42.062  29.390  28.229  1.00  0.00    -0.354 N 
ATOM     33  N   UNL A   1      45.335  27.731  30.589  1.00  0.00    -0.248 NA
ATOM     34  C   UNL A   1      43.476  27.919  31.991  1.00  0.00     0.031 C 
ATOM     35  C   UNL A   1      43.101  28.909  26.371  1.00  0.00     0.029 A 
ATOM     36  C   UNL A   1      43.291  29.013  27.750  1.00  0.00     0.049 A 
ATOM     37  H   UNL A   1      41.902  29.856  29.081  1.00  0.00     0.167 HD
ATOM     38  C   UNL A   1      44.390  28.507  29.932  1.00  0.00     0.074 A 
ATOM     39  C   UNL A   1      43.293  28.650  30.890  1.00  0.00     0.031 C 
ATOM     40  C   UNL A   1      44.444  28.706  28.581  1.00  0.00     0.034 A 
BRANCH  27  41
ATOM     41  C   UNL A   1      39.013  29.221  28.895  1.00  0.00     0.023 A 
ATOM     42  C   UNL A   1      39.248  29.128  30.284  1.00  0.00     0.031 A 
ATOM     43  C   UNL A   1      38.045  30.152  28.503  1.00  0.00     0.131 A 
ATOM     44  C   UNL A   1      38.474  29.810  31.220  1.00  0.00     0.055 A 
ATOM     45  C   UNL A   1      37.335  30.921  29.434  1.00  0.00     0.041 A 
ATOM     46  F   UNL A   1      37.790  30.369  27.204  1.00  0.00    -0.206 F 
ATOM     47  C   UNL A   1      37.529  30.735  30.803  1.00  0.00     0.022 A 
BRANCH  44  48
ATOM     48  S   UNL A   1      38.669  29.449  32.988  1.00  0.00     0.124 S 
ATOM     49  O   UNL A   1      38.621  30.784  33.573  1.00  0.00    -0.237 OA
ATOM     50  O   UNL A   1      37.509  28.598  33.245  1.00  0.00    -0.237 OA
ATOM     51  O   UNL A   1      39.959  28.768  33.060  1.00  0.00    -0.744 OA
ENDBRANCH  44  48
ENDBRANCH  27  41
BRANCH  28  52
ATOM     52  C   UNL A   1      44.970  25.256  33.314  1.00  0.00     0.023 A 
ATOM     53  C   UNL A   1      46.217  24.674  33.619  1.00  0.00     0.031 A 
ATOM     54  C   UNL A   1      43.948  25.080  34.259  1.00  0.00     0.131 A 
ATOM     55  C   UNL A   1      46.410  23.914  34.776  1.00  0.00     0.055 A 
ATOM     56  C   UNL A   1      44.144  24.328  35.430  1.00  0.00     0.041 A 
ATOM     57  F   UNL A   1      42.725  25.586  34.043  1.00  0.00    -0.206 F 
ATOM     58  C   UNL A   1      45.377  23.729  35.688  1.00  0.00     0.022 A 
BRANCH  55  59
ATOM     59  S   UNL A   1      48.019  23.124  35.046  1.00  0.00     0.124 S 
ATOM     60  O   UNL A   1      47.767  21.742  34.646  1.00  0.00    -0.237 OA
ATOM     61  O   UNL A   1      48.879  23.893  34.155  1.00  0.00    -0.237 OA
ATOM     62  O   UNL A   1      48.242  23.320  36.477  1.00  0.00    -0.744 OA
ENDBRANCH  55  59
ENDBRANCH  28  52
BRANCH  40  63
ATOM     63  C   UNL A   1      45.720  28.372  27.831  1.00  0.00     0.023 A 
ATOM     64  C   UNL A   1      45.898  27.033  27.434  1.00  0.00     0.031 A 
ATOM     65  C   UNL A   1      46.829  29.232  27.724  1.00  0.00     0.131 A 
ATOM     66  C   UNL A   1      47.152  26.575  27.011  1.00  0.00     0.055 A 
ATOM     67  C   UNL A   1      48.059  28.788  27.216  1.00  0.00     0.041 A 
ATOM     68  F   UNL A   1      46.782  30.483  28.203  1.00  0.00    -0.206 F 
ATOM     69  C   UNL A   1      48.233  27.448  26.881  1.00  0.00     0.022 A 
BRANCH  66  70
ATOM     70  S   UNL A   1      47.447  24.799  26.789  1.00  0.00     0.124 S 
ATOM     71  O   UNL A   1      47.118  24.602  25.380  1.00  0.00    -0.237 OA
ATOM     72  O   UNL A   1      48.864  24.678  27.123  1.00  0.00    -0.237 OA
ATOM     73  O   UNL A   1      46.534  24.167  27.738  1.00  0.00    -0.744 OA
ENDBRANCH  66  70
ENDBRANCH  40  63
ENDBRANCH  14  15
ENDBRANCH   7   9
ENDBRANCH   6   7
ENDBRANCH   5   6
ENDBRANCH   4   5
ENDBRANCH   3   4
ENDBRANCH   2   3
ENDBRANCH   1   2
BRANCH   1  74
ATOM     74  O   UNL A   1      33.692  23.471  25.721  1.00  0.00    -0.377 OA
BRANCH  74  75
ATOM     75  C   UNL A   1      32.929  24.635  26.017  1.00  0.00     0.188 C 
BRANCH  75  76
ATOM     76  C   UNL A   1      31.466  24.585  26.499  1.00  0.00     0.188 C 
BRANCH  76  77
ATOM     77  O   UNL A   1      30.679  25.766  26.394  1.00  0.00    -0.376 OA
BRANCH  77  78
ATOM     78  C   UNL A   1      29.378  25.556  25.831  1.00  0.00     0.202 C 
BRANCH  78  79
ATOM     79  C   UNL A   1      29.270  26.217  24.454  1.00  0.00     0.261 C 
BRANCH  79  80
ATOM     80  O   UNL A   1      30.484  26.077  23.680  1.00  0.00    -0.460 OA
BRANCH  80  81
ATOM     81  C   UNL A   1      30.848  27.108  22.871  1.00  0.00     0.338 C 
ATOM     82  O   UNL A   1      31.128  27.056  21.710  1.00  0.00    -0.246 OA
BRANCH  81  83
ATOM     83  C   UNL A   1      30.896  28.348  23.707  1.00  0.00     0.068 A 
ATOM     84  C   UNL A   1      31.881  28.447  24.728  1.00  0.00     0.030 A 
ATOM     85  C   UNL A   1      29.943  29.380  23.413  1.00  0.00    -0.002 A 
ATOM     86  C   UNL A   1      31.824  29.639  25.439  1.00  0.00     0.056 A 
ATOM     87  C   UNL A   1      29.911  30.590  24.182  1.00  0.00     0.012 A 
ATOM     88  C   UNL A   1      29.014  29.273  22.360  1.00  0.00     0.010 A 
ATOM     89  C   UNL A   1      32.675  30.054  26.431  1.00  0.00     0.248 A 
ATOM     90  C   UNL A   1      30.889  30.702  25.217  1.00  0.00     0.122 A 
ATOM     91  C   UNL A   1      28.984  31.608  23.907  1.00  0.00     0.011 A 
ATOM     92  C   UNL A   1      28.104  30.294  22.082  1.00  0.00     0.001 A 
ATOM     93  O   UNL A   1      32.258  31.292  26.827  1.00  0.00    -0.350 OA
ATOM     94  N   UNL A   1      31.162  31.696  26.083  1.00  0.00    -0.079 NA
ATOM     95  C   UNL A   1      28.085  31.452  22.855  1.00  0.00     0.001 A 
BRANCH  89  96
ATOM     96  C   UNL A   1      33.909  29.561  27.079  1.00  0.00     0.453 C 
ATOM     97  F   UNL A   1      34.852  29.274  26.132  1.00  0.00    -0.163 F 
ATOM     98  F   UNL A   1      34.477  30.462  27.906  1.00  0.00    -0.163 F 
ATOM     99  F   UNL A   1      33.719  28.400  27.757  1.00  0.00    -0.163 F 
ENDBRANCH  89  96
ENDBRANCH  81  83
ENDBRANCH  80  81
ENDBRANCH  79  80
ENDBRANCH  78  79
ENDBRANCH  77  78
ENDBRANCH  76  77
ENDBRANCH  75  76
ENDBRANCH  74  75
ENDBRANCH   1  74
TORSDOF 24
ENDMDL
MODEL 3
REMARK VINA RESULT:     -10.3      2.417      3.290
REMARK SMILES O=C(OCCOCCOCCOCCOC(=O)c1cc2c(C(F)(F)F)onc2c2ccccc12)c1ccc(-c2c3nc(c(-c4cc(S(=O)(=O)[O-])ccc4F)c4ccc([nH]4)c(-c4cc(S(=O)(=O)[O-])ccc4F)c4nc(c(-c5cc(S(=O)(=O)[O-])ccc5F)c5ccc2[nH]5)C=C4)C=C3)cc1
REMARK SMILES IDX 8 1 7 2 6 3 5 4 4 5 3 6 2 7 1 8 35 9 36 10 97 11 37 12 96 13
REMARK SMILES IDX 38 14 39 15 40 16 90 17 41 18 95 19 89 20 91 21 42 22 94 23
REMARK SMILES IDX 88 24 87 25 43 27 75 28 55 29 74 30 56 31 59 32 73 33 92 34
REMARK SMILES IDX 57 35 58 36 72 38 93 39 60 40 44 41 45 42 53 43 46 44 52 45
REMARK SMILES IDX 54 46 51 47 47 48 48 49 49 50 50 51 76 52 77 53 85 54 78 55
REMARK SMILES IDX 84 56 86 57 83 58 79 59 80 60 81 61 82 62 61 63 62 64 70 65
REMARK SMILES IDX 63 66 69 67 71 68 68 69 64 70 65 71 66 72 67 73 9 74 10 75
REMARK SMILES IDX 11 76 12 77 13 78 14 79 15 80 16 81 17 82 18 83 19 84 34 85
REMARK SMILES IDX 20 86 29 87 33 88 21 89 28 90 30 91 32 92 26 93 27 94 31 95
REMARK SMILES IDX 22 96 23 97 24 98 25 99
REMARK H PARENT 91 26 59 37
REMARK Flexibility Score: inf
ROOT
ATOM      1  C   UNL A   1      33.017  22.673  27.231  1.00  0.00     0.188 C 
ENDROOT
BRANCH   1   2
ATOM      2  C   UNL A   1      33.668  21.299  27.078  1.00  0.00     0.188 C 
BRANCH   2   3
ATOM      3  O   UNL A   1      34.660  21.278  26.071  1.00  0.00    -0.376 OA
BRANCH   3   4
ATOM      4  C   UNL A   1      35.792  22.109  26.224  1.00  0.00     0.202 C 
BRANCH   4   5
ATOM      5  C   UNL A   1      37.059  21.487  25.649  1.00  0.00     0.261 C 
BRANCH   5   6
ATOM      6  O   UNL A   1      38.252  22.307  25.514  1.00  0.00    -0.460 OA
BRANCH   6   7
ATOM      7  C   UNL A   1      39.373  22.344  26.282  1.00  0.00     0.338 C 
ATOM      8  O   UNL A   1      40.135  21.382  26.297  1.00  0.00    -0.246 OA
BRANCH   7   9
ATOM      9  C   UNL A   1      39.656  23.537  27.125  1.00  0.00     0.060 A 
ATOM     10  C   UNL A   1      38.775  24.627  27.045  1.00  0.00     0.016 A 
ATOM     11  C   UNL A   1      40.816  23.642  27.895  1.00  0.00     0.016 A 
ATOM     12  C   UNL A   1      39.121  25.848  27.630  1.00  0.00     0.010 A 
ATOM     13  C   UNL A   1      41.183  24.880  28.434  1.00  0.00     0.010 A 
ATOM     14  C   UNL A   1      40.358  26.005  28.274  1.00  0.00    -0.014 A 
BRANCH  14  15
ATOM     15  C   UNL A   1      40.582  27.210  29.104  1.00  0.00     0.031 A 
ATOM     16  C   UNL A   1      41.809  27.878  28.669  1.00  0.00     0.074 A 
ATOM     17  C   UNL A   1      39.835  27.822  30.045  1.00  0.00     0.049 A 
ATOM     18  N   UNL A   1      42.971  27.743  29.214  1.00  0.00    -0.248 NA
ATOM     19  C   UNL A   1      41.798  28.537  27.357  1.00  0.00     0.031 C 
ATOM     20  C   UNL A   1      38.549  27.400  30.512  1.00  0.00     0.029 A 
ATOM     21  N   UNL A   1      40.018  28.963  30.787  1.00  0.00    -0.354 N 
ATOM     22  C   UNL A   1      43.771  28.569  28.451  1.00  0.00     0.074 A 
ATOM     23  C   UNL A   1      43.108  28.701  27.176  1.00  0.00     0.031 C 
ATOM     24  C   UNL A   1      37.907  28.358  31.194  1.00  0.00     0.029 A 
ATOM     25  C   UNL A   1      38.853  29.420  31.410  1.00  0.00     0.049 A 
ATOM     26  H   UNL A   1      40.888  29.416  30.873  1.00  0.00     0.167 HD
ATOM     27  C   UNL A   1      44.635  29.429  29.057  1.00  0.00     0.034 A 
ATOM     28  C   UNL A   1      38.588  30.469  32.227  1.00  0.00     0.034 A 
ATOM     29  C   UNL A   1      44.889  29.058  30.427  1.00  0.00     0.049 A 
ATOM     30  C   UNL A   1      39.870  30.961  32.749  1.00  0.00     0.074 A 
ATOM     31  C   UNL A   1      45.325  27.908  31.053  1.00  0.00     0.029 A 
ATOM     32  N   UNL A   1      44.318  29.832  31.408  1.00  0.00    -0.354 N 
ATOM     33  N   UNL A   1      40.590  30.313  33.623  1.00  0.00    -0.248 NA
ATOM     34  C   UNL A   1      40.592  31.881  31.891  1.00  0.00     0.031 C 
ATOM     35  C   UNL A   1      44.646  27.868  32.302  1.00  0.00     0.029 A 
ATOM     36  C   UNL A   1      43.875  29.026  32.425  1.00  0.00     0.049 A 
ATOM     37  H   UNL A   1      44.238  30.813  31.384  1.00  0.00     0.167 HD
ATOM     38  C   UNL A   1      41.874  30.356  33.096  1.00  0.00     0.074 A 
ATOM     39  C   UNL A   1      41.824  31.406  32.078  1.00  0.00     0.031 C 
ATOM     40  C   UNL A   1      42.768  29.346  33.313  1.00  0.00     0.034 A 
BRANCH  27  41
ATOM     41  C   UNL A   1      44.890  30.802  28.493  1.00  0.00     0.023 A 
ATOM     42  C   UNL A   1      46.118  31.171  27.904  1.00  0.00     0.031 A 
ATOM     43  C   UNL A   1      43.857  31.740  28.385  1.00  0.00     0.131 A 
ATOM     44  C   UNL A   1      46.340  32.439  27.372  1.00  0.00     0.055 A 
ATOM     45  C   UNL A   1      44.042  32.978  27.755  1.00  0.00     0.041 A 
ATOM     46  F   UNL A   1      42.630  31.464  28.851  1.00  0.00    -0.206 F 
ATOM     47  C   UNL A   1      45.296  33.345  27.266  1.00  0.00     0.022 A 
BRANCH  44  48
ATOM     48  S   UNL A   1      48.013  32.922  26.860  1.00  0.00     0.124 S 
ATOM     49  O   UNL A   1      47.737  33.828  25.751  1.00  0.00    -0.237 OA
ATOM     50  O   UNL A   1      48.525  33.546  28.079  1.00  0.00    -0.237 OA
ATOM     51  O   UNL A   1      48.646  31.655  26.507  1.00  0.00    -0.744 OA
ENDBRANCH  44  48
ENDBRANCH  27  41
BRANCH  28  52
ATOM     52  C   UNL A   1      37.332  31.264  32.152  1.00  0.00     0.023 A 
ATOM     53  C   UNL A   1      36.794  31.584  30.889  1.00  0.00     0.031 A 
ATOM     54  C   UNL A   1      36.772  31.922  33.257  1.00  0.00     0.131 A 
ATOM     55  C   UNL A   1      35.794  32.549  30.739  1.00  0.00     0.055 A 
ATOM     56  C   UNL A   1      35.756  32.882  33.110  1.00  0.00     0.041 A 
ATOM     57  F   UNL A   1      37.233  31.690  34.495  1.00  0.00    -0.206 F 
ATOM     58  C   UNL A   1      35.270  33.210  31.845  1.00  0.00     0.022 A 
BRANCH  55  59
ATOM     59  S   UNL A   1      35.224  32.967  29.071  1.00  0.00     0.124 S 
ATOM     60  O   UNL A   1      35.621  34.367  28.940  1.00  0.00    -0.237 OA
ATOM     61  O   UNL A   1      35.973  32.019  28.256  1.00  0.00    -0.237 OA
ATOM     62  O   UNL A   1      33.783  32.742  29.153  1.00  0.00    -0.744 OA
ENDBRANCH  55  59
ENDBRANCH  28  52
BRANCH  40  63
ATOM     63  C   UNL A   1      42.494  28.333  34.409  1.00  0.00     0.023 A 
ATOM     64  C   UNL A   1      43.433  28.252  35.455  1.00  0.00     0.031 A 
ATOM     65  C   UNL A   1      41.523  27.317  34.331  1.00  0.00     0.131 A 
ATOM     66  C   UNL A   1      43.427  27.164  36.337  1.00  0.00     0.055 A 
ATOM     67  C   UNL A   1      41.467  26.277  35.270  1.00  0.00     0.041 A 
ATOM     68  F   UNL A   1      40.679  27.249  33.293  1.00  0.00    -0.206 F 
ATOM     69  C   UNL A   1      42.437  26.182  36.264  1.00  0.00     0.022 A 
BRANCH  66  70
ATOM     70  S   UNL A   1      44.808  26.913  37.485  1.00  0.00     0.124 S 
ATOM     71  O   UNL A   1      45.651  28.074  37.217  1.00  0.00    -0.237 OA
ATOM     72  O   UNL A   1      44.134  26.915  38.782  1.00  0.00    -0.237 OA
ATOM     73  O   UNL A   1      45.372  25.626  37.085  1.00  0.00    -0.744 OA
ENDBRANCH  66  70
ENDBRANCH  40  63
ENDBRANCH  14  15
ENDBRANCH   7   9
ENDBRANCH   6   7
ENDBRANCH   5   6
ENDBRANCH   4   5
ENDBRANCH   3   4
ENDBRANCH   2   3
ENDBRANCH   1   2
BRANCH   1  74
ATOM     74  O   UNL A   1      32.179  22.957  26.127  1.00  0.00    -0.377 OA
BRANCH  74  75
ATOM     75  C   UNL A   1      31.314  24.073  26.297  1.00  0.00     0.188 C 
BRANCH  75  76
ATOM     76  C   UNL A   1      30.188  24.428  25.305  1.00  0.00     0.188 C 
BRANCH  76  77
ATOM     77  O   UNL A   1      29.648  25.744  25.339  1.00  0.00    -0.376 OA
BRANCH  77  78
ATOM     78  C   UNL A   1      28.863  26.086  24.190  1.00  0.00     0.202 C 
BRANCH  78  79
ATOM     79  C   UNL A   1      28.944  27.588  23.904  1.00  0.00     0.261 C 
BRANCH  79  80
ATOM     80  O   UNL A   1      29.529  27.872  22.613  1.00  0.00    -0.460 OA
BRANCH  80  81
ATOM     81  C   UNL A   1      30.694  28.573  22.580  1.00  0.00     0.338 C 
ATOM     82  O   UNL A   1      30.907  29.601  22.007  1.00  0.00    -0.246 OA
BRANCH  81  83
ATOM     83  C   UNL A   1      31.714  27.799  23.353  1.00  0.00     0.068 A 
ATOM     84  C   UNL A   1      32.103  26.516  22.880  1.00  0.00     0.030 A 
ATOM     85  C   UNL A   1      32.255  28.413  24.532  1.00  0.00    -0.002 A 
ATOM     86  C   UNL A   1      33.051  25.892  23.682  1.00  0.00     0.056 A 
ATOM     87  C   UNL A   1      33.222  27.728  25.340  1.00  0.00     0.012 A 
ATOM     88  C   UNL A   1      31.888  29.709  24.946  1.00  0.00     0.010 A 
ATOM     89  C   UNL A   1      33.665  24.688  23.455  1.00  0.00     0.248 A 
ATOM     90  C   UNL A   1      33.618  26.433  24.882  1.00  0.00     0.122 A 
ATOM     91  C   UNL A   1      33.759  28.315  26.496  1.00  0.00     0.011 A 
ATOM     92  C   UNL A   1      32.435  30.293  26.088  1.00  0.00     0.001 A 
ATOM     93  O   UNL A   1      34.536  24.481  24.486  1.00  0.00    -0.350 OA
ATOM     94  N   UNL A   1      34.513  25.551  25.364  1.00  0.00    -0.079 NA
ATOM     95  C   UNL A   1      33.361  29.598  26.863  1.00  0.00     0.001 A 
BRANCH  89  96
ATOM     96  C   UNL A   1      33.683  23.661  22.392  1.00  0.00     0.453 C 
ATOM     97  F   UNL A   1      32.702  22.737  22.618  1.00  0.00    -0.163 F 
ATOM     98  F   UNL A   1      33.447  24.159  21.162  1.00  0.00    -0.163 F 
ATOM     99  F   UNL A   1      34.841  22.953  22.365  1.00  0.00    -0.163 F 
ENDBRANCH  89  96
ENDBRANCH  81  83
ENDBRANCH  80  81
ENDBRANCH  79  80
ENDBRANCH  78  79
ENDBRANCH  77  78
ENDBRANCH  76  77
ENDBRANCH  75  76
ENDBRANCH  74  75
ENDBRANCH   1  74
TORSDOF 24
ENDMDL
