MODEL 1
REMARK VINA RESULT:      -9.5      0.000      0.000
REMARK SMILES CCn1c(CC2CC[NH+](Cc3cn[nH]c3C(=O)OCCOCCOCCOCCOC(=O)c3ccc(-c4c5nc(c(-c6cc(S(=O)(=O)[O-])ccc6F)c6ccc([nH]6)c(-c6cc(S(=O)(=O)[O-])ccc6F)c6nc(c(-c7cc(S(=O)(=O)[O-])ccc7F)c7ccc4[nH]7)C=C6)C=C5)cc3)CC2)nn(C)c1=O
REMARK SMILES IDX 23 1 22 2 21 3 20 4 19 5 18 6 16 7 17 8 15 9 11 10 12 11
REMARK SMILES IDX 13 12 14 13 10 15 9 16 6 17 7 18 97 19 8 20 96 21 5 23 4 24
REMARK SMILES IDX 3 25 101 26 98 27 99 28 102 29 100 30 2 31 1 32 24 33 25 34
REMARK SMILES IDX 26 35 27 36 28 37 29 38 30 39 31 40 32 41 33 42 34 43 95 44
REMARK SMILES IDX 35 45 94 46 36 47 37 48 38 49 88 50 39 51 93 52 87 53 89 54
REMARK SMILES IDX 40 55 92 56 86 57 85 58 41 60 73 61 53 62 72 63 54 64 57 65
REMARK SMILES IDX 71 66 90 67 55 68 56 69 70 71 91 72 58 73 42 74 43 75 51 76
REMARK SMILES IDX 44 77 50 78 52 79 49 80 45 81 46 82 47 83 48 84 74 85 75 86
REMARK SMILES IDX 83 87 76 88 82 89 84 90 81 91 77 92 78 93 79 94 80 95 59 96
REMARK SMILES IDX 60 97 68 98 61 99 67 100 69 101 66 102 62 103 63 104 64 105
REMARK SMILES IDX 65 106
REMARK H PARENT 14 14 9 22 89 59 57 70
REMARK Flexibility Score: inf
ROOT
ATOM      1  C   UNL A   1      32.235  28.777  26.896  1.00  0.00     0.188 C 
ENDROOT
BRANCH   1   2
ATOM      2  C   UNL A   1      31.326  27.596  27.284  1.00  0.00     0.188 C 
BRANCH   2   3
ATOM      3  O   UNL A   1      31.710  26.235  27.150  1.00  0.00    -0.376 OA
BRANCH   3   4
ATOM      4  C   UNL A   1      30.971  25.263  26.433  1.00  0.00     0.202 C 
BRANCH   4   5
ATOM      5  C   UNL A   1      29.789  25.576  25.500  1.00  0.00     0.261 C 
BRANCH   5   6
ATOM      6  O   UNL A   1      30.098  26.107  24.211  1.00  0.00    -0.459 OA
BRANCH   6   7
ATOM      7  C   UNL A   1      29.129  26.923  23.734  1.00  0.00     0.356 C 
ATOM      8  O   UNL A   1      27.940  26.784  23.940  1.00  0.00    -0.244 OA
BRANCH   7   9
ATOM      9  C   UNL A   1      29.677  28.079  23.077  1.00  0.00     0.152 A 
ATOM     10  C   UNL A   1      30.922  28.681  22.889  1.00  0.00     0.059 A 
ATOM     11  C   UNL A   1      30.625  29.650  21.895  1.00  0.00     0.145 A 
ATOM     12  N   UNL A   1      29.328  29.785  21.631  1.00  0.00    -0.183 NA
ATOM     13  N   UNL A   1      28.773  28.876  22.422  1.00  0.00    -0.271 N 
ATOM     14  H   UNL A   1      27.799  28.781  22.529  1.00  0.00     0.190 HD
BRANCH  10  15
ATOM     15  C   UNL A   1      32.296  28.307  23.393  1.00  0.00     0.303 C 
BRANCH  15  16
ATOM     16  N   UNL A   1      32.846  27.003  22.944  1.00  0.00    -0.331 N 
ATOM     17  C   UNL A   1      33.074  24.079  22.427  1.00  0.00     0.008 C 
ATOM     18  C   UNL A   1      33.895  24.781  23.511  1.00  0.00     0.065 C 
ATOM     19  C   UNL A   1      32.714  25.096  21.345  1.00  0.00     0.065 C 
ATOM     20  C   UNL A   1      33.275  26.091  24.003  1.00  0.00     0.262 C 
ATOM     21  C   UNL A   1      32.062  26.366  21.891  1.00  0.00     0.262 C 
ATOM     22  H   UNL A   1      33.730  27.265  22.506  1.00  0.00     0.348 HD
BRANCH  17  23
ATOM     23  C   UNL A   1      31.917  23.168  22.904  1.00  0.00     0.081 C 
BRANCH  23  24
ATOM     24  C   UNL A   1      32.153  21.732  23.333  1.00  0.00     0.133 A 
ATOM     25  N   UNL A   1      32.310  21.295  24.601  1.00  0.00    -0.279 N 
ATOM     26  C   UNL A   1      32.452  19.919  24.502  1.00  0.00     0.345 A 
ATOM     27  N   UNL A   1      32.127  20.779  22.438  1.00  0.00    -0.155 NA
ATOM     28  N   UNL A   1      32.313  19.628  23.153  1.00  0.00    -0.216 N 
ATOM     29  O   UNL A   1      32.629  19.133  25.421  1.00  0.00    -0.246 OA
ATOM     30  C   UNL A   1      32.318  18.317  22.563  1.00  0.00     0.179 C 
BRANCH  25  31
ATOM     31  C   UNL A   1      32.321  21.878  25.937  1.00  0.00     0.125 C 
ATOM     32  C   UNL A   1      33.549  22.612  26.418  1.00  0.00     0.028 C 
ENDBRANCH  25  31
ENDBRANCH  23  24
ENDBRANCH  17  23
ENDBRANCH  15  16
ENDBRANCH  10  15
ENDBRANCH   7   9
ENDBRANCH   6   7
ENDBRANCH   5   6
ENDBRANCH   4   5
ENDBRANCH   3   4
ENDBRANCH   2   3
ENDBRANCH   1   2
BRANCH   1  33
ATOM     33  O   UNL A   1      31.571  30.020  26.818  1.00  0.00    -0.377 OA
BRANCH  33  34
ATOM     34  C   UNL A   1      32.370  31.199  26.866  1.00  0.00     0.188 C 
BRANCH  34  35
ATOM     35  C   UNL A   1      33.876  31.100  27.233  1.00  0.00     0.188 C 
BRANCH  35  36
ATOM     36  O   UNL A   1      34.387  32.248  27.893  1.00  0.00    -0.376 OA
BRANCH  36  37
ATOM     37  C   UNL A   1      33.573  33.374  28.169  1.00  0.00     0.202 C 
BRANCH  37  38
ATOM     38  C   UNL A   1      34.022  34.345  29.258  1.00  0.00     0.261 C 
BRANCH  38  39
ATOM     39  O   UNL A   1      35.410  34.312  29.513  1.00  0.00    -0.460 OA
BRANCH  39  40
ATOM     40  C   UNL A   1      35.717  33.799  30.723  1.00  0.00     0.338 C 
ATOM     41  O   UNL A   1      35.475  34.297  31.807  1.00  0.00    -0.246 OA
BRANCH  40  42
ATOM     42  C   UNL A   1      36.438  32.541  30.518  1.00  0.00     0.060 A 
ATOM     43  C   UNL A   1      36.716  31.830  31.682  1.00  0.00     0.016 A 
ATOM     44  C   UNL A   1      37.180  32.400  29.337  1.00  0.00     0.016 A 
ATOM     45  C   UNL A   1      37.978  31.315  31.793  1.00  0.00     0.010 A 
ATOM     46  C   UNL A   1      38.439  31.892  29.450  1.00  0.00     0.010 A 
ATOM     47  C   UNL A   1      38.852  31.501  30.719  1.00  0.00    -0.014 A 
BRANCH  47  48
ATOM     48  C   UNL A   1      40.251  31.255  30.941  1.00  0.00     0.031 A 
ATOM     49  C   UNL A   1      40.976  32.512  31.175  1.00  0.00     0.074 A 
ATOM     50  C   UNL A   1      40.749  30.008  31.009  1.00  0.00     0.049 A 
ATOM     51  N   UNL A   1      41.745  33.135  30.349  1.00  0.00    -0.248 NA
ATOM     52  C   UNL A   1      40.574  33.309  32.347  1.00  0.00     0.031 C 
ATOM     53  C   UNL A   1      40.038  28.726  31.022  1.00  0.00     0.029 A 
ATOM     54  N   UNL A   1      42.037  29.634  31.184  1.00  0.00    -0.354 N 
ATOM     55  C   UNL A   1      42.141  34.273  31.031  1.00  0.00     0.074 A 
ATOM     56  C   UNL A   1      41.179  34.465  32.080  1.00  0.00     0.031 C 
ATOM     57  C   UNL A   1      40.884  27.752  31.440  1.00  0.00     0.029 A 
ATOM     58  C   UNL A   1      42.213  28.320  31.602  1.00  0.00     0.049 A 
ATOM     59  H   UNL A   1      42.792  30.245  31.026  1.00  0.00     0.167 HD
ATOM     60  C   UNL A   1      43.400  34.761  30.895  1.00  0.00     0.034 A 
ATOM     61  C   UNL A   1      43.355  27.805  32.138  1.00  0.00     0.034 A 
ATOM     62  C   UNL A   1      44.028  34.246  29.697  1.00  0.00     0.049 A 
ATOM     63  C   UNL A   1      44.460  28.710  31.708  1.00  0.00     0.074 A 
ATOM     64  C   UNL A   1      43.713  34.291  28.351  1.00  0.00     0.029 A 
ATOM     65  N   UNL A   1      44.922  33.204  29.830  1.00  0.00    -0.354 N 
ATOM     66  N   UNL A   1      44.810  28.854  30.455  1.00  0.00    -0.248 NA
ATOM     67  C   UNL A   1      44.794  29.840  32.568  1.00  0.00     0.031 C 
ATOM     68  C   UNL A   1      44.029  32.992  27.853  1.00  0.00     0.029 A 
ATOM     69  C   UNL A   1      44.598  32.250  28.892  1.00  0.00     0.049 A 
ATOM     70  H   UNL A   1      45.660  33.151  30.480  1.00  0.00     0.167 HD
ATOM     71  C   UNL A   1      45.007  30.218  30.282  1.00  0.00     0.074 A 
ATOM     72  C   UNL A   1      45.060  30.765  31.638  1.00  0.00     0.031 C 
ATOM     73  C   UNL A   1      44.800  30.822  29.071  1.00  0.00     0.034 A 
BRANCH  60  74
ATOM     74  C   UNL A   1      44.178  35.368  32.037  1.00  0.00     0.023 A 
ATOM     75  C   UNL A   1      44.651  34.488  33.021  1.00  0.00     0.031 A 
ATOM     76  C   UNL A   1      44.250  36.748  32.357  1.00  0.00     0.131 A 
ATOM     77  C   UNL A   1      45.076  34.971  34.270  1.00  0.00     0.055 A 
ATOM     78  C   UNL A   1      44.742  37.225  33.571  1.00  0.00     0.041 A 
ATOM     79  F   UNL A   1      43.763  37.713  31.570  1.00  0.00    -0.206 F 
ATOM     80  C   UNL A   1      45.129  36.333  34.552  1.00  0.00     0.022 A 
BRANCH  77  81
ATOM     81  S   UNL A   1      45.387  33.770  35.585  1.00  0.00     0.124 S 
ATOM     82  O   UNL A   1      44.513  32.670  35.193  1.00  0.00    -0.237 OA
ATOM     83  O   UNL A   1      46.821  33.538  35.440  1.00  0.00    -0.237 OA
ATOM     84  O   UNL A   1      44.989  34.486  36.794  1.00  0.00    -0.744 OA
ENDBRANCH  77  81
ENDBRANCH  60  74
BRANCH  61  85
ATOM     85  C   UNL A   1      43.430  26.895  33.322  1.00  0.00     0.023 A 
ATOM     86  C   UNL A   1      42.697  27.100  34.512  1.00  0.00     0.031 A 
ATOM     87  C   UNL A   1      44.089  25.648  33.200  1.00  0.00     0.131 A 
ATOM     88  C   UNL A   1      42.657  26.092  35.511  1.00  0.00     0.055 A 
ATOM     89  C   UNL A   1      44.048  24.661  34.188  1.00  0.00     0.041 A 
ATOM     90  F   UNL A   1      44.733  25.307  32.074  1.00  0.00    -0.206 F 
ATOM     91  C   UNL A   1      43.325  24.877  35.347  1.00  0.00     0.022 A 
BRANCH  88  92
ATOM     92  S   UNL A   1      41.670  26.317  37.030  1.00  0.00     0.124 S 
ATOM     93  O   UNL A   1      41.036  27.610  36.802  1.00  0.00    -0.237 OA
ATOM     94  O   UNL A   1      40.794  25.151  37.011  1.00  0.00    -0.237 OA
ATOM     95  O   UNL A   1      42.674  26.307  38.096  1.00  0.00    -0.744 OA
ENDBRANCH  88  92
ENDBRANCH  61  85
BRANCH  73  96
ATOM     96  C   UNL A   1      44.562  29.934  27.858  1.00  0.00     0.023 A 
ATOM     97  C   UNL A   1      45.581  29.311  27.096  1.00  0.00     0.031 A 
ATOM     98  C   UNL A   1      43.232  29.609  27.546  1.00  0.00     0.131 A 
ATOM     99  C   UNL A   1      45.242  28.412  26.061  1.00  0.00     0.055 A 
ATOM    100  C   UNL A   1      42.902  28.703  26.538  1.00  0.00     0.041 A 
ATOM    101  F   UNL A   1      42.220  30.142  28.251  1.00  0.00    -0.206 F 
ATOM    102  C   UNL A   1      43.907  28.104  25.787  1.00  0.00     0.022 A 
BRANCH  99 103
ATOM    103  S   UNL A   1      46.538  27.631  25.040  1.00  0.00     0.124 S 
ATOM    104  O   UNL A   1      45.940  26.362  24.645  1.00  0.00    -0.237 OA
ATOM    105  O   UNL A   1      46.731  28.607  23.972  1.00  0.00    -0.237 OA
ATOM    106  O   UNL A   1      47.670  27.510  25.961  1.00  0.00    -0.744 OA
ENDBRANCH  99 103
ENDBRANCH  73  96
ENDBRANCH  47  48
ENDBRANCH  40  42
ENDBRANCH  39  40
ENDBRANCH  38  39
ENDBRANCH  37  38
ENDBRANCH  36  37
ENDBRANCH  35  36
ENDBRANCH  34  35
ENDBRANCH  33  34
ENDBRANCH   1  33
TORSDOF 28
ENDMDL
MODEL 2
REMARK VINA RESULT:      -9.4      2.690      7.427
REMARK SMILES CCn1c(CC2CC[NH+](Cc3cn[nH]c3C(=O)OCCOCCOCCOCCOC(=O)c3ccc(-c4c5nc(c(-c6cc(S(=O)(=O)[O-])ccc6F)c6ccc([nH]6)c(-c6cc(S(=O)(=O)[O-])ccc6F)c6nc(c(-c7cc(S(=O)(=O)[O-])ccc7F)c7ccc4[nH]7)C=C6)C=C5)cc3)CC2)nn(C)c1=O
REMARK SMILES IDX 23 1 22 2 21 3 20 4 19 5 18 6 16 7 17 8 15 9 11 10 12 11
REMARK SMILES IDX 13 12 14 13 10 15 9 16 6 17 7 18 97 19 8 20 96 21 5 23 4 24
REMARK SMILES IDX 3 25 101 26 98 27 99 28 102 29 100 30 2 31 1 32 24 33 25 34
REMARK SMILES IDX 26 35 27 36 28 37 29 38 30 39 31 40 32 41 33 42 34 43 95 44
REMARK SMILES IDX 35 45 94 46 36 47 37 48 38 49 88 50 39 51 93 52 87 53 89 54
REMARK SMILES IDX 40 55 92 56 86 57 85 58 41 60 73 61 53 62 72 63 54 64 57 65
REMARK SMILES IDX 71 66 90 67 55 68 56 69 70 71 91 72 58 73 42 74 43 75 51 76
REMARK SMILES IDX 44 77 50 78 52 79 49 80 45 81 46 82 47 83 48 84 74 85 75 86
REMARK SMILES IDX 83 87 76 88 82 89 84 90 81 91 77 92 78 93 79 94 80 95 59 96
REMARK SMILES IDX 60 97 68 98 61 99 67 100 69 101 66 102 62 103 63 104 64 105
REMARK SMILES IDX 65 106
REMARK H PARENT 14 14 9 22 89 59 57 70
REMARK Flexibility Score: inf
ROOT
ATOM      1  C   UNL A   1      32.207  28.509  27.374  1.00  0.00     0.188 C 
ENDROOT
BRANCH   1   2
ATOM      2  C   UNL A   1      31.173  27.371  27.288  1.00  0.00     0.188 C 
BRANCH   2   3
ATOM      3  O   UNL A   1      31.493  26.050  26.875  1.00  0.00    -0.376 OA
BRANCH   3   4
ATOM      4  C   UNL A   1      30.695  25.269  26.005  1.00  0.00     0.202 C 
BRANCH   4   5
ATOM      5  C   UNL A   1      29.435  25.776  25.283  1.00  0.00     0.261 C 
BRANCH   5   6
ATOM      6  O   UNL A   1      29.582  26.182  23.922  1.00  0.00    -0.459 OA
BRANCH   6   7
ATOM      7  C   UNL A   1      28.739  27.185  23.580  1.00  0.00     0.356 C 
ATOM      8  O   UNL A   1      27.556  27.222  23.851  1.00  0.00    -0.244 OA
BRANCH   7   9
ATOM      9  C   UNL A   1      29.439  28.293  22.988  1.00  0.00     0.152 A 
ATOM     10  C   UNL A   1      30.736  28.807  22.946  1.00  0.00     0.059 A 
ATOM     11  C   UNL A   1      30.625  29.783  21.921  1.00  0.00     0.145 A 
ATOM     12  N   UNL A   1      29.381  30.002  21.504  1.00  0.00    -0.183 NA
ATOM     13  N   UNL A   1      28.675  29.141  22.228  1.00  0.00    -0.271 N 
ATOM     14  H   UNL A   1      27.691  29.114  22.219  1.00  0.00     0.190 HD
BRANCH  10  15
ATOM     15  C   UNL A   1      32.012  28.347  23.610  1.00  0.00     0.303 C 
BRANCH  15  16
ATOM     16  N   UNL A   1      32.666  27.138  23.049  1.00  0.00    -0.331 N 
ATOM     17  C   UNL A   1      33.179  24.285  22.363  1.00  0.00     0.008 C 
ATOM     18  C   UNL A   1      34.008  25.034  23.409  1.00  0.00     0.065 C 
ATOM     19  C   UNL A   1      32.609  25.297  21.369  1.00  0.00     0.065 C 
ATOM     20  C   UNL A   1      33.289  26.239  24.019  1.00  0.00     0.262 C 
ATOM     21  C   UNL A   1      31.869  26.457  22.034  1.00  0.00     0.262 C 
ATOM     22  H   UNL A   1      33.470  27.521  22.552  1.00  0.00     0.348 HD
BRANCH  17  23
ATOM     23  C   UNL A   1      32.181  23.225  22.887  1.00  0.00     0.081 C 
BRANCH  23  24
ATOM     24  C   UNL A   1      32.630  21.833  23.288  1.00  0.00     0.133 A 
ATOM     25  N   UNL A   1      33.517  21.531  24.261  1.00  0.00    -0.279 N 
ATOM     26  C   UNL A   1      33.574  20.145  24.291  1.00  0.00     0.345 A 
ATOM     27  N   UNL A   1      32.074  20.789  22.729  1.00  0.00    -0.155 NA
ATOM     28  N   UNL A   1      32.654  19.716  23.347  1.00  0.00    -0.216 N 
ATOM     29  O   UNL A   1      34.268  19.457  25.024  1.00  0.00    -0.246 OA
ATOM     30  C   UNL A   1      32.306  18.350  23.060  1.00  0.00     0.179 C 
BRANCH  25  31
ATOM     31  C   UNL A   1      34.326  22.259  25.230  1.00  0.00     0.125 C 
ATOM     32  C   UNL A   1      33.706  22.700  26.534  1.00  0.00     0.028 C 
ENDBRANCH  25  31
ENDBRANCH  23  24
ENDBRANCH  17  23
ENDBRANCH  15  16
ENDBRANCH  10  15
ENDBRANCH   7   9
ENDBRANCH   6   7
ENDBRANCH   5   6
ENDBRANCH   4   5
ENDBRANCH   3   4
ENDBRANCH   2   3
ENDBRANCH   1   2
BRANCH   1  33
ATOM     33  O   UNL A   1      31.664  29.802  27.211  1.00  0.00    -0.377 OA
BRANCH  33  34
ATOM     34  C   UNL A   1      32.561  30.855  26.874  1.00  0.00     0.188 C 
BRANCH  34  35
ATOM     35  C   UNL A   1      34.058  30.759  27.278  1.00  0.00     0.188 C 
BRANCH  35  36
ATOM     36  O   UNL A   1      34.461  31.723  28.239  1.00  0.00    -0.376 OA
BRANCH  36  37
ATOM     37  C   UNL A   1      34.081  33.084  28.135  1.00  0.00     0.202 C 
BRANCH  37  38
ATOM     38  C   UNL A   1      34.065  33.932  29.405  1.00  0.00     0.261 C 
BRANCH  38  39
ATOM     39  O   UNL A   1      35.128  33.653  30.289  1.00  0.00    -0.460 OA
BRANCH  39  40
ATOM     40  C   UNL A   1      34.721  33.113  31.457  1.00  0.00     0.338 C 
ATOM     41  O   UNL A   1      33.768  33.465  32.128  1.00  0.00    -0.246 OA
BRANCH  40  42
ATOM     42  C   UNL A   1      35.652  32.041  31.817  1.00  0.00     0.060 A 
ATOM     43  C   UNL A   1      36.144  32.106  33.117  1.00  0.00     0.016 A 
ATOM     44  C   UNL A   1      36.318  31.380  30.775  1.00  0.00     0.016 A 
ATOM     45  C   UNL A   1      37.486  31.890  33.270  1.00  0.00     0.010 A 
ATOM     46  C   UNL A   1      37.656  31.171  30.927  1.00  0.00     0.010 A 
ATOM     47  C   UNL A   1      38.228  31.575  32.128  1.00  0.00    -0.014 A 
BRANCH  47  48
ATOM     48  C   UNL A   1      39.660  31.661  32.213  1.00  0.00     0.031 A 
ATOM     49  C   UNL A   1      40.247  30.355  32.545  1.00  0.00     0.074 A 
ATOM     50  C   UNL A   1      40.320  32.795  31.920  1.00  0.00     0.049 A 
ATOM     51  N   UNL A   1      40.719  29.978  33.684  1.00  0.00    -0.248 NA
ATOM     52  C   UNL A   1      40.023  29.257  31.589  1.00  0.00     0.031 C 
ATOM     53  C   UNL A   1      39.807  34.048  31.357  1.00  0.00     0.029 A 
ATOM     54  N   UNL A   1      41.652  33.024  31.984  1.00  0.00    -0.354 N 
ATOM     55  C   UNL A   1      41.106  28.663  33.483  1.00  0.00     0.074 A 
ATOM     56  C   UNL A   1      40.393  28.209  32.323  1.00  0.00     0.031 C 
ATOM     57  C   UNL A   1      40.846  34.794  30.909  1.00  0.00     0.029 A 
ATOM     58  C   UNL A   1      42.091  34.130  31.266  1.00  0.00     0.049 A 
ATOM     59  H   UNL A   1      42.264  32.451  32.499  1.00  0.00     0.167 HD
ATOM     60  C   UNL A   1      42.226  28.173  34.074  1.00  0.00     0.034 A 
ATOM     61  C   UNL A   1      43.383  34.389  30.918  1.00  0.00     0.034 A 
ATOM     62  C   UNL A   1      42.626  28.999  35.193  1.00  0.00     0.049 A 
ATOM     63  C   UNL A   1      44.231  33.602  31.860  1.00  0.00     0.074 A 
ATOM     64  C   UNL A   1      42.008  29.392  36.366  1.00  0.00     0.029 A 
ATOM     65  N   UNL A   1      43.655  29.897  35.001  1.00  0.00    -0.354 N 
ATOM     66  N   UNL A   1      44.264  33.835  33.147  1.00  0.00    -0.248 NA
ATOM     67  C   UNL A   1      44.601  32.244  31.477  1.00  0.00     0.031 C 
ATOM     68  C   UNL A   1      42.370  30.762  36.534  1.00  0.00     0.029 A 
ATOM     69  C   UNL A   1      43.254  31.111  35.510  1.00  0.00     0.049 A 
ATOM     70  H   UNL A   1      44.523  29.703  34.577  1.00  0.00     0.167 HD
ATOM     71  C   UNL A   1      44.234  32.584  33.750  1.00  0.00     0.074 A 
ATOM     72  C   UNL A   1      44.523  31.640  32.669  1.00  0.00     0.031 C 
ATOM     73  C   UNL A   1      43.678  32.399  34.986  1.00  0.00     0.034 A 
BRANCH  60  74
ATOM     74  C   UNL A   1      43.158  27.198  33.395  1.00  0.00     0.023 A 
ATOM     75  C   UNL A   1      43.466  26.024  34.097  1.00  0.00     0.031 A 
ATOM     76  C   UNL A   1      43.957  27.464  32.255  1.00  0.00     0.131 A 
ATOM     77  C   UNL A   1      44.564  25.231  33.720  1.00  0.00     0.055 A 
ATOM     78  C   UNL A   1      44.999  26.634  31.843  1.00  0.00     0.041 A 
ATOM     79  F   UNL A   1      43.854  28.580  31.527  1.00  0.00    -0.206 F 
ATOM     80  C   UNL A   1      45.331  25.525  32.596  1.00  0.00     0.022 A 
BRANCH  77  81
ATOM     81  S   UNL A   1      45.080  23.908  34.837  1.00  0.00     0.124 S 
ATOM     82  O   UNL A   1      45.398  22.837  33.899  1.00  0.00    -0.237 OA
ATOM     83  O   UNL A   1      46.212  24.523  35.522  1.00  0.00    -0.237 OA
ATOM     84  O   UNL A   1      43.896  23.685  35.663  1.00  0.00    -0.744 OA
ENDBRANCH  77  81
ENDBRANCH  60  74
BRANCH  61  85
ATOM     85  C   UNL A   1      43.846  34.879  29.584  1.00  0.00     0.023 A 
ATOM     86  C   UNL A   1      44.219  34.023  28.523  1.00  0.00     0.031 A 
ATOM     87  C   UNL A   1      43.710  36.251  29.262  1.00  0.00     0.131 A 
ATOM     88  C   UNL A   1      44.448  34.550  27.225  1.00  0.00     0.055 A 
ATOM     89  C   UNL A   1      43.940  36.764  27.982  1.00  0.00     0.041 A 
ATOM     90  F   UNL A   1      43.267  37.139  30.165  1.00  0.00    -0.206 F 
ATOM     91  C   UNL A   1      44.304  35.912  26.955  1.00  0.00     0.022 A 
BRANCH  88  92
ATOM     92  S   UNL A   1      44.877  33.452  25.831  1.00  0.00     0.124 S 
ATOM     93  O   UNL A   1      45.315  32.239  26.512  1.00  0.00    -0.237 OA
ATOM     94  O   UNL A   1      43.618  33.368  25.099  1.00  0.00    -0.237 OA
ATOM     95  O   UNL A   1      45.940  34.180  25.135  1.00  0.00    -0.744 OA
ENDBRANCH  88  92
ENDBRANCH  61  85
BRANCH  73  96
ATOM     96  C   UNL A   1      43.288  33.632  35.790  1.00  0.00     0.023 A 
ATOM     97  C   UNL A   1      41.977  34.157  35.886  1.00  0.00     0.031 A 
ATOM     98  C   UNL A   1      44.279  34.217  36.595  1.00  0.00     0.131 A 
ATOM     99  C   UNL A   1      41.706  35.236  36.755  1.00  0.00     0.055 A 
ATOM    100  C   UNL A   1      44.003  35.268  37.471  1.00  0.00     0.041 A 
ATOM    101  F   UNL A   1      45.537  33.746  36.575  1.00  0.00    -0.206 F 
ATOM    102  C   UNL A   1      42.716  35.785  37.550  1.00  0.00     0.022 A 
BRANCH  99 103
ATOM    103  S   UNL A   1      40.032  35.954  36.862  1.00  0.00     0.124 S 
ATOM    104  O   UNL A   1      39.182  34.797  37.118  1.00  0.00    -0.237 OA
ATOM    105  O   UNL A   1      40.165  36.906  37.961  1.00  0.00    -0.237 OA
ATOM    106  O   UNL A   1      39.842  36.570  35.547  1.00  0.00    -0.744 OA
ENDBRANCH  99 103
ENDBRANCH  73  96
ENDBRANCH  47  48
ENDBRANCH  40  42
ENDBRANCH  39  40
ENDBRANCH  38  39
ENDBRANCH  37  38
ENDBRANCH  36  37
ENDBRANCH  35  36
ENDBRANCH  34  35
ENDBRANCH  33  34
ENDBRANCH   1  33
TORSDOF 28
ENDMDL
MODEL 3
REMARK VINA RESULT:      -8.8      3.086      5.198
REMARK SMILES CCn1c(CC2CC[NH+](Cc3cn[nH]c3C(=O)OCCOCCOCCOCCOC(=O)c3ccc(-c4c5nc(c(-c6cc(S(=O)(=O)[O-])ccc6F)c6ccc([nH]6)c(-c6cc(S(=O)(=O)[O-])ccc6F)c6nc(c(-c7cc(S(=O)(=O)[O-])ccc7F)c7ccc4[nH]7)C=C6)C=C5)cc3)CC2)nn(C)c1=O
REMARK SMILES IDX 23 1 22 2 21 3 20 4 19 5 18 6 16 7 17 8 15 9 11 10 12 11
REMARK SMILES IDX 13 12 14 13 10 15 9 16 6 17 7 18 97 19 8 20 96 21 5 23 4 24
REMARK SMILES IDX 3 25 101 26 98 27 99 28 102 29 100 30 2 31 1 32 24 33 25 34
REMARK SMILES IDX 26 35 27 36 28 37 29 38 30 39 31 40 32 41 33 42 34 43 95 44
REMARK SMILES IDX 35 45 94 46 36 47 37 48 38 49 88 50 39 51 93 52 87 53 89 54
REMARK SMILES IDX 40 55 92 56 86 57 85 58 41 60 73 61 53 62 72 63 54 64 57 65
REMARK SMILES IDX 71 66 90 67 55 68 56 69 70 71 91 72 58 73 42 74 43 75 51 76
REMARK SMILES IDX 44 77 50 78 52 79 49 80 45 81 46 82 47 83 48 84 74 85 75 86
REMARK SMILES IDX 83 87 76 88 82 89 84 90 81 91 77 92 78 93 79 94 80 95 59 96
REMARK SMILES IDX 60 97 68 98 61 99 67 100 69 101 66 102 62 103 63 104 64 105
REMARK SMILES IDX 65 106
REMARK H PARENT 14 14 9 22 89 59 57 70
REMARK Flexibility Score: inf
ROOT
ATOM      1  C   UNL A   1      32.921  27.504  26.734  1.00  0.00     0.188 C 
ENDROOT
BRANCH   1   2
ATOM      2  C   UNL A   1      31.449  27.454  26.285  1.00  0.00     0.188 C 
BRANCH   2   3
ATOM      3  O   UNL A   1      30.547  26.426  26.669  1.00  0.00    -0.376 OA
BRANCH   3   4
ATOM      4  C   UNL A   1      29.857  25.588  25.760  1.00  0.00     0.202 C 
BRANCH   4   5
ATOM      5  C   UNL A   1      28.696  26.044  24.860  1.00  0.00     0.261 C 
BRANCH   5   6
ATOM      6  O   UNL A   1      29.027  26.847  23.726  1.00  0.00    -0.459 OA
BRANCH   6   7
ATOM      7  C   UNL A   1      28.068  27.754  23.428  1.00  0.00     0.356 C 
ATOM      8  O   UNL A   1      26.927  27.722  23.844  1.00  0.00    -0.244 OA
BRANCH   7   9
ATOM      9  C   UNL A   1      28.594  28.864  22.680  1.00  0.00     0.152 A 
ATOM     10  C   UNL A   1      29.825  29.482  22.456  1.00  0.00     0.059 A 
ATOM     11  C   UNL A   1      29.517  30.354  21.379  1.00  0.00     0.145 A 
ATOM     12  N   UNL A   1      28.220  30.429  21.088  1.00  0.00    -0.183 NA
ATOM     13  N   UNL A   1      27.678  29.576  21.949  1.00  0.00    -0.271 N 
ATOM     14  H   UNL A   1      26.706  29.464  22.051  1.00  0.00     0.190 HD
BRANCH  10  15
ATOM     15  C   UNL A   1      31.202  29.192  23.006  1.00  0.00     0.303 C 
BRANCH  15  16
ATOM     16  N   UNL A   1      31.952  28.070  22.387  1.00  0.00    -0.331 N 
ATOM     17  C   UNL A   1      33.068  25.345  21.940  1.00  0.00     0.008 C 
ATOM     18  C   UNL A   1      33.936  26.515  22.410  1.00  0.00     0.065 C 
ATOM     19  C   UNL A   1      31.872  25.899  21.166  1.00  0.00     0.065 C 
ATOM     20  C   UNL A   1      33.148  27.629  23.101  1.00  0.00     0.262 C 
ATOM     21  C   UNL A   1      31.101  26.980  21.922  1.00  0.00     0.262 C 
ATOM     22  H   UNL A   1      32.340  28.492  21.543  1.00  0.00     0.348 HD
BRANCH  17  23
ATOM     23  C   UNL A   1      32.742  24.251  22.985  1.00  0.00     0.081 C 
BRANCH  23  24
ATOM     24  C   UNL A   1      33.833  23.515  23.739  1.00  0.00     0.133 A 
ATOM     25  N   UNL A   1      33.704  22.914  24.941  1.00  0.00    -0.279 N 
ATOM     26  C   UNL A   1      34.941  22.342  25.202  1.00  0.00     0.345 A 
ATOM     27  N   UNL A   1      35.003  23.344  23.178  1.00  0.00    -0.155 NA
ATOM     28  N   UNL A   1      35.716  22.607  24.083  1.00  0.00    -0.216 N 
ATOM     29  O   UNL A   1      35.260  21.710  26.198  1.00  0.00    -0.246 OA
ATOM     30  C   UNL A   1      37.062  22.156  23.856  1.00  0.00     0.179 C 
BRANCH  25  31
ATOM     31  C   UNL A   1      32.648  22.709  25.924  1.00  0.00     0.125 C 
ATOM     32  C   UNL A   1      31.295  22.217  25.469  1.00  0.00     0.028 C 
ENDBRANCH  25  31
ENDBRANCH  23  24
ENDBRANCH  17  23
ENDBRANCH  15  16
ENDBRANCH  10  15
ENDBRANCH   7   9
ENDBRANCH   6   7
ENDBRANCH   5   6
ENDBRANCH   4   5
ENDBRANCH   3   4
ENDBRANCH   2   3
ENDBRANCH   1   2
BRANCH   1  33
ATOM     33  O   UNL A   1      33.577  28.719  26.442  1.00  0.00    -0.377 OA
BRANCH  33  34
ATOM     34  C   UNL A   1      33.910  29.568  27.536  1.00  0.00     0.188 C 
BRANCH  34  35
ATOM     35  C   UNL A   1      33.363  31.022  27.585  1.00  0.00     0.188 C 
BRANCH  35  36
ATOM     36  O   UNL A   1      34.363  32.009  27.787  1.00  0.00    -0.376 OA
BRANCH  36  37
ATOM     37  C   UNL A   1      34.213  33.036  28.752  1.00  0.00     0.202 C 
BRANCH  37  38
ATOM     38  C   UNL A   1      34.727  32.782  30.167  1.00  0.00     0.261 C 
BRANCH  38  39
ATOM     39  O   UNL A   1      34.957  33.959  30.910  1.00  0.00    -0.460 OA
BRANCH  39  40
ATOM     40  C   UNL A   1      34.459  33.903  32.163  1.00  0.00     0.338 C 
ATOM     41  O   UNL A   1      33.296  34.055  32.492  1.00  0.00    -0.246 OA
BRANCH  40  42
ATOM     42  C   UNL A   1      35.569  33.666  33.088  1.00  0.00     0.060 A 
ATOM     43  C   UNL A   1      36.487  34.709  33.179  1.00  0.00     0.016 A 
ATOM     44  C   UNL A   1      35.884  32.336  33.401  1.00  0.00     0.016 A 
ATOM     45  C   UNL A   1      37.809  34.357  33.163  1.00  0.00     0.010 A 
ATOM     46  C   UNL A   1      37.201  31.987  33.379  1.00  0.00     0.010 A 
ATOM     47  C   UNL A   1      38.119  32.995  33.109  1.00  0.00    -0.014 A 
BRANCH  47  48
ATOM     48  C   UNL A   1      39.467  32.626  32.772  1.00  0.00     0.031 A 
ATOM     49  C   UNL A   1      40.334  32.657  33.958  1.00  0.00     0.074 A 
ATOM     50  C   UNL A   1      39.801  32.222  31.534  1.00  0.00     0.049 A 
ATOM     51  N   UNL A   1      41.205  33.557  34.264  1.00  0.00    -0.248 NA
ATOM     52  C   UNL A   1      39.992  31.745  35.063  1.00  0.00     0.031 C 
ATOM     53  C   UNL A   1      38.936  31.945  30.384  1.00  0.00     0.029 A 
ATOM     54  N   UNL A   1      41.025  31.875  31.074  1.00  0.00    -0.354 N 
ATOM     55  C   UNL A   1      41.715  33.147  35.486  1.00  0.00     0.074 A 
ATOM     56  C   UNL A   1      40.745  32.244  36.040  1.00  0.00     0.031 C 
ATOM     57  C   UNL A   1      39.636  31.245  29.458  1.00  0.00     0.029 A 
ATOM     58  C   UNL A   1      41.019  31.138  29.895  1.00  0.00     0.049 A 
ATOM     59  H   UNL A   1      41.856  32.125  31.538  1.00  0.00     0.167 HD
ATOM     60  C   UNL A   1      43.030  33.313  35.779  1.00  0.00     0.034 A 
ATOM     61  C   UNL A   1      42.067  30.417  29.406  1.00  0.00     0.034 A 
ATOM     62  C   UNL A   1      43.633  34.304  34.914  1.00  0.00     0.049 A 
ATOM     63  C   UNL A   1      43.292  30.979  30.045  1.00  0.00     0.074 A 
ATOM     64  C   UNL A   1      43.377  35.639  34.656  1.00  0.00     0.029 A 
ATOM     65  N   UNL A   1      44.383  33.861  33.845  1.00  0.00    -0.354 N 
ATOM     66  N   UNL A   1      43.704  32.202  29.831  1.00  0.00    -0.248 NA
ATOM     67  C   UNL A   1      43.733  30.400  31.309  1.00  0.00     0.031 C 
ATOM     68  C   UNL A   1      43.545  35.782  33.246  1.00  0.00     0.029 A 
ATOM     69  C   UNL A   1      43.978  34.558  32.730  1.00  0.00     0.049 A 
ATOM     70  H   UNL A   1      45.084  33.170  33.874  1.00  0.00     0.167 HD
ATOM     71  C   UNL A   1      44.077  32.690  31.077  1.00  0.00     0.074 A 
ATOM     72  C   UNL A   1      44.147  31.508  31.937  1.00  0.00     0.031 C 
ATOM     73  C   UNL A   1      43.993  34.022  31.378  1.00  0.00     0.034 A 
BRANCH  60  74
ATOM     74  C   UNL A   1      43.834  32.304  36.562  1.00  0.00     0.023 A 
ATOM     75  C   UNL A   1      44.144  31.100  35.914  1.00  0.00     0.031 A 
ATOM     76  C   UNL A   1      44.077  32.333  37.959  1.00  0.00     0.131 A 
ATOM     77  C   UNL A   1      44.578  29.982  36.647  1.00  0.00     0.055 A 
ATOM     78  C   UNL A   1      44.577  31.243  38.670  1.00  0.00     0.041 A 
ATOM     79  F   UNL A   1      43.757  33.369  38.741  1.00  0.00    -0.206 F 
ATOM     80  C   UNL A   1      44.801  30.046  38.020  1.00  0.00     0.022 A 
BRANCH  77  81
ATOM     81  S   UNL A   1      44.671  28.391  35.796  1.00  0.00     0.124 S 
ATOM     82  O   UNL A   1      46.108  28.250  35.589  1.00  0.00    -0.237 OA
ATOM     83  O   UNL A   1      44.070  27.494  36.778  1.00  0.00    -0.237 OA
ATOM     84  O   UNL A   1      43.883  28.611  34.586  1.00  0.00    -0.744 OA
ENDBRANCH  77  81
ENDBRANCH  60  74
BRANCH  61  85
ATOM     85  C   UNL A   1      41.983  29.044  28.819  1.00  0.00     0.023 A 
ATOM     86  C   UNL A   1      42.304  28.749  27.476  1.00  0.00     0.031 A 
ATOM     87  C   UNL A   1      41.787  27.933  29.674  1.00  0.00     0.131 A 
ATOM     88  C   UNL A   1      42.402  27.400  27.042  1.00  0.00     0.055 A 
ATOM     89  C   UNL A   1      41.882  26.608  29.242  1.00  0.00     0.041 A 
ATOM     90  F   UNL A   1      41.574  28.094  30.989  1.00  0.00    -0.206 F 
ATOM     91  C   UNL A   1      42.197  26.336  27.923  1.00  0.00     0.022 A 
BRANCH  88  92
ATOM     92  S   UNL A   1      42.869  26.999  25.324  1.00  0.00     0.124 S 
ATOM     93  O   UNL A   1      42.498  28.214  24.608  1.00  0.00    -0.237 OA
ATOM     94  O   UNL A   1      44.297  26.725  25.443  1.00  0.00    -0.237 OA
ATOM     95  O   UNL A   1      42.048  25.828  25.010  1.00  0.00    -0.744 OA
ENDBRANCH  88  92
ENDBRANCH  61  85
BRANCH  73  96
ATOM     96  C   UNL A   1      43.691  34.996  30.247  1.00  0.00     0.023 A 
ATOM     97  C   UNL A   1      44.668  35.643  29.451  1.00  0.00     0.031 A 
ATOM     98  C   UNL A   1      42.345  35.169  29.885  1.00  0.00     0.131 A 
ATOM     99  C   UNL A   1      44.274  36.436  28.351  1.00  0.00     0.055 A 
ATOM    100  C   UNL A   1      41.962  35.934  28.783  1.00  0.00     0.041 A 
ATOM    101  F   UNL A   1      41.371  34.557  30.580  1.00  0.00    -0.206 F 
ATOM    102  C   UNL A   1      42.926  36.576  28.015  1.00  0.00     0.022 A 
BRANCH  99 103
ATOM    103  S   UNL A   1      45.515  37.312  27.340  1.00  0.00     0.124 S 
ATOM    104  O   UNL A   1      46.154  36.242  26.584  1.00  0.00    -0.237 OA
ATOM    105  O   UNL A   1      44.694  38.240  26.566  1.00  0.00    -0.237 OA
ATOM    106  O   UNL A   1      46.376  37.953  28.336  1.00  0.00    -0.744 OA
ENDBRANCH  99 103
ENDBRANCH  73  96
ENDBRANCH  47  48
ENDBRANCH  40  42
ENDBRANCH  39  40
ENDBRANCH  38  39
ENDBRANCH  37  38
ENDBRANCH  36  37
ENDBRANCH  35  36
ENDBRANCH  34  35
ENDBRANCH  33  34
ENDBRANCH   1  33
TORSDOF 28
ENDMDL
