MODEL 1
REMARK VINA RESULT:      -8.4      0.000      0.000
REMARK SMILES O=C(OCCOCCOCCOCCOC(=O)c1ccc(N2C(=O)C[C@H](Nc3ccccc3[N+](=O)[O-])C2=O)cc1)c1ccc(-c2c3nc(c(-c4cc(S(=O)(=O)[O-])ccc4F)c4ccc([nH]4)c(-c4cc(S(=O)(=O)[O-])ccc4F)c4nc(c(-c5cc(S(=O)(=O)[O-])ccc5F)c5ccc2[nH]5)C=C4)C=C3)cc1
REMARK SMILES IDX 10 1 9 2 8 3 7 4 6 5 5 6 4 7 3 8 2 9 1 10 41 11 42 12 103 13
REMARK SMILES IDX 43 14 102 15 44 16 45 17 46 18 96 19 47 20 101 21 95 22
REMARK SMILES IDX 97 23 48 24 100 25 94 26 93 27 49 29 81 30 61 31 80 32 62 33
REMARK SMILES IDX 65 34 79 35 98 36 63 37 64 38 78 40 99 41 66 42 50 43 51 44
REMARK SMILES IDX 59 45 52 46 58 47 60 48 57 49 53 50 54 51 55 52 56 53 82 54
REMARK SMILES IDX 83 55 91 56 84 57 90 58 92 59 89 60 85 61 86 62 87 63 88 64
REMARK SMILES IDX 67 65 68 66 76 67 69 68 75 69 77 70 74 71 70 72 71 73 72 74
REMARK SMILES IDX 73 75 11 76 12 77 13 78 14 79 15 80 16 81 17 82 18 83 19 84
REMARK SMILES IDX 40 85 20 86 39 87 21 88 22 89 23 90 37 91 24 92 25 93 26 94
REMARK SMILES IDX 38 95 27 96 28 98 29 99 33 100 30 101 32 102 31 103 34 104
REMARK SMILES IDX 35 105 36 106
REMARK H PARENT 97 28 65 39 27 97
REMARK Flexibility Score: inf
ROOT
ATOM      1  C   UNL A   1      39.898  28.470  28.490  1.00  0.00     0.188 C 
ENDROOT
BRANCH   1   2
ATOM      2  O   UNL A   1      38.575  28.963  28.679  1.00  0.00    -0.377 OA
BRANCH   2   3
ATOM      3  C   UNL A   1      37.914  28.549  29.872  1.00  0.00     0.188 C 
BRANCH   3   4
ATOM      4  C   UNL A   1      36.710  29.390  30.304  1.00  0.00     0.188 C 
BRANCH   4   5
ATOM      5  O   UNL A   1      36.574  29.465  31.721  1.00  0.00    -0.376 OA
BRANCH   5   6
ATOM      6  C   UNL A   1      37.723  29.198  32.522  1.00  0.00     0.202 C 
BRANCH   6   7
ATOM      7  C   UNL A   1      38.227  30.349  33.391  1.00  0.00     0.261 C 
BRANCH   7   8
ATOM      8  O   UNL A   1      38.461  29.992  34.759  1.00  0.00    -0.460 OA
BRANCH   8   9
ATOM      9  C   UNL A   1      39.535  30.255  35.537  1.00  0.00     0.338 C 
ATOM     10  O   UNL A   1      39.962  29.342  36.247  1.00  0.00    -0.246 OA
BRANCH   9  11
ATOM     11  C   UNL A   1      40.224  31.580  35.637  1.00  0.00     0.060 A 
ATOM     12  C   UNL A   1      39.659  32.827  35.360  1.00  0.00     0.016 A 
ATOM     13  C   UNL A   1      41.531  31.558  36.149  1.00  0.00     0.016 A 
ATOM     14  C   UNL A   1      40.351  34.011  35.551  1.00  0.00     0.010 A 
ATOM     15  C   UNL A   1      42.249  32.739  36.334  1.00  0.00     0.010 A 
ATOM     16  C   UNL A   1      41.660  33.965  36.003  1.00  0.00    -0.014 A 
BRANCH  16  17
ATOM     17  C   UNL A   1      42.473  35.175  35.844  1.00  0.00     0.031 A 
ATOM     18  C   UNL A   1      42.683  35.999  37.072  1.00  0.00     0.074 A 
ATOM     19  C   UNL A   1      43.082  35.442  34.680  1.00  0.00     0.049 A 
ATOM     20  N   UNL A   1      43.167  37.200  37.197  1.00  0.00    -0.248 NA
ATOM     21  C   UNL A   1      42.276  35.371  38.341  1.00  0.00     0.031 C 
ATOM     22  C   UNL A   1      43.074  34.571  33.504  1.00  0.00     0.029 A 
ATOM     23  N   UNL A   1      43.826  36.523  34.297  1.00  0.00    -0.354 N 
ATOM     24  C   UNL A   1      43.067  37.496  38.552  1.00  0.00     0.074 A 
ATOM     25  C   UNL A   1      42.474  36.353  39.202  1.00  0.00     0.031 C 
ATOM     26  C   UNL A   1      43.760  35.168  32.516  1.00  0.00     0.029 A 
ATOM     27  C   UNL A   1      44.165  36.496  32.966  1.00  0.00     0.049 A 
ATOM     28  H   UNL A   1      44.090  37.244  34.911  1.00  0.00     0.167 HD
ATOM     29  C   UNL A   1      43.423  38.646  39.171  1.00  0.00     0.034 A 
ATOM     30  C   UNL A   1      44.666  37.479  32.195  1.00  0.00     0.034 A 
ATOM     31  C   UNL A   1      43.988  39.751  38.441  1.00  0.00     0.049 A 
ATOM     32  C   UNL A   1      44.935  38.804  32.862  1.00  0.00     0.074 A 
ATOM     33  C   UNL A   1      44.338  41.007  38.892  1.00  0.00     0.029 A 
ATOM     34  N   UNL A   1      44.271  39.720  37.075  1.00  0.00    -0.354 N 
ATOM     35  N   UNL A   1      44.744  39.145  34.120  1.00  0.00    -0.248 NA
ATOM     36  C   UNL A   1      45.474  39.877  32.022  1.00  0.00     0.031 C 
ATOM     37  C   UNL A   1      44.750  41.759  37.785  1.00  0.00     0.029 A 
ATOM     38  C   UNL A   1      44.759  40.943  36.660  1.00  0.00     0.049 A 
ATOM     39  H   UNL A   1      44.139  38.938  36.491  1.00  0.00     0.167 HD
ATOM     40  C   UNL A   1      45.171  40.463  34.231  1.00  0.00     0.074 A 
ATOM     41  C   UNL A   1      45.623  40.854  32.907  1.00  0.00     0.031 C 
ATOM     42  C   UNL A   1      45.202  41.273  35.321  1.00  0.00     0.034 A 
BRANCH  29  43
ATOM     43  C   UNL A   1      43.069  38.768  40.634  1.00  0.00     0.023 A 
ATOM     44  C   UNL A   1      41.839  39.300  41.066  1.00  0.00     0.031 A 
ATOM     45  C   UNL A   1      44.043  38.498  41.614  1.00  0.00     0.131 A 
ATOM     46  C   UNL A   1      41.668  39.667  42.411  1.00  0.00     0.055 A 
ATOM     47  C   UNL A   1      43.824  38.762  42.966  1.00  0.00     0.041 A 
ATOM     48  F   UNL A   1      45.249  38.023  41.267  1.00  0.00    -0.206 F 
ATOM     49  C   UNL A   1      42.641  39.376  43.370  1.00  0.00     0.022 A 
BRANCH  46  50
ATOM     50  S   UNL A   1      40.264  40.735  42.845  1.00  0.00     0.124 S 
ATOM     51  O   UNL A   1      39.869  41.248  41.535  1.00  0.00    -0.237 OA
ATOM     52  O   UNL A   1      39.336  39.800  43.469  1.00  0.00    -0.237 OA
ATOM     53  O   UNL A   1      40.851  41.727  43.743  1.00  0.00    -0.744 OA
ENDBRANCH  46  50
ENDBRANCH  29  43
BRANCH  30  54
ATOM     54  C   UNL A   1      44.835  37.264  30.729  1.00  0.00     0.023 A 
ATOM     55  C   UNL A   1      43.747  37.312  29.846  1.00  0.00     0.031 A 
ATOM     56  C   UNL A   1      46.114  37.029  30.183  1.00  0.00     0.131 A 
ATOM     57  C   UNL A   1      43.953  37.111  28.471  1.00  0.00     0.055 A 
ATOM     58  C   UNL A   1      46.320  36.881  28.811  1.00  0.00     0.041 A 
ATOM     59  F   UNL A   1      47.193  36.969  30.980  1.00  0.00    -0.206 F 
ATOM     60  C   UNL A   1      45.233  36.915  27.945  1.00  0.00     0.022 A 
BRANCH  57  61
ATOM     61  S   UNL A   1      42.510  37.054  27.372  1.00  0.00     0.124 S 
ATOM     62  O   UNL A   1      43.035  36.312  26.232  1.00  0.00    -0.237 OA
ATOM     63  O   UNL A   1      41.527  36.359  28.195  1.00  0.00    -0.237 OA
ATOM     64  O   UNL A   1      42.221  38.465  27.117  1.00  0.00    -0.744 OA
ENDBRANCH  57  61
ENDBRANCH  30  54
BRANCH  42  65
ATOM     65  C   UNL A   1      45.821  42.634  35.141  1.00  0.00     0.023 A 
ATOM     66  C   UNL A   1      47.166  42.887  35.447  1.00  0.00     0.031 A 
ATOM     67  C   UNL A   1      45.052  43.670  34.583  1.00  0.00     0.131 A 
ATOM     68  C   UNL A   1      47.697  44.163  35.215  1.00  0.00     0.055 A 
ATOM     69  C   UNL A   1      45.602  44.916  34.294  1.00  0.00     0.041 A 
ATOM     70  F   UNL A   1      43.758  43.472  34.276  1.00  0.00    -0.206 F 
ATOM     71  C   UNL A   1      46.931  45.169  34.617  1.00  0.00     0.022 A 
BRANCH  68  72
ATOM     72  S   UNL A   1      49.390  44.514  35.758  1.00  0.00     0.124 S 
ATOM     73  O   UNL A   1      49.889  43.178  36.069  1.00  0.00    -0.237 OA
ATOM     74  O   UNL A   1      49.971  45.154  34.582  1.00  0.00    -0.237 OA
ATOM     75  O   UNL A   1      49.204  45.391  36.913  1.00  0.00    -0.744 OA
ENDBRANCH  68  72
ENDBRANCH  42  65
ENDBRANCH  16  17
ENDBRANCH   9  11
ENDBRANCH   8   9
ENDBRANCH   7   8
ENDBRANCH   6   7
ENDBRANCH   5   6
ENDBRANCH   4   5
ENDBRANCH   3   4
ENDBRANCH   2   3
ENDBRANCH   1   2
BRANCH   1  76
ATOM     76  C   UNL A   1      40.109  27.212  27.608  1.00  0.00     0.188 C 
BRANCH  76  77
ATOM     77  O   UNL A   1      40.307  26.021  28.347  1.00  0.00    -0.376 OA
BRANCH  77  78
ATOM     78  C   UNL A   1      39.323  25.006  28.208  1.00  0.00     0.202 C 
BRANCH  78  79
ATOM     79  C   UNL A   1      39.592  23.822  27.257  1.00  0.00     0.261 C 
BRANCH  79  80
ATOM     80  O   UNL A   1      38.846  23.782  26.026  1.00  0.00    -0.460 OA
BRANCH  80  81
ATOM     81  C   UNL A   1      38.208  22.640  25.698  1.00  0.00     0.338 C 
ATOM     82  O   UNL A   1      38.627  21.500  25.827  1.00  0.00    -0.246 OA
BRANCH  81  83
ATOM     83  C   UNL A   1      36.808  22.979  25.347  1.00  0.00     0.060 A 
ATOM     84  C   UNL A   1      36.141  22.207  24.381  1.00  0.00     0.018 A 
ATOM     85  C   UNL A   1      36.131  24.006  26.009  1.00  0.00     0.018 A 
ATOM     86  C   UNL A   1      34.803  22.466  24.069  1.00  0.00     0.028 A 
ATOM     87  C   UNL A   1      34.824  24.323  25.630  1.00  0.00     0.028 A 
ATOM     88  C   UNL A   1      34.165  23.565  24.649  1.00  0.00     0.052 A 
BRANCH  88  89
ATOM     89  N   UNL A   1      32.975  24.046  24.080  1.00  0.00    -0.249 N 
ATOM     90  C   UNL A   1      32.983  24.767  22.917  1.00  0.00     0.236 C 
ATOM     91  C   UNL A   1      31.719  23.866  24.596  1.00  0.00     0.256 C 
ATOM     92  O   UNL A   1      33.947  25.069  22.228  1.00  0.00    -0.274 OA
ATOM     93  C   UNL A   1      31.585  25.165  22.574  1.00  0.00     0.136 C 
ATOM     94  C   UNL A   1      30.718  24.443  23.595  1.00  0.00     0.179 C 
ATOM     95  O   UNL A   1      31.423  23.411  25.692  1.00  0.00    -0.272 OA
BRANCH  94  96
ATOM     96  N   UNL A   1      29.806  25.398  24.231  1.00  0.00    -0.368 N 
ATOM     97  H   UNL A   1      29.043  25.030  24.730  1.00  0.00     0.161 HD
BRANCH  96  98
ATOM     98  C   UNL A   1      29.933  26.775  24.183  1.00  0.00     0.114 A 
ATOM     99  C   UNL A   1      29.150  27.431  23.212  1.00  0.00     0.033 A 
ATOM    100  C   UNL A   1      30.869  27.575  24.863  1.00  0.00     0.292 A 
ATOM    101  C   UNL A   1      29.273  28.801  22.950  1.00  0.00     0.003 A 
ATOM    102  C   UNL A   1      31.006  28.953  24.603  1.00  0.00     0.088 A 
ATOM    103  C   UNL A   1      30.205  29.564  23.643  1.00  0.00     0.007 A 
BRANCH 100 104
ATOM    104  N   UNL A   1      31.796  27.027  25.837  1.00  0.00     0.064 N 
ATOM    105  O   UNL A   1      33.004  27.213  25.625  1.00  0.00    -0.258 OA
ATOM    106  O   UNL A   1      31.316  26.521  26.861  1.00  0.00    -0.258 OA
ENDBRANCH 100 104
ENDBRANCH  96  98
ENDBRANCH  94  96
ENDBRANCH  88  89
ENDBRANCH  81  83
ENDBRANCH  80  81
ENDBRANCH  79  80
ENDBRANCH  78  79
ENDBRANCH  77  78
ENDBRANCH  76  77
ENDBRANCH   1  76
TORSDOF 27
ENDMDL
MODEL 2
REMARK VINA RESULT:      -8.2      6.235     11.115
REMARK SMILES O=C(OCCOCCOCCOCCOC(=O)c1ccc(N2C(=O)C[C@H](Nc3ccccc3[N+](=O)[O-])C2=O)cc1)c1ccc(-c2c3nc(c(-c4cc(S(=O)(=O)[O-])ccc4F)c4ccc([nH]4)c(-c4cc(S(=O)(=O)[O-])ccc4F)c4nc(c(-c5cc(S(=O)(=O)[O-])ccc5F)c5ccc2[nH]5)C=C4)C=C3)cc1
REMARK SMILES IDX 10 1 9 2 8 3 7 4 6 5 5 6 4 7 3 8 2 9 1 10 41 11 42 12 103 13
REMARK SMILES IDX 43 14 102 15 44 16 45 17 46 18 96 19 47 20 101 21 95 22
REMARK SMILES IDX 97 23 48 24 100 25 94 26 93 27 49 29 81 30 61 31 80 32 62 33
REMARK SMILES IDX 65 34 79 35 98 36 63 37 64 38 78 40 99 41 66 42 50 43 51 44
REMARK SMILES IDX 59 45 52 46 58 47 60 48 57 49 53 50 54 51 55 52 56 53 82 54
REMARK SMILES IDX 83 55 91 56 84 57 90 58 92 59 89 60 85 61 86 62 87 63 88 64
REMARK SMILES IDX 67 65 68 66 76 67 69 68 75 69 77 70 74 71 70 72 71 73 72 74
REMARK SMILES IDX 73 75 11 76 12 77 13 78 14 79 15 80 16 81 17 82 18 83 19 84
REMARK SMILES IDX 40 85 20 86 39 87 21 88 22 89 23 90 37 91 24 92 25 93 26 94
REMARK SMILES IDX 38 95 27 96 28 98 29 99 33 100 30 101 32 102 31 103 34 104
REMARK SMILES IDX 35 105 36 106
REMARK H PARENT 97 28 65 39 27 97
REMARK Flexibility Score: inf
ROOT
ATOM      1  C   UNL A   1      48.547  25.403  27.915  1.00  0.00     0.188 C 
ENDROOT
BRANCH   1   2
ATOM      2  O   UNL A   1      48.928  26.684  27.421  1.00  0.00    -0.377 OA
BRANCH   2   3
ATOM      3  C   UNL A   1      50.042  26.709  26.532  1.00  0.00     0.188 C 
BRANCH   3   4
ATOM      4  C   UNL A   1      50.364  28.061  25.890  1.00  0.00     0.188 C 
BRANCH   4   5
ATOM      5  O   UNL A   1      50.215  28.044  24.473  1.00  0.00    -0.376 OA
BRANCH   5   6
ATOM      6  C   UNL A   1      49.404  27.025  23.893  1.00  0.00     0.202 C 
BRANCH   6   7
ATOM      7  C   UNL A   1      48.426  27.472  22.808  1.00  0.00     0.261 C 
BRANCH   7   8
ATOM      8  O   UNL A   1      47.063  27.546  23.242  1.00  0.00    -0.460 OA
BRANCH   8   9
ATOM      9  C   UNL A   1      46.523  27.176  24.427  1.00  0.00     0.338 C 
ATOM     10  O   UNL A   1      46.237  25.986  24.576  1.00  0.00    -0.246 OA
BRANCH   9  11
ATOM     11  C   UNL A   1      46.208  28.104  25.557  1.00  0.00     0.060 A 
ATOM     12  C   UNL A   1      47.068  29.057  26.107  1.00  0.00     0.016 A 
ATOM     13  C   UNL A   1      44.889  28.066  26.036  1.00  0.00     0.016 A 
ATOM     14  C   UNL A   1      46.666  29.927  27.107  1.00  0.00     0.010 A 
ATOM     15  C   UNL A   1      44.470  28.924  27.053  1.00  0.00     0.010 A 
ATOM     16  C   UNL A   1      45.376  29.836  27.605  1.00  0.00    -0.014 A 
BRANCH  16  17
ATOM     17  C   UNL A   1      45.099  30.496  28.885  1.00  0.00     0.031 A 
ATOM     18  C   UNL A   1      45.219  29.648  30.109  1.00  0.00     0.074 A 
ATOM     19  C   UNL A   1      44.868  31.816  28.939  1.00  0.00     0.049 A 
ATOM     20  N   UNL A   1      44.843  29.888  31.330  1.00  0.00    -0.248 NA
ATOM     21  C   UNL A   1      45.853  28.332  29.914  1.00  0.00     0.031 C 
ATOM     22  C   UNL A   1      44.933  32.731  27.799  1.00  0.00     0.029 A 
ATOM     23  N   UNL A   1      44.535  32.614  29.997  1.00  0.00    -0.354 N 
ATOM     24  C   UNL A   1      45.137  28.729  32.039  1.00  0.00     0.074 A 
ATOM     25  C   UNL A   1      45.719  27.790  31.111  1.00  0.00     0.031 C 
ATOM     26  C   UNL A   1      44.619  33.968  28.216  1.00  0.00     0.029 A 
ATOM     27  C   UNL A   1      44.241  33.903  29.624  1.00  0.00     0.049 A 
ATOM     28  H   UNL A   1      44.508  32.297  30.928  1.00  0.00     0.167 HD
ATOM     29  C   UNL A   1      44.907  28.486  33.351  1.00  0.00     0.034 A 
ATOM     30  C   UNL A   1      43.650  34.881  30.335  1.00  0.00     0.034 A 
ATOM     31  C   UNL A   1      44.298  29.473  34.204  1.00  0.00     0.049 A 
ATOM     32  C   UNL A   1      43.271  34.561  31.759  1.00  0.00     0.074 A 
ATOM     33  C   UNL A   1      43.929  29.372  35.530  1.00  0.00     0.029 A 
ATOM     34  N   UNL A   1      43.955  30.759  33.787  1.00  0.00    -0.354 N 
ATOM     35  N   UNL A   1      43.437  33.434  32.421  1.00  0.00    -0.248 NA
ATOM     36  C   UNL A   1      42.621  35.622  32.532  1.00  0.00     0.031 C 
ATOM     37  C   UNL A   1      43.287  30.564  35.886  1.00  0.00     0.029 A 
ATOM     38  C   UNL A   1      43.349  31.450  34.818  1.00  0.00     0.049 A 
ATOM     39  H   UNL A   1      44.120  31.122  32.886  1.00  0.00     0.167 HD
ATOM     40  C   UNL A   1      42.943  33.661  33.700  1.00  0.00     0.074 A 
ATOM     41  C   UNL A   1      42.466  35.033  33.710  1.00  0.00     0.031 C 
ATOM     42  C   UNL A   1      42.898  32.826  34.770  1.00  0.00     0.034 A 
BRANCH  29  43
ATOM     43  C   UNL A   1      45.185  27.084  33.841  1.00  0.00     0.023 A 
ATOM     44  C   UNL A   1      46.456  26.689  34.298  1.00  0.00     0.031 A 
ATOM     45  C   UNL A   1      44.204  26.086  33.696  1.00  0.00     0.131 A 
ATOM     46  C   UNL A   1      46.747  25.324  34.463  1.00  0.00     0.055 A 
ATOM     47  C   UNL A   1      44.469  24.744  33.970  1.00  0.00     0.041 A 
ATOM     48  F   UNL A   1      42.982  26.390  33.231  1.00  0.00    -0.206 F 
ATOM     49  C   UNL A   1      45.755  24.351  34.330  1.00  0.00     0.022 A 
BRANCH  46  50
ATOM     50  S   UNL A   1      48.486  24.824  34.624  1.00  0.00     0.124 S 
ATOM     51  O   UNL A   1      48.698  24.951  36.064  1.00  0.00    -0.237 OA
ATOM     52  O   UNL A   1      48.475  23.464  34.099  1.00  0.00    -0.237 OA
ATOM     53  O   UNL A   1      49.202  25.803  33.808  1.00  0.00    -0.744 OA
ENDBRANCH  46  50
ENDBRANCH  29  43
BRANCH  30  54
ATOM     54  C   UNL A   1      43.305  36.176  29.681  1.00  0.00     0.023 A 
ATOM     55  C   UNL A   1      44.116  37.311  29.820  1.00  0.00     0.031 A 
ATOM     56  C   UNL A   1      42.153  36.286  28.875  1.00  0.00     0.131 A 
ATOM     57  C   UNL A   1      43.757  38.509  29.180  1.00  0.00     0.055 A 
ATOM     58  C   UNL A   1      41.829  37.464  28.200  1.00  0.00     0.041 A 
ATOM     59  F   UNL A   1      41.337  35.233  28.707  1.00  0.00    -0.206 F 
ATOM     60  C   UNL A   1      42.631  38.589  28.356  1.00  0.00     0.022 A 
BRANCH  57  61
ATOM     61  S   UNL A   1      44.758  39.992  29.480  1.00  0.00     0.124 S 
ATOM     62  O   UNL A   1      45.159  40.359  28.127  1.00  0.00    -0.237 OA
ATOM     63  O   UNL A   1      43.801  40.880  30.130  1.00  0.00    -0.237 OA
ATOM     64  O   UNL A   1      45.837  39.507  30.339  1.00  0.00    -0.744 OA
ENDBRANCH  57  61
ENDBRANCH  30  54
BRANCH  42  65
ATOM     65  C   UNL A   1      42.389  33.404  36.064  1.00  0.00     0.023 A 
ATOM     66  C   UNL A   1      41.050  33.279  36.461  1.00  0.00     0.031 A 
ATOM     67  C   UNL A   1      43.295  34.028  36.940  1.00  0.00     0.131 A 
ATOM     68  C   UNL A   1      40.647  33.799  37.699  1.00  0.00     0.055 A 
ATOM     69  C   UNL A   1      42.902  34.484  38.196  1.00  0.00     0.041 A 
ATOM     70  F   UNL A   1      44.587  34.171  36.600  1.00  0.00    -0.206 F 
ATOM     71  C   UNL A   1      41.569  34.376  38.578  1.00  0.00     0.022 A 
BRANCH  68  72
ATOM     72  S   UNL A   1      38.885  33.765  38.125  1.00  0.00     0.124 S 
ATOM     73  O   UNL A   1      38.618  32.331  38.183  1.00  0.00    -0.237 OA
ATOM     74  O   UNL A   1      38.858  34.470  39.403  1.00  0.00    -0.237 OA
ATOM     75  O   UNL A   1      38.251  34.470  37.014  1.00  0.00    -0.744 OA
ENDBRANCH  68  72
ENDBRANCH  42  65
ENDBRANCH  16  17
ENDBRANCH   9  11
ENDBRANCH   8   9
ENDBRANCH   7   8
ENDBRANCH   6   7
ENDBRANCH   5   6
ENDBRANCH   4   5
ENDBRANCH   3   4
ENDBRANCH   2   3
ENDBRANCH   1   2
BRANCH   1  76
ATOM     76  C   UNL A   1      47.625  25.325  29.160  1.00  0.00     0.188 C 
BRANCH  76  77
ATOM     77  O   UNL A   1      46.327  24.833  28.882  1.00  0.00    -0.376 OA
BRANCH  77  78
ATOM     78  C   UNL A   1      46.046  24.487  27.533  1.00  0.00     0.202 C 
BRANCH  78  79
ATOM     79  C   UNL A   1      44.720  23.772  27.200  1.00  0.00     0.261 C 
BRANCH  79  80
ATOM     80  O   UNL A   1      43.784  24.474  26.361  1.00  0.00    -0.460 OA
BRANCH  80  81
ATOM     81  C   UNL A   1      42.473  24.181  26.476  1.00  0.00     0.338 C 
ATOM     82  O   UNL A   1      41.920  23.140  26.155  1.00  0.00    -0.246 OA
BRANCH  81  83
ATOM     83  C   UNL A   1      41.828  25.257  27.266  1.00  0.00     0.060 A 
ATOM     84  C   UNL A   1      42.485  25.756  28.404  1.00  0.00     0.018 A 
ATOM     85  C   UNL A   1      40.618  25.821  26.856  1.00  0.00     0.018 A 
ATOM     86  C   UNL A   1      41.929  26.809  29.137  1.00  0.00     0.028 A 
ATOM     87  C   UNL A   1      40.019  26.810  27.642  1.00  0.00     0.028 A 
ATOM     88  C   UNL A   1      40.665  27.292  28.790  1.00  0.00     0.052 A 
BRANCH  88  89
ATOM     89  N   UNL A   1      39.952  28.071  29.716  1.00  0.00    -0.249 N 
ATOM     90  C   UNL A   1      38.966  27.526  30.494  1.00  0.00     0.236 C 
ATOM     91  C   UNL A   1      40.142  29.409  29.942  1.00  0.00     0.256 C 
ATOM     92  O   UNL A   1      38.589  26.363  30.523  1.00  0.00    -0.274 OA
ATOM     93  C   UNL A   1      38.370  28.592  31.353  1.00  0.00     0.136 C 
ATOM     94  C   UNL A   1      39.244  29.814  31.110  1.00  0.00     0.179 C 
ATOM     95  O   UNL A   1      40.828  30.183  29.289  1.00  0.00    -0.272 OA
BRANCH  94  96
ATOM     96  N   UNL A   1      38.400  30.964  30.771  1.00  0.00    -0.368 N 
ATOM     97  H   UNL A   1      37.747  30.847  30.044  1.00  0.00     0.161 HD
BRANCH  96  98
ATOM     98  C   UNL A   1      38.451  32.200  31.390  1.00  0.00     0.114 A 
ATOM     99  C   UNL A   1      39.283  33.159  30.779  1.00  0.00     0.033 A 
ATOM    100  C   UNL A   1      37.912  32.558  32.638  1.00  0.00     0.292 A 
ATOM    101  C   UNL A   1      39.545  34.406  31.361  1.00  0.00     0.003 A 
ATOM    102  C   UNL A   1      38.174  33.806  33.238  1.00  0.00     0.088 A 
ATOM    103  C   UNL A   1      38.993  34.729  32.596  1.00  0.00     0.007 A 
BRANCH 100 104
ATOM    104  N   UNL A   1      37.098  31.646  33.422  1.00  0.00     0.064 N 
ATOM    105  O   UNL A   1      37.378  31.540  34.625  1.00  0.00    -0.258 OA
ATOM    106  O   UNL A   1      36.116  31.135  32.865  1.00  0.00    -0.258 OA
ENDBRANCH 100 104
ENDBRANCH  96  98
ENDBRANCH  94  96
ENDBRANCH  88  89
ENDBRANCH  81  83
ENDBRANCH  80  81
ENDBRANCH  79  80
ENDBRANCH  78  79
ENDBRANCH  77  78
ENDBRANCH  76  77
ENDBRANCH   1  76
TORSDOF 27
ENDMDL
MODEL 3
REMARK VINA RESULT:      -8.2      5.751     11.624
REMARK SMILES O=C(OCCOCCOCCOCCOC(=O)c1ccc(N2C(=O)C[C@H](Nc3ccccc3[N+](=O)[O-])C2=O)cc1)c1ccc(-c2c3nc(c(-c4cc(S(=O)(=O)[O-])ccc4F)c4ccc([nH]4)c(-c4cc(S(=O)(=O)[O-])ccc4F)c4nc(c(-c5cc(S(=O)(=O)[O-])ccc5F)c5ccc2[nH]5)C=C4)C=C3)cc1
REMARK SMILES IDX 10 1 9 2 8 3 7 4 6 5 5 6 4 7 3 8 2 9 1 10 41 11 42 12 103 13
REMARK SMILES IDX 43 14 102 15 44 16 45 17 46 18 96 19 47 20 101 21 95 22
REMARK SMILES IDX 97 23 48 24 100 25 94 26 93 27 49 29 81 30 61 31 80 32 62 33
REMARK SMILES IDX 65 34 79 35 98 36 63 37 64 38 78 40 99 41 66 42 50 43 51 44
REMARK SMILES IDX 59 45 52 46 58 47 60 48 57 49 53 50 54 51 55 52 56 53 82 54
REMARK SMILES IDX 83 55 91 56 84 57 90 58 92 59 89 60 85 61 86 62 87 63 88 64
REMARK SMILES IDX 67 65 68 66 76 67 69 68 75 69 77 70 74 71 70 72 71 73 72 74
REMARK SMILES IDX 73 75 11 76 12 77 13 78 14 79 15 80 16 81 17 82 18 83 19 84
REMARK SMILES IDX 40 85 20 86 39 87 21 88 22 89 23 90 37 91 24 92 25 93 26 94
REMARK SMILES IDX 38 95 27 96 28 98 29 99 33 100 30 101 32 102 31 103 34 104
REMARK SMILES IDX 35 105 36 106
REMARK H PARENT 97 28 65 39 27 97
REMARK Flexibility Score: inf
ROOT
ATOM      1  C   UNL A   1      40.627  29.654  32.306  1.00  0.00     0.188 C 
ENDROOT
BRANCH   1   2
ATOM      2  O   UNL A   1      39.967  28.843  31.338  1.00  0.00    -0.377 OA
BRANCH   2   3
ATOM      3  C   UNL A   1      38.676  29.282  30.925  1.00  0.00     0.188 C 
BRANCH   3   4
ATOM      4  C   UNL A   1      38.450  29.386  29.414  1.00  0.00     0.188 C 
BRANCH   4   5
ATOM      5  O   UNL A   1      37.069  29.471  29.072  1.00  0.00    -0.376 OA
BRANCH   5   6
ATOM      6  C   UNL A   1      36.606  30.661  28.438  1.00  0.00     0.202 C 
BRANCH   6   7
ATOM      7  C   UNL A   1      35.655  31.538  29.251  1.00  0.00     0.261 C 
BRANCH   7   8
ATOM      8  O   UNL A   1      35.587  31.196  30.641  1.00  0.00    -0.460 OA
BRANCH   8   9
ATOM      9  C   UNL A   1      35.367  31.999  31.707  1.00  0.00     0.338 C 
ATOM     10  O   UNL A   1      34.210  32.376  31.908  1.00  0.00    -0.246 OA
BRANCH   9  11
ATOM     11  C   UNL A   1      36.423  32.502  32.640  1.00  0.00     0.060 A 
ATOM     12  C   UNL A   1      37.476  31.756  33.174  1.00  0.00     0.016 A 
ATOM     13  C   UNL A   1      36.393  33.877  32.920  1.00  0.00     0.016 A 
ATOM     14  C   UNL A   1      38.453  32.323  33.975  1.00  0.00     0.010 A 
ATOM     15  C   UNL A   1      37.360  34.464  33.737  1.00  0.00     0.010 A 
ATOM     16  C   UNL A   1      38.375  33.671  34.286  1.00  0.00    -0.014 A 
BRANCH  16  17
ATOM     17  C   UNL A   1      39.186  34.153  35.408  1.00  0.00     0.031 A 
ATOM     18  C   UNL A   1      38.736  33.752  36.774  1.00  0.00     0.074 A 
ATOM     19  C   UNL A   1      40.332  34.816  35.190  1.00  0.00     0.049 A 
ATOM     20  N   UNL A   1      39.117  34.185  37.939  1.00  0.00    -0.248 NA
ATOM     21  C   UNL A   1      37.693  32.711  36.823  1.00  0.00     0.031 C 
ATOM     22  C   UNL A   1      40.925  35.065  33.875  1.00  0.00     0.029 A 
ATOM     23  N   UNL A   1      41.200  35.397  36.070  1.00  0.00    -0.354 N 
ATOM     24  C   UNL A   1      38.319  33.515  38.859  1.00  0.00     0.074 A 
ATOM     25  C   UNL A   1      37.433  32.652  38.116  1.00  0.00     0.031 C 
ATOM     26  C   UNL A   1      42.051  35.778  34.035  1.00  0.00     0.029 A 
ATOM     27  C   UNL A   1      42.197  36.110  35.448  1.00  0.00     0.049 A 
ATOM     28  H   UNL A   1      41.119  35.314  37.047  1.00  0.00     0.167 HD
ATOM     29  C   UNL A   1      38.327  33.648  40.206  1.00  0.00     0.034 A 
ATOM     30  C   UNL A   1      43.064  36.996  35.972  1.00  0.00     0.034 A 
ATOM     31  C   UNL A   1      39.230  34.554  40.868  1.00  0.00     0.049 A 
ATOM     32  C   UNL A   1      42.979  37.242  37.457  1.00  0.00     0.074 A 
ATOM     33  C   UNL A   1      39.326  34.865  42.209  1.00  0.00     0.029 A 
ATOM     34  N   UNL A   1      40.198  35.311  40.208  1.00  0.00    -0.354 N 
ATOM     35  N   UNL A   1      42.157  36.704  38.334  1.00  0.00    -0.248 NA
ATOM     36  C   UNL A   1      43.918  38.211  38.028  1.00  0.00     0.031 C 
ATOM     37  C   UNL A   1      40.290  35.871  42.346  1.00  0.00     0.029 A 
ATOM     38  C   UNL A   1      40.872  36.113  41.108  1.00  0.00     0.049 A 
ATOM     39  H   UNL A   1      40.373  35.280  39.239  1.00  0.00     0.167 HD
ATOM     40  C   UNL A   1      42.502  37.244  39.568  1.00  0.00     0.074 A 
ATOM     41  C   UNL A   1      43.604  38.156  39.316  1.00  0.00     0.031 C 
ATOM     42  C   UNL A   1      41.972  37.003  40.796  1.00  0.00     0.034 A 
BRANCH  29  43
ATOM     43  C   UNL A   1      37.250  32.913  40.969  1.00  0.00     0.023 A 
ATOM     44  C   UNL A   1      35.959  33.447  41.144  1.00  0.00     0.031 A 
ATOM     45  C   UNL A   1      37.570  31.735  41.668  1.00  0.00     0.131 A 
ATOM     46  C   UNL A   1      35.091  32.881  42.093  1.00  0.00     0.055 A 
ATOM     47  C   UNL A   1      36.661  31.115  42.527  1.00  0.00     0.041 A 
ATOM     48  F   UNL A   1      38.794  31.194  41.573  1.00  0.00    -0.206 F 
ATOM     49  C   UNL A   1      35.422  31.702  42.765  1.00  0.00     0.022 A 
BRANCH  46  50
ATOM     50  S   UNL A   1      33.632  33.833  42.606  1.00  0.00     0.124 S 
ATOM     51  O   UNL A   1      33.344  34.605  41.399  1.00  0.00    -0.237 OA
ATOM     52  O   UNL A   1      32.671  32.787  42.938  1.00  0.00    -0.237 OA
ATOM     53  O   UNL A   1      34.115  34.620  43.738  1.00  0.00    -0.744 OA
ENDBRANCH  46  50
ENDBRANCH  29  43
BRANCH  30  54
ATOM     54  C   UNL A   1      43.983  37.758  35.079  1.00  0.00     0.023 A 
ATOM     55  C   UNL A   1      43.574  38.930  34.428  1.00  0.00     0.031 A 
ATOM     56  C   UNL A   1      45.312  37.328  34.883  1.00  0.00     0.131 A 
ATOM     57  C   UNL A   1      44.476  39.621  33.600  1.00  0.00     0.055 A 
ATOM     58  C   UNL A   1      46.218  38.045  34.102  1.00  0.00     0.041 A 
ATOM     59  F   UNL A   1      45.759  36.210  35.479  1.00  0.00    -0.206 F 
ATOM     60  C   UNL A   1      45.799  39.199  33.448  1.00  0.00     0.022 A 
BRANCH  57  61
ATOM     61  S   UNL A   1      43.879  41.063  32.674  1.00  0.00     0.124 S 
ATOM     62  O   UNL A   1      42.526  41.212  33.197  1.00  0.00    -0.237 OA
ATOM     63  O   UNL A   1      44.836  42.093  33.063  1.00  0.00    -0.237 OA
ATOM     64  O   UNL A   1      43.964  40.632  31.280  1.00  0.00    -0.744 OA
ENDBRANCH  57  61
ENDBRANCH  30  54
BRANCH  42  65
ATOM     65  C   UNL A   1      42.636  37.675  41.968  1.00  0.00     0.023 A 
ATOM     66  C   UNL A   1      42.210  38.920  42.454  1.00  0.00     0.031 A 
ATOM     67  C   UNL A   1      43.672  37.007  42.646  1.00  0.00     0.131 A 
ATOM     68  C   UNL A   1      42.840  39.473  43.577  1.00  0.00     0.055 A 
ATOM     69  C   UNL A   1      44.248  37.532  43.799  1.00  0.00     0.041 A 
ATOM     70  F   UNL A   1      44.113  35.813  42.214  1.00  0.00    -0.206 F 
ATOM     71  C   UNL A   1      43.836  38.775  44.268  1.00  0.00     0.022 A 
BRANCH  68  72
ATOM     72  S   UNL A   1      42.380  41.147  44.097  1.00  0.00     0.124 S 
ATOM     73  O   UNL A   1      41.892  40.918  45.453  1.00  0.00    -0.237 OA
ATOM     74  O   UNL A   1      43.643  41.868  43.987  1.00  0.00    -0.237 OA
ATOM     75  O   UNL A   1      41.357  41.537  43.128  1.00  0.00    -0.744 OA
ENDBRANCH  68  72
ENDBRANCH  42  65
ENDBRANCH  16  17
ENDBRANCH   9  11
ENDBRANCH   8   9
ENDBRANCH   7   8
ENDBRANCH   6   7
ENDBRANCH   5   6
ENDBRANCH   4   5
ENDBRANCH   3   4
ENDBRANCH   2   3
ENDBRANCH   1   2
BRANCH   1  76
ATOM     76  C   UNL A   1      41.552  30.799  31.818  1.00  0.00     0.188 C 
BRANCH  76  77
ATOM     77  O   UNL A   1      40.896  32.047  31.686  1.00  0.00    -0.376 OA
BRANCH  77  78
ATOM     78  C   UNL A   1      40.850  32.616  30.385  1.00  0.00     0.202 C 
BRANCH  78  79
ATOM     79  C   UNL A   1      40.947  34.148  30.230  1.00  0.00     0.261 C 
BRANCH  79  80
ATOM     80  O   UNL A   1      42.260  34.736  30.298  1.00  0.00    -0.460 OA
BRANCH  80  81
ATOM     81  C   UNL A   1      43.029  34.719  29.191  1.00  0.00     0.338 C 
ATOM     82  O   UNL A   1      43.571  33.748  28.685  1.00  0.00    -0.246 OA
BRANCH  81  83
ATOM     83  C   UNL A   1      42.940  36.052  28.548  1.00  0.00     0.060 A 
ATOM     84  C   UNL A   1      42.756  36.127  27.157  1.00  0.00     0.018 A 
ATOM     85  C   UNL A   1      42.970  37.220  29.312  1.00  0.00     0.018 A 
ATOM     86  C   UNL A   1      42.612  37.368  26.528  1.00  0.00     0.028 A 
ATOM     87  C   UNL A   1      42.919  38.462  28.671  1.00  0.00     0.028 A 
ATOM     88  C   UNL A   1      42.758  38.536  27.279  1.00  0.00     0.052 A 
BRANCH  88  89
ATOM     89  N   UNL A   1      42.982  39.754  26.616  1.00  0.00    -0.249 N 
ATOM     90  C   UNL A   1      41.960  40.432  26.010  1.00  0.00     0.236 C 
ATOM     91  C   UNL A   1      44.194  40.381  26.496  1.00  0.00     0.256 C 
ATOM     92  O   UNL A   1      40.776  40.125  25.966  1.00  0.00    -0.274 OA
ATOM     93  C   UNL A   1      42.500  41.667  25.367  1.00  0.00     0.136 C 
ATOM     94  C   UNL A   1      43.954  41.727  25.813  1.00  0.00     0.179 C 
ATOM     95  O   UNL A   1      45.294  39.936  26.791  1.00  0.00    -0.272 OA
BRANCH  94  96
ATOM     96  N   UNL A   1      44.821  41.903  24.644  1.00  0.00    -0.368 N 
ATOM     97  H   UNL A   1      45.437  41.168  24.424  1.00  0.00     0.161 HD
BRANCH  96  98
ATOM     98  C   UNL A   1      44.843  43.020  23.828  1.00  0.00     0.114 A 
ATOM     99  C   UNL A   1      44.322  42.844  22.531  1.00  0.00     0.033 A 
ATOM    100  C   UNL A   1      45.474  44.252  24.077  1.00  0.00     0.292 A 
ATOM    101  C   UNL A   1      44.402  43.839  21.549  1.00  0.00     0.003 A 
ATOM    102  C   UNL A   1      45.567  45.258  23.094  1.00  0.00     0.088 A 
ATOM    103  C   UNL A   1      45.029  45.047  21.829  1.00  0.00     0.007 A 
BRANCH 100 104
ATOM    104  N   UNL A   1      46.123  44.551  25.341  1.00  0.00     0.064 N 
ATOM    105  O   UNL A   1      45.465  45.197  26.169  1.00  0.00    -0.258 OA
ATOM    106  O   UNL A   1      47.235  44.044  25.546  1.00  0.00    -0.258 OA
ENDBRANCH 100 104
ENDBRANCH  96  98
ENDBRANCH  94  96
ENDBRANCH  88  89
ENDBRANCH  81  83
ENDBRANCH  80  81
ENDBRANCH  79  80
ENDBRANCH  78  79
ENDBRANCH  77  78
ENDBRANCH  76  77
ENDBRANCH   1  76
TORSDOF 27
ENDMDL
