MODEL 1
REMARK VINA RESULT:      -6.9      0.000      0.000
REMARK SMILES CC1=C(C#N)c2nc(N)c(C#N)c(C)c2/C1=C/c1ccc(-c2ccc(C(=O)OCCOCCOCCOCCOC(=O)c3ccc(-c4c5nc(c(-c6cc(S(=O)(=O)[O-])ccc6F)c6ccc([nH]6)c(-c6cc(S(=O)(=O)[O-])ccc6F)c6nc(c(-c7cc(S(=O)(=O)[O-])ccc7F)c7ccc4[nH]7)C=C6)C=C5)cc3)cc2)o1
REMARK SMILES IDX 34 1 33 2 32 3 31 4 30 5 29 6 28 7 26 8 27 9 25 10 22 11
REMARK SMILES IDX 23 12 107 13 24 14 106 15 21 16 18 17 19 18 108 19 20 20
REMARK SMILES IDX 17 21 1 22 2 23 3 24 16 25 6 26 15 27 7 28 13 29 8 30 10 31
REMARK SMILES IDX 14 32 4 33 5 34 9 35 11 38 12 39 35 40 36 41 37 42 38 43
REMARK SMILES IDX 39 44 40 45 41 46 42 47 43 48 44 49 105 50 45 51 104 52
REMARK SMILES IDX 46 53 47 54 48 55 98 56 49 57 103 58 97 59 99 60 50 61
REMARK SMILES IDX 102 62 96 63 95 64 51 66 83 67 63 68 82 69 64 70 67 71 81 72
REMARK SMILES IDX 100 73 65 74 66 75 80 77 101 78 68 79 52 80 53 81 61 82
REMARK SMILES IDX 54 83 60 84 62 85 59 86 55 87 56 88 57 89 58 90 84 91 85 92
REMARK SMILES IDX 93 93 86 94 92 95 94 96 91 97 87 98 88 99 89 100 90 101
REMARK SMILES IDX 69 102 70 103 78 104 71 105 77 106 79 107 76 108 72 109
REMARK SMILES IDX 73 110 74 111 75 112
REMARK H PARENT 9 36 9 37 99 65 67 76
REMARK Flexibility Score: inf
ROOT
ATOM      1  O   UNL A   1      42.717  20.561  25.727  1.00  0.00    -0.377 OA
ENDROOT
BRANCH   1   2
ATOM      2  C   UNL A   1      43.657  21.538  25.323  1.00  0.00     0.188 C 
BRANCH   2   3
ATOM      3  C   UNL A   1      45.015  21.630  26.054  1.00  0.00     0.188 C 
BRANCH   3   4
ATOM      4  O   UNL A   1      46.028  22.360  25.399  1.00  0.00    -0.376 OA
BRANCH   4   5
ATOM      5  C   UNL A   1      45.858  23.690  24.950  1.00  0.00     0.202 C 
BRANCH   5   6
ATOM      6  C   UNL A   1      46.972  24.748  24.879  1.00  0.00     0.261 C 
BRANCH   6   7
ATOM      7  O   UNL A   1      46.667  25.974  24.222  1.00  0.00    -0.460 OA
BRANCH   7   8
ATOM      8  C   UNL A   1      47.696  26.832  24.053  1.00  0.00     0.338 C 
ATOM      9  O   UNL A   1      48.301  27.062  23.021  1.00  0.00    -0.246 OA
BRANCH   8  10
ATOM     10  C   UNL A   1      47.837  27.632  25.291  1.00  0.00     0.060 A 
ATOM     11  C   UNL A   1      48.139  28.991  27.713  1.00  0.00     0.017 A 
ATOM     12  C   UNL A   1      49.219  28.287  27.174  1.00  0.00     0.013 A 
ATOM     13  C   UNL A   1      46.953  29.116  26.966  1.00  0.00     0.013 A 
ATOM     14  C   UNL A   1      49.060  27.589  25.976  1.00  0.00     0.016 A 
ATOM     15  C   UNL A   1      46.802  28.445  25.752  1.00  0.00     0.016 A 
BRANCH  11  16
ATOM     16  C   UNL A   1      48.126  29.379  29.111  1.00  0.00     0.134 A 
ATOM     17  C   UNL A   1      47.244  29.638  31.128  1.00  0.00     0.128 A 
ATOM     18  C   UNL A   1      48.499  30.237  31.128  1.00  0.00     0.051 A 
ATOM     19  O   UNL A   1      47.032  29.096  29.873  1.00  0.00    -0.457 OA
ATOM     20  C   UNL A   1      49.045  30.094  29.842  1.00  0.00     0.051 A 
BRANCH  17  21
ATOM     21  C   UNL A   1      46.336  29.525  32.215  1.00  0.00     0.056 C 
ATOM     22  C   UNL A   1      46.638  26.643  30.843  1.00  0.00     0.046 C 
ATOM     23  C   UNL A   1      45.636  27.102  31.855  1.00  0.00    -0.023 C 
ATOM     24  C   UNL A   1      44.695  26.312  32.423  1.00  0.00     0.082 C 
ATOM     25  C   UNL A   1      45.576  28.443  32.470  1.00  0.00    -0.008 C 
ATOM     26  C   UNL A   1      43.980  27.086  33.429  1.00  0.00     0.092 A 
ATOM     27  C   UNL A   1      44.487  28.396  33.484  1.00  0.00     0.014 A 
ATOM     28  N   UNL A   1      42.964  26.601  34.161  1.00  0.00    -0.228 NA
ATOM     29  C   UNL A   1      43.877  29.307  34.348  1.00  0.00    -0.019 A 
ATOM     30  C   UNL A   1      42.390  27.473  35.016  1.00  0.00     0.142 A 
ATOM     31  C   UNL A   1      42.800  28.819  35.131  1.00  0.00     0.098 A 
ATOM     32  C   UNL A   1      44.315  30.743  34.429  1.00  0.00     0.046 C 
BRANCH  24  33
ATOM     33  C   UNL A   1      44.543  24.847  32.046  1.00  0.00     0.102 C 
ATOM     34  N   UNL A   1      44.417  23.631  31.735  1.00  0.00    -0.192 NA
ENDBRANCH  24  33
BRANCH  30  35
ATOM     35  N   UNL A   1      41.300  26.968  35.698  1.00  0.00    -0.383 N 
ATOM     36  H   UNL A   1      41.000  26.045  35.532  1.00  0.00     0.158 HD
ATOM     37  H   UNL A   1      40.822  27.531  36.349  1.00  0.00     0.158 HD
ENDBRANCH  30  35
BRANCH  31  38
ATOM     38  C   UNL A   1      42.107  29.672  36.058  1.00  0.00     0.103 C 
ATOM     39  N   UNL A   1      41.548  30.340  36.818  1.00  0.00    -0.192 NA
ENDBRANCH  31  38
ENDBRANCH  17  21
ENDBRANCH  11  16
ENDBRANCH   8  10
ENDBRANCH   7   8
ENDBRANCH   6   7
ENDBRANCH   5   6
ENDBRANCH   4   5
ENDBRANCH   3   4
ENDBRANCH   2   3
ENDBRANCH   1   2
BRANCH   1  40
ATOM     40  C   UNL A   1      41.472  20.951  26.298  1.00  0.00     0.188 C 
BRANCH  40  41
ATOM     41  C   UNL A   1      41.360  22.023  27.410  1.00  0.00     0.188 C 
BRANCH  41  42
ATOM     42  O   UNL A   1      41.557  23.354  26.980  1.00  0.00    -0.376 OA
BRANCH  42  43
ATOM     43  C   UNL A   1      40.478  24.263  26.973  1.00  0.00     0.202 C 
BRANCH  43  44
ATOM     44  C   UNL A   1      40.713  25.764  27.200  1.00  0.00     0.261 C 
BRANCH  44  45
ATOM     45  O   UNL A   1      41.725  26.399  26.410  1.00  0.00    -0.460 OA
BRANCH  45  46
ATOM     46  C   UNL A   1      42.940  26.567  26.982  1.00  0.00     0.338 C 
ATOM     47  O   UNL A   1      43.958  25.953  26.723  1.00  0.00    -0.246 OA
BRANCH  46  48
ATOM     48  C   UNL A   1      42.854  27.766  27.845  1.00  0.00     0.060 A 
ATOM     49  C   UNL A   1      42.343  28.960  27.317  1.00  0.00     0.016 A 
ATOM     50  C   UNL A   1      43.242  27.695  29.185  1.00  0.00     0.016 A 
ATOM     51  C   UNL A   1      42.231  30.091  28.126  1.00  0.00     0.010 A 
ATOM     52  C   UNL A   1      43.161  28.839  29.985  1.00  0.00     0.010 A 
ATOM     53  C   UNL A   1      42.680  30.048  29.452  1.00  0.00    -0.014 A 
BRANCH  53  54
ATOM     54  C   UNL A   1      42.846  31.312  30.209  1.00  0.00     0.031 A 
ATOM     55  C   UNL A   1      44.098  32.113  29.982  1.00  0.00     0.074 A 
ATOM     56  C   UNL A   1      41.893  31.764  31.044  1.00  0.00     0.049 A 
ATOM     57  N   UNL A   1      44.489  33.221  30.552  1.00  0.00    -0.248 NA
ATOM     58  C   UNL A   1      45.036  31.588  28.975  1.00  0.00     0.031 C 
ATOM     59  C   UNL A   1      40.609  31.113  31.293  1.00  0.00     0.029 A 
ATOM     60  N   UNL A   1      41.861  32.887  31.835  1.00  0.00    -0.354 N 
ATOM     61  C   UNL A   1      45.716  33.527  29.974  1.00  0.00     0.074 A 
ATOM     62  C   UNL A   1      46.024  32.466  29.042  1.00  0.00     0.031 C 
ATOM     63  C   UNL A   1      39.910  31.852  32.172  1.00  0.00     0.029 A 
ATOM     64  C   UNL A   1      40.713  33.006  32.581  1.00  0.00     0.049 A 
ATOM     65  H   UNL A   1      42.592  33.546  31.864  1.00  0.00     0.167 HD
ATOM     66  C   UNL A   1      46.505  34.606  30.188  1.00  0.00     0.034 A 
ATOM     67  C   UNL A   1      40.358  33.927  33.500  1.00  0.00     0.034 A 
ATOM     68  C   UNL A   1      46.189  35.656  31.122  1.00  0.00     0.049 A 
ATOM     69  C   UNL A   1      41.305  35.060  33.812  1.00  0.00     0.074 A 
ATOM     70  C   UNL A   1      46.921  36.792  31.413  1.00  0.00     0.029 A 
ATOM     71  N   UNL A   1      45.055  35.696  31.921  1.00  0.00    -0.354 N 
ATOM     72  N   UNL A   1      42.472  35.330  33.274  1.00  0.00    -0.248 NA
ATOM     73  C   UNL A   1      40.892  36.010  34.854  1.00  0.00     0.031 C 
ATOM     74  C   UNL A   1      46.273  37.477  32.444  1.00  0.00     0.029 A 
ATOM     75  C   UNL A   1      45.090  36.816  32.735  1.00  0.00     0.049 A 
ATOM     76  H   UNL A   1      44.332  35.027  31.910  1.00  0.00     0.167 HD
ATOM     77  C   UNL A   1      42.919  36.494  33.895  1.00  0.00     0.074 A 
ATOM     78  C   UNL A   1      41.895  36.878  34.844  1.00  0.00     0.031 C 
ATOM     79  C   UNL A   1      44.069  37.184  33.688  1.00  0.00     0.034 A 
BRANCH  66  80
ATOM     80  C   UNL A   1      47.802  34.685  29.428  1.00  0.00     0.023 A 
ATOM     81  C   UNL A   1      47.875  35.281  28.157  1.00  0.00     0.031 A 
ATOM     82  C   UNL A   1      48.985  34.173  29.987  1.00  0.00     0.131 A 
ATOM     83  C   UNL A   1      49.096  35.310  27.469  1.00  0.00     0.055 A 
ATOM     84  C   UNL A   1      50.210  34.266  29.327  1.00  0.00     0.041 A 
ATOM     85  F   UNL A   1      48.969  33.574  31.189  1.00  0.00    -0.206 F 
ATOM     86  C   UNL A   1      50.270  34.829  28.056  1.00  0.00     0.022 A 
BRANCH  83  87
ATOM     87  S   UNL A   1      49.112  35.902  25.755  1.00  0.00     0.124 S 
ATOM     88  O   UNL A   1      49.084  34.646  25.010  1.00  0.00    -0.237 OA
ATOM     89  O   UNL A   1      47.901  36.712  25.689  1.00  0.00    -0.237 OA
ATOM     90  O   UNL A   1      50.366  36.647  25.662  1.00  0.00    -0.744 OA
ENDBRANCH  83  87
ENDBRANCH  66  80
BRANCH  67  91
ATOM     91  C   UNL A   1      39.049  33.808  34.202  1.00  0.00     0.023 A 
ATOM     92  C   UNL A   1      37.850  34.149  33.558  1.00  0.00     0.031 A 
ATOM     93  C   UNL A   1      38.977  33.336  35.526  1.00  0.00     0.131 A 
ATOM     94  C   UNL A   1      36.630  34.020  34.239  1.00  0.00     0.055 A 
ATOM     95  C   UNL A   1      37.759  33.172  36.185  1.00  0.00     0.041 A 
ATOM     96  F   UNL A   1      40.095  32.997  36.186  1.00  0.00    -0.206 F 
ATOM     97  C   UNL A   1      36.574  33.519  35.542  1.00  0.00     0.022 A 
BRANCH  94  98
ATOM     98  S   UNL A   1      35.106  34.533  33.400  1.00  0.00     0.124 S 
ATOM     99  O   UNL A   1      34.219  33.411  33.684  1.00  0.00    -0.237 OA
ATOM    100  O   UNL A   1      34.793  35.787  34.077  1.00  0.00    -0.237 OA
ATOM    101  O   UNL A   1      35.516  34.669  32.004  1.00  0.00    -0.744 OA
ENDBRANCH  94  98
ENDBRANCH  67  91
BRANCH  79 102
ATOM    102  C   UNL A   1      44.289  38.446  34.483  1.00  0.00     0.023 A 
ATOM    103  C   UNL A   1      43.707  39.666  34.102  1.00  0.00     0.031 A 
ATOM    104  C   UNL A   1      45.024  38.408  35.682  1.00  0.00     0.131 A 
ATOM    105  C   UNL A   1      43.887  40.805  34.902  1.00  0.00     0.055 A 
ATOM    106  C   UNL A   1      45.155  39.530  36.500  1.00  0.00     0.041 A 
ATOM    107  F   UNL A   1      45.597  37.266  36.097  1.00  0.00    -0.206 F 
ATOM    108  C   UNL A   1      44.589  40.740  36.109  1.00  0.00     0.022 A 
BRANCH 105 109
ATOM    109  S   UNL A   1      43.215  42.388  34.327  1.00  0.00     0.124 S 
ATOM    110  O   UNL A   1      44.175  42.765  33.293  1.00  0.00    -0.237 OA
ATOM    111  O   UNL A   1      41.886  42.013  33.856  1.00  0.00    -0.237 OA
ATOM    112  O   UNL A   1      43.233  43.225  35.526  1.00  0.00    -0.744 OA
ENDBRANCH 105 109
ENDBRANCH  79 102
ENDBRANCH  53  54
ENDBRANCH  46  48
ENDBRANCH  45  46
ENDBRANCH  44  45
ENDBRANCH  43  44
ENDBRANCH  42  43
ENDBRANCH  41  42
ENDBRANCH  40  41
ENDBRANCH   1  40
TORSDOF 28
ENDMDL
MODEL 2
REMARK VINA RESULT:      -6.6      2.803      3.619
REMARK SMILES CC1=C(C#N)c2nc(N)c(C#N)c(C)c2/C1=C/c1ccc(-c2ccc(C(=O)OCCOCCOCCOCCOC(=O)c3ccc(-c4c5nc(c(-c6cc(S(=O)(=O)[O-])ccc6F)c6ccc([nH]6)c(-c6cc(S(=O)(=O)[O-])ccc6F)c6nc(c(-c7cc(S(=O)(=O)[O-])ccc7F)c7ccc4[nH]7)C=C6)C=C5)cc3)cc2)o1
REMARK SMILES IDX 34 1 33 2 32 3 31 4 30 5 29 6 28 7 26 8 27 9 25 10 22 11
REMARK SMILES IDX 23 12 107 13 24 14 106 15 21 16 18 17 19 18 108 19 20 20
REMARK SMILES IDX 17 21 1 22 2 23 3 24 16 25 6 26 15 27 7 28 13 29 8 30 10 31
REMARK SMILES IDX 14 32 4 33 5 34 9 35 11 38 12 39 35 40 36 41 37 42 38 43
REMARK SMILES IDX 39 44 40 45 41 46 42 47 43 48 44 49 105 50 45 51 104 52
REMARK SMILES IDX 46 53 47 54 48 55 98 56 49 57 103 58 97 59 99 60 50 61
REMARK SMILES IDX 102 62 96 63 95 64 51 66 83 67 63 68 82 69 64 70 67 71 81 72
REMARK SMILES IDX 100 73 65 74 66 75 80 77 101 78 68 79 52 80 53 81 61 82
REMARK SMILES IDX 54 83 60 84 62 85 59 86 55 87 56 88 57 89 58 90 84 91 85 92
REMARK SMILES IDX 93 93 86 94 92 95 94 96 91 97 87 98 88 99 89 100 90 101
REMARK SMILES IDX 69 102 70 103 78 104 71 105 77 106 79 107 76 108 72 109
REMARK SMILES IDX 73 110 74 111 75 112
REMARK H PARENT 9 36 9 37 99 65 67 76
REMARK Flexibility Score: inf
ROOT
ATOM      1  O   UNL A   1      42.443  20.552  25.855  1.00  0.00    -0.377 OA
ENDROOT
BRANCH   1   2
ATOM      2  C   UNL A   1      43.254  21.702  25.707  1.00  0.00     0.188 C 
BRANCH   2   3
ATOM      3  C   UNL A   1      44.638  21.571  25.033  1.00  0.00     0.188 C 
BRANCH   3   4
ATOM      4  O   UNL A   1      45.164  22.745  24.456  1.00  0.00    -0.376 OA
BRANCH   4   5
ATOM      5  C   UNL A   1      44.872  24.043  24.933  1.00  0.00     0.202 C 
BRANCH   5   6
ATOM      6  C   UNL A   1      45.839  25.238  24.893  1.00  0.00     0.261 C 
BRANCH   6   7
ATOM      7  O   UNL A   1      45.268  26.536  24.767  1.00  0.00    -0.460 OA
BRANCH   7   8
ATOM      8  C   UNL A   1      46.105  27.578  24.958  1.00  0.00     0.338 C 
ATOM      9  O   UNL A   1      46.491  28.376  24.123  1.00  0.00    -0.246 OA
BRANCH   8  10
ATOM     10  C   UNL A   1      46.316  27.738  26.415  1.00  0.00     0.060 A 
ATOM     11  C   UNL A   1      46.810  27.892  29.160  1.00  0.00     0.017 A 
ATOM     12  C   UNL A   1      47.876  27.962  28.259  1.00  0.00     0.013 A 
ATOM     13  C   UNL A   1      45.491  27.878  28.671  1.00  0.00     0.013 A 
ATOM     14  C   UNL A   1      47.630  27.861  26.889  1.00  0.00     0.016 A 
ATOM     15  C   UNL A   1      45.240  27.808  27.301  1.00  0.00     0.016 A 
BRANCH  11  16
ATOM     16  C   UNL A   1      47.038  27.588  30.561  1.00  0.00     0.134 A 
ATOM     17  C   UNL A   1      47.304  26.273  32.325  1.00  0.00     0.128 A 
ATOM     18  C   UNL A   1      47.258  27.589  32.773  1.00  0.00     0.051 A 
ATOM     19  O   UNL A   1      47.181  26.289  30.948  1.00  0.00    -0.457 OA
ATOM     20  C   UNL A   1      47.063  28.418  31.657  1.00  0.00     0.051 A 
BRANCH  17  21
ATOM     21  C   UNL A   1      47.503  25.099  33.100  1.00  0.00     0.056 C 
ATOM     22  C   UNL A   1      44.377  25.806  33.116  1.00  0.00     0.046 C 
ATOM     23  C   UNL A   1      45.122  24.824  33.963  1.00  0.00    -0.023 C 
ATOM     24  C   UNL A   1      44.551  23.996  34.869  1.00  0.00     0.082 C 
ATOM     25  C   UNL A   1      46.566  24.526  33.879  1.00  0.00    -0.008 C 
ATOM     26  C   UNL A   1      45.580  23.121  35.416  1.00  0.00     0.092 A 
ATOM     27  C   UNL A   1      46.827  23.419  34.839  1.00  0.00     0.014 A 
ATOM     28  N   UNL A   1      45.349  22.195  36.360  1.00  0.00    -0.228 NA
ATOM     29  C   UNL A   1      47.951  22.724  35.292  1.00  0.00    -0.019 A 
ATOM     30  C   UNL A   1      46.428  21.504  36.780  1.00  0.00     0.142 A 
ATOM     31  C   UNL A   1      47.730  21.741  36.290  1.00  0.00     0.098 A 
ATOM     32  C   UNL A   1      49.331  23.017  34.773  1.00  0.00     0.046 C 
BRANCH  24  33
ATOM     33  C   UNL A   1      43.056  24.012  35.140  1.00  0.00     0.102 C 
ATOM     34  N   UNL A   1      41.815  24.025  35.364  1.00  0.00    -0.192 NA
ENDBRANCH  24  33
BRANCH  30  35
ATOM     35  N   UNL A   1      46.172  20.614  37.805  1.00  0.00    -0.383 N 
ATOM     36  H   UNL A   1      45.558  20.866  38.534  1.00  0.00     0.158 HD
ATOM     37  H   UNL A   1      46.602  19.729  37.809  1.00  0.00     0.158 HD
ENDBRANCH  30  35
BRANCH  31  38
ATOM     38  C   UNL A   1      48.817  20.963  36.821  1.00  0.00     0.103 C 
ATOM     39  N   UNL A   1      49.706  20.351  37.238  1.00  0.00    -0.192 NA
ENDBRANCH  31  38
ENDBRANCH  17  21
ENDBRANCH  11  16
ENDBRANCH   8  10
ENDBRANCH   7   8
ENDBRANCH   6   7
ENDBRANCH   5   6
ENDBRANCH   4   5
ENDBRANCH   3   4
ENDBRANCH   2   3
ENDBRANCH   1   2
BRANCH   1  40
ATOM     40  C   UNL A   1      41.043  20.682  26.079  1.00  0.00     0.188 C 
BRANCH  40  41
ATOM     41  C   UNL A   1      40.455  21.506  27.252  1.00  0.00     0.188 C 
BRANCH  41  42
ATOM     42  O   UNL A   1      40.562  22.907  27.111  1.00  0.00    -0.376 OA
BRANCH  42  43
ATOM     43  C   UNL A   1      39.414  23.720  27.231  1.00  0.00     0.202 C 
BRANCH  43  44
ATOM     44  C   UNL A   1      39.529  25.177  27.702  1.00  0.00     0.261 C 
BRANCH  44  45
ATOM     45  O   UNL A   1      40.428  26.033  26.987  1.00  0.00    -0.460 OA
BRANCH  45  46
ATOM     46  C   UNL A   1      41.681  26.163  27.480  1.00  0.00     0.338 C 
ATOM     47  O   UNL A   1      42.657  25.506  27.172  1.00  0.00    -0.246 OA
BRANCH  46  48
ATOM     48  C   UNL A   1      41.694  27.380  28.323  1.00  0.00     0.060 A 
ATOM     49  C   UNL A   1      41.201  28.585  27.802  1.00  0.00     0.016 A 
ATOM     50  C   UNL A   1      42.155  27.317  29.640  1.00  0.00     0.016 A 
ATOM     51  C   UNL A   1      41.181  29.733  28.593  1.00  0.00     0.010 A 
ATOM     52  C   UNL A   1      42.167  28.477  30.419  1.00  0.00     0.010 A 
ATOM     53  C   UNL A   1      41.705  29.695  29.891  1.00  0.00    -0.014 A 
BRANCH  53  54
ATOM     54  C   UNL A   1      41.965  30.965  30.612  1.00  0.00     0.031 A 
ATOM     55  C   UNL A   1      43.218  31.726  30.274  1.00  0.00     0.074 A 
ATOM     56  C   UNL A   1      41.095  31.456  31.512  1.00  0.00     0.049 A 
ATOM     57  N   UNL A   1      43.683  32.830  30.794  1.00  0.00    -0.248 NA
ATOM     58  C   UNL A   1      44.058  31.160  29.204  1.00  0.00     0.031 C 
ATOM     59  C   UNL A   1      39.817  30.846  31.872  1.00  0.00     0.029 A 
ATOM     60  N   UNL A   1      41.157  32.590  32.284  1.00  0.00    -0.354 N 
ATOM     61  C   UNL A   1      44.868  33.092  30.115  1.00  0.00     0.074 A 
ATOM     62  C   UNL A   1      45.072  32.009  29.179  1.00  0.00     0.031 C 
ATOM     63  C   UNL A   1      39.210  31.617  32.792  1.00  0.00     0.029 A 
ATOM     64  C   UNL A   1      40.075  32.752  33.117  1.00  0.00     0.049 A 
ATOM     65  H   UNL A   1      41.905  33.228  32.245  1.00  0.00     0.167 HD
ATOM     66  C   UNL A   1      45.701  34.151  30.249  1.00  0.00     0.034 A 
ATOM     67  C   UNL A   1      39.820  33.696  34.046  1.00  0.00     0.034 A 
ATOM     68  C   UNL A   1      45.490  35.222  31.187  1.00  0.00     0.049 A 
ATOM     69  C   UNL A   1      40.820  34.805  34.264  1.00  0.00     0.074 A 
ATOM     70  C   UNL A   1      46.274  36.341  31.402  1.00  0.00     0.029 A 
ATOM     71  N   UNL A   1      44.424  35.307  32.073  1.00  0.00    -0.354 N 
ATOM     72  N   UNL A   1      41.947  35.034  33.631  1.00  0.00    -0.248 NA
ATOM     73  C   UNL A   1      40.517  35.782  35.320  1.00  0.00     0.031 C 
ATOM     74  C   UNL A   1      45.728  37.058  32.468  1.00  0.00     0.029 A 
ATOM     75  C   UNL A   1      44.555  36.436  32.863  1.00  0.00     0.049 A 
ATOM     76  H   UNL A   1      43.685  34.659  32.130  1.00  0.00     0.167 HD
ATOM     77  C   UNL A   1      42.475  36.193  34.195  1.00  0.00     0.074 A 
ATOM     78  C   UNL A   1      41.540  36.621  35.217  1.00  0.00     0.031 C 
ATOM     79  C   UNL A   1      43.623  36.847  33.887  1.00  0.00     0.034 A 
BRANCH  66  80
ATOM     80  C   UNL A   1      46.936  34.182  29.387  1.00  0.00     0.023 A 
ATOM     81  C   UNL A   1      46.987  34.935  28.201  1.00  0.00     0.031 A 
ATOM     82  C   UNL A   1      48.083  33.462  29.764  1.00  0.00     0.131 A 
ATOM     83  C   UNL A   1      48.145  34.915  27.412  1.00  0.00     0.055 A 
ATOM     84  C   UNL A   1      49.255  33.501  29.011  1.00  0.00     0.041 A 
ATOM     85  F   UNL A   1      48.081  32.709  30.876  1.00  0.00    -0.206 F 
ATOM     86  C   UNL A   1      49.289  34.224  27.821  1.00  0.00     0.022 A 
BRANCH  83  87
ATOM     87  S   UNL A   1      48.106  35.732  25.794  1.00  0.00     0.124 S 
ATOM     88  O   UNL A   1      49.161  36.731  25.942  1.00  0.00    -0.237 OA
ATOM     89  O   UNL A   1      48.390  34.632  24.878  1.00  0.00    -0.237 OA
ATOM     90  O   UNL A   1      46.750  36.273  25.717  1.00  0.00    -0.744 OA
ENDBRANCH  83  87
ENDBRANCH  66  80
BRANCH  67  91
ATOM     91  C   UNL A   1      38.568  33.625  34.851  1.00  0.00     0.023 A 
ATOM     92  C   UNL A   1      38.549  32.985  36.100  1.00  0.00     0.031 A 
ATOM     93  C   UNL A   1      37.375  34.211  34.390  1.00  0.00     0.131 A 
ATOM     94  C   UNL A   1      37.359  32.939  36.843  1.00  0.00     0.055 A 
ATOM     95  C   UNL A   1      36.205  34.197  35.149  1.00  0.00     0.041 A 
ATOM     96  F   UNL A   1      37.342  34.834  33.202  1.00  0.00    -0.206 F 
ATOM     97  C   UNL A   1      36.191  33.554  36.384  1.00  0.00     0.022 A 
BRANCH  94  98
ATOM     98  S   UNL A   1      37.351  32.047  38.422  1.00  0.00     0.124 S 
ATOM     99  O   UNL A   1      38.631  32.446  38.995  1.00  0.00    -0.237 OA
ATOM    100  O   UNL A   1      36.160  32.585  39.070  1.00  0.00    -0.237 OA
ATOM    101  O   UNL A   1      37.256  30.645  38.018  1.00  0.00    -0.744 OA
ENDBRANCH  94  98
ENDBRANCH  67  91
BRANCH  79 102
ATOM    102  C   UNL A   1      43.941  38.113  34.642  1.00  0.00     0.023 A 
ATOM    103  C   UNL A   1      44.593  38.083  35.886  1.00  0.00     0.031 A 
ATOM    104  C   UNL A   1      43.659  39.368  34.071  1.00  0.00     0.131 A 
ATOM    105  C   UNL A   1      44.925  39.286  36.528  1.00  0.00     0.055 A 
ATOM    106  C   UNL A   1      44.039  40.559  34.689  1.00  0.00     0.041 A 
ATOM    107  F   UNL A   1      43.042  39.454  32.880  1.00  0.00    -0.206 F 
ATOM    108  C   UNL A   1      44.671  40.523  35.929  1.00  0.00     0.022 A 
BRANCH 105 109
ATOM    109  S   UNL A   1      45.668  39.214  38.180  1.00  0.00     0.124 S 
ATOM    110  O   UNL A   1      45.290  40.509  38.738  1.00  0.00    -0.237 OA
ATOM    111  O   UNL A   1      45.014  38.051  38.769  1.00  0.00    -0.237 OA
ATOM    112  O   UNL A   1      47.096  39.049  37.909  1.00  0.00    -0.744 OA
ENDBRANCH 105 109
ENDBRANCH  79 102
ENDBRANCH  53  54
ENDBRANCH  46  48
ENDBRANCH  45  46
ENDBRANCH  44  45
ENDBRANCH  43  44
ENDBRANCH  42  43
ENDBRANCH  41  42
ENDBRANCH  40  41
ENDBRANCH   1  40
TORSDOF 28
ENDMDL
MODEL 3
REMARK VINA RESULT:      -6.6      2.774      3.715
REMARK SMILES CC1=C(C#N)c2nc(N)c(C#N)c(C)c2/C1=C/c1ccc(-c2ccc(C(=O)OCCOCCOCCOCCOC(=O)c3ccc(-c4c5nc(c(-c6cc(S(=O)(=O)[O-])ccc6F)c6ccc([nH]6)c(-c6cc(S(=O)(=O)[O-])ccc6F)c6nc(c(-c7cc(S(=O)(=O)[O-])ccc7F)c7ccc4[nH]7)C=C6)C=C5)cc3)cc2)o1
REMARK SMILES IDX 34 1 33 2 32 3 31 4 30 5 29 6 28 7 26 8 27 9 25 10 22 11
REMARK SMILES IDX 23 12 107 13 24 14 106 15 21 16 18 17 19 18 108 19 20 20
REMARK SMILES IDX 17 21 1 22 2 23 3 24 16 25 6 26 15 27 7 28 13 29 8 30 10 31
REMARK SMILES IDX 14 32 4 33 5 34 9 35 11 38 12 39 35 40 36 41 37 42 38 43
REMARK SMILES IDX 39 44 40 45 41 46 42 47 43 48 44 49 105 50 45 51 104 52
REMARK SMILES IDX 46 53 47 54 48 55 98 56 49 57 103 58 97 59 99 60 50 61
REMARK SMILES IDX 102 62 96 63 95 64 51 66 83 67 63 68 82 69 64 70 67 71 81 72
REMARK SMILES IDX 100 73 65 74 66 75 80 77 101 78 68 79 52 80 53 81 61 82
REMARK SMILES IDX 54 83 60 84 62 85 59 86 55 87 56 88 57 89 58 90 84 91 85 92
REMARK SMILES IDX 93 93 86 94 92 95 94 96 91 97 87 98 88 99 89 100 90 101
REMARK SMILES IDX 69 102 70 103 78 104 71 105 77 106 79 107 76 108 72 109
REMARK SMILES IDX 73 110 74 111 75 112
REMARK H PARENT 9 36 9 37 99 65 67 76
REMARK Flexibility Score: inf
ROOT
ATOM      1  O   UNL A   1      42.292  20.608  25.795  1.00  0.00    -0.377 OA
ENDROOT
BRANCH   1   2
ATOM      2  C   UNL A   1      43.098  21.765  25.682  1.00  0.00     0.188 C 
BRANCH   2   3
ATOM      3  C   UNL A   1      44.524  21.642  25.102  1.00  0.00     0.188 C 
BRANCH   3   4
ATOM      4  O   UNL A   1      45.071  22.811  24.535  1.00  0.00    -0.376 OA
BRANCH   4   5
ATOM      5  C   UNL A   1      44.800  24.109  25.024  1.00  0.00     0.202 C 
BRANCH   5   6
ATOM      6  C   UNL A   1      45.795  25.282  25.017  1.00  0.00     0.261 C 
BRANCH   6   7
ATOM      7  O   UNL A   1      45.257  26.595  24.897  1.00  0.00    -0.460 OA
BRANCH   7   8
ATOM      8  C   UNL A   1      46.110  27.614  25.136  1.00  0.00     0.338 C 
ATOM      9  O   UNL A   1      46.561  28.403  24.325  1.00  0.00    -0.246 OA
BRANCH   8  10
ATOM     10  C   UNL A   1      46.245  27.767  26.603  1.00  0.00     0.060 A 
ATOM     11  C   UNL A   1      46.582  27.900  29.373  1.00  0.00     0.017 A 
ATOM     12  C   UNL A   1      47.703  27.853  28.540  1.00  0.00     0.013 A 
ATOM     13  C   UNL A   1      45.301  28.011  28.803  1.00  0.00     0.013 A 
ATOM     14  C   UNL A   1      47.533  27.764  27.157  1.00  0.00     0.016 A 
ATOM     15  C   UNL A   1      45.129  27.953  27.420  1.00  0.00     0.016 A 
BRANCH  11  16
ATOM     16  C   UNL A   1      46.691  27.588  30.786  1.00  0.00     0.134 A 
ATOM     17  C   UNL A   1      46.642  26.284  32.577  1.00  0.00     0.128 A 
ATOM     18  C   UNL A   1      46.814  27.595  33.005  1.00  0.00     0.051 A 
ATOM     19  O   UNL A   1      46.582  26.293  31.196  1.00  0.00    -0.457 OA
ATOM     20  C   UNL A   1      46.819  28.423  31.871  1.00  0.00     0.051 A 
BRANCH  17  21
ATOM     21  C   UNL A   1      46.593  25.109  33.375  1.00  0.00     0.056 C 
ATOM     22  C   UNL A   1      49.575  26.279  33.477  1.00  0.00     0.046 C 
ATOM     23  C   UNL A   1      49.071  24.949  33.943  1.00  0.00    -0.023 C 
ATOM     24  C   UNL A   1      49.823  24.014  34.569  1.00  0.00     0.082 C 
ATOM     25  C   UNL A   1      47.669  24.488  33.892  1.00  0.00    -0.008 C 
ATOM     26  C   UNL A   1      48.962  22.906  34.958  1.00  0.00     0.092 A 
ATOM     27  C   UNL A   1      47.638  23.156  34.558  1.00  0.00     0.014 A 
ATOM     28  N   UNL A   1      49.402  21.801  35.581  1.00  0.00    -0.228 NA
ATOM     29  C   UNL A   1      46.677  22.169  34.787  1.00  0.00    -0.019 A 
ATOM     30  C   UNL A   1      48.471  20.857  35.828  1.00  0.00     0.142 A 
ATOM     31  C   UNL A   1      47.120  20.992  35.442  1.00  0.00     0.098 A 
ATOM     32  C   UNL A   1      45.250  22.327  34.340  1.00  0.00     0.046 C 
BRANCH  24  33
ATOM     33  C   UNL A   1      51.305  24.223  34.834  1.00  0.00     0.102 C 
ATOM     34  N   UNL A   1      52.535  24.396  35.056  1.00  0.00    -0.192 NA
ENDBRANCH  24  33
BRANCH  30  35
ATOM     35  N   UNL A   1      48.968  19.701  36.398  1.00  0.00    -0.383 N 
ATOM     36  H   UNL A   1      48.822  19.522  37.356  1.00  0.00     0.158 HD
ATOM     37  H   UNL A   1      49.469  19.056  35.848  1.00  0.00     0.158 HD
ENDBRANCH  30  35
BRANCH  31  38
ATOM     38  C   UNL A   1      46.211  19.916  35.734  1.00  0.00     0.103 C 
ATOM     39  N   UNL A   1      45.494  19.037  35.957  1.00  0.00    -0.192 NA
ENDBRANCH  31  38
ENDBRANCH  17  21
ENDBRANCH  11  16
ENDBRANCH   8  10
ENDBRANCH   7   8
ENDBRANCH   6   7
ENDBRANCH   5   6
ENDBRANCH   4   5
ENDBRANCH   3   4
ENDBRANCH   2   3
ENDBRANCH   1   2
BRANCH   1  40
ATOM     40  C   UNL A   1      40.878  20.723  25.924  1.00  0.00     0.188 C 
BRANCH  40  41
ATOM     41  C   UNL A   1      40.203  21.483  27.092  1.00  0.00     0.188 C 
BRANCH  41  42
ATOM     42  O   UNL A   1      40.311  22.891  27.032  1.00  0.00    -0.376 OA
BRANCH  42  43
ATOM     43  C   UNL A   1      39.163  23.696  27.193  1.00  0.00     0.202 C 
BRANCH  43  44
ATOM     44  C   UNL A   1      39.281  25.134  27.719  1.00  0.00     0.261 C 
BRANCH  44  45
ATOM     45  O   UNL A   1      40.133  26.032  26.999  1.00  0.00    -0.460 OA
BRANCH  45  46
ATOM     46  C   UNL A   1      41.407  26.160  27.439  1.00  0.00     0.338 C 
ATOM     47  O   UNL A   1      42.368  25.502  27.087  1.00  0.00    -0.246 OA
BRANCH  46  48
ATOM     48  C   UNL A   1      41.457  27.375  28.282  1.00  0.00     0.060 A 
ATOM     49  C   UNL A   1      40.926  28.577  27.792  1.00  0.00     0.016 A 
ATOM     50  C   UNL A   1      41.992  27.313  29.571  1.00  0.00     0.016 A 
ATOM     51  C   UNL A   1      40.942  29.724  28.587  1.00  0.00     0.010 A 
ATOM     52  C   UNL A   1      42.038  28.471  30.352  1.00  0.00     0.010 A 
ATOM     53  C   UNL A   1      41.537  29.687  29.853  1.00  0.00    -0.014 A 
BRANCH  53  54
ATOM     54  C   UNL A   1      41.827  30.957  30.562  1.00  0.00     0.031 A 
ATOM     55  C   UNL A   1      43.102  31.681  30.223  1.00  0.00     0.074 A 
ATOM     56  C   UNL A   1      40.965  31.481  31.451  1.00  0.00     0.049 A 
ATOM     57  N   UNL A   1      43.594  32.777  30.733  1.00  0.00    -0.248 NA
ATOM     58  C   UNL A   1      43.933  31.080  29.165  1.00  0.00     0.031 C 
ATOM     59  C   UNL A   1      39.670  30.910  31.810  1.00  0.00     0.029 A 
ATOM     60  N   UNL A   1      41.053  32.622  32.211  1.00  0.00    -0.354 N 
ATOM     61  C   UNL A   1      44.789  33.001  30.059  1.00  0.00     0.074 A 
ATOM     62  C   UNL A   1      44.970  31.902  29.137  1.00  0.00     0.031 C 
ATOM     63  C   UNL A   1      39.079  31.707  32.718  1.00  0.00     0.029 A 
ATOM     64  C   UNL A   1      39.971  32.822  33.036  1.00  0.00     0.049 A 
ATOM     65  H   UNL A   1      41.819  33.239  32.170  1.00  0.00     0.167 HD
ATOM     66  C   UNL A   1      45.650  34.038  30.187  1.00  0.00     0.034 A 
ATOM     67  C   UNL A   1      39.736  33.783  33.953  1.00  0.00     0.034 A 
ATOM     68  C   UNL A   1      45.462  35.125  31.112  1.00  0.00     0.049 A 
ATOM     69  C   UNL A   1      40.765  34.868  34.164  1.00  0.00     0.074 A 
ATOM     70  C   UNL A   1      46.274  36.225  31.319  1.00  0.00     0.029 A 
ATOM     71  N   UNL A   1      44.394  35.248  31.990  1.00  0.00    -0.354 N 
ATOM     72  N   UNL A   1      41.901  35.059  33.536  1.00  0.00    -0.248 NA
ATOM     73  C   UNL A   1      40.482  35.864  35.208  1.00  0.00     0.031 C 
ATOM     74  C   UNL A   1      45.742  36.968  32.374  1.00  0.00     0.029 A 
ATOM     75  C   UNL A   1      44.550  36.382  32.768  1.00  0.00     0.049 A 
ATOM     76  H   UNL A   1      43.637  34.621  32.049  1.00  0.00     0.167 HD
ATOM     77  C   UNL A   1      42.456  36.210  34.091  1.00  0.00     0.074 A 
ATOM     78  C   UNL A   1      41.528  36.673  35.101  1.00  0.00     0.031 C 
ATOM     79  C   UNL A   1      43.623  36.829  33.782  1.00  0.00     0.034 A 
BRANCH  66  80
ATOM     80  C   UNL A   1      46.890  34.026  29.332  1.00  0.00     0.023 A 
ATOM     81  C   UNL A   1      46.926  34.661  28.079  1.00  0.00     0.031 A 
ATOM     82  C   UNL A   1      48.057  33.385  29.783  1.00  0.00     0.131 A 
ATOM     83  C   UNL A   1      48.091  34.604  27.301  1.00  0.00     0.055 A 
ATOM     84  C   UNL A   1      49.233  33.390  29.035  1.00  0.00     0.041 A 
ATOM     85  F   UNL A   1      48.071  32.744  30.963  1.00  0.00    -0.206 F 
ATOM     86  C   UNL A   1      49.253  33.994  27.781  1.00  0.00     0.022 A 
BRANCH  83  87
ATOM     87  S   UNL A   1      48.037  35.257  25.611  1.00  0.00     0.124 S 
ATOM     88  O   UNL A   1      47.748  36.669  25.849  1.00  0.00    -0.237 OA
ATOM     89  O   UNL A   1      49.374  34.953  25.112  1.00  0.00    -0.237 OA
ATOM     90  O   UNL A   1      46.953  34.502  24.986  1.00  0.00    -0.744 OA
ENDBRANCH  83  87
ENDBRANCH  66  80
BRANCH  67  91
ATOM     91  C   UNL A   1      38.479  33.755  34.751  1.00  0.00     0.023 A 
ATOM     92  C   UNL A   1      38.444  33.161  36.022  1.00  0.00     0.031 A 
ATOM     93  C   UNL A   1      37.295  34.335  34.260  1.00  0.00     0.131 A 
ATOM     94  C   UNL A   1      37.248  33.154  36.757  1.00  0.00     0.055 A 
ATOM     95  C   UNL A   1      36.120  34.361  35.010  1.00  0.00     0.041 A 
ATOM     96  F   UNL A   1      37.276  34.915  33.049  1.00  0.00    -0.206 F 
ATOM     97  C   UNL A   1      36.091  33.765  36.268  1.00  0.00     0.022 A 
BRANCH  94  98
ATOM     98  S   UNL A   1      37.220  32.320  38.368  1.00  0.00     0.124 S 
ATOM     99  O   UNL A   1      37.533  30.946  37.995  1.00  0.00    -0.237 OA
ATOM    100  O   UNL A   1      38.256  33.040  39.102  1.00  0.00    -0.237 OA
ATOM    101  O   UNL A   1      35.855  32.545  38.842  1.00  0.00    -0.744 OA
ENDBRANCH  94  98
ENDBRANCH  67  91
BRANCH  79 102
ATOM    102  C   UNL A   1      43.971  38.094  34.525  1.00  0.00     0.023 A 
ATOM    103  C   UNL A   1      43.658  39.362  34.005  1.00  0.00     0.031 A 
ATOM    104  C   UNL A   1      44.548  38.028  35.806  1.00  0.00     0.131 A 
ATOM    105  C   UNL A   1      43.942  40.513  34.755  1.00  0.00     0.055 A 
ATOM    106  C   UNL A   1      44.781  39.173  36.568  1.00  0.00     0.041 A 
ATOM    107  F   UNL A   1      44.863  36.842  36.353  1.00  0.00    -0.206 F 
ATOM    108  C   UNL A   1      44.483  40.426  36.041  1.00  0.00     0.022 A 
BRANCH 105 109
ATOM    109  S   UNL A   1      43.627  42.136  34.011  1.00  0.00     0.124 S 
ATOM    110  O   UNL A   1      43.922  43.038  35.120  1.00  0.00    -0.237 OA
ATOM    111  O   UNL A   1      44.571  42.162  32.900  1.00  0.00    -0.237 OA
ATOM    112  O   UNL A   1      42.218  42.069  33.624  1.00  0.00    -0.744 OA
ENDBRANCH 105 109
ENDBRANCH  79 102
ENDBRANCH  53  54
ENDBRANCH  46  48
ENDBRANCH  45  46
ENDBRANCH  44  45
ENDBRANCH  43  44
ENDBRANCH  42  43
ENDBRANCH  41  42
ENDBRANCH  40  41
ENDBRANCH   1  40
TORSDOF 28
ENDMDL
