MODEL 1
REMARK VINA RESULT:      -8.1      0.000      0.000
REMARK SMILES C[C@@H](NC(=O)[C@@H]([NH3+])CC(=O)OCCOCCOCCOCCOC(=O)c1ccc(-c2c3nc(c(-c4cc(S(=O)(=O)[O-])ccc4F)c4ccc([nH]4)c(-c4cc(S(=O)(=O)[O-])ccc4F)c4nc(c(-c5cc(S(=O)(=O)[O-])ccc5F)c5ccc2[nH]5)C=C4)C=C3)cc1)C(=O)NC1C(C)(C)SC1(C)C
REMARK SMILES IDX 16 1 15 2 14 3 13 4 12 5 11 6 9 7 10 8 8 9 6 10 4 11 3 12
REMARK SMILES IDX 5 14 2 15 1 16 89 17 90 18 91 19 92 21 93 22 97 23 94 24
REMARK SMILES IDX 95 25 96 26 98 27 99 28 7 29 17 33 18 34 19 35 20 36 21 37
REMARK SMILES IDX 22 38 23 39 24 40 25 41 26 42 27 43 88 44 28 45 87 46 29 47
REMARK SMILES IDX 30 48 31 49 81 50 32 51 86 52 80 53 82 54 33 55 85 56 79 57
REMARK SMILES IDX 78 58 34 60 66 61 46 62 65 63 47 64 50 65 64 66 83 67 48 68
REMARK SMILES IDX 49 69 63 71 84 72 51 73 35 74 36 75 44 76 37 77 43 78 45 79
REMARK SMILES IDX 42 80 38 81 39 82 40 83 41 84 67 85 68 86 76 87 69 88 75 89
REMARK SMILES IDX 77 90 74 91 70 92 71 93 72 94 73 95 52 96 53 97 61 98 54 99
REMARK SMILES IDX 60 100 62 101 59 102 55 103 56 104 57 105 58 106
REMARK H PARENT 3 13 91 20 7 30 7 31 7 32 82 59 50 70
REMARK Flexibility Score: inf
ROOT
ATOM      1  C   UNL A   1      39.914  27.854  28.654  1.00  0.00     0.188 C 
ENDROOT
BRANCH   1   2
ATOM      2  C   UNL A   1      40.622  26.942  27.627  1.00  0.00     0.188 C 
BRANCH   2   3
ATOM      3  O   UNL A   1      39.707  26.135  26.912  1.00  0.00    -0.376 OA
BRANCH   3   4
ATOM      4  C   UNL A   1      39.847  24.726  26.876  1.00  0.00     0.202 C 
BRANCH   4   5
ATOM      5  C   UNL A   1      38.578  23.864  26.809  1.00  0.00     0.261 C 
BRANCH   5   6
ATOM      6  O   UNL A   1      37.939  23.831  25.539  1.00  0.00    -0.463 OA
BRANCH   6   7
ATOM      7  C   UNL A   1      37.548  22.672  24.979  1.00  0.00     0.312 C 
ATOM      8  O   UNL A   1      38.205  21.641  24.951  1.00  0.00    -0.252 OA
BRANCH   7   9
ATOM      9  C   UNL A   1      36.133  22.800  24.447  1.00  0.00     0.198 C 
BRANCH   9  10
ATOM     10  C   UNL A   1      35.101  22.497  25.536  1.00  0.00     0.282 C 
BRANCH  10  11
ATOM     11  C   UNL A   1      33.703  22.086  25.021  1.00  0.00     0.279 C 
ATOM     12  N   UNL A   1      32.542  22.575  25.522  1.00  0.00    -0.339 N 
ATOM     13  H   UNL A   1      31.740  22.435  24.967  1.00  0.00     0.164 HD
ATOM     14  O   UNL A   1      33.584  21.282  24.091  1.00  0.00    -0.268 OA
BRANCH  12  15
ATOM     15  C   UNL A   1      32.335  23.272  26.767  1.00  0.00     0.168 C 
ATOM     16  C   UNL A   1      32.681  22.424  27.988  1.00  0.00     0.041 C 
BRANCH  15  17
ATOM     17  C   UNL A   1      30.957  23.909  26.923  1.00  0.00     0.242 C 
ATOM     18  O   UNL A   1      30.040  23.203  27.378  1.00  0.00    -0.273 OA
ATOM     19  N   UNL A   1      30.585  25.160  26.546  1.00  0.00    -0.349 N 
ATOM     20  H   UNL A   1      29.781  25.422  27.051  1.00  0.00     0.163 HD
BRANCH  19  21
ATOM     21  C   UNL A   1      30.966  26.266  25.643  1.00  0.00     0.113 C 
ATOM     22  C   UNL A   1      32.366  26.992  25.554  1.00  0.00     0.032 C 
ATOM     23  C   UNL A   1      30.675  26.301  24.104  1.00  0.00     0.032 C 
ATOM     24  C   UNL A   1      32.642  28.002  26.680  1.00  0.00     0.025 C 
ATOM     25  C   UNL A   1      33.679  26.343  25.135  1.00  0.00     0.025 C 
ATOM     26  S   UNL A   1      31.619  27.927  24.067  1.00  0.00    -0.145 SA
ATOM     27  C   UNL A   1      31.269  25.406  23.021  1.00  0.00     0.025 C 
ATOM     28  C   UNL A   1      29.172  26.504  23.889  1.00  0.00     0.025 C 
ENDBRANCH  19  21
ENDBRANCH  15  17
ENDBRANCH  12  15
ENDBRANCH  10  11
BRANCH  10  29
ATOM     29  N   UNL A   1      35.639  21.601  26.578  1.00  0.00    -0.347 N 
ATOM     30  H   UNL A   1      34.918  20.939  26.863  1.00  0.00     0.345 HD
ATOM     31  H   UNL A   1      35.931  22.154  27.383  1.00  0.00     0.345 HD
ATOM     32  H   UNL A   1      36.441  21.092  26.207  1.00  0.00     0.345 HD
ENDBRANCH  10  29
ENDBRANCH   9  10
ENDBRANCH   7   9
ENDBRANCH   6   7
ENDBRANCH   5   6
ENDBRANCH   4   5
ENDBRANCH   3   4
ENDBRANCH   2   3
ENDBRANCH   1   2
BRANCH   1  33
ATOM     33  O   UNL A   1      38.631  28.375  28.324  1.00  0.00    -0.377 OA
BRANCH  33  34
ATOM     34  C   UNL A   1      37.816  28.901  29.378  1.00  0.00     0.188 C 
BRANCH  34  35
ATOM     35  C   UNL A   1      38.076  30.339  29.900  1.00  0.00     0.188 C 
BRANCH  35  36
ATOM     36  O   UNL A   1      37.548  31.388  29.100  1.00  0.00    -0.376 OA
BRANCH  36  37
ATOM     37  C   UNL A   1      36.246  31.193  28.558  1.00  0.00     0.202 C 
BRANCH  37  38
ATOM     38  C   UNL A   1      35.062  31.866  29.278  1.00  0.00     0.261 C 
BRANCH  38  39
ATOM     39  O   UNL A   1      35.303  33.187  29.785  1.00  0.00    -0.460 OA
BRANCH  39  40
ATOM     40  C   UNL A   1      35.040  33.390  31.099  1.00  0.00     0.338 C 
ATOM     41  O   UNL A   1      33.968  33.654  31.596  1.00  0.00    -0.246 OA
BRANCH  40  42
ATOM     42  C   UNL A   1      36.259  33.044  31.859  1.00  0.00     0.060 A 
ATOM     43  C   UNL A   1      36.162  32.122  32.909  1.00  0.00     0.016 A 
ATOM     44  C   UNL A   1      37.477  33.651  31.553  1.00  0.00     0.016 A 
ATOM     45  C   UNL A   1      37.282  31.829  33.684  1.00  0.00     0.010 A 
ATOM     46  C   UNL A   1      38.592  33.381  32.351  1.00  0.00     0.010 A 
ATOM     47  C   UNL A   1      38.489  32.496  33.441  1.00  0.00    -0.014 A 
BRANCH  47  48
ATOM     48  C   UNL A   1      39.562  32.446  34.464  1.00  0.00     0.031 A 
ATOM     49  C   UNL A   1      40.513  31.280  34.432  1.00  0.00     0.074 A 
ATOM     50  C   UNL A   1      39.722  33.431  35.365  1.00  0.00     0.049 A 
ATOM     51  N   UNL A   1      41.482  30.972  35.252  1.00  0.00    -0.248 NA
ATOM     52  C   UNL A   1      40.342  30.332  33.318  1.00  0.00     0.031 C 
ATOM     53  C   UNL A   1      38.907  34.642  35.448  1.00  0.00     0.029 A 
ATOM     54  N   UNL A   1      40.627  33.562  36.389  1.00  0.00    -0.354 N 
ATOM     55  C   UNL A   1      42.041  29.801  34.753  1.00  0.00     0.074 A 
ATOM     56  C   UNL A   1      41.271  29.428  33.586  1.00  0.00     0.031 C 
ATOM     57  C   UNL A   1      39.336  35.384  36.483  1.00  0.00     0.029 A 
ATOM     58  C   UNL A   1      40.425  34.682  37.163  1.00  0.00     0.049 A 
ATOM     59  H   UNL A   1      41.351  32.917  36.555  1.00  0.00     0.167 HD
ATOM     60  C   UNL A   1      43.111  29.109  35.216  1.00  0.00     0.034 A 
ATOM     61  C   UNL A   1      41.025  35.070  38.308  1.00  0.00     0.034 A 
ATOM     62  C   UNL A   1      43.855  29.480  36.393  1.00  0.00     0.049 A 
ATOM     63  C   UNL A   1      42.135  34.212  38.878  1.00  0.00     0.074 A 
ATOM     64  C   UNL A   1      44.935  28.836  36.968  1.00  0.00     0.029 A 
ATOM     65  N   UNL A   1      43.589  30.593  37.181  1.00  0.00    -0.354 N 
ATOM     66  N   UNL A   1      42.646  33.097  38.407  1.00  0.00    -0.248 NA
ATOM     67  C   UNL A   1      42.756  34.672  40.128  1.00  0.00     0.031 C 
ATOM     68  C   UNL A   1      45.276  29.516  38.142  1.00  0.00     0.029 A 
ATOM     69  C   UNL A   1      44.469  30.637  38.251  1.00  0.00     0.049 A 
ATOM     70  H   UNL A   1      42.880  31.253  37.006  1.00  0.00     0.167 HD
ATOM     71  C   UNL A   1      43.673  32.748  39.284  1.00  0.00     0.074 A 
ATOM     72  C   UNL A   1      43.719  33.779  40.299  1.00  0.00     0.031 C 
ATOM     73  C   UNL A   1      44.505  31.675  39.254  1.00  0.00     0.034 A 
BRANCH  60  74
ATOM     74  C   UNL A   1      43.504  27.859  34.467  1.00  0.00     0.023 A 
ATOM     75  C   UNL A   1      43.129  26.581  34.919  1.00  0.00     0.031 A 
ATOM     76  C   UNL A   1      44.277  27.942  33.296  1.00  0.00     0.131 A 
ATOM     77  C   UNL A   1      43.578  25.439  34.241  1.00  0.00     0.055 A 
ATOM     78  C   UNL A   1      44.653  26.805  32.580  1.00  0.00     0.041 A 
ATOM     79  F   UNL A   1      44.689  29.133  32.832  1.00  0.00    -0.206 F 
ATOM     80  C   UNL A   1      44.314  25.543  33.058  1.00  0.00     0.022 A 
BRANCH  77  81
ATOM     81  S   UNL A   1      43.302  23.815  35.000  1.00  0.00     0.124 S 
ATOM     82  O   UNL A   1      43.784  22.916  33.954  1.00  0.00    -0.237 OA
ATOM     83  O   UNL A   1      44.117  23.887  36.207  1.00  0.00    -0.237 OA
ATOM     84  O   UNL A   1      41.858  23.782  35.222  1.00  0.00    -0.744 OA
ENDBRANCH  77  81
ENDBRANCH  60  74
BRANCH  61  85
ATOM     85  C   UNL A   1      40.560  36.286  39.042  1.00  0.00     0.023 A 
ATOM     86  C   UNL A   1      41.367  37.429  39.149  1.00  0.00     0.031 A 
ATOM     87  C   UNL A   1      39.333  36.282  39.734  1.00  0.00     0.131 A 
ATOM     88  C   UNL A   1      40.975  38.488  39.985  1.00  0.00     0.055 A 
ATOM     89  C   UNL A   1      38.915  37.368  40.505  1.00  0.00     0.041 A 
ATOM     90  F   UNL A   1      38.523  35.214  39.678  1.00  0.00    -0.206 F 
ATOM     91  C   UNL A   1      39.747  38.472  40.649  1.00  0.00     0.022 A 
BRANCH  88  92
ATOM     92  S   UNL A   1      42.159  39.828  40.301  1.00  0.00     0.124 S 
ATOM     93  O   UNL A   1      43.313  39.389  39.526  1.00  0.00    -0.237 OA
ATOM     94  O   UNL A   1      41.443  40.991  39.788  1.00  0.00    -0.237 OA
ATOM     95  O   UNL A   1      42.330  39.793  41.752  1.00  0.00    -0.744 OA
ENDBRANCH  88  92
ENDBRANCH  61  85
BRANCH  73  96
ATOM     96  C   UNL A   1      45.579  31.598  40.316  1.00  0.00     0.023 A 
ATOM     97  C   UNL A   1      45.381  30.917  41.529  1.00  0.00     0.031 A 
ATOM     98  C   UNL A   1      46.822  32.225  40.106  1.00  0.00     0.131 A 
ATOM     99  C   UNL A   1      46.385  30.929  42.510  1.00  0.00     0.055 A 
ATOM    100  C   UNL A   1      47.842  32.172  41.056  1.00  0.00     0.041 A 
ATOM    101  F   UNL A   1      47.067  32.893  38.967  1.00  0.00    -0.206 F 
ATOM    102  C   UNL A   1      47.622  31.534  42.272  1.00  0.00     0.022 A 
BRANCH  99 103
ATOM    103  S   UNL A   1      46.017  30.231  44.143  1.00  0.00     0.124 S 
ATOM    104  O   UNL A   1      45.019  29.217  43.821  1.00  0.00    -0.237 OA
ATOM    105  O   UNL A   1      47.320  29.729  44.569  1.00  0.00    -0.237 OA
ATOM    106  O   UNL A   1      45.517  31.376  44.901  1.00  0.00    -0.744 OA
ENDBRANCH  99 103
ENDBRANCH  73  96
ENDBRANCH  47  48
ENDBRANCH  40  42
ENDBRANCH  39  40
ENDBRANCH  38  39
ENDBRANCH  37  38
ENDBRANCH  36  37
ENDBRANCH  35  36
ENDBRANCH  34  35
ENDBRANCH  33  34
ENDBRANCH   1  33
TORSDOF 29
ENDMDL
MODEL 2
REMARK VINA RESULT:      -8.0      5.309      9.547
REMARK SMILES C[C@@H](NC(=O)[C@@H]([NH3+])CC(=O)OCCOCCOCCOCCOC(=O)c1ccc(-c2c3nc(c(-c4cc(S(=O)(=O)[O-])ccc4F)c4ccc([nH]4)c(-c4cc(S(=O)(=O)[O-])ccc4F)c4nc(c(-c5cc(S(=O)(=O)[O-])ccc5F)c5ccc2[nH]5)C=C4)C=C3)cc1)C(=O)NC1C(C)(C)SC1(C)C
REMARK SMILES IDX 16 1 15 2 14 3 13 4 12 5 11 6 9 7 10 8 8 9 6 10 4 11 3 12
REMARK SMILES IDX 5 14 2 15 1 16 89 17 90 18 91 19 92 21 93 22 97 23 94 24
REMARK SMILES IDX 95 25 96 26 98 27 99 28 7 29 17 33 18 34 19 35 20 36 21 37
REMARK SMILES IDX 22 38 23 39 24 40 25 41 26 42 27 43 88 44 28 45 87 46 29 47
REMARK SMILES IDX 30 48 31 49 81 50 32 51 86 52 80 53 82 54 33 55 85 56 79 57
REMARK SMILES IDX 78 58 34 60 66 61 46 62 65 63 47 64 50 65 64 66 83 67 48 68
REMARK SMILES IDX 49 69 63 71 84 72 51 73 35 74 36 75 44 76 37 77 43 78 45 79
REMARK SMILES IDX 42 80 38 81 39 82 40 83 41 84 67 85 68 86 76 87 69 88 75 89
REMARK SMILES IDX 77 90 74 91 70 92 71 93 72 94 73 95 52 96 53 97 61 98 54 99
REMARK SMILES IDX 60 100 62 101 59 102 55 103 56 104 57 105 58 106
REMARK H PARENT 3 13 91 20 7 30 7 31 7 32 82 59 50 70
REMARK Flexibility Score: inf
ROOT
ATOM      1  C   UNL A   1      39.289  28.570  28.813  1.00  0.00     0.188 C 
ENDROOT
BRANCH   1   2
ATOM      2  C   UNL A   1      40.185  28.054  27.666  1.00  0.00     0.188 C 
BRANCH   2   3
ATOM      3  O   UNL A   1      39.666  26.882  27.070  1.00  0.00    -0.376 OA
BRANCH   3   4
ATOM      4  C   UNL A   1      40.318  25.633  27.220  1.00  0.00     0.202 C 
BRANCH   4   5
ATOM      5  C   UNL A   1      39.471  24.399  27.561  1.00  0.00     0.261 C 
BRANCH   5   6
ATOM      6  O   UNL A   1      38.160  24.398  27.009  1.00  0.00    -0.463 OA
BRANCH   6   7
ATOM      7  C   UNL A   1      37.840  23.618  25.959  1.00  0.00     0.312 C 
ATOM      8  O   UNL A   1      38.513  22.690  25.535  1.00  0.00    -0.252 OA
BRANCH   7   9
ATOM      9  C   UNL A   1      36.476  24.006  25.418  1.00  0.00     0.198 C 
BRANCH   9  10
ATOM     10  C   UNL A   1      35.376  23.106  25.986  1.00  0.00     0.282 C 
BRANCH  10  11
ATOM     11  C   UNL A   1      34.132  22.940  25.086  1.00  0.00     0.279 C 
ATOM     12  N   UNL A   1      32.879  23.300  25.459  1.00  0.00    -0.339 N 
ATOM     13  H   UNL A   1      32.218  23.376  24.732  1.00  0.00     0.164 HD
ATOM     14  O   UNL A   1      34.235  22.473  23.947  1.00  0.00    -0.268 OA
BRANCH  12  15
ATOM     15  C   UNL A   1      32.393  23.582  26.787  1.00  0.00     0.168 C 
ATOM     16  C   UNL A   1      32.688  22.460  27.778  1.00  0.00     0.041 C 
BRANCH  15  17
ATOM     17  C   UNL A   1      30.926  23.995  26.857  1.00  0.00     0.242 C 
ATOM     18  O   UNL A   1      30.092  23.124  27.158  1.00  0.00    -0.273 OA
ATOM     19  N   UNL A   1      30.401  25.210  26.552  1.00  0.00    -0.349 N 
ATOM     20  H   UNL A   1      29.526  25.303  26.993  1.00  0.00     0.163 HD
BRANCH  19  21
ATOM     21  C   UNL A   1      30.686  26.442  25.786  1.00  0.00     0.113 C 
ATOM     22  C   UNL A   1      31.957  27.372  25.905  1.00  0.00     0.032 C 
ATOM     23  C   UNL A   1      30.535  26.582  24.233  1.00  0.00     0.032 C 
ATOM     24  C   UNL A   1      31.966  28.299  27.132  1.00  0.00     0.025 C 
ATOM     25  C   UNL A   1      33.388  26.968  25.575  1.00  0.00     0.025 C 
ATOM     26  S   UNL A   1      31.212  28.326  24.428  1.00  0.00    -0.145 SA
ATOM     27  C   UNL A   1      31.359  25.893  23.150  1.00  0.00     0.025 C 
ATOM     28  C   UNL A   1      29.046  26.580  23.877  1.00  0.00     0.025 C 
ENDBRANCH  19  21
ENDBRANCH  15  17
ENDBRANCH  12  15
ENDBRANCH  10  11
BRANCH  10  29
ATOM     29  N   UNL A   1      35.912  21.832  26.504  1.00  0.00    -0.347 N 
ATOM     30  H   UNL A   1      36.583  21.450  25.838  1.00  0.00     0.345 HD
ATOM     31  H   UNL A   1      35.148  21.171  26.636  1.00  0.00     0.345 HD
ATOM     32  H   UNL A   1      36.376  21.997  27.398  1.00  0.00     0.345 HD
ENDBRANCH  10  29
ENDBRANCH   9  10
ENDBRANCH   7   9
ENDBRANCH   6   7
ENDBRANCH   5   6
ENDBRANCH   4   5
ENDBRANCH   3   4
ENDBRANCH   2   3
ENDBRANCH   1   2
BRANCH   1  33
ATOM     33  O   UNL A   1      37.953  28.957  28.506  1.00  0.00    -0.377 OA
BRANCH  33  34
ATOM     34  C   UNL A   1      37.375  30.050  29.230  1.00  0.00     0.188 C 
BRANCH  34  35
ATOM     35  C   UNL A   1      37.990  31.467  29.091  1.00  0.00     0.188 C 
BRANCH  35  36
ATOM     36  O   UNL A   1      37.238  32.523  29.673  1.00  0.00    -0.376 OA
BRANCH  36  37
ATOM     37  C   UNL A   1      36.011  32.170  30.302  1.00  0.00     0.202 C 
BRANCH  37  38
ATOM     38  C   UNL A   1      35.605  32.947  31.569  1.00  0.00     0.261 C 
BRANCH  38  39
ATOM     39  O   UNL A   1      36.684  33.431  32.382  1.00  0.00    -0.460 OA
BRANCH  39  40
ATOM     40  C   UNL A   1      36.919  32.764  33.538  1.00  0.00     0.338 C 
ATOM     41  O   UNL A   1      36.190  32.696  34.502  1.00  0.00    -0.246 OA
BRANCH  40  42
ATOM     42  C   UNL A   1      38.148  31.965  33.353  1.00  0.00     0.060 A 
ATOM     43  C   UNL A   1      39.377  32.516  33.735  1.00  0.00     0.016 A 
ATOM     44  C   UNL A   1      38.083  30.695  32.778  1.00  0.00     0.016 A 
ATOM     45  C   UNL A   1      40.557  31.810  33.510  1.00  0.00     0.010 A 
ATOM     46  C   UNL A   1      39.270  30.001  32.524  1.00  0.00     0.010 A 
ATOM     47  C   UNL A   1      40.513  30.572  32.856  1.00  0.00    -0.014 A 
BRANCH  47  48
ATOM     48  C   UNL A   1      41.767  29.996  32.314  1.00  0.00     0.031 A 
ATOM     49  C   UNL A   1      42.407  30.680  31.136  1.00  0.00     0.074 A 
ATOM     50  C   UNL A   1      42.352  28.925  32.881  1.00  0.00     0.049 A 
ATOM     51  N   UNL A   1      43.459  30.334  30.442  1.00  0.00    -0.248 NA
ATOM     52  C   UNL A   1      41.768  31.927  30.683  1.00  0.00     0.031 C 
ATOM     53  C   UNL A   1      41.862  28.222  34.065  1.00  0.00     0.029 A 
ATOM     54  N   UNL A   1      43.487  28.239  32.526  1.00  0.00    -0.354 N 
ATOM     55  C   UNL A   1      43.613  31.321  29.474  1.00  0.00     0.074 A 
ATOM     56  C   UNL A   1      42.518  32.252  29.641  1.00  0.00     0.031 C 
ATOM     57  C   UNL A   1      42.682  27.190  34.327  1.00  0.00     0.029 A 
ATOM     58  C   UNL A   1      43.726  27.131  33.305  1.00  0.00     0.049 A 
ATOM     59  H   UNL A   1      44.073  28.513  31.785  1.00  0.00     0.167 HD
ATOM     60  C   UNL A   1      44.588  31.448  28.542  1.00  0.00     0.034 A 
ATOM     61  C   UNL A   1      44.658  26.163  33.180  1.00  0.00     0.034 A 
ATOM     62  C   UNL A   1      45.661  30.500  28.373  1.00  0.00     0.049 A 
ATOM     63  C   UNL A   1      45.663  26.257  32.051  1.00  0.00     0.074 A 
ATOM     64  C   UNL A   1      46.685  30.514  27.443  1.00  0.00     0.029 A 
ATOM     65  N   UNL A   1      45.843  29.361  29.148  1.00  0.00    -0.354 N 
ATOM     66  N   UNL A   1      45.791  27.186  31.130  1.00  0.00    -0.248 NA
ATOM     67  C   UNL A   1      46.656  25.178  31.951  1.00  0.00     0.031 C 
ATOM     68  C   UNL A   1      47.442  29.350  27.608  1.00  0.00     0.029 A 
ATOM     69  C   UNL A   1      46.946  28.654  28.699  1.00  0.00     0.049 A 
ATOM     70  H   UNL A   1      45.271  29.096  29.905  1.00  0.00     0.167 HD
ATOM     71  C   UNL A   1      46.902  26.820  30.370  1.00  0.00     0.074 A 
ATOM     72  C   UNL A   1      47.416  25.599  30.951  1.00  0.00     0.031 C 
ATOM     73  C   UNL A   1      47.450  27.438  29.292  1.00  0.00     0.034 A 
BRANCH  60  74
ATOM     74  C   UNL A   1      44.508  32.633  27.611  1.00  0.00     0.023 A 
ATOM     75  C   UNL A   1      44.932  33.913  28.010  1.00  0.00     0.031 A 
ATOM     76  C   UNL A   1      43.986  32.487  26.314  1.00  0.00     0.131 A 
ATOM     77  C   UNL A   1      44.769  35.005  27.146  1.00  0.00     0.055 A 
ATOM     78  C   UNL A   1      43.902  33.562  25.429  1.00  0.00     0.041 A 
ATOM     79  F   UNL A   1      43.539  31.295  25.887  1.00  0.00    -0.206 F 
ATOM     80  C   UNL A   1      44.283  34.834  25.847  1.00  0.00     0.022 A 
BRANCH  77  81
ATOM     81  S   UNL A   1      45.075  36.673  27.788  1.00  0.00     0.124 S 
ATOM     82  O   UNL A   1      46.388  36.970  27.220  1.00  0.00    -0.237 OA
ATOM     83  O   UNL A   1      43.956  37.432  27.243  1.00  0.00    -0.237 OA
ATOM     84  O   UNL A   1      45.058  36.490  29.238  1.00  0.00    -0.744 OA
ENDBRANCH  77  81
ENDBRANCH  60  74
BRANCH  61  85
ATOM     85  C   UNL A   1      44.661  24.979  34.093  1.00  0.00     0.023 A 
ATOM     86  C   UNL A   1      45.167  25.064  35.399  1.00  0.00     0.031 A 
ATOM     87  C   UNL A   1      44.245  23.715  33.632  1.00  0.00     0.131 A 
ATOM     88  C   UNL A   1      45.311  23.900  36.172  1.00  0.00     0.055 A 
ATOM     89  C   UNL A   1      44.322  22.573  34.431  1.00  0.00     0.041 A 
ATOM     90  F   UNL A   1      43.761  23.569  32.388  1.00  0.00    -0.206 F 
ATOM     91  C   UNL A   1      44.877  22.659  35.703  1.00  0.00     0.022 A 
BRANCH  88  92
ATOM     92  S   UNL A   1      46.206  24.010  37.748  1.00  0.00     0.124 S 
ATOM     93  O   UNL A   1      46.410  25.449  37.871  1.00  0.00    -0.237 OA
ATOM     94  O   UNL A   1      45.253  23.414  38.678  1.00  0.00    -0.237 OA
ATOM     95  O   UNL A   1      47.415  23.226  37.507  1.00  0.00    -0.744 OA
ENDBRANCH  88  92
ENDBRANCH  61  85
BRANCH  73  96
ATOM     96  C   UNL A   1      48.709  26.834  28.712  1.00  0.00     0.023 A 
ATOM     97  C   UNL A   1      49.990  27.231  29.132  1.00  0.00     0.031 A 
ATOM     98  C   UNL A   1      48.620  25.843  27.716  1.00  0.00     0.131 A 
ATOM     99  C   UNL A   1      51.128  26.687  28.517  1.00  0.00     0.055 A 
ATOM    100  C   UNL A   1      49.755  25.254  27.160  1.00  0.00     0.041 A 
ATOM    101  F   UNL A   1      47.423  25.425  27.273  1.00  0.00    -0.206 F 
ATOM    102  C   UNL A   1      51.019  25.686  27.549  1.00  0.00     0.022 A 
BRANCH  99 103
ATOM    103  S   UNL A   1      52.755  27.378  28.927  1.00  0.00     0.124 S 
ATOM    104  O   UNL A   1      53.308  26.353  29.804  1.00  0.00    -0.237 OA
ATOM    105  O   UNL A   1      53.382  27.500  27.615  1.00  0.00    -0.237 OA
ATOM    106  O   UNL A   1      52.434  28.646  29.579  1.00  0.00    -0.744 OA
ENDBRANCH  99 103
ENDBRANCH  73  96
ENDBRANCH  47  48
ENDBRANCH  40  42
ENDBRANCH  39  40
ENDBRANCH  38  39
ENDBRANCH  37  38
ENDBRANCH  36  37
ENDBRANCH  35  36
ENDBRANCH  34  35
ENDBRANCH  33  34
ENDBRANCH   1  33
TORSDOF 29
ENDMDL
MODEL 3
REMARK VINA RESULT:      -7.9      3.138      4.125
REMARK SMILES C[C@@H](NC(=O)[C@@H]([NH3+])CC(=O)OCCOCCOCCOCCOC(=O)c1ccc(-c2c3nc(c(-c4cc(S(=O)(=O)[O-])ccc4F)c4ccc([nH]4)c(-c4cc(S(=O)(=O)[O-])ccc4F)c4nc(c(-c5cc(S(=O)(=O)[O-])ccc5F)c5ccc2[nH]5)C=C4)C=C3)cc1)C(=O)NC1C(C)(C)SC1(C)C
REMARK SMILES IDX 16 1 15 2 14 3 13 4 12 5 11 6 9 7 10 8 8 9 6 10 4 11 3 12
REMARK SMILES IDX 5 14 2 15 1 16 89 17 90 18 91 19 92 21 93 22 97 23 94 24
REMARK SMILES IDX 95 25 96 26 98 27 99 28 7 29 17 33 18 34 19 35 20 36 21 37
REMARK SMILES IDX 22 38 23 39 24 40 25 41 26 42 27 43 88 44 28 45 87 46 29 47
REMARK SMILES IDX 30 48 31 49 81 50 32 51 86 52 80 53 82 54 33 55 85 56 79 57
REMARK SMILES IDX 78 58 34 60 66 61 46 62 65 63 47 64 50 65 64 66 83 67 48 68
REMARK SMILES IDX 49 69 63 71 84 72 51 73 35 74 36 75 44 76 37 77 43 78 45 79
REMARK SMILES IDX 42 80 38 81 39 82 40 83 41 84 67 85 68 86 76 87 69 88 75 89
REMARK SMILES IDX 77 90 74 91 70 92 71 93 72 94 73 95 52 96 53 97 61 98 54 99
REMARK SMILES IDX 60 100 62 101 59 102 55 103 56 104 57 105 58 106
REMARK H PARENT 3 13 91 20 7 30 7 31 7 32 82 59 50 70
REMARK Flexibility Score: inf
ROOT
ATOM      1  C   UNL A   1      39.846  27.091  29.247  1.00  0.00     0.188 C 
ENDROOT
BRANCH   1   2
ATOM      2  C   UNL A   1      40.437  26.093  28.226  1.00  0.00     0.188 C 
BRANCH   2   3
ATOM      3  O   UNL A   1      39.510  25.754  27.214  1.00  0.00    -0.376 OA
BRANCH   3   4
ATOM      4  C   UNL A   1      39.630  24.544  26.487  1.00  0.00     0.202 C 
BRANCH   4   5
ATOM      5  C   UNL A   1      38.473  23.536  26.545  1.00  0.00     0.261 C 
BRANCH   5   6
ATOM      6  O   UNL A   1      37.239  24.007  26.017  1.00  0.00    -0.463 OA
BRANCH   6   7
ATOM      7  C   UNL A   1      36.290  23.157  25.583  1.00  0.00     0.312 C 
ATOM      8  O   UNL A   1      35.958  22.121  26.140  1.00  0.00    -0.252 OA
BRANCH   7   9
ATOM      9  C   UNL A   1      35.629  23.707  24.333  1.00  0.00     0.198 C 
BRANCH   9  10
ATOM     10  C   UNL A   1      34.290  24.372  24.658  1.00  0.00     0.282 C 
BRANCH  10  11
ATOM     11  C   UNL A   1      33.074  23.815  23.884  1.00  0.00     0.279 C 
ATOM     12  N   UNL A   1      31.811  23.799  24.377  1.00  0.00    -0.339 N 
ATOM     13  H   UNL A   1      31.093  23.652  23.718  1.00  0.00     0.164 HD
ATOM     14  O   UNL A   1      33.206  23.362  22.743  1.00  0.00    -0.268 OA
BRANCH  12  15
ATOM     15  C   UNL A   1      31.388  23.967  25.745  1.00  0.00     0.168 C 
ATOM     16  C   UNL A   1      30.686  22.734  26.306  1.00  0.00     0.041 C 
BRANCH  15  17
ATOM     17  C   UNL A   1      30.566  25.226  26.010  1.00  0.00     0.242 C 
ATOM     18  O   UNL A   1      29.449  25.089  26.537  1.00  0.00    -0.273 OA
ATOM     19  N   UNL A   1      30.885  26.501  25.663  1.00  0.00    -0.349 N 
ATOM     20  H   UNL A   1      30.376  27.124  26.230  1.00  0.00     0.163 HD
BRANCH  19  21
ATOM     21  C   UNL A   1      31.729  27.278  24.731  1.00  0.00     0.113 C 
ATOM     22  C   UNL A   1      31.338  27.800  23.293  1.00  0.00     0.032 C 
ATOM     23  C   UNL A   1      32.573  28.537  25.131  1.00  0.00     0.032 C 
ATOM     24  C   UNL A   1      31.353  26.728  22.191  1.00  0.00     0.025 C 
ATOM     25  C   UNL A   1      30.250  28.819  22.983  1.00  0.00     0.025 C 
ATOM     26  S   UNL A   1      33.036  28.673  23.313  1.00  0.00    -0.145 SA
ATOM     27  C   UNL A   1      32.058  29.902  25.573  1.00  0.00     0.025 C 
ATOM     28  C   UNL A   1      33.756  28.087  25.992  1.00  0.00     0.025 C 
ENDBRANCH  19  21
ENDBRANCH  15  17
ENDBRANCH  12  15
ENDBRANCH  10  11
BRANCH  10  29
ATOM     29  N   UNL A   1      34.068  24.492  26.112  1.00  0.00    -0.347 N 
ATOM     30  H   UNL A   1      34.757  25.129  26.510  1.00  0.00     0.345 HD
ATOM     31  H   UNL A   1      34.160  23.574  26.547  1.00  0.00     0.345 HD
ATOM     32  H   UNL A   1      33.130  24.855  26.283  1.00  0.00     0.345 HD
ENDBRANCH  10  29
ENDBRANCH   9  10
ENDBRANCH   7   9
ENDBRANCH   6   7
ENDBRANCH   5   6
ENDBRANCH   4   5
ENDBRANCH   3   4
ENDBRANCH   2   3
ENDBRANCH   1   2
BRANCH   1  33
ATOM     33  O   UNL A   1      38.458  27.400  29.164  1.00  0.00    -0.377 OA
BRANCH  33  34
ATOM     34  C   UNL A   1      38.063  28.777  29.188  1.00  0.00     0.188 C 
BRANCH  34  35
ATOM     35  C   UNL A   1      38.299  29.661  27.935  1.00  0.00     0.188 C 
BRANCH  35  36
ATOM     36  O   UNL A   1      37.148  30.313  27.418  1.00  0.00    -0.376 OA
BRANCH  36  37
ATOM     37  C   UNL A   1      35.902  30.011  28.036  1.00  0.00     0.202 C 
BRANCH  37  38
ATOM     38  C   UNL A   1      34.786  31.069  27.957  1.00  0.00     0.261 C 
BRANCH  38  39
ATOM     39  O   UNL A   1      35.213  32.439  28.031  1.00  0.00    -0.460 OA
BRANCH  39  40
ATOM     40  C   UNL A   1      34.702  33.179  29.045  1.00  0.00     0.338 C 
ATOM     41  O   UNL A   1      33.605  33.689  29.095  1.00  0.00    -0.246 OA
BRANCH  40  42
ATOM     42  C   UNL A   1      35.648  33.101  30.178  1.00  0.00     0.060 A 
ATOM     43  C   UNL A   1      36.706  34.017  30.239  1.00  0.00     0.016 A 
ATOM     44  C   UNL A   1      35.502  32.113  31.151  1.00  0.00     0.016 A 
ATOM     45  C   UNL A   1      37.649  33.923  31.260  1.00  0.00     0.010 A 
ATOM     46  C   UNL A   1      36.467  32.000  32.157  1.00  0.00     0.010 A 
ATOM     47  C   UNL A   1      37.563  32.883  32.193  1.00  0.00    -0.014 A 
BRANCH  47  48
ATOM     48  C   UNL A   1      38.735  32.581  33.050  1.00  0.00     0.031 A 
ATOM     49  C   UNL A   1      39.868  31.796  32.445  1.00  0.00     0.074 A 
ATOM     50  C   UNL A   1      38.818  33.034  34.314  1.00  0.00     0.049 A 
ATOM     51  N   UNL A   1      40.962  31.349  33.002  1.00  0.00    -0.248 NA
ATOM     52  C   UNL A   1      39.745  31.475  31.014  1.00  0.00     0.031 C 
ATOM     53  C   UNL A   1      37.815  33.860  34.983  1.00  0.00     0.029 A 
ATOM     54  N   UNL A   1      39.793  32.852  35.263  1.00  0.00    -0.354 N 
ATOM     55  C   UNL A   1      41.661  30.699  31.991  1.00  0.00     0.074 A 
ATOM     56  C   UNL A   1      40.843  30.769  30.799  1.00  0.00     0.031 C 
ATOM     57  C   UNL A   1      38.219  34.098  36.243  1.00  0.00     0.029 A 
ATOM     58  C   UNL A   1      39.484  33.403  36.484  1.00  0.00     0.049 A 
ATOM     59  H   UNL A   1      40.635  32.372  35.086  1.00  0.00     0.167 HD
ATOM     60  C   UNL A   1      42.881  30.111  32.048  1.00  0.00     0.034 A 
ATOM     61  C   UNL A   1      40.129  33.321  37.666  1.00  0.00     0.034 A 
ATOM     62  C   UNL A   1      43.674  30.030  33.248  1.00  0.00     0.049 A 
ATOM     63  C   UNL A   1      41.430  32.550  37.736  1.00  0.00     0.074 A 
ATOM     64  C   UNL A   1      44.909  29.433  33.426  1.00  0.00     0.029 A 
ATOM     65  N   UNL A   1      43.306  30.555  34.480  1.00  0.00    -0.354 N 
ATOM     66  N   UNL A   1      42.076  31.924  36.777  1.00  0.00    -0.248 NA
ATOM     67  C   UNL A   1      42.096  32.483  39.045  1.00  0.00     0.031 C 
ATOM     68  C   UNL A   1      45.254  29.533  34.778  1.00  0.00     0.029 A 
ATOM     69  C   UNL A   1      44.277  30.272  35.426  1.00  0.00     0.049 A 
ATOM     70  H   UNL A   1      42.475  31.055  34.655  1.00  0.00     0.167 HD
ATOM     71  C   UNL A   1      43.240  31.426  37.363  1.00  0.00     0.074 A 
ATOM     72  C   UNL A   1      43.215  31.840  38.749  1.00  0.00     0.031 C 
ATOM     73  C   UNL A   1      44.240  30.696  36.806  1.00  0.00     0.034 A 
BRANCH  60  74
ATOM     74  C   UNL A   1      43.404  29.476  30.782  1.00  0.00     0.023 A 
ATOM     75  C   UNL A   1      44.085  30.228  29.809  1.00  0.00     0.031 A 
ATOM     76  C   UNL A   1      43.206  28.107  30.537  1.00  0.00     0.131 A 
ATOM     77  C   UNL A   1      44.488  29.620  28.610  1.00  0.00     0.055 A 
ATOM     78  C   UNL A   1      43.681  27.490  29.379  1.00  0.00     0.041 A 
ATOM     79  F   UNL A   1      42.538  27.344  31.417  1.00  0.00    -0.206 F 
ATOM     80  C   UNL A   1      44.316  28.250  28.401  1.00  0.00     0.022 A 
BRANCH  77  81
ATOM     81  S   UNL A   1      45.119  30.672  27.274  1.00  0.00     0.124 S 
ATOM     82  O   UNL A   1      46.218  31.366  27.941  1.00  0.00    -0.237 OA
ATOM     83  O   UNL A   1      45.501  29.697  26.259  1.00  0.00    -0.237 OA
ATOM     84  O   UNL A   1      43.975  31.514  26.932  1.00  0.00    -0.744 OA
ENDBRANCH  77  81
ENDBRANCH  60  74
BRANCH  61  85
ATOM     85  C   UNL A   1      39.541  33.918  38.904  1.00  0.00     0.023 A 
ATOM     86  C   UNL A   1      38.591  33.226  39.671  1.00  0.00     0.031 A 
ATOM     87  C   UNL A   1      39.851  35.240  39.281  1.00  0.00     0.131 A 
ATOM     88  C   UNL A   1      37.934  33.878  40.727  1.00  0.00     0.055 A 
ATOM     89  C   UNL A   1      39.248  35.857  40.377  1.00  0.00     0.041 A 
ATOM     90  F   UNL A   1      40.744  35.956  38.580  1.00  0.00    -0.206 F 
ATOM     91  C   UNL A   1      38.268  35.182  41.095  1.00  0.00     0.022 A 
BRANCH  88  92
ATOM     92  S   UNL A   1      36.534  33.042  41.526  1.00  0.00     0.124 S 
ATOM     93  O   UNL A   1      37.212  32.009  42.302  1.00  0.00    -0.237 OA
ATOM     94  O   UNL A   1      35.929  34.127  42.289  1.00  0.00    -0.237 OA
ATOM     95  O   UNL A   1      35.742  32.556  40.399  1.00  0.00    -0.744 OA
ENDBRANCH  88  92
ENDBRANCH  61  85
BRANCH  73  96
ATOM     96  C   UNL A   1      45.422  30.354  37.685  1.00  0.00     0.023 A 
ATOM     97  C   UNL A   1      45.450  29.196  38.482  1.00  0.00     0.031 A 
ATOM     98  C   UNL A   1      46.540  31.209  37.725  1.00  0.00     0.131 A 
ATOM     99  C   UNL A   1      46.543  28.956  39.329  1.00  0.00     0.055 A 
ATOM    100  C   UNL A   1      47.654  30.927  38.515  1.00  0.00     0.041 A 
ATOM    101  F   UNL A   1      46.569  32.330  36.988  1.00  0.00    -0.206 F 
ATOM    102  C   UNL A   1      47.654  29.803  39.335  1.00  0.00     0.022 A 
BRANCH  99 103
ATOM    103  S   UNL A   1      46.450  27.575  40.501  1.00  0.00     0.124 S 
ATOM    104  O   UNL A   1      47.701  27.716  41.237  1.00  0.00    -0.237 OA
ATOM    105  O   UNL A   1      45.234  27.880  41.248  1.00  0.00    -0.237 OA
ATOM    106  O   UNL A   1      46.367  26.398  39.638  1.00  0.00    -0.744 OA
ENDBRANCH  99 103
ENDBRANCH  73  96
ENDBRANCH  47  48
ENDBRANCH  40  42
ENDBRANCH  39  40
ENDBRANCH  38  39
ENDBRANCH  37  38
ENDBRANCH  36  37
ENDBRANCH  35  36
ENDBRANCH  34  35
ENDBRANCH  33  34
ENDBRANCH   1  33
TORSDOF 29
ENDMDL
