MODEL 1
REMARK VINA RESULT:     -10.9      0.000      0.000
REMARK SMILES O=C(CCC(=O)OCCOCCOCCOCCOC(=O)c1ccc(-c2c3nc(c(-c4cc(S(=O)(=O)[O-])ccc4F)c4ccc([nH]4)c(-c4cc(S(=O)(=O)[O-])ccc4F)c4nc(c(-c5cc(S(=O)(=O)[O-])ccc5F)c5ccc2[nH]5)C=C4)C=C3)cc1)Nc1ccc2nc(-c3ccccc3)oc2c1
REMARK SMILES IDX 12 1 11 2 10 3 9 4 8 5 7 6 5 7 6 8 4 9 3 10 2 11 1 12 85 13
REMARK SMILES IDX 86 15 87 16 100 17 88 18 99 19 89 20 98 21 90 22 91 23 92 24
REMARK SMILES IDX 93 25 97 26 94 27 96 28 95 29 13 30 14 31 15 32 16 33 17 34
REMARK SMILES IDX 18 35 19 36 20 37 21 38 22 39 23 40 84 41 24 42 83 43 25 44
REMARK SMILES IDX 26 45 27 46 77 47 28 48 82 49 76 50 78 51 29 52 81 53 75 54
REMARK SMILES IDX 74 55 30 57 62 58 42 59 61 60 43 61 46 62 60 63 79 64 44 65
REMARK SMILES IDX 45 66 59 68 80 69 47 70 31 71 32 72 40 73 33 74 39 75 41 76
REMARK SMILES IDX 38 77 34 78 35 79 36 80 37 81 63 82 64 83 72 84 65 85 71 86
REMARK SMILES IDX 73 87 70 88 66 89 67 90 68 91 69 92 48 93 49 94 57 95 50 96
REMARK SMILES IDX 56 97 58 98 55 99 51 100 52 101 53 102 54 103
REMARK H PARENT 85 14 78 56 46 67
REMARK Flexibility Score: inf
ROOT
ATOM      1  C   UNL A   1      34.980  23.259  22.904  1.00  0.00     0.188 C 
ENDROOT
BRANCH   1   2
ATOM      2  C   UNL A   1      33.599  23.866  22.638  1.00  0.00     0.188 C 
BRANCH   2   3
ATOM      3  O   UNL A   1      33.433  25.199  23.053  1.00  0.00    -0.376 OA
BRANCH   3   4
ATOM      4  C   UNL A   1      32.304  25.949  22.637  1.00  0.00     0.202 C 
BRANCH   4   5
ATOM      5  C   UNL A   1      32.048  27.433  22.974  1.00  0.00     0.261 C 
BRANCH   5   6
ATOM      6  O   UNL A   1      30.782  27.806  23.563  1.00  0.00    -0.463 OA
BRANCH   6   7
ATOM      7  C   UNL A   1      30.806  28.919  24.337  1.00  0.00     0.306 C 
ATOM      8  O   UNL A   1      30.269  29.977  24.014  1.00  0.00    -0.252 OA
BRANCH   7   9
ATOM      9  C   UNL A   1      31.512  28.814  25.678  1.00  0.00     0.132 C 
BRANCH   9  10
ATOM     10  C   UNL A   1      31.456  27.642  26.653  1.00  0.00     0.112 C 
BRANCH  10  11
ATOM     11  C   UNL A   1      32.354  26.454  26.397  1.00  0.00     0.224 C 
ATOM     12  O   UNL A   1      33.544  26.608  26.142  1.00  0.00    -0.275 OA
ATOM     13  N   UNL A   1      31.698  25.255  26.494  1.00  0.00    -0.326 N 
ATOM     14  H   UNL A   1      30.747  25.285  26.750  1.00  0.00     0.169 HD
BRANCH  13  15
ATOM     15  C   UNL A   1      32.255  23.992  26.262  1.00  0.00     0.045 A 
ATOM     16  C   UNL A   1      33.520  23.801  26.836  1.00  0.00     0.028 A 
ATOM     17  C   UNL A   1      31.596  22.975  25.543  1.00  0.00     0.075 A 
ATOM     18  C   UNL A   1      34.134  22.558  26.806  1.00  0.00     0.034 A 
ATOM     19  C   UNL A   1      32.267  21.758  25.485  1.00  0.00     0.157 A 
ATOM     20  C   UNL A   1      33.475  21.540  26.123  1.00  0.00     0.110 A 
ATOM     21  O   UNL A   1      31.905  20.577  24.862  1.00  0.00    -0.436 OA
ATOM     22  N   UNL A   1      33.843  20.259  25.981  1.00  0.00    -0.209 NA
ATOM     23  C   UNL A   1      32.921  19.718  25.217  1.00  0.00     0.227 A 
BRANCH  23  24
ATOM     24  C   UNL A   1      32.881  18.306  24.856  1.00  0.00     0.037 A 
ATOM     25  C   UNL A   1      33.594  17.813  23.757  1.00  0.00     0.014 A 
ATOM     26  C   UNL A   1      32.426  17.396  25.828  1.00  0.00     0.014 A 
ATOM     27  C   UNL A   1      33.894  16.446  23.670  1.00  0.00     0.001 A 
ATOM     28  C   UNL A   1      32.745  16.039  25.752  1.00  0.00     0.001 A 
ATOM     29  C   UNL A   1      33.489  15.567  24.676  1.00  0.00     0.000 A 
ENDBRANCH  23  24
ENDBRANCH  13  15
ENDBRANCH  10  11
ENDBRANCH   9  10
ENDBRANCH   7   9
ENDBRANCH   6   7
ENDBRANCH   5   6
ENDBRANCH   4   5
ENDBRANCH   3   4
ENDBRANCH   2   3
ENDBRANCH   1   2
BRANCH   1  30
ATOM     30  O   UNL A   1      35.723  23.750  24.009  1.00  0.00    -0.377 OA
BRANCH  30  31
ATOM     31  C   UNL A   1      36.869  23.037  24.481  1.00  0.00     0.188 C 
BRANCH  31  32
ATOM     32  C   UNL A   1      36.921  21.494  24.499  1.00  0.00     0.188 C 
BRANCH  32  33
ATOM     33  O   UNL A   1      37.881  20.941  25.380  1.00  0.00    -0.376 OA
BRANCH  33  34
ATOM     34  C   UNL A   1      38.420  19.669  25.052  1.00  0.00     0.202 C 
BRANCH  34  35
ATOM     35  C   UNL A   1      39.583  19.145  25.913  1.00  0.00     0.261 C 
BRANCH  35  36
ATOM     36  O   UNL A   1      40.819  19.878  25.834  1.00  0.00    -0.460 OA
BRANCH  36  37
ATOM     37  C   UNL A   1      41.534  20.019  26.969  1.00  0.00     0.338 C 
ATOM     38  O   UNL A   1      42.232  19.163  27.499  1.00  0.00    -0.246 OA
BRANCH  37  39
ATOM     39  C   UNL A   1      41.497  21.438  27.378  1.00  0.00     0.060 A 
ATOM     40  C   UNL A   1      40.828  22.362  26.565  1.00  0.00     0.016 A 
ATOM     41  C   UNL A   1      42.154  21.867  28.533  1.00  0.00     0.016 A 
ATOM     42  C   UNL A   1      40.862  23.725  26.873  1.00  0.00     0.010 A 
ATOM     43  C   UNL A   1      42.195  23.236  28.835  1.00  0.00     0.010 A 
ATOM     44  C   UNL A   1      41.584  24.181  27.984  1.00  0.00    -0.014 A 
BRANCH  44  45
ATOM     45  C   UNL A   1      41.914  25.633  28.116  1.00  0.00     0.031 A 
ATOM     46  C   UNL A   1      43.278  26.079  27.649  1.00  0.00     0.074 A 
ATOM     47  C   UNL A   1      41.017  26.550  28.539  1.00  0.00     0.049 A 
ATOM     48  N   UNL A   1      43.853  27.247  27.751  1.00  0.00    -0.248 NA
ATOM     49  C   UNL A   1      44.088  25.073  26.937  1.00  0.00     0.031 C 
ATOM     50  C   UNL A   1      39.612  26.273  28.820  1.00  0.00     0.029 A 
ATOM     51  N   UNL A   1      41.142  27.894  28.814  1.00  0.00    -0.354 N 
ATOM     52  C   UNL A   1      45.067  27.130  27.080  1.00  0.00     0.074 A 
ATOM     53  C   UNL A   1      45.183  25.757  26.646  1.00  0.00     0.031 C 
ATOM     54  C   UNL A   1      39.019  27.393  29.272  1.00  0.00     0.029 A 
ATOM     55  C   UNL A   1      40.009  28.458  29.378  1.00  0.00     0.049 A 
ATOM     56  H   UNL A   1      41.962  28.407  28.627  1.00  0.00     0.167 HD
ATOM     57  C   UNL A   1      45.981  28.095  26.820  1.00  0.00     0.034 A 
ATOM     58  C   UNL A   1      39.820  29.668  29.959  1.00  0.00     0.034 A 
ATOM     59  C   UNL A   1      45.844  29.454  27.279  1.00  0.00     0.049 A 
ATOM     60  C   UNL A   1      41.010  30.614  29.958  1.00  0.00     0.074 A 
ATOM     61  C   UNL A   1      46.714  30.515  27.109  1.00  0.00     0.029 A 
ATOM     62  N   UNL A   1      44.764  29.937  28.007  1.00  0.00    -0.354 N 
ATOM     63  N   UNL A   1      42.175  30.483  29.360  1.00  0.00    -0.248 NA
ATOM     64  C   UNL A   1      40.862  31.876  30.694  1.00  0.00     0.031 C 
ATOM     65  C   UNL A   1      46.201  31.614  27.802  1.00  0.00     0.029 A 
ATOM     66  C   UNL A   1      44.965  31.269  28.328  1.00  0.00     0.049 A 
ATOM     67  H   UNL A   1      43.971  29.410  28.259  1.00  0.00     0.167 HD
ATOM     68  C   UNL A   1      42.841  31.693  29.550  1.00  0.00     0.074 A 
ATOM     69  C   UNL A   1      41.966  32.522  30.351  1.00  0.00     0.031 C 
ATOM     70  C   UNL A   1      44.048  32.096  29.077  1.00  0.00     0.034 A 
BRANCH  57  71
ATOM     71  C   UNL A   1      47.211  27.706  26.037  1.00  0.00     0.023 A 
ATOM     72  C   UNL A   1      47.296  27.907  24.647  1.00  0.00     0.031 A 
ATOM     73  C   UNL A   1      48.314  27.123  26.686  1.00  0.00     0.131 A 
ATOM     74  C   UNL A   1      48.437  27.485  23.947  1.00  0.00     0.055 A 
ATOM     75  C   UNL A   1      49.475  26.773  25.994  1.00  0.00     0.041 A 
ATOM     76  F   UNL A   1      48.279  26.882  28.006  1.00  0.00    -0.206 F 
ATOM     77  C   UNL A   1      49.537  26.944  24.614  1.00  0.00     0.022 A 
BRANCH  74  78
ATOM     78  S   UNL A   1      48.418  27.545  22.133  1.00  0.00     0.124 S 
ATOM     79  O   UNL A   1      49.600  28.357  21.853  1.00  0.00    -0.237 OA
ATOM     80  O   UNL A   1      48.511  26.136  21.770  1.00  0.00    -0.237 OA
ATOM     81  O   UNL A   1      47.142  28.186  21.824  1.00  0.00    -0.744 OA
ENDBRANCH  74  78
ENDBRANCH  57  71
BRANCH  58  82
ATOM     82  C   UNL A   1      38.544  30.059  30.679  1.00  0.00     0.023 A 
ATOM     83  C   UNL A   1      37.572  30.909  30.127  1.00  0.00     0.031 A 
ATOM     84  C   UNL A   1      38.346  29.710  32.024  1.00  0.00     0.131 A 
ATOM     85  C   UNL A   1      36.536  31.431  30.937  1.00  0.00     0.055 A 
ATOM     86  C   UNL A   1      37.304  30.188  32.819  1.00  0.00     0.041 A 
ATOM     87  F   UNL A   1      39.197  28.889  32.625  1.00  0.00    -0.206 F 
ATOM     88  C   UNL A   1      36.402  31.081  32.281  1.00  0.00     0.022 A 
BRANCH  85  89
ATOM     89  S   UNL A   1      35.415  32.679  30.248  1.00  0.00     0.124 S 
ATOM     90  O   UNL A   1      34.309  32.643  31.196  1.00  0.00    -0.237 OA
ATOM     91  O   UNL A   1      36.252  33.873  30.275  1.00  0.00    -0.237 OA
ATOM     92  O   UNL A   1      35.110  32.164  28.914  1.00  0.00    -0.744 OA
ENDBRANCH  85  89
ENDBRANCH  58  82
BRANCH  70  93
ATOM     93  C   UNL A   1      44.415  33.548  29.270  1.00  0.00     0.023 A 
ATOM     94  C   UNL A   1      43.967  34.563  28.410  1.00  0.00     0.031 A 
ATOM     95  C   UNL A   1      45.244  33.913  30.349  1.00  0.00     0.131 A 
ATOM     96  C   UNL A   1      44.401  35.883  28.606  1.00  0.00     0.055 A 
ATOM     97  C   UNL A   1      45.612  35.238  30.581  1.00  0.00     0.041 A 
ATOM     98  F   UNL A   1      45.703  32.984  31.204  1.00  0.00    -0.206 F 
ATOM     99  C   UNL A   1      45.202  36.230  29.698  1.00  0.00     0.022 A 
BRANCH  96 100
ATOM    100  S   UNL A   1      43.990  37.126  27.352  1.00  0.00     0.124 S 
ATOM    101  O   UNL A   1      43.520  38.238  28.170  1.00  0.00    -0.237 OA
ATOM    102  O   UNL A   1      45.271  37.327  26.681  1.00  0.00    -0.237 OA
ATOM    103  O   UNL A   1      42.964  36.471  26.542  1.00  0.00    -0.744 OA
ENDBRANCH  96 100
ENDBRANCH  70  93
ENDBRANCH  44  45
ENDBRANCH  37  39
ENDBRANCH  36  37
ENDBRANCH  35  36
ENDBRANCH  34  35
ENDBRANCH  33  34
ENDBRANCH  32  33
ENDBRANCH  31  32
ENDBRANCH  30  31
ENDBRANCH   1  30
TORSDOF 27
ENDMDL
MODEL 2
REMARK VINA RESULT:     -10.4      1.758      2.022
REMARK SMILES O=C(CCC(=O)OCCOCCOCCOCCOC(=O)c1ccc(-c2c3nc(c(-c4cc(S(=O)(=O)[O-])ccc4F)c4ccc([nH]4)c(-c4cc(S(=O)(=O)[O-])ccc4F)c4nc(c(-c5cc(S(=O)(=O)[O-])ccc5F)c5ccc2[nH]5)C=C4)C=C3)cc1)Nc1ccc2nc(-c3ccccc3)oc2c1
REMARK SMILES IDX 12 1 11 2 10 3 9 4 8 5 7 6 5 7 6 8 4 9 3 10 2 11 1 12 85 13
REMARK SMILES IDX 86 15 87 16 100 17 88 18 99 19 89 20 98 21 90 22 91 23 92 24
REMARK SMILES IDX 93 25 97 26 94 27 96 28 95 29 13 30 14 31 15 32 16 33 17 34
REMARK SMILES IDX 18 35 19 36 20 37 21 38 22 39 23 40 84 41 24 42 83 43 25 44
REMARK SMILES IDX 26 45 27 46 77 47 28 48 82 49 76 50 78 51 29 52 81 53 75 54
REMARK SMILES IDX 74 55 30 57 62 58 42 59 61 60 43 61 46 62 60 63 79 64 44 65
REMARK SMILES IDX 45 66 59 68 80 69 47 70 31 71 32 72 40 73 33 74 39 75 41 76
REMARK SMILES IDX 38 77 34 78 35 79 36 80 37 81 63 82 64 83 72 84 65 85 71 86
REMARK SMILES IDX 73 87 70 88 66 89 67 90 68 91 69 92 48 93 49 94 57 95 50 96
REMARK SMILES IDX 56 97 58 98 55 99 51 100 52 101 53 102 54 103
REMARK H PARENT 85 14 78 56 46 67
REMARK Flexibility Score: inf
ROOT
ATOM      1  C   UNL A   1      34.717  23.186  22.858  1.00  0.00     0.188 C 
ENDROOT
BRANCH   1   2
ATOM      2  C   UNL A   1      33.437  23.882  22.387  1.00  0.00     0.188 C 
BRANCH   2   3
ATOM      3  O   UNL A   1      33.620  25.124  21.753  1.00  0.00    -0.376 OA
BRANCH   3   4
ATOM      4  C   UNL A   1      32.525  26.000  21.551  1.00  0.00     0.202 C 
BRANCH   4   5
ATOM      5  C   UNL A   1      32.139  27.172  22.479  1.00  0.00     0.261 C 
BRANCH   5   6
ATOM      6  O   UNL A   1      30.780  27.260  22.961  1.00  0.00    -0.463 OA
BRANCH   6   7
ATOM      7  C   UNL A   1      30.485  28.378  23.670  1.00  0.00     0.306 C 
ATOM      8  O   UNL A   1      29.567  29.141  23.376  1.00  0.00    -0.252 OA
BRANCH   7   9
ATOM      9  C   UNL A   1      31.329  28.659  24.901  1.00  0.00     0.132 C 
BRANCH   9  10
ATOM     10  C   UNL A   1      31.487  27.763  26.127  1.00  0.00     0.112 C 
BRANCH  10  11
ATOM     11  C   UNL A   1      32.363  26.538  26.011  1.00  0.00     0.224 C 
ATOM     12  O   UNL A   1      33.569  26.643  25.813  1.00  0.00    -0.275 OA
ATOM     13  N   UNL A   1      31.669  25.367  26.160  1.00  0.00    -0.326 N 
ATOM     14  H   UNL A   1      30.707  25.439  26.359  1.00  0.00     0.169 HD
BRANCH  13  15
ATOM     15  C   UNL A   1      32.201  24.076  26.054  1.00  0.00     0.045 A 
ATOM     16  C   UNL A   1      33.303  23.833  26.886  1.00  0.00     0.028 A 
ATOM     17  C   UNL A   1      31.664  23.083  25.211  1.00  0.00     0.075 A 
ATOM     18  C   UNL A   1      33.849  22.563  26.990  1.00  0.00     0.034 A 
ATOM     19  C   UNL A   1      32.272  21.836  25.300  1.00  0.00     0.157 A 
ATOM     20  C   UNL A   1      33.303  21.568  26.183  1.00  0.00     0.110 A 
ATOM     21  O   UNL A   1      31.996  20.665  24.615  1.00  0.00    -0.436 OA
ATOM     22  N   UNL A   1      33.631  20.270  26.124  1.00  0.00    -0.209 NA
ATOM     23  C   UNL A   1      32.870  19.764  25.180  1.00  0.00     0.227 A 
BRANCH  23  24
ATOM     24  C   UNL A   1      32.841  18.352  24.820  1.00  0.00     0.037 A 
ATOM     25  C   UNL A   1      33.493  17.876  23.677  1.00  0.00     0.014 A 
ATOM     26  C   UNL A   1      32.471  17.431  25.818  1.00  0.00     0.014 A 
ATOM     27  C   UNL A   1      33.819  16.517  23.569  1.00  0.00     0.001 A 
ATOM     28  C   UNL A   1      32.817  16.082  25.720  1.00  0.00     0.001 A 
ATOM     29  C   UNL A   1      33.502  15.628  24.598  1.00  0.00     0.000 A 
ENDBRANCH  23  24
ENDBRANCH  13  15
ENDBRANCH  10  11
ENDBRANCH   9  10
ENDBRANCH   7   9
ENDBRANCH   6   7
ENDBRANCH   5   6
ENDBRANCH   4   5
ENDBRANCH   3   4
ENDBRANCH   2   3
ENDBRANCH   1   2
BRANCH   1  30
ATOM     30  O   UNL A   1      35.497  23.827  23.854  1.00  0.00    -0.377 OA
BRANCH  30  31
ATOM     31  C   UNL A   1      36.553  23.118  24.510  1.00  0.00     0.188 C 
BRANCH  31  32
ATOM     32  C   UNL A   1      36.573  21.576  24.593  1.00  0.00     0.188 C 
BRANCH  32  33
ATOM     33  O   UNL A   1      37.628  21.036  25.366  1.00  0.00    -0.376 OA
BRANCH  33  34
ATOM     34  C   UNL A   1      38.329  19.920  24.837  1.00  0.00     0.202 C 
BRANCH  34  35
ATOM     35  C   UNL A   1      39.382  19.249  25.736  1.00  0.00     0.261 C 
BRANCH  35  36
ATOM     36  O   UNL A   1      40.714  19.789  25.674  1.00  0.00    -0.460 OA
BRANCH  36  37
ATOM     37  C   UNL A   1      41.398  19.897  26.832  1.00  0.00     0.338 C 
ATOM     38  O   UNL A   1      42.041  19.010  27.381  1.00  0.00    -0.246 OA
BRANCH  37  39
ATOM     39  C   UNL A   1      41.407  21.315  27.246  1.00  0.00     0.060 A 
ATOM     40  C   UNL A   1      40.722  22.255  26.465  1.00  0.00     0.016 A 
ATOM     41  C   UNL A   1      42.122  21.727  28.373  1.00  0.00     0.016 A 
ATOM     42  C   UNL A   1      40.797  23.616  26.775  1.00  0.00     0.010 A 
ATOM     43  C   UNL A   1      42.204  23.093  28.676  1.00  0.00     0.010 A 
ATOM     44  C   UNL A   1      41.576  24.054  27.854  1.00  0.00    -0.014 A 
BRANCH  44  45
ATOM     45  C   UNL A   1      41.941  25.498  27.975  1.00  0.00     0.031 A 
ATOM     46  C   UNL A   1      43.312  25.909  27.497  1.00  0.00     0.074 A 
ATOM     47  C   UNL A   1      41.069  26.438  28.398  1.00  0.00     0.049 A 
ATOM     48  N   UNL A   1      43.915  27.064  27.588  1.00  0.00    -0.248 NA
ATOM     49  C   UNL A   1      44.094  24.880  26.786  1.00  0.00     0.031 C 
ATOM     50  C   UNL A   1      39.660  26.196  28.690  1.00  0.00     0.029 A 
ATOM     51  N   UNL A   1      41.227  27.781  28.665  1.00  0.00    -0.354 N 
ATOM     52  C   UNL A   1      45.121  26.914  26.911  1.00  0.00     0.074 A 
ATOM     53  C   UNL A   1      45.203  25.536  26.484  1.00  0.00     0.031 C 
ATOM     54  C   UNL A   1      39.096  27.333  29.139  1.00  0.00     0.029 A 
ATOM     55  C   UNL A   1      40.111  28.375  29.232  1.00  0.00     0.049 A 
ATOM     56  H   UNL A   1      42.058  28.273  28.470  1.00  0.00     0.167 HD
ATOM     57  C   UNL A   1      46.056  27.855  26.639  1.00  0.00     0.034 A 
ATOM     58  C   UNL A   1      39.955  29.592  29.808  1.00  0.00     0.034 A 
ATOM     59  C   UNL A   1      45.955  29.220  27.091  1.00  0.00     0.049 A 
ATOM     60  C   UNL A   1      41.166  30.510  29.793  1.00  0.00     0.074 A 
ATOM     61  C   UNL A   1      46.849  30.259  26.908  1.00  0.00     0.029 A 
ATOM     62  N   UNL A   1      44.891  29.733  27.823  1.00  0.00    -0.354 N 
ATOM     63  N   UNL A   1      42.324  30.348  29.188  1.00  0.00    -0.248 NA
ATOM     64  C   UNL A   1      41.053  31.779  30.522  1.00  0.00     0.031 C 
ATOM     65  C   UNL A   1      46.366  31.374  27.598  1.00  0.00     0.029 A 
ATOM     66  C   UNL A   1      45.126  31.062  28.134  1.00  0.00     0.049 A 
ATOM     67  H   UNL A   1      44.088  29.226  28.083  1.00  0.00     0.167 HD
ATOM     68  C   UNL A   1      43.019  31.543  29.366  1.00  0.00     0.074 A 
ATOM     69  C   UNL A   1      42.170  32.396  30.168  1.00  0.00     0.031 C 
ATOM     70  C   UNL A   1      44.233  31.914  28.884  1.00  0.00     0.034 A 
BRANCH  57  71
ATOM     71  C   UNL A   1      47.272  27.433  25.851  1.00  0.00     0.023 A 
ATOM     72  C   UNL A   1      48.426  26.937  26.484  1.00  0.00     0.031 A 
ATOM     73  C   UNL A   1      47.282  27.530  24.448  1.00  0.00     0.131 A 
ATOM     74  C   UNL A   1      49.556  26.603  25.721  1.00  0.00     0.055 A 
ATOM     75  C   UNL A   1      48.382  27.128  23.690  1.00  0.00     0.041 A 
ATOM     76  F   UNL A   1      46.220  28.022  23.791  1.00  0.00    -0.206 F 
ATOM     77  C   UNL A   1      49.533  26.671  24.326  1.00  0.00     0.022 A 
BRANCH  74  78
ATOM     78  S   UNL A   1      51.099  26.191  26.581  1.00  0.00     0.124 S 
ATOM     79  O   UNL A   1      52.090  26.405  25.529  1.00  0.00    -0.237 OA
ATOM     80  O   UNL A   1      51.116  27.151  27.679  1.00  0.00    -0.237 OA
ATOM     81  O   UNL A   1      50.911  24.797  26.976  1.00  0.00    -0.744 OA
ENDBRANCH  74  78
ENDBRANCH  57  71
BRANCH  58  82
ATOM     82  C   UNL A   1      38.693  30.017  30.533  1.00  0.00     0.023 A 
ATOM     83  C   UNL A   1      37.792  30.969  30.029  1.00  0.00     0.031 A 
ATOM     84  C   UNL A   1      38.444  29.587  31.845  1.00  0.00     0.131 A 
ATOM     85  C   UNL A   1      36.777  31.502  30.857  1.00  0.00     0.055 A 
ATOM     86  C   UNL A   1      37.420  30.078  32.656  1.00  0.00     0.041 A 
ATOM     87  F   UNL A   1      39.224  28.669  32.399  1.00  0.00    -0.206 F 
ATOM     88  C   UNL A   1      36.591  31.067  32.170  1.00  0.00     0.022 A 
BRANCH  85  89
ATOM     89  S   UNL A   1      35.757  32.870  30.243  1.00  0.00     0.124 S 
ATOM     90  O   UNL A   1      36.199  33.974  31.085  1.00  0.00    -0.237 OA
ATOM     91  O   UNL A   1      36.154  32.926  28.840  1.00  0.00    -0.237 OA
ATOM     92  O   UNL A   1      34.390  32.410  30.482  1.00  0.00    -0.744 OA
ENDBRANCH  85  89
ENDBRANCH  58  82
BRANCH  70  93
ATOM     93  C   UNL A   1      44.636  33.358  29.066  1.00  0.00     0.023 A 
ATOM     94  C   UNL A   1      45.330  33.814  30.198  1.00  0.00     0.031 A 
ATOM     95  C   UNL A   1      44.302  34.298  28.072  1.00  0.00     0.131 A 
ATOM     96  C   UNL A   1      45.613  35.181  30.337  1.00  0.00     0.055 A 
ATOM     97  C   UNL A   1      44.652  35.644  28.181  1.00  0.00     0.041 A 
ATOM     98  F   UNL A   1      43.638  33.920  26.968  1.00  0.00    -0.206 F 
ATOM     99  C   UNL A   1      45.298  36.095  29.327  1.00  0.00     0.022 A 
BRANCH  96 100
ATOM    100  S   UNL A   1      46.306  35.768  31.906  1.00  0.00     0.124 S 
ATOM    101  O   UNL A   1      45.933  37.179  31.893  1.00  0.00    -0.237 OA
ATOM    102  O   UNL A   1      45.611  34.936  32.884  1.00  0.00    -0.237 OA
ATOM    103  O   UNL A   1      47.737  35.500  31.771  1.00  0.00    -0.744 OA
ENDBRANCH  96 100
ENDBRANCH  70  93
ENDBRANCH  44  45
ENDBRANCH  37  39
ENDBRANCH  36  37
ENDBRANCH  35  36
ENDBRANCH  34  35
ENDBRANCH  33  34
ENDBRANCH  32  33
ENDBRANCH  31  32
ENDBRANCH  30  31
ENDBRANCH   1  30
TORSDOF 27
ENDMDL
MODEL 3
REMARK VINA RESULT:      -9.3      2.005      2.287
REMARK SMILES O=C(CCC(=O)OCCOCCOCCOCCOC(=O)c1ccc(-c2c3nc(c(-c4cc(S(=O)(=O)[O-])ccc4F)c4ccc([nH]4)c(-c4cc(S(=O)(=O)[O-])ccc4F)c4nc(c(-c5cc(S(=O)(=O)[O-])ccc5F)c5ccc2[nH]5)C=C4)C=C3)cc1)Nc1ccc2nc(-c3ccccc3)oc2c1
REMARK SMILES IDX 12 1 11 2 10 3 9 4 8 5 7 6 5 7 6 8 4 9 3 10 2 11 1 12 85 13
REMARK SMILES IDX 86 15 87 16 100 17 88 18 99 19 89 20 98 21 90 22 91 23 92 24
REMARK SMILES IDX 93 25 97 26 94 27 96 28 95 29 13 30 14 31 15 32 16 33 17 34
REMARK SMILES IDX 18 35 19 36 20 37 21 38 22 39 23 40 84 41 24 42 83 43 25 44
REMARK SMILES IDX 26 45 27 46 77 47 28 48 82 49 76 50 78 51 29 52 81 53 75 54
REMARK SMILES IDX 74 55 30 57 62 58 42 59 61 60 43 61 46 62 60 63 79 64 44 65
REMARK SMILES IDX 45 66 59 68 80 69 47 70 31 71 32 72 40 73 33 74 39 75 41 76
REMARK SMILES IDX 38 77 34 78 35 79 36 80 37 81 63 82 64 83 72 84 65 85 71 86
REMARK SMILES IDX 73 87 70 88 66 89 67 90 68 91 69 92 48 93 49 94 57 95 50 96
REMARK SMILES IDX 56 97 58 98 55 99 51 100 52 101 53 102 54 103
REMARK H PARENT 85 14 78 56 46 67
REMARK Flexibility Score: inf
ROOT
ATOM      1  C   UNL A   1      34.836  23.007  22.727  1.00  0.00     0.188 C 
ENDROOT
BRANCH   1   2
ATOM      2  C   UNL A   1      33.530  23.586  22.173  1.00  0.00     0.188 C 
BRANCH   2   3
ATOM      3  O   UNL A   1      33.561  24.955  21.855  1.00  0.00    -0.376 OA
BRANCH   3   4
ATOM      4  C   UNL A   1      32.360  25.701  21.760  1.00  0.00     0.202 C 
BRANCH   4   5
ATOM      5  C   UNL A   1      32.092  27.052  22.459  1.00  0.00     0.261 C 
BRANCH   5   6
ATOM      6  O   UNL A   1      30.761  27.333  22.946  1.00  0.00    -0.463 OA
BRANCH   6   7
ATOM      7  C   UNL A   1      30.581  28.572  23.464  1.00  0.00     0.306 C 
ATOM      8  O   UNL A   1      29.814  29.402  22.979  1.00  0.00    -0.252 OA
BRANCH   7   9
ATOM      9  C   UNL A   1      31.356  28.915  24.725  1.00  0.00     0.132 C 
BRANCH   9  10
ATOM     10  C   UNL A   1      31.337  28.150  26.046  1.00  0.00     0.112 C 
BRANCH  10  11
ATOM     11  C   UNL A   1      32.170  26.894  26.159  1.00  0.00     0.224 C 
ATOM     12  O   UNL A   1      33.356  26.952  26.467  1.00  0.00    -0.275 OA
ATOM     13  N   UNL A   1      31.459  25.754  25.898  1.00  0.00    -0.326 N 
ATOM     14  H   UNL A   1      30.498  25.860  25.706  1.00  0.00     0.169 HD
BRANCH  13  15
ATOM     15  C   UNL A   1      31.971  24.451  25.878  1.00  0.00     0.045 A 
ATOM     16  C   UNL A   1      32.938  24.193  26.860  1.00  0.00     0.028 A 
ATOM     17  C   UNL A   1      31.537  23.462  24.973  1.00  0.00     0.075 A 
ATOM     18  C   UNL A   1      33.434  22.912  27.049  1.00  0.00     0.034 A 
ATOM     19  C   UNL A   1      32.098  22.203  25.156  1.00  0.00     0.157 A 
ATOM     20  C   UNL A   1      32.987  21.922  26.179  1.00  0.00     0.110 A 
ATOM     21  O   UNL A   1      31.895  21.032  24.447  1.00  0.00    -0.436 OA
ATOM     22  N   UNL A   1      33.290  20.616  26.176  1.00  0.00    -0.209 NA
ATOM     23  C   UNL A   1      32.660  20.117  25.137  1.00  0.00     0.227 A 
BRANCH  23  24
ATOM     24  C   UNL A   1      32.650  18.703  24.786  1.00  0.00     0.037 A 
ATOM     25  C   UNL A   1      32.981  18.268  23.497  1.00  0.00     0.014 A 
ATOM     26  C   UNL A   1      32.668  17.768  25.838  1.00  0.00     0.014 A 
ATOM     27  C   UNL A   1      33.378  16.941  23.284  1.00  0.00     0.001 A 
ATOM     28  C   UNL A   1      33.087  16.453  25.629  1.00  0.00     0.001 A 
ATOM     29  C   UNL A   1      33.452  16.043  24.351  1.00  0.00     0.000 A 
ENDBRANCH  23  24
ENDBRANCH  13  15
ENDBRANCH  10  11
ENDBRANCH   9  10
ENDBRANCH   7   9
ENDBRANCH   6   7
ENDBRANCH   5   6
ENDBRANCH   4   5
ENDBRANCH   3   4
ENDBRANCH   2   3
ENDBRANCH   1   2
BRANCH   1  30
ATOM     30  O   UNL A   1      35.405  23.623  23.872  1.00  0.00    -0.377 OA
BRANCH  30  31
ATOM     31  C   UNL A   1      36.300  22.891  24.714  1.00  0.00     0.188 C 
BRANCH  31  32
ATOM     32  C   UNL A   1      36.279  21.349  24.784  1.00  0.00     0.188 C 
BRANCH  32  33
ATOM     33  O   UNL A   1      37.249  20.779  25.643  1.00  0.00    -0.376 OA
BRANCH  33  34
ATOM     34  C   UNL A   1      38.344  20.103  25.043  1.00  0.00     0.202 C 
BRANCH  34  35
ATOM     35  C   UNL A   1      39.516  19.699  25.954  1.00  0.00     0.261 C 
BRANCH  35  36
ATOM     36  O   UNL A   1      40.613  20.626  26.034  1.00  0.00    -0.460 OA
BRANCH  36  37
ATOM     37  C   UNL A   1      41.300  20.680  27.194  1.00  0.00     0.338 C 
ATOM     38  O   UNL A   1      41.834  19.738  27.767  1.00  0.00    -0.246 OA
BRANCH  37  39
ATOM     39  C   UNL A   1      41.473  22.097  27.576  1.00  0.00     0.060 A 
ATOM     40  C   UNL A   1      40.895  23.091  26.776  1.00  0.00     0.016 A 
ATOM     41  C   UNL A   1      42.237  22.450  28.691  1.00  0.00     0.016 A 
ATOM     42  C   UNL A   1      41.126  24.441  27.055  1.00  0.00     0.010 A 
ATOM     43  C   UNL A   1      42.475  23.805  28.963  1.00  0.00     0.010 A 
ATOM     44  C   UNL A   1      41.956  24.812  28.121  1.00  0.00    -0.014 A 
BRANCH  44  45
ATOM     45  C   UNL A   1      42.483  26.207  28.209  1.00  0.00     0.031 A 
ATOM     46  C   UNL A   1      43.865  26.462  27.659  1.00  0.00     0.074 A 
ATOM     47  C   UNL A   1      41.741  27.241  28.664  1.00  0.00     0.049 A 
ATOM     48  N   UNL A   1      44.595  27.544  27.708  1.00  0.00    -0.248 NA
ATOM     49  C   UNL A   1      44.493  25.349  26.923  1.00  0.00     0.031 C 
ATOM     50  C   UNL A   1      40.331  27.157  29.027  1.00  0.00     0.029 A 
ATOM     51  N   UNL A   1      42.060  28.559  28.907  1.00  0.00    -0.354 N 
ATOM     52  C   UNL A   1      45.743  27.258  26.974  1.00  0.00     0.074 A 
ATOM     53  C   UNL A   1      45.650  25.877  26.559  1.00  0.00     0.031 C 
ATOM     54  C   UNL A   1      39.919  28.352  29.491  1.00  0.00     0.029 A 
ATOM     55  C   UNL A   1      41.046  29.275  29.522  1.00  0.00     0.049 A 
ATOM     56  H   UNL A   1      42.929  28.956  28.667  1.00  0.00     0.167 HD
ATOM     57  C   UNL A   1      46.761  28.089  26.646  1.00  0.00     0.034 A 
ATOM     58  C   UNL A   1      41.053  30.506  30.091  1.00  0.00     0.034 A 
ATOM     59  C   UNL A   1      46.832  29.459  27.088  1.00  0.00     0.049 A 
ATOM     60  C   UNL A   1      42.356  31.284  30.008  1.00  0.00     0.074 A 
ATOM     61  C   UNL A   1      47.825  30.391  26.851  1.00  0.00     0.029 A 
ATOM     62  N   UNL A   1      45.870  30.090  27.866  1.00  0.00    -0.354 N 
ATOM     63  N   UNL A   1      43.457  30.992  29.348  1.00  0.00    -0.248 NA
ATOM     64  C   UNL A   1      42.419  32.562  30.727  1.00  0.00     0.031 C 
ATOM     65  C   UNL A   1      47.503  31.557  27.551  1.00  0.00     0.029 A 
ATOM     66  C   UNL A   1      46.264  31.386  28.150  1.00  0.00     0.049 A 
ATOM     67  H   UNL A   1      45.029  29.676  28.170  1.00  0.00     0.167 HD
ATOM     68  C   UNL A   1      44.288  32.104  29.479  1.00  0.00     0.074 A 
ATOM     69  C   UNL A   1      43.579  33.050  30.313  1.00  0.00     0.031 C 
ATOM     70  C   UNL A   1      45.510  32.336  28.934  1.00  0.00     0.034 A 
BRANCH  57  71
ATOM     71  C   UNL A   1      47.882  27.531  25.805  1.00  0.00     0.023 A 
ATOM     72  C   UNL A   1      48.996  26.898  26.385  1.00  0.00     0.031 A 
ATOM     73  C   UNL A   1      47.840  27.634  24.403  1.00  0.00     0.131 A 
ATOM     74  C   UNL A   1      50.043  26.437  25.572  1.00  0.00     0.055 A 
ATOM     75  C   UNL A   1      48.851  27.109  23.596  1.00  0.00     0.041 A 
ATOM     76  F   UNL A   1      46.816  28.252  23.795  1.00  0.00    -0.206 F 
ATOM     77  C   UNL A   1      49.966  26.515  24.179  1.00  0.00     0.022 A 
BRANCH  74  78
ATOM     78  S   UNL A   1      51.564  25.841  26.362  1.00  0.00     0.124 S 
ATOM     79  O   UNL A   1      52.200  25.114  25.266  1.00  0.00    -0.237 OA
ATOM     80  O   UNL A   1      52.215  27.080  26.770  1.00  0.00    -0.237 OA
ATOM     81  O   UNL A   1      51.076  25.003  27.455  1.00  0.00    -0.744 OA
ENDBRANCH  74  78
ENDBRANCH  57  71
BRANCH  58  82
ATOM     82  C   UNL A   1      39.884  31.071  30.873  1.00  0.00     0.023 A 
ATOM     83  C   UNL A   1      39.892  31.241  32.267  1.00  0.00     0.031 A 
ATOM     84  C   UNL A   1      38.652  31.308  30.244  1.00  0.00     0.131 A 
ATOM     85  C   UNL A   1      38.694  31.534  32.959  1.00  0.00     0.055 A 
ATOM     86  C   UNL A   1      37.473  31.637  30.915  1.00  0.00     0.041 A 
ATOM     87  F   UNL A   1      38.551  31.200  28.927  1.00  0.00    -0.206 F 
ATOM     88  C   UNL A   1      37.483  31.725  32.291  1.00  0.00     0.022 A 
BRANCH  85  89
ATOM     89  S   UNL A   1      38.697  31.551  34.772  1.00  0.00     0.124 S 
ATOM     90  O   UNL A   1      38.011  30.304  35.084  1.00  0.00    -0.237 OA
ATOM     91  O   UNL A   1      40.126  31.594  35.063  1.00  0.00    -0.237 OA
ATOM     92  O   UNL A   1      37.959  32.769  35.104  1.00  0.00    -0.744 OA
ENDBRANCH  85  89
ENDBRANCH  58  82
BRANCH  70  93
ATOM     93  C   UNL A   1      46.077  33.728  29.080  1.00  0.00     0.023 A 
ATOM     94  C   UNL A   1      45.689  34.794  28.254  1.00  0.00     0.031 A 
ATOM     95  C   UNL A   1      47.039  33.980  30.077  1.00  0.00     0.131 A 
ATOM     96  C   UNL A   1      46.306  36.046  28.397  1.00  0.00     0.055 A 
ATOM     97  C   UNL A   1      47.594  35.246  30.264  1.00  0.00     0.041 A 
ATOM     98  F   UNL A   1      47.448  32.998  30.897  1.00  0.00    -0.206 F 
ATOM     99  C   UNL A   1      47.239  36.284  29.411  1.00  0.00     0.022 A 
BRANCH  96 100
ATOM    100  S   UNL A   1      45.949  37.335  27.173  1.00  0.00     0.124 S 
ATOM    101  O   UNL A   1      44.510  37.187  26.988  1.00  0.00    -0.237 OA
ATOM    102  O   UNL A   1      46.381  38.547  27.862  1.00  0.00    -0.237 OA
ATOM    103  O   UNL A   1      46.768  36.952  26.023  1.00  0.00    -0.744 OA
ENDBRANCH  96 100
ENDBRANCH  70  93
ENDBRANCH  44  45
ENDBRANCH  37  39
ENDBRANCH  36  37
ENDBRANCH  35  36
ENDBRANCH  34  35
ENDBRANCH  33  34
ENDBRANCH  32  33
ENDBRANCH  31  32
ENDBRANCH  30  31
ENDBRANCH   1  30
TORSDOF 27
ENDMDL
