MODEL 1
REMARK VINA RESULT:      -9.4      0.000      0.000
REMARK SMILES COc1cccc(NC(=O)[C@@H]2[C@@H](C(=O)OCCOCCOCCOCCOC(=O)c3ccc(-c4c5nc(c(-c6cc(S(=O)(=O)[O-])ccc6F)c6ccc([nH]6)c(-c6cc(S(=O)(=O)[O-])ccc6F)c6nc(c(-c7cc(S(=O)(=O)[O-])ccc7F)c7ccc4[nH]7)C=C6)C=C5)cc3)[C@H]3C=C[C@@H]2C3)c1
REMARK SMILES IDX 21 1 20 2 19 3 18 4 17 5 16 6 15 7 13 8 14 9 12 10 11 11
REMARK SMILES IDX 96 12 93 13 95 14 97 15 94 16 9 17 8 18 10 20 7 21 3 22 4 23
REMARK SMILES IDX 98 24 5 25 6 26 2 27 1 28 22 29 23 30 24 31 25 32 26 33
REMARK SMILES IDX 27 34 28 35 29 36 30 37 31 38 92 39 32 40 91 41 33 42 34 43
REMARK SMILES IDX 35 44 85 45 36 46 90 47 84 48 86 49 37 50 89 51 83 52 82 53
REMARK SMILES IDX 38 55 70 56 50 57 69 58 51 59 54 60 68 61 87 62 52 63 53 64
REMARK SMILES IDX 67 66 88 67 55 68 39 69 40 70 48 71 41 72 47 73 49 74 46 75
REMARK SMILES IDX 42 76 43 77 44 78 45 79 71 80 72 81 80 82 73 83 79 84 81 85
REMARK SMILES IDX 78 86 74 87 75 88 76 89 77 90 56 91 57 92 65 93 58 94 64 95
REMARK SMILES IDX 66 96 63 97 59 98 60 99 61 100 62 101
REMARK H PARENT 8 19 86 54 54 65
REMARK Flexibility Score: inf
ROOT
ATOM      1  O   UNL A   1      36.800  22.105  25.808  1.00  0.00    -0.377 OA
ENDROOT
BRANCH   1   2
ATOM      2  C   UNL A   1      35.405  22.201  25.997  1.00  0.00     0.188 C 
BRANCH   2   3
ATOM      3  C   UNL A   1      34.367  21.076  25.845  1.00  0.00     0.188 C 
BRANCH   3   4
ATOM      4  O   UNL A   1      33.052  21.321  25.404  1.00  0.00    -0.376 OA
BRANCH   4   5
ATOM      5  C   UNL A   1      32.291  22.496  25.601  1.00  0.00     0.202 C 
BRANCH   5   6
ATOM      6  C   UNL A   1      32.188  23.681  24.634  1.00  0.00     0.261 C 
BRANCH   6   7
ATOM      7  O   UNL A   1      31.744  24.913  25.202  1.00  0.00    -0.463 OA
BRANCH   7   8
ATOM      8  C   UNL A   1      32.632  25.934  25.126  1.00  0.00     0.310 C 
ATOM      9  O   UNL A   1      33.851  25.783  25.072  1.00  0.00    -0.252 OA
BRANCH   8  10
ATOM     10  C   UNL A   1      32.015  27.314  24.936  1.00  0.00     0.119 C 
ATOM     11  C   UNL A   1      33.096  28.259  24.408  1.00  0.00     0.100 C 
ATOM     12  C   UNL A   1      33.112  29.415  25.440  1.00  0.00     0.025 C 
ATOM     13  C   UNL A   1      31.404  28.152  26.107  1.00  0.00     0.027 C 
ATOM     14  C   UNL A   1      33.437  28.862  26.829  1.00  0.00    -0.027 C 
ATOM     15  C   UNL A   1      31.633  29.618  25.697  1.00  0.00     0.017 C 
ATOM     16  C   UNL A   1      32.381  28.143  27.242  1.00  0.00    -0.027 C 
BRANCH  11  17
ATOM     17  C   UNL A   1      32.923  28.597  22.924  1.00  0.00     0.228 C 
ATOM     18  N   UNL A   1      31.797  28.870  22.210  1.00  0.00    -0.326 N 
ATOM     19  H   UNL A   1      32.028  29.058  21.272  1.00  0.00     0.169 HD
ATOM     20  O   UNL A   1      33.965  28.725  22.256  1.00  0.00    -0.274 OA
BRANCH  18  21
ATOM     21  C   UNL A   1      30.404  28.966  22.395  1.00  0.00     0.044 A 
ATOM     22  C   UNL A   1      28.513  30.486  22.386  1.00  0.00     0.120 A 
ATOM     23  C   UNL A   1      27.711  29.550  23.023  1.00  0.00     0.046 A 
ATOM     24  C   UNL A   1      29.847  30.212  22.084  1.00  0.00     0.072 A 
ATOM     25  C   UNL A   1      28.210  28.272  23.214  1.00  0.00     0.006 A 
ATOM     26  C   UNL A   1      29.530  27.974  22.848  1.00  0.00     0.026 A 
BRANCH  22  27
ATOM     27  O   UNL A   1      27.980  31.708  22.084  1.00  0.00    -0.497 OA
ATOM     28  C   UNL A   1      28.019  31.888  20.667  1.00  0.00     0.278 C 
ENDBRANCH  22  27
ENDBRANCH  18  21
ENDBRANCH  11  17
ENDBRANCH   8  10
ENDBRANCH   7   8
ENDBRANCH   6   7
ENDBRANCH   5   6
ENDBRANCH   4   5
ENDBRANCH   3   4
ENDBRANCH   2   3
ENDBRANCH   1   2
BRANCH   1  29
ATOM     29  C   UNL A   1      37.539  23.309  25.753  1.00  0.00     0.188 C 
BRANCH  29  30
ATOM     30  C   UNL A   1      38.902  23.141  26.432  1.00  0.00     0.188 C 
BRANCH  30  31
ATOM     31  O   UNL A   1      39.223  21.767  26.626  1.00  0.00    -0.376 OA
BRANCH  31  32
ATOM     32  C   UNL A   1      40.519  21.463  27.135  1.00  0.00     0.202 C 
BRANCH  32  33
ATOM     33  C   UNL A   1      41.678  21.019  26.211  1.00  0.00     0.261 C 
BRANCH  33  34
ATOM     34  O   UNL A   1      42.402  22.032  25.488  1.00  0.00    -0.460 OA
BRANCH  34  35
ATOM     35  C   UNL A   1      43.563  22.487  26.001  1.00  0.00     0.338 C 
ATOM     36  O   UNL A   1      44.667  21.987  25.863  1.00  0.00    -0.246 OA
BRANCH  35  37
ATOM     37  C   UNL A   1      43.297  23.820  26.593  1.00  0.00     0.060 A 
ATOM     38  C   UNL A   1      42.993  24.894  25.745  1.00  0.00     0.016 A 
ATOM     39  C   UNL A   1      43.326  24.007  27.977  1.00  0.00     0.016 A 
ATOM     40  C   UNL A   1      42.753  26.163  26.276  1.00  0.00     0.010 A 
ATOM     41  C   UNL A   1      43.108  25.284  28.508  1.00  0.00     0.010 A 
ATOM     42  C   UNL A   1      42.854  26.377  27.658  1.00  0.00    -0.014 A 
BRANCH  42  43
ATOM     43  C   UNL A   1      42.919  27.766  28.182  1.00  0.00     0.031 A 
ATOM     44  C   UNL A   1      44.267  28.435  28.249  1.00  0.00     0.074 A 
ATOM     45  C   UNL A   1      41.813  28.437  28.556  1.00  0.00     0.049 A 
ATOM     46  N   UNL A   1      44.592  29.617  28.703  1.00  0.00    -0.248 NA
ATOM     47  C   UNL A   1      45.403  27.654  27.734  1.00  0.00     0.031 C 
ATOM     48  C   UNL A   1      40.448  27.923  28.485  1.00  0.00     0.029 A 
ATOM     49  N   UNL A   1      41.670  29.703  29.073  1.00  0.00    -0.354 N 
ATOM     50  C   UNL A   1      45.969  29.721  28.533  1.00  0.00     0.074 A 
ATOM     51  C   UNL A   1      46.420  28.465  27.974  1.00  0.00     0.031 C 
ATOM     52  C   UNL A   1      39.604  28.862  28.951  1.00  0.00     0.029 A 
ATOM     53  C   UNL A   1      40.371  30.027  29.391  1.00  0.00     0.049 A 
ATOM     54  H   UNL A   1      42.425  30.320  29.204  1.00  0.00     0.167 HD
ATOM     55  C   UNL A   1      46.781  30.771  28.808  1.00  0.00     0.034 A 
ATOM     56  C   UNL A   1      39.866  31.125  29.993  1.00  0.00     0.034 A 
ATOM     57  C   UNL A   1      46.320  32.012  29.381  1.00  0.00     0.049 A 
ATOM     58  C   UNL A   1      40.805  32.244  30.387  1.00  0.00     0.074 A 
ATOM     59  C   UNL A   1      47.054  33.141  29.695  1.00  0.00     0.029 A 
ATOM     60  N   UNL A   1      45.005  32.282  29.741  1.00  0.00    -0.354 N 
ATOM     61  N   UNL A   1      42.105  32.334  30.218  1.00  0.00    -0.248 NA
ATOM     62  C   UNL A   1      40.206  33.413  31.046  1.00  0.00     0.031 C 
ATOM     63  C   UNL A   1      46.204  34.058  30.322  1.00  0.00     0.029 A 
ATOM     64  C   UNL A   1      44.917  33.544  30.310  1.00  0.00     0.049 A 
ATOM     65  H   UNL A   1      44.246  31.667  29.612  1.00  0.00     0.167 HD
ATOM     66  C   UNL A   1      42.469  33.585  30.714  1.00  0.00     0.074 A 
ATOM     67  C   UNL A   1      41.251  34.217  31.177  1.00  0.00     0.031 C 
ATOM     68  C   UNL A   1      43.697  34.163  30.774  1.00  0.00     0.034 A 
BRANCH  55  69
ATOM     69  C   UNL A   1      48.258  30.593  28.547  1.00  0.00     0.023 A 
ATOM     70  C   UNL A   1      49.111  29.989  29.488  1.00  0.00     0.031 A 
ATOM     71  C   UNL A   1      48.829  31.065  27.352  1.00  0.00     0.131 A 
ATOM     72  C   UNL A   1      50.493  29.940  29.251  1.00  0.00     0.055 A 
ATOM     73  C   UNL A   1      50.192  30.934  27.083  1.00  0.00     0.041 A 
ATOM     74  F   UNL A   1      48.071  31.676  26.427  1.00  0.00    -0.206 F 
ATOM     75  C   UNL A   1      51.036  30.383  28.043  1.00  0.00     0.022 A 
BRANCH  72  76
ATOM     76  S   UNL A   1      51.588  29.432  30.605  1.00  0.00     0.124 S 
ATOM     77  O   UNL A   1      51.879  28.046  30.245  1.00  0.00    -0.237 OA
ATOM     78  O   UNL A   1      52.698  30.370  30.481  1.00  0.00    -0.237 OA
ATOM     79  O   UNL A   1      50.760  29.598  31.797  1.00  0.00    -0.744 OA
ENDBRANCH  72  76
ENDBRANCH  55  69
BRANCH  56  80
ATOM     80  C   UNL A   1      38.408  31.218  30.306  1.00  0.00     0.023 A 
ATOM     81  C   UNL A   1      37.515  31.874  29.441  1.00  0.00     0.031 A 
ATOM     82  C   UNL A   1      37.897  30.713  31.515  1.00  0.00     0.131 A 
ATOM     83  C   UNL A   1      36.174  32.049  29.820  1.00  0.00     0.055 A 
ATOM     84  C   UNL A   1      36.549  30.837  31.859  1.00  0.00     0.041 A 
ATOM     85  F   UNL A   1      38.705  30.085  32.385  1.00  0.00    -0.206 F 
ATOM     86  C   UNL A   1      35.681  31.522  31.015  1.00  0.00     0.022 A 
BRANCH  83  87
ATOM     87  S   UNL A   1      35.102  33.071  28.772  1.00  0.00     0.124 S 
ATOM     88  O   UNL A   1      35.037  34.312  29.534  1.00  0.00    -0.237 OA
ATOM     89  O   UNL A   1      35.858  33.120  27.525  1.00  0.00    -0.237 OA
ATOM     90  O   UNL A   1      33.857  32.308  28.713  1.00  0.00    -0.744 OA
ENDBRANCH  83  87
ENDBRANCH  56  80
BRANCH  68  91
ATOM     91  C   UNL A   1      43.775  35.577  31.305  1.00  0.00     0.023 A 
ATOM     92  C   UNL A   1      43.748  36.697  30.456  1.00  0.00     0.031 A 
ATOM     93  C   UNL A   1      43.879  35.803  32.690  1.00  0.00     0.131 A 
ATOM     94  C   UNL A   1      43.884  37.987  30.995  1.00  0.00     0.055 A 
ATOM     95  C   UNL A   1      43.942  37.090  33.225  1.00  0.00     0.041 A 
ATOM     96  F   UNL A   1      43.914  34.773  33.550  1.00  0.00    -0.206 F 
ATOM     97  C   UNL A   1      43.961  38.192  32.374  1.00  0.00     0.022 A 
BRANCH  94  98
ATOM     98  S   UNL A   1      44.068  39.391  29.860  1.00  0.00     0.124 S 
ATOM     99  O   UNL A   1      42.749  39.451  29.238  1.00  0.00    -0.237 OA
ATOM    100  O   UNL A   1      44.395  40.485  30.768  1.00  0.00    -0.237 OA
ATOM    101  O   UNL A   1      45.154  38.976  28.974  1.00  0.00    -0.744 OA
ENDBRANCH  94  98
ENDBRANCH  68  91
ENDBRANCH  42  43
ENDBRANCH  35  37
ENDBRANCH  34  35
ENDBRANCH  33  34
ENDBRANCH  32  33
ENDBRANCH  31  32
ENDBRANCH  30  31
ENDBRANCH  29  30
ENDBRANCH   1  29
TORSDOF 26
ENDMDL
MODEL 2
REMARK VINA RESULT:      -9.1      1.875      2.235
REMARK SMILES COc1cccc(NC(=O)[C@@H]2[C@@H](C(=O)OCCOCCOCCOCCOC(=O)c3ccc(-c4c5nc(c(-c6cc(S(=O)(=O)[O-])ccc6F)c6ccc([nH]6)c(-c6cc(S(=O)(=O)[O-])ccc6F)c6nc(c(-c7cc(S(=O)(=O)[O-])ccc7F)c7ccc4[nH]7)C=C6)C=C5)cc3)[C@H]3C=C[C@@H]2C3)c1
REMARK SMILES IDX 21 1 20 2 19 3 18 4 17 5 16 6 15 7 13 8 14 9 12 10 11 11
REMARK SMILES IDX 96 12 93 13 95 14 97 15 94 16 9 17 8 18 10 20 7 21 3 22 4 23
REMARK SMILES IDX 98 24 5 25 6 26 2 27 1 28 22 29 23 30 24 31 25 32 26 33
REMARK SMILES IDX 27 34 28 35 29 36 30 37 31 38 92 39 32 40 91 41 33 42 34 43
REMARK SMILES IDX 35 44 85 45 36 46 90 47 84 48 86 49 37 50 89 51 83 52 82 53
REMARK SMILES IDX 38 55 70 56 50 57 69 58 51 59 54 60 68 61 87 62 52 63 53 64
REMARK SMILES IDX 67 66 88 67 55 68 39 69 40 70 48 71 41 72 47 73 49 74 46 75
REMARK SMILES IDX 42 76 43 77 44 78 45 79 71 80 72 81 80 82 73 83 79 84 81 85
REMARK SMILES IDX 78 86 74 87 75 88 76 89 77 90 56 91 57 92 65 93 58 94 64 95
REMARK SMILES IDX 66 96 63 97 59 98 60 99 61 100 62 101
REMARK H PARENT 8 19 86 54 54 65
REMARK Flexibility Score: inf
ROOT
ATOM      1  O   UNL A   1      35.810  21.146  25.415  1.00  0.00    -0.377 OA
ENDROOT
BRANCH   1   2
ATOM      2  C   UNL A   1      34.818  21.919  26.054  1.00  0.00     0.188 C 
BRANCH   2   3
ATOM      3  C   UNL A   1      33.445  21.438  26.555  1.00  0.00     0.188 C 
BRANCH   3   4
ATOM      4  O   UNL A   1      32.243  22.066  26.173  1.00  0.00    -0.376 OA
BRANCH   4   5
ATOM      5  C   UNL A   1      31.934  23.442  26.261  1.00  0.00     0.202 C 
BRANCH   5   6
ATOM      6  C   UNL A   1      30.822  24.171  25.498  1.00  0.00     0.261 C 
BRANCH   6   7
ATOM      7  O   UNL A   1      30.744  25.581  25.705  1.00  0.00    -0.463 OA
BRANCH   7   8
ATOM      8  C   UNL A   1      31.828  26.284  25.295  1.00  0.00     0.310 C 
ATOM      9  O   UNL A   1      32.884  25.770  24.933  1.00  0.00    -0.252 OA
BRANCH   8  10
ATOM     10  C   UNL A   1      31.606  27.784  25.142  1.00  0.00     0.119 C 
ATOM     11  C   UNL A   1      32.738  28.356  24.287  1.00  0.00     0.100 C 
ATOM     12  C   UNL A   1      33.351  29.464  25.180  1.00  0.00     0.025 C 
ATOM     13  C   UNL A   1      31.584  28.778  26.349  1.00  0.00     0.027 C 
ATOM     14  C   UNL A   1      33.850  28.854  26.490  1.00  0.00    -0.027 C 
ATOM     15  C   UNL A   1      32.111  30.104  25.769  1.00  0.00     0.017 C 
ATOM     16  C   UNL A   1      32.777  28.488  27.209  1.00  0.00    -0.027 C 
BRANCH  11  17
ATOM     17  C   UNL A   1      32.292  28.714  22.866  1.00  0.00     0.228 C 
ATOM     18  N   UNL A   1      31.158  29.327  22.429  1.00  0.00    -0.326 N 
ATOM     19  H   UNL A   1      31.180  29.421  21.448  1.00  0.00     0.169 HD
ATOM     20  O   UNL A   1      33.107  28.493  21.952  1.00  0.00    -0.274 OA
BRANCH  18  21
ATOM     21  C   UNL A   1      29.962  29.869  22.941  1.00  0.00     0.044 A 
ATOM     22  C   UNL A   1      27.607  29.436  23.327  1.00  0.00     0.120 A 
ATOM     23  C   UNL A   1      27.363  30.780  23.573  1.00  0.00     0.046 A 
ATOM     24  C   UNL A   1      28.884  28.979  23.001  1.00  0.00     0.072 A 
ATOM     25  C   UNL A   1      28.443  31.645  23.648  1.00  0.00     0.006 A 
ATOM     26  C   UNL A   1      29.736  31.173  23.389  1.00  0.00     0.026 A 
BRANCH  22  27
ATOM     27  O   UNL A   1      26.559  28.560  23.376  1.00  0.00    -0.497 OA
ATOM     28  C   UNL A   1      27.055  27.270  23.737  1.00  0.00     0.278 C 
ENDBRANCH  22  27
ENDBRANCH  18  21
ENDBRANCH  11  17
ENDBRANCH   8  10
ENDBRANCH   7   8
ENDBRANCH   6   7
ENDBRANCH   5   6
ENDBRANCH   4   5
ENDBRANCH   3   4
ENDBRANCH   2   3
ENDBRANCH   1   2
BRANCH   1  29
ATOM     29  C   UNL A   1      36.825  21.833  24.710  1.00  0.00     0.188 C 
BRANCH  29  30
ATOM     30  C   UNL A   1      38.166  21.720  25.441  1.00  0.00     0.188 C 
BRANCH  30  31
ATOM     31  O   UNL A   1      38.349  20.422  25.999  1.00  0.00    -0.376 OA
BRANCH  31  32
ATOM     32  C   UNL A   1      39.344  19.590  25.409  1.00  0.00     0.202 C 
BRANCH  32  33
ATOM     33  C   UNL A   1      40.736  19.395  26.054  1.00  0.00     0.261 C 
BRANCH  33  34
ATOM     34  O   UNL A   1      41.279  20.467  26.845  1.00  0.00    -0.460 OA
BRANCH  34  35
ATOM     35  C   UNL A   1      42.346  21.144  26.372  1.00  0.00     0.338 C 
ATOM     36  O   UNL A   1      43.159  20.745  25.556  1.00  0.00    -0.246 OA
BRANCH  35  37
ATOM     37  C   UNL A   1      42.241  22.539  26.862  1.00  0.00     0.060 A 
ATOM     38  C   UNL A   1      42.023  23.572  25.939  1.00  0.00     0.016 A 
ATOM     39  C   UNL A   1      42.337  22.827  28.226  1.00  0.00     0.016 A 
ATOM     40  C   UNL A   1      41.935  24.896  26.374  1.00  0.00     0.010 A 
ATOM     41  C   UNL A   1      42.272  24.157  28.659  1.00  0.00     0.010 A 
ATOM     42  C   UNL A   1      42.106  25.203  27.731  1.00  0.00    -0.014 A 
BRANCH  42  43
ATOM     43  C   UNL A   1      42.333  26.613  28.142  1.00  0.00     0.031 A 
ATOM     44  C   UNL A   1      43.741  27.146  28.088  1.00  0.00     0.074 A 
ATOM     45  C   UNL A   1      41.321  27.417  28.517  1.00  0.00     0.049 A 
ATOM     46  N   UNL A   1      44.203  28.320  28.431  1.00  0.00    -0.248 NA
ATOM     47  C   UNL A   1      44.765  26.220  27.579  1.00  0.00     0.031 C 
ATOM     48  C   UNL A   1      39.910  27.038  28.556  1.00  0.00     0.029 A 
ATOM     49  N   UNL A   1      41.330  28.724  28.941  1.00  0.00    -0.354 N 
ATOM     50  C   UNL A   1      45.572  28.273  28.184  1.00  0.00     0.074 A 
ATOM     51  C   UNL A   1      45.868  26.941  27.703  1.00  0.00     0.031 C 
ATOM     52  C   UNL A   1      39.189  28.088  28.989  1.00  0.00     0.029 A 
ATOM     53  C   UNL A   1      40.089  29.199  29.298  1.00  0.00     0.049 A 
ATOM     54  H   UNL A   1      42.147  29.271  28.985  1.00  0.00     0.167 HD
ATOM     55  C   UNL A   1      46.496  29.254  28.335  1.00  0.00     0.034 A 
ATOM     56  C   UNL A   1      39.727  30.383  29.837  1.00  0.00     0.034 A 
ATOM     57  C   UNL A   1      46.190  30.573  28.832  1.00  0.00     0.049 A 
ATOM     58  C   UNL A   1      40.790  31.428  30.095  1.00  0.00     0.074 A 
ATOM     59  C   UNL A   1      47.046  31.644  29.019  1.00  0.00     0.029 A 
ATOM     60  N   UNL A   1      44.930  30.999  29.236  1.00  0.00    -0.354 N 
ATOM     61  N   UNL A   1      42.080  31.375  29.854  1.00  0.00    -0.248 NA
ATOM     62  C   UNL A   1      40.345  32.696  30.690  1.00  0.00     0.031 C 
ATOM     63  C   UNL A   1      46.325  32.683  29.615  1.00  0.00     0.029 A 
ATOM     64  C   UNL A   1      44.996  32.301  29.708  1.00  0.00     0.049 A 
ATOM     65  H   UNL A   1      44.110  30.455  29.194  1.00  0.00     0.167 HD
ATOM     66  C   UNL A   1      42.591  32.617  30.231  1.00  0.00     0.074 A 
ATOM     67  C   UNL A   1      41.468  33.399  30.704  1.00  0.00     0.031 C 
ATOM     68  C   UNL A   1      43.870  33.071  30.183  1.00  0.00     0.034 A 
BRANCH  55  69
ATOM     69  C   UNL A   1      47.931  28.911  28.015  1.00  0.00     0.023 A 
ATOM     70  C   UNL A   1      48.390  28.792  26.691  1.00  0.00     0.031 A 
ATOM     71  C   UNL A   1      48.849  28.664  29.052  1.00  0.00     0.131 A 
ATOM     72  C   UNL A   1      49.703  28.367  26.439  1.00  0.00     0.055 A 
ATOM     73  C   UNL A   1      50.179  28.328  28.795  1.00  0.00     0.041 A 
ATOM     74  F   UNL A   1      48.465  28.735  30.336  1.00  0.00    -0.206 F 
ATOM     75  C   UNL A   1      50.609  28.161  27.482  1.00  0.00     0.022 A 
BRANCH  72  76
ATOM     76  S   UNL A   1      50.165  27.937  24.738  1.00  0.00     0.124 S 
ATOM     77  O   UNL A   1      50.753  26.612  24.919  1.00  0.00    -0.237 OA
ATOM     78  O   UNL A   1      48.884  27.979  24.044  1.00  0.00    -0.237 OA
ATOM     79  O   UNL A   1      51.113  28.985  24.366  1.00  0.00    -0.744 OA
ENDBRANCH  72  76
ENDBRANCH  55  69
BRANCH  56  80
ATOM     80  C   UNL A   1      38.305  30.644  30.215  1.00  0.00     0.023 A 
ATOM     81  C   UNL A   1      37.435  31.334  29.354  1.00  0.00     0.031 A 
ATOM     82  C   UNL A   1      37.815  30.269  31.478  1.00  0.00     0.131 A 
ATOM     83  C   UNL A   1      36.141  31.669  29.786  1.00  0.00     0.055 A 
ATOM     84  C   UNL A   1      36.508  30.550  31.880  1.00  0.00     0.041 A 
ATOM     85  F   UNL A   1      38.604  29.615  32.347  1.00  0.00    -0.206 F 
ATOM     86  C   UNL A   1      35.666  31.268  31.037  1.00  0.00     0.022 A 
BRANCH  83  87
ATOM     87  S   UNL A   1      35.119  32.730  28.727  1.00  0.00     0.124 S 
ATOM     88  O   UNL A   1      36.124  33.355  27.875  1.00  0.00    -0.237 OA
ATOM     89  O   UNL A   1      34.243  31.758  28.081  1.00  0.00    -0.237 OA
ATOM     90  O   UNL A   1      34.459  33.624  29.676  1.00  0.00    -0.744 OA
ENDBRANCH  83  87
ENDBRANCH  56  80
BRANCH  68  91
ATOM     91  C   UNL A   1      44.114  34.506  30.597  1.00  0.00     0.023 A 
ATOM     92  C   UNL A   1      43.982  35.577  29.697  1.00  0.00     0.031 A 
ATOM     93  C   UNL A   1      44.487  34.801  31.922  1.00  0.00     0.131 A 
ATOM     94  C   UNL A   1      44.279  36.884  30.117  1.00  0.00     0.055 A 
ATOM     95  C   UNL A   1      44.711  36.109  32.351  1.00  0.00     0.041 A 
ATOM     96  F   UNL A   1      44.633  33.819  32.826  1.00  0.00    -0.206 F 
ATOM     97  C   UNL A   1      44.623  37.159  31.442  1.00  0.00     0.022 A 
BRANCH  94  98
ATOM     98  S   UNL A   1      44.314  38.210  28.879  1.00  0.00     0.124 S 
ATOM     99  O   UNL A   1      44.440  37.459  27.634  1.00  0.00    -0.237 OA
ATOM    100  O   UNL A   1      43.033  38.874  29.096  1.00  0.00    -0.237 OA
ATOM    101  O   UNL A   1      45.489  38.996  29.251  1.00  0.00    -0.744 OA
ENDBRANCH  94  98
ENDBRANCH  68  91
ENDBRANCH  42  43
ENDBRANCH  35  37
ENDBRANCH  34  35
ENDBRANCH  33  34
ENDBRANCH  32  33
ENDBRANCH  31  32
ENDBRANCH  30  31
ENDBRANCH  29  30
ENDBRANCH   1  29
TORSDOF 26
ENDMDL
MODEL 3
REMARK VINA RESULT:      -9.1      5.439     10.741
REMARK SMILES COc1cccc(NC(=O)[C@@H]2[C@@H](C(=O)OCCOCCOCCOCCOC(=O)c3ccc(-c4c5nc(c(-c6cc(S(=O)(=O)[O-])ccc6F)c6ccc([nH]6)c(-c6cc(S(=O)(=O)[O-])ccc6F)c6nc(c(-c7cc(S(=O)(=O)[O-])ccc7F)c7ccc4[nH]7)C=C6)C=C5)cc3)[C@H]3C=C[C@@H]2C3)c1
REMARK SMILES IDX 21 1 20 2 19 3 18 4 17 5 16 6 15 7 13 8 14 9 12 10 11 11
REMARK SMILES IDX 96 12 93 13 95 14 97 15 94 16 9 17 8 18 10 20 7 21 3 22 4 23
REMARK SMILES IDX 98 24 5 25 6 26 2 27 1 28 22 29 23 30 24 31 25 32 26 33
REMARK SMILES IDX 27 34 28 35 29 36 30 37 31 38 92 39 32 40 91 41 33 42 34 43
REMARK SMILES IDX 35 44 85 45 36 46 90 47 84 48 86 49 37 50 89 51 83 52 82 53
REMARK SMILES IDX 38 55 70 56 50 57 69 58 51 59 54 60 68 61 87 62 52 63 53 64
REMARK SMILES IDX 67 66 88 67 55 68 39 69 40 70 48 71 41 72 47 73 49 74 46 75
REMARK SMILES IDX 42 76 43 77 44 78 45 79 71 80 72 81 80 82 73 83 79 84 81 85
REMARK SMILES IDX 78 86 74 87 75 88 76 89 77 90 56 91 57 92 65 93 58 94 64 95
REMARK SMILES IDX 66 96 63 97 59 98 60 99 61 100 62 101
REMARK H PARENT 8 19 86 54 54 65
REMARK Flexibility Score: inf
ROOT
ATOM      1  O   UNL A   1      35.750  31.413  29.133  1.00  0.00    -0.377 OA
ENDROOT
BRANCH   1   2
ATOM      2  C   UNL A   1      35.766  30.496  28.060  1.00  0.00     0.188 C 
BRANCH   2   3
ATOM      3  C   UNL A   1      34.551  29.865  27.358  1.00  0.00     0.188 C 
BRANCH   3   4
ATOM      4  O   UNL A   1      33.238  30.329  27.567  1.00  0.00    -0.376 OA
BRANCH   4   5
ATOM      5  C   UNL A   1      32.071  29.931  26.875  1.00  0.00     0.202 C 
BRANCH   5   6
ATOM      6  C   UNL A   1      31.776  30.161  25.389  1.00  0.00     0.261 C 
BRANCH   6   7
ATOM      7  O   UNL A   1      32.560  29.398  24.472  1.00  0.00    -0.463 OA
BRANCH   7   8
ATOM      8  C   UNL A   1      32.554  28.060  24.685  1.00  0.00     0.310 C 
ATOM      9  O   UNL A   1      33.544  27.412  25.015  1.00  0.00    -0.252 OA
BRANCH   8  10
ATOM     10  C   UNL A   1      31.177  27.407  24.656  1.00  0.00     0.119 C 
ATOM     11  C   UNL A   1      31.358  25.892  24.764  1.00  0.00     0.100 C 
ATOM     12  C   UNL A   1      30.635  25.344  23.507  1.00  0.00     0.025 C 
ATOM     13  C   UNL A   1      30.193  27.526  23.445  1.00  0.00     0.027 C 
ATOM     14  C   UNL A   1      31.276  25.928  22.247  1.00  0.00    -0.027 C 
ATOM     15  C   UNL A   1      29.393  26.211  23.465  1.00  0.00     0.017 C 
ATOM     16  C   UNL A   1      30.963  27.232  22.194  1.00  0.00    -0.027 C 
BRANCH  11  17
ATOM     17  C   UNL A   1      30.971  25.339  26.138  1.00  0.00     0.228 C 
ATOM     18  N   UNL A   1      31.386  24.215  26.783  1.00  0.00    -0.326 N 
ATOM     19  H   UNL A   1      30.952  24.149  27.664  1.00  0.00     0.169 HD
ATOM     20  O   UNL A   1      30.218  26.047  26.833  1.00  0.00    -0.274 OA
BRANCH  18  21
ATOM     21  C   UNL A   1      32.243  23.114  26.581  1.00  0.00     0.044 A 
ATOM     22  C   UNL A   1      32.529  21.034  25.366  1.00  0.00     0.120 A 
ATOM     23  C   UNL A   1      33.563  20.644  26.206  1.00  0.00     0.046 A 
ATOM     24  C   UNL A   1      31.862  22.246  25.552  1.00  0.00     0.072 A 
ATOM     25  C   UNL A   1      34.035  21.552  27.140  1.00  0.00     0.006 A 
ATOM     26  C   UNL A   1      33.410  22.798  27.281  1.00  0.00     0.026 A 
BRANCH  22  27
ATOM     27  O   UNL A   1      32.146  20.189  24.362  1.00  0.00    -0.497 OA
ATOM     28  C   UNL A   1      32.647  18.882  24.647  1.00  0.00     0.278 C 
ENDBRANCH  22  27
ENDBRANCH  18  21
ENDBRANCH  11  17
ENDBRANCH   8  10
ENDBRANCH   7   8
ENDBRANCH   6   7
ENDBRANCH   5   6
ENDBRANCH   4   5
ENDBRANCH   3   4
ENDBRANCH   2   3
ENDBRANCH   1   2
BRANCH   1  29
ATOM     29  C   UNL A   1      35.879  32.786  28.824  1.00  0.00     0.188 C 
BRANCH  29  30
ATOM     30  C   UNL A   1      34.525  33.495  28.925  1.00  0.00     0.188 C 
BRANCH  30  31
ATOM     31  O   UNL A   1      34.668  34.910  28.830  1.00  0.00    -0.376 OA
BRANCH  31  32
ATOM     32  C   UNL A   1      33.475  35.682  28.721  1.00  0.00     0.202 C 
BRANCH  32  33
ATOM     33  C   UNL A   1      32.711  36.189  29.966  1.00  0.00     0.261 C 
BRANCH  33  34
ATOM     34  O   UNL A   1      33.409  36.235  31.224  1.00  0.00    -0.460 OA
BRANCH  34  35
ATOM     35  C   UNL A   1      33.049  35.372  32.196  1.00  0.00     0.338 C 
ATOM     36  O   UNL A   1      31.914  35.028  32.482  1.00  0.00    -0.246 OA
BRANCH  35  37
ATOM     37  C   UNL A   1      34.288  34.751  32.722  1.00  0.00     0.060 A 
ATOM     38  C   UNL A   1      35.510  35.417  32.551  1.00  0.00     0.016 A 
ATOM     39  C   UNL A   1      34.245  33.529  33.399  1.00  0.00     0.016 A 
ATOM     40  C   UNL A   1      36.693  34.846  33.024  1.00  0.00     0.010 A 
ATOM     41  C   UNL A   1      35.434  32.947  33.853  1.00  0.00     0.010 A 
ATOM     42  C   UNL A   1      36.669  33.586  33.637  1.00  0.00    -0.014 A 
BRANCH  42  43
ATOM     43  C   UNL A   1      37.943  32.847  33.844  1.00  0.00     0.031 A 
ATOM     44  C   UNL A   1      38.655  33.020  35.161  1.00  0.00     0.074 A 
ATOM     45  C   UNL A   1      38.442  32.015  32.911  1.00  0.00     0.049 A 
ATOM     46  N   UNL A   1      39.793  32.522  35.566  1.00  0.00    -0.248 NA
ATOM     47  C   UNL A   1      37.985  33.879  36.150  1.00  0.00     0.031 C 
ATOM     48  C   UNL A   1      37.819  31.718  31.623  1.00  0.00     0.029 A 
ATOM     49  N   UNL A   1      39.595  31.266  32.908  1.00  0.00    -0.354 N 
ATOM     50  C   UNL A   1      39.980  33.010  36.856  1.00  0.00     0.074 A 
ATOM     51  C   UNL A   1      38.857  33.876  37.145  1.00  0.00     0.031 C 
ATOM     52  C   UNL A   1      38.602  30.856  30.949  1.00  0.00     0.029 A 
ATOM     53  C   UNL A   1      39.801  30.571  31.739  1.00  0.00     0.049 A 
ATOM     54  H   UNL A   1      40.215  31.230  33.671  1.00  0.00     0.167 HD
ATOM     55  C   UNL A   1      40.989  32.751  37.723  1.00  0.00     0.034 A 
ATOM     56  C   UNL A   1      40.848  29.817  31.342  1.00  0.00     0.034 A 
ATOM     57  C   UNL A   1      42.111  31.899  37.416  1.00  0.00     0.049 A 
ATOM     58  C   UNL A   1      42.014  29.625  32.287  1.00  0.00     0.074 A 
ATOM     59  C   UNL A   1      43.185  31.564  38.221  1.00  0.00     0.029 A 
ATOM     60  N   UNL A   1      42.313  31.257  36.199  1.00  0.00    -0.354 N 
ATOM     61  N   UNL A   1      42.179  30.088  33.506  1.00  0.00    -0.248 NA
ATOM     62  C   UNL A   1      43.132  28.802  31.804  1.00  0.00     0.031 C 
ATOM     63  C   UNL A   1      44.076  30.794  37.466  1.00  0.00     0.029 A 
ATOM     64  C   UNL A   1      43.513  30.562  36.222  1.00  0.00     0.049 A 
ATOM     65  H   UNL A   1      41.694  31.291  35.434  1.00  0.00     0.167 HD
ATOM     66  C   UNL A   1      43.399  29.577  33.946  1.00  0.00     0.074 A 
ATOM     67  C   UNL A   1      43.921  28.765  32.868  1.00  0.00     0.031 C 
ATOM     68  C   UNL A   1      44.027  29.758  35.138  1.00  0.00     0.034 A 
BRANCH  55  69
ATOM     69  C   UNL A   1      40.950  33.450  39.062  1.00  0.00     0.023 A 
ATOM     70  C   UNL A   1      40.379  32.849  40.198  1.00  0.00     0.031 A 
ATOM     71  C   UNL A   1      41.462  34.753  39.196  1.00  0.00     0.131 A 
ATOM     72  C   UNL A   1      40.268  33.575  41.393  1.00  0.00     0.055 A 
ATOM     73  C   UNL A   1      41.428  35.437  40.412  1.00  0.00     0.041 A 
ATOM     74  F   UNL A   1      41.995  35.390  38.142  1.00  0.00    -0.206 F 
ATOM     75  C   UNL A   1      40.813  34.854  41.517  1.00  0.00     0.022 A 
BRANCH  72  76
ATOM     76  S   UNL A   1      39.264  32.884  42.738  1.00  0.00     0.124 S 
ATOM     77  O   UNL A   1      38.468  34.043  43.136  1.00  0.00    -0.237 OA
ATOM     78  O   UNL A   1      38.539  31.810  42.069  1.00  0.00    -0.237 OA
ATOM     79  O   UNL A   1      40.256  32.452  43.719  1.00  0.00    -0.744 OA
ENDBRANCH  72  76
ENDBRANCH  55  69
BRANCH  56  80
ATOM     80  C   UNL A   1      40.878  29.215  29.975  1.00  0.00     0.023 A 
ATOM     81  C   UNL A   1      40.327  27.948  29.722  1.00  0.00     0.031 A 
ATOM     82  C   UNL A   1      41.526  29.872  28.913  1.00  0.00     0.131 A 
ATOM     83  C   UNL A   1      40.477  27.358  28.456  1.00  0.00     0.055 A 
ATOM     84  C   UNL A   1      41.618  29.308  27.639  1.00  0.00     0.041 A 
ATOM     85  F   UNL A   1      42.079  31.082  29.098  1.00  0.00    -0.206 F 
ATOM     86  C   UNL A   1      41.105  28.036  27.409  1.00  0.00     0.022 A 
BRANCH  83  87
ATOM     87  S   UNL A   1      39.928  25.644  28.226  1.00  0.00     0.124 S 
ATOM     88  O   UNL A   1      39.635  25.616  26.798  1.00  0.00    -0.237 OA
ATOM     89  O   UNL A   1      41.101  24.891  28.656  1.00  0.00    -0.237 OA
ATOM     90  O   UNL A   1      38.766  25.538  29.105  1.00  0.00    -0.744 OA
ENDBRANCH  83  87
ENDBRANCH  56  80
BRANCH  68  91
ATOM     91  C   UNL A   1      45.323  29.010  35.361  1.00  0.00     0.023 A 
ATOM     92  C   UNL A   1      45.352  27.648  35.704  1.00  0.00     0.031 A 
ATOM     93  C   UNL A   1      46.554  29.681  35.225  1.00  0.00     0.131 A 
ATOM     94  C   UNL A   1      46.580  27.016  35.959  1.00  0.00     0.055 A 
ATOM     95  C   UNL A   1      47.773  29.029  35.409  1.00  0.00     0.041 A 
ATOM     96  F   UNL A   1      46.591  30.983  34.902  1.00  0.00    -0.206 F 
ATOM     97  C   UNL A   1      47.791  27.691  35.794  1.00  0.00     0.022 A 
BRANCH  94  98
ATOM     98  S   UNL A   1      46.569  25.323  36.614  1.00  0.00     0.124 S 
ATOM     99  O   UNL A   1      45.768  25.472  37.824  1.00  0.00    -0.237 OA
ATOM    100  O   UNL A   1      45.951  24.572  35.527  1.00  0.00    -0.237 OA
ATOM    101  O   UNL A   1      47.985  25.034  36.839  1.00  0.00    -0.744 OA
ENDBRANCH  94  98
ENDBRANCH  68  91
ENDBRANCH  42  43
ENDBRANCH  35  37
ENDBRANCH  34  35
ENDBRANCH  33  34
ENDBRANCH  32  33
ENDBRANCH  31  32
ENDBRANCH  30  31
ENDBRANCH  29  30
ENDBRANCH   1  29
TORSDOF 26
ENDMDL
