MODEL 1
REMARK VINA RESULT:      -9.8      0.000      0.000
REMARK SMILES O=C(NC1(C(=O)OCCOCCOCCOCCOC(=O)c2ccc(-c3c4nc(c(-c5cc(S(=O)(=O)[O-])ccc5F)c5ccc([nH]5)c(-c5cc(S(=O)(=O)[O-])ccc5F)c5nc(c(-c6cc(S(=O)(=O)[O-])ccc6F)c6ccc3[nH]6)C=C5)C=C4)cc2)Cc2ccccc2C1)OCC1c2ccccc2-c2ccccc21
REMARK SMILES IDX 12 1 11 2 10 3 9 4 8 5 7 6 5 7 6 8 4 9 85 10 92 11 86 12
REMARK SMILES IDX 91 13 87 14 90 15 88 16 89 17 3 18 1 19 2 20 93 22 94 23
REMARK SMILES IDX 95 24 96 25 107 26 97 27 101 28 102 29 106 30 98 31 100 32
REMARK SMILES IDX 103 33 105 34 99 35 104 36 13 37 14 38 15 39 16 40 17 41
REMARK SMILES IDX 18 42 19 43 20 44 21 45 22 46 23 47 84 48 24 49 83 50 25 51
REMARK SMILES IDX 26 52 27 53 77 54 28 55 82 56 76 57 78 58 29 59 81 60 75 61
REMARK SMILES IDX 74 62 30 64 62 65 42 66 61 67 43 68 46 69 60 70 79 71 44 72
REMARK SMILES IDX 45 73 59 75 80 76 47 77 31 78 32 79 40 80 33 81 39 82 41 83
REMARK SMILES IDX 38 84 34 85 35 86 36 87 37 88 63 89 64 90 72 91 65 92 71 93
REMARK SMILES IDX 73 94 70 95 66 96 67 97 68 98 69 99 48 100 49 101 57 102
REMARK SMILES IDX 50 103 56 104 58 105 55 106 51 107 52 108 53 109 54 110
REMARK H PARENT 3 21 78 63 46 74
REMARK Flexibility Score: inf
ROOT
ATOM      1  C   UNL A   1      39.486  24.155  27.218  1.00  0.00     0.188 C 
ENDROOT
BRANCH   1   2
ATOM      2  C   UNL A   1      38.316  24.079  26.236  1.00  0.00     0.188 C 
BRANCH   2   3
ATOM      3  O   UNL A   1      37.534  22.904  26.166  1.00  0.00    -0.376 OA
BRANCH   3   4
ATOM      4  C   UNL A   1      36.144  22.948  25.855  1.00  0.00     0.202 C 
BRANCH   4   5
ATOM      5  C   UNL A   1      35.600  23.474  24.518  1.00  0.00     0.261 C 
BRANCH   5   6
ATOM      6  O   UNL A   1      34.947  22.489  23.688  1.00  0.00    -0.461 OA
BRANCH   6   7
ATOM      7  C   UNL A   1      33.996  22.967  22.853  1.00  0.00     0.332 C 
ATOM      8  O   UNL A   1      34.202  23.938  22.118  1.00  0.00    -0.249 OA
BRANCH   7   9
ATOM      9  C   UNL A   1      32.575  22.324  22.967  1.00  0.00     0.149 C 
ATOM     10  C   UNL A   1      32.477  21.982  24.473  1.00  0.00     0.076 C 
ATOM     11  C   UNL A   1      32.105  21.018  22.273  1.00  0.00     0.076 C 
ATOM     12  C   UNL A   1      32.692  20.503  24.506  1.00  0.00    -0.042 A 
ATOM     13  C   UNL A   1      32.340  19.946  23.285  1.00  0.00    -0.042 A 
ATOM     14  C   UNL A   1      33.021  19.717  25.592  1.00  0.00     0.004 A 
ATOM     15  C   UNL A   1      32.162  18.580  23.161  1.00  0.00     0.004 A 
ATOM     16  C   UNL A   1      32.899  18.335  25.467  1.00  0.00     0.000 A 
ATOM     17  C   UNL A   1      32.435  17.773  24.269  1.00  0.00     0.000 A 
BRANCH   9  18
ATOM     18  N   UNL A   1      31.742  23.420  22.364  1.00  0.00    -0.305 N 
ATOM     19  O   UNL A   1      31.393  25.660  22.162  1.00  0.00    -0.225 OA
ATOM     20  C   UNL A   1      31.583  24.667  22.860  1.00  0.00     0.408 C 
ATOM     21  H   UNL A   1      31.267  23.209  21.529  1.00  0.00     0.168 HD
BRANCH  20  22
ATOM     22  O   UNL A   1      31.593  24.655  24.190  1.00  0.00    -0.449 OA
BRANCH  22  23
ATOM     23  C   UNL A   1      30.367  24.953  24.850  1.00  0.00     0.248 C 
BRANCH  23  24
ATOM     24  C   UNL A   1      30.367  26.435  25.283  1.00  0.00     0.088 C 
ATOM     25  C   UNL A   1      29.705  27.442  24.333  1.00  0.00    -0.029 A 
ATOM     26  C   UNL A   1      31.727  27.110  25.527  1.00  0.00    -0.029 A 
ATOM     27  C   UNL A   1      28.562  27.314  23.553  1.00  0.00     0.005 A 
ATOM     28  C   UNL A   1      30.464  28.634  24.299  1.00  0.00    -0.014 A 
ATOM     29  C   UNL A   1      31.692  28.436  25.041  1.00  0.00    -0.014 A 
ATOM     30  C   UNL A   1      32.905  26.590  26.048  1.00  0.00     0.005 A 
ATOM     31  C   UNL A   1      28.194  28.385  22.729  1.00  0.00     0.000 A 
ATOM     32  C   UNL A   1      30.076  29.710  23.513  1.00  0.00     0.009 A 
ATOM     33  C   UNL A   1      32.784  29.280  25.181  1.00  0.00     0.009 A 
ATOM     34  C   UNL A   1      34.027  27.421  26.129  1.00  0.00     0.000 A 
ATOM     35  C   UNL A   1      28.933  29.578  22.722  1.00  0.00     0.001 A 
ATOM     36  C   UNL A   1      33.956  28.766  25.735  1.00  0.00     0.001 A 
ENDBRANCH  23  24
ENDBRANCH  22  23
ENDBRANCH  20  22
ENDBRANCH   9  18
ENDBRANCH   7   9
ENDBRANCH   6   7
ENDBRANCH   5   6
ENDBRANCH   4   5
ENDBRANCH   3   4
ENDBRANCH   2   3
ENDBRANCH   1   2
BRANCH   1  37
ATOM     37  O   UNL A   1      40.288  25.312  27.153  1.00  0.00    -0.377 OA
BRANCH  37  38
ATOM     38  C   UNL A   1      40.648  26.019  28.332  1.00  0.00     0.188 C 
BRANCH  38  39
ATOM     39  C   UNL A   1      41.352  27.374  28.205  1.00  0.00     0.188 C 
BRANCH  39  40
ATOM     40  O   UNL A   1      40.533  28.484  28.544  1.00  0.00    -0.376 OA
BRANCH  40  41
ATOM     41  C   UNL A   1      39.403  28.772  27.732  1.00  0.00     0.202 C 
BRANCH  41  42
ATOM     42  C   UNL A   1      38.011  28.704  28.384  1.00  0.00     0.261 C 
BRANCH  42  43
ATOM     43  O   UNL A   1      37.964  28.602  29.819  1.00  0.00    -0.460 OA
BRANCH  43  44
ATOM     44  C   UNL A   1      37.304  29.545  30.523  1.00  0.00     0.338 C 
ATOM     45  O   UNL A   1      36.189  29.462  31.002  1.00  0.00    -0.246 OA
BRANCH  44  46
ATOM     46  C   UNL A   1      38.248  30.648  30.793  1.00  0.00     0.060 A 
ATOM     47  C   UNL A   1      39.566  30.335  31.148  1.00  0.00     0.016 A 
ATOM     48  C   UNL A   1      37.826  31.977  30.729  1.00  0.00     0.016 A 
ATOM     49  C   UNL A   1      40.457  31.352  31.489  1.00  0.00     0.010 A 
ATOM     50  C   UNL A   1      38.712  32.994  31.092  1.00  0.00     0.010 A 
ATOM     51  C   UNL A   1      40.017  32.682  31.512  1.00  0.00    -0.014 A 
BRANCH  51  52
ATOM     52  C   UNL A   1      40.839  33.708  32.199  1.00  0.00     0.031 A 
ATOM     53  C   UNL A   1      41.832  34.483  31.376  1.00  0.00     0.074 A 
ATOM     54  C   UNL A   1      40.690  33.968  33.510  1.00  0.00     0.049 A 
ATOM     55  N   UNL A   1      42.702  35.385  31.749  1.00  0.00    -0.248 NA
ATOM     56  C   UNL A   1      41.847  34.191  29.933  1.00  0.00     0.031 C 
ATOM     57  C   UNL A   1      39.721  33.323  34.394  1.00  0.00     0.029 A 
ATOM     58  N   UNL A   1      41.362  34.843  34.325  1.00  0.00    -0.354 N 
ATOM     59  C   UNL A   1      43.369  35.767  30.589  1.00  0.00     0.074 A 
ATOM     60  C   UNL A   1      42.830  34.969  29.509  1.00  0.00     0.031 C 
ATOM     61  C   UNL A   1      39.871  33.817  35.636  1.00  0.00     0.029 A 
ATOM     62  C   UNL A   1      40.971  34.781  35.642  1.00  0.00     0.049 A 
ATOM     63  H   UNL A   1      42.058  35.457  33.998  1.00  0.00     0.167 HD
ATOM     64  C   UNL A   1      44.337  36.704  30.439  1.00  0.00     0.034 A 
ATOM     65  C   UNL A   1      41.468  35.408  36.728  1.00  0.00     0.034 A 
ATOM     66  C   UNL A   1      44.877  37.476  31.529  1.00  0.00     0.049 A 
ATOM     67  C   UNL A   1      42.619  36.373  36.554  1.00  0.00     0.074 A 
ATOM     68  C   UNL A   1      45.859  38.451  31.493  1.00  0.00     0.029 A 
ATOM     69  N   UNL A   1      44.494  37.348  32.859  1.00  0.00    -0.354 N 
ATOM     70  N   UNL A   1      43.243  36.729  35.454  1.00  0.00    -0.248 NA
ATOM     71  C   UNL A   1      43.127  37.026  37.768  1.00  0.00     0.031 C 
ATOM     72  C   UNL A   1      46.122  38.857  32.806  1.00  0.00     0.029 A 
ATOM     73  C   UNL A   1      45.244  38.200  33.655  1.00  0.00     0.049 A 
ATOM     74  H   UNL A   1      43.792  36.741  33.188  1.00  0.00     0.167 HD
ATOM     75  C   UNL A   1      44.194  37.672  35.842  1.00  0.00     0.074 A 
ATOM     76  C   UNL A   1      44.051  37.837  37.274  1.00  0.00     0.031 C 
ATOM     77  C   UNL A   1      45.097  38.347  35.085  1.00  0.00     0.034 A 
BRANCH  64  78
ATOM     78  C   UNL A   1      44.907  36.891  29.053  1.00  0.00     0.023 A 
ATOM     79  C   UNL A   1      45.892  36.032  28.535  1.00  0.00     0.031 A 
ATOM     80  C   UNL A   1      44.492  37.972  28.256  1.00  0.00     0.131 A 
ATOM     81  C   UNL A   1      46.481  36.311  27.292  1.00  0.00     0.055 A 
ATOM     82  C   UNL A   1      45.021  38.195  26.983  1.00  0.00     0.041 A 
ATOM     83  F   UNL A   1      43.574  38.841  28.707  1.00  0.00    -0.206 F 
ATOM     84  C   UNL A   1      46.034  37.371  26.501  1.00  0.00     0.022 A 
BRANCH  81  85
ATOM     85  S   UNL A   1      47.944  35.361  26.793  1.00  0.00     0.124 S 
ATOM     86  O   UNL A   1      48.514  36.219  25.757  1.00  0.00    -0.237 OA
ATOM     87  O   UNL A   1      48.700  35.270  28.036  1.00  0.00    -0.237 OA
ATOM     88  O   UNL A   1      47.385  34.101  26.307  1.00  0.00    -0.744 OA
ENDBRANCH  81  85
ENDBRANCH  64  78
BRANCH  65  89
ATOM     89  C   UNL A   1      40.924  35.116  38.087  1.00  0.00     0.023 A 
ATOM     90  C   UNL A   1      41.451  34.080  38.875  1.00  0.00     0.031 A 
ATOM     91  C   UNL A   1      39.825  35.833  38.592  1.00  0.00     0.131 A 
ATOM     92  C   UNL A   1      40.849  33.761  40.103  1.00  0.00     0.055 A 
ATOM     93  C   UNL A   1      39.264  35.547  39.838  1.00  0.00     0.041 A 
ATOM     94  F   UNL A   1      39.278  36.831  37.878  1.00  0.00    -0.206 F 
ATOM     95  C   UNL A   1      39.769  34.496  40.596  1.00  0.00     0.022 A 
BRANCH  92  96
ATOM     96  S   UNL A   1      41.446  32.308  41.012  1.00  0.00     0.124 S 
ATOM     97  O   UNL A   1      42.173  32.927  42.114  1.00  0.00    -0.237 OA
ATOM     98  O   UNL A   1      40.198  31.637  41.360  1.00  0.00    -0.237 OA
ATOM     99  O   UNL A   1      42.273  31.610  40.030  1.00  0.00    -0.744 OA
ENDBRANCH  92  96
ENDBRANCH  65  89
BRANCH  77 100
ATOM    100  C   UNL A   1      45.967  39.362  35.787  1.00  0.00     0.023 A 
ATOM    101  C   UNL A   1      45.503  40.652  36.101  1.00  0.00     0.031 A 
ATOM    102  C   UNL A   1      47.287  39.030  36.149  1.00  0.00     0.131 A 
ATOM    103  C   UNL A   1      46.367  41.578  36.705  1.00  0.00     0.055 A 
ATOM    104  C   UNL A   1      48.119  39.935  36.808  1.00  0.00     0.041 A 
ATOM    105  F   UNL A   1      47.785  37.815  35.874  1.00  0.00    -0.206 F 
ATOM    106  C   UNL A   1      47.666  41.222  37.077  1.00  0.00     0.022 A 
BRANCH 103 107
ATOM    107  S   UNL A   1      45.802  43.290  36.913  1.00  0.00     0.124 S 
ATOM    108  O   UNL A   1      47.061  44.005  37.092  1.00  0.00    -0.237 OA
ATOM    109  O   UNL A   1      45.098  43.541  35.660  1.00  0.00    -0.237 OA
ATOM    110  O   UNL A   1      44.949  43.228  38.099  1.00  0.00    -0.744 OA
ENDBRANCH 103 107
ENDBRANCH  77 100
ENDBRANCH  51  52
ENDBRANCH  44  46
ENDBRANCH  43  44
ENDBRANCH  42  43
ENDBRANCH  41  42
ENDBRANCH  40  41
ENDBRANCH  39  40
ENDBRANCH  38  39
ENDBRANCH  37  38
ENDBRANCH   1  37
TORSDOF 27
ENDMDL
MODEL 2
REMARK VINA RESULT:      -9.7      0.577      6.848
REMARK SMILES O=C(NC1(C(=O)OCCOCCOCCOCCOC(=O)c2ccc(-c3c4nc(c(-c5cc(S(=O)(=O)[O-])ccc5F)c5ccc([nH]5)c(-c5cc(S(=O)(=O)[O-])ccc5F)c5nc(c(-c6cc(S(=O)(=O)[O-])ccc6F)c6ccc3[nH]6)C=C5)C=C4)cc2)Cc2ccccc2C1)OCC1c2ccccc2-c2ccccc21
REMARK SMILES IDX 12 1 11 2 10 3 9 4 8 5 7 6 5 7 6 8 4 9 85 10 92 11 86 12
REMARK SMILES IDX 91 13 87 14 90 15 88 16 89 17 3 18 1 19 2 20 93 22 94 23
REMARK SMILES IDX 95 24 96 25 107 26 97 27 101 28 102 29 106 30 98 31 100 32
REMARK SMILES IDX 103 33 105 34 99 35 104 36 13 37 14 38 15 39 16 40 17 41
REMARK SMILES IDX 18 42 19 43 20 44 21 45 22 46 23 47 84 48 24 49 83 50 25 51
REMARK SMILES IDX 26 52 27 53 77 54 28 55 82 56 76 57 78 58 29 59 81 60 75 61
REMARK SMILES IDX 74 62 30 64 62 65 42 66 61 67 43 68 46 69 60 70 79 71 44 72
REMARK SMILES IDX 45 73 59 75 80 76 47 77 31 78 32 79 40 80 33 81 39 82 41 83
REMARK SMILES IDX 38 84 34 85 35 86 36 87 37 88 63 89 64 90 72 91 65 92 71 93
REMARK SMILES IDX 73 94 70 95 66 96 67 97 68 98 69 99 48 100 49 101 57 102
REMARK SMILES IDX 50 103 56 104 58 105 55 106 51 107 52 108 53 109 54 110
REMARK H PARENT 3 21 78 63 46 74
REMARK Flexibility Score: inf
ROOT
ATOM      1  C   UNL A   1      39.629  24.194  26.777  1.00  0.00     0.188 C 
ENDROOT
BRANCH   1   2
ATOM      2  C   UNL A   1      38.377  23.614  26.117  1.00  0.00     0.188 C 
BRANCH   2   3
ATOM      3  O   UNL A   1      37.098  24.015  26.565  1.00  0.00    -0.376 OA
BRANCH   3   4
ATOM      4  C   UNL A   1      35.941  23.875  25.746  1.00  0.00     0.202 C 
BRANCH   4   5
ATOM      5  C   UNL A   1      36.006  23.484  24.261  1.00  0.00     0.261 C 
BRANCH   5   6
ATOM      6  O   UNL A   1      35.027  22.511  23.836  1.00  0.00    -0.461 OA
BRANCH   6   7
ATOM      7  C   UNL A   1      34.113  22.955  22.944  1.00  0.00     0.332 C 
ATOM      8  O   UNL A   1      34.357  23.882  22.166  1.00  0.00    -0.249 OA
BRANCH   7   9
ATOM      9  C   UNL A   1      32.680  22.336  23.040  1.00  0.00     0.149 C 
ATOM     10  C   UNL A   1      32.547  22.023  24.550  1.00  0.00     0.076 C 
ATOM     11  C   UNL A   1      32.203  21.025  22.361  1.00  0.00     0.076 C 
ATOM     12  C   UNL A   1      32.738  20.542  24.614  1.00  0.00    -0.042 A 
ATOM     13  C   UNL A   1      32.401  19.968  23.396  1.00  0.00    -0.042 A 
ATOM     14  C   UNL A   1      33.033  19.770  25.720  1.00  0.00     0.004 A 
ATOM     15  C   UNL A   1      32.204  18.602  23.293  1.00  0.00     0.004 A 
ATOM     16  C   UNL A   1      32.891  18.389  25.617  1.00  0.00     0.000 A 
ATOM     17  C   UNL A   1      32.443  17.812  24.420  1.00  0.00     0.000 A 
BRANCH   9  18
ATOM     18  N   UNL A   1      31.876  23.434  22.402  1.00  0.00    -0.305 N 
ATOM     19  O   UNL A   1      31.659  25.667  22.023  1.00  0.00    -0.225 OA
ATOM     20  C   UNL A   1      31.837  24.726  22.793  1.00  0.00     0.408 C 
ATOM     21  H   UNL A   1      31.325  23.187  21.625  1.00  0.00     0.168 HD
BRANCH  20  22
ATOM     22  O   UNL A   1      31.949  24.827  24.115  1.00  0.00    -0.449 OA
BRANCH  22  23
ATOM     23  C   UNL A   1      30.744  24.982  24.857  1.00  0.00     0.248 C 
BRANCH  23  24
ATOM     24  C   UNL A   1      30.625  26.444  25.338  1.00  0.00     0.088 C 
ATOM     25  C   UNL A   1      29.973  27.447  24.376  1.00  0.00    -0.029 A 
ATOM     26  C   UNL A   1      31.921  27.186  25.703  1.00  0.00    -0.029 A 
ATOM     27  C   UNL A   1      28.899  27.283  23.510  1.00  0.00     0.005 A 
ATOM     28  C   UNL A   1      30.660  28.681  24.438  1.00  0.00    -0.014 A 
ATOM     29  C   UNL A   1      31.842  28.526  25.260  1.00  0.00    -0.014 A 
ATOM     30  C   UNL A   1      33.087  26.715  26.292  1.00  0.00     0.005 A 
ATOM     31  C   UNL A   1      28.526  28.362  22.698  1.00  0.00     0.000 A 
ATOM     32  C   UNL A   1      30.266  29.762  23.661  1.00  0.00     0.009 A 
ATOM     33  C   UNL A   1      32.869  29.425  25.508  1.00  0.00     0.009 A 
ATOM     34  C   UNL A   1      34.150  27.605  26.482  1.00  0.00     0.000 A 
ATOM     35  C   UNL A   1      29.192  29.594  22.785  1.00  0.00     0.001 A 
ATOM     36  C   UNL A   1      34.027  28.958  26.130  1.00  0.00     0.001 A 
ENDBRANCH  23  24
ENDBRANCH  22  23
ENDBRANCH  20  22
ENDBRANCH   9  18
ENDBRANCH   7   9
ENDBRANCH   6   7
ENDBRANCH   5   6
ENDBRANCH   4   5
ENDBRANCH   3   4
ENDBRANCH   2   3
ENDBRANCH   1   2
BRANCH   1  37
ATOM     37  O   UNL A   1      39.713  25.601  26.838  1.00  0.00    -0.377 OA
BRANCH  37  38
ATOM     38  C   UNL A   1      40.391  26.245  27.907  1.00  0.00     0.188 C 
BRANCH  38  39
ATOM     39  C   UNL A   1      40.708  27.741  27.796  1.00  0.00     0.188 C 
BRANCH  39  40
ATOM     40  O   UNL A   1      39.764  28.580  28.446  1.00  0.00    -0.376 OA
BRANCH  40  41
ATOM     41  C   UNL A   1      38.424  28.595  27.973  1.00  0.00     0.202 C 
BRANCH  41  42
ATOM     42  C   UNL A   1      37.369  29.329  28.820  1.00  0.00     0.261 C 
BRANCH  42  43
ATOM     43  O   UNL A   1      37.378  29.080  30.238  1.00  0.00    -0.460 OA
BRANCH  43  44
ATOM     44  C   UNL A   1      36.946  30.045  31.076  1.00  0.00     0.338 C 
ATOM     45  O   UNL A   1      35.948  30.026  31.770  1.00  0.00    -0.246 OA
BRANCH  44  46
ATOM     46  C   UNL A   1      38.006  31.069  31.168  1.00  0.00     0.060 A 
ATOM     47  C   UNL A   1      39.320  30.658  31.426  1.00  0.00     0.016 A 
ATOM     48  C   UNL A   1      37.698  32.424  31.033  1.00  0.00     0.016 A 
ATOM     49  C   UNL A   1      40.326  31.608  31.599  1.00  0.00     0.010 A 
ATOM     50  C   UNL A   1      38.702  33.376  31.229  1.00  0.00     0.010 A 
ATOM     51  C   UNL A   1      40.010  32.972  31.552  1.00  0.00    -0.014 A 
BRANCH  51  52
ATOM     52  C   UNL A   1      40.982  33.963  32.074  1.00  0.00     0.031 A 
ATOM     53  C   UNL A   1      40.983  34.238  33.554  1.00  0.00     0.074 A 
ATOM     54  C   UNL A   1      41.860  34.582  31.265  1.00  0.00     0.049 A 
ATOM     55  N   UNL A   1      41.690  35.095  34.243  1.00  0.00    -0.248 NA
ATOM     56  C   UNL A   1      40.051  33.435  34.363  1.00  0.00     0.031 C 
ATOM     57  C   UNL A   1      41.990  34.353  29.828  1.00  0.00     0.029 A 
ATOM     58  N   UNL A   1      42.805  35.536  31.543  1.00  0.00    -0.354 N 
ATOM     59  C   UNL A   1      41.287  34.938  35.565  1.00  0.00     0.074 A 
ATOM     60  C   UNL A   1      40.246  33.932  35.573  1.00  0.00     0.031 C 
ATOM     61  C   UNL A   1      42.954  35.158  29.346  1.00  0.00     0.029 A 
ATOM     62  C   UNL A   1      43.479  35.985  30.432  1.00  0.00     0.049 A 
ATOM     63  H   UNL A   1      42.984  35.868  32.453  1.00  0.00     0.167 HD
ATOM     64  C   UNL A   1      41.750  35.569  36.672  1.00  0.00     0.034 A 
ATOM     65  C   UNL A   1      44.390  36.972  30.306  1.00  0.00     0.034 A 
ATOM     66  C   UNL A   1      42.773  36.583  36.643  1.00  0.00     0.049 A 
ATOM     67  C   UNL A   1      44.817  37.737  31.538  1.00  0.00     0.074 A 
ATOM     68  C   UNL A   1      43.319  37.289  37.702  1.00  0.00     0.029 A 
ATOM     69  N   UNL A   1      43.396  37.051  35.492  1.00  0.00    -0.354 N 
ATOM     70  N   UNL A   1      44.432  37.581  32.786  1.00  0.00    -0.248 NA
ATOM     71  C   UNL A   1      45.807  38.805  31.347  1.00  0.00     0.031 C 
ATOM     72  C   UNL A   1      44.212  38.233  37.184  1.00  0.00     0.029 A 
ATOM     73  C   UNL A   1      44.293  38.060  35.811  1.00  0.00     0.049 A 
ATOM     74  H   UNL A   1      43.225  36.715  34.582  1.00  0.00     0.167 HD
ATOM     75  C   UNL A   1      45.159  38.510  33.529  1.00  0.00     0.074 A 
ATOM     76  C   UNL A   1      46.013  39.211  32.591  1.00  0.00     0.031 C 
ATOM     77  C   UNL A   1      45.131  38.757  34.864  1.00  0.00     0.034 A 
BRANCH  64  78
ATOM     78  C   UNL A   1      41.101  35.217  37.989  1.00  0.00     0.023 A 
ATOM     79  C   UNL A   1      41.614  34.207  38.822  1.00  0.00     0.031 A 
ATOM     80  C   UNL A   1      39.925  35.871  38.397  1.00  0.00     0.131 A 
ATOM     81  C   UNL A   1      40.914  33.830  39.978  1.00  0.00     0.055 A 
ATOM     82  C   UNL A   1      39.279  35.548  39.592  1.00  0.00     0.041 A 
ATOM     83  F   UNL A   1      39.373  36.825  37.631  1.00  0.00    -0.206 F 
ATOM     84  C   UNL A   1      39.764  34.511  40.383  1.00  0.00     0.022 A 
BRANCH  81  85
ATOM     85  S   UNL A   1      41.441  32.335  40.862  1.00  0.00     0.124 S 
ATOM     86  O   UNL A   1      42.215  32.901  41.963  1.00  0.00    -0.237 OA
ATOM     87  O   UNL A   1      40.171  31.718  41.223  1.00  0.00    -0.237 OA
ATOM     88  O   UNL A   1      42.229  31.610  39.867  1.00  0.00    -0.744 OA
ENDBRANCH  81  85
ENDBRANCH  64  78
BRANCH  65  89
ATOM     89  C   UNL A   1      44.930  37.338  28.964  1.00  0.00     0.023 A 
ATOM     90  C   UNL A   1      46.148  36.815  28.501  1.00  0.00     0.031 A 
ATOM     91  C   UNL A   1      44.261  38.267  28.147  1.00  0.00     0.131 A 
ATOM     92  C   UNL A   1      46.681  37.260  27.280  1.00  0.00     0.055 A 
ATOM     93  C   UNL A   1      44.768  38.666  26.909  1.00  0.00     0.041 A 
ATOM     94  F   UNL A   1      43.094  38.803  28.542  1.00  0.00    -0.206 F 
ATOM     95  C   UNL A   1      45.993  38.171  26.475  1.00  0.00     0.022 A 
BRANCH  92  96
ATOM     96  S   UNL A   1      48.337  36.696  26.798  1.00  0.00     0.124 S 
ATOM     97  O   UNL A   1      49.133  37.901  27.005  1.00  0.00    -0.237 OA
ATOM     98  O   UNL A   1      48.569  35.603  27.735  1.00  0.00    -0.237 OA
ATOM     99  O   UNL A   1      48.165  36.293  25.404  1.00  0.00    -0.744 OA
ENDBRANCH  92  96
ENDBRANCH  65  89
BRANCH  77 100
ATOM    100  C   UNL A   1      46.089  39.797  35.395  1.00  0.00     0.023 A 
ATOM    101  C   UNL A   1      45.703  41.133  35.597  1.00  0.00     0.031 A 
ATOM    102  C   UNL A   1      47.416  39.440  35.704  1.00  0.00     0.131 A 
ATOM    103  C   UNL A   1      46.645  42.074  36.040  1.00  0.00     0.055 A 
ATOM    104  C   UNL A   1      48.329  40.366  36.206  1.00  0.00     0.041 A 
ATOM    105  F   UNL A   1      47.842  38.179  35.529  1.00  0.00    -0.206 F 
ATOM    106  C   UNL A   1      47.951  41.695  36.363  1.00  0.00     0.022 A 
BRANCH 103 107
ATOM    107  S   UNL A   1      46.168  43.824  36.099  1.00  0.00     0.124 S 
ATOM    108  O   UNL A   1      45.102  43.882  35.105  1.00  0.00    -0.237 OA
ATOM    109  O   UNL A   1      45.755  43.988  37.488  1.00  0.00    -0.237 OA
ATOM    110  O   UNL A   1      47.397  44.527  35.732  1.00  0.00    -0.744 OA
ENDBRANCH 103 107
ENDBRANCH  77 100
ENDBRANCH  51  52
ENDBRANCH  44  46
ENDBRANCH  43  44
ENDBRANCH  42  43
ENDBRANCH  41  42
ENDBRANCH  40  41
ENDBRANCH  39  40
ENDBRANCH  38  39
ENDBRANCH  37  38
ENDBRANCH   1  37
TORSDOF 27
ENDMDL
MODEL 3
REMARK VINA RESULT:      -9.7      6.140      9.703
REMARK SMILES O=C(NC1(C(=O)OCCOCCOCCOCCOC(=O)c2ccc(-c3c4nc(c(-c5cc(S(=O)(=O)[O-])ccc5F)c5ccc([nH]5)c(-c5cc(S(=O)(=O)[O-])ccc5F)c5nc(c(-c6cc(S(=O)(=O)[O-])ccc6F)c6ccc3[nH]6)C=C5)C=C4)cc2)Cc2ccccc2C1)OCC1c2ccccc2-c2ccccc21
REMARK SMILES IDX 12 1 11 2 10 3 9 4 8 5 7 6 5 7 6 8 4 9 85 10 92 11 86 12
REMARK SMILES IDX 91 13 87 14 90 15 88 16 89 17 3 18 1 19 2 20 93 22 94 23
REMARK SMILES IDX 95 24 96 25 107 26 97 27 101 28 102 29 106 30 98 31 100 32
REMARK SMILES IDX 103 33 105 34 99 35 104 36 13 37 14 38 15 39 16 40 17 41
REMARK SMILES IDX 18 42 19 43 20 44 21 45 22 46 23 47 84 48 24 49 83 50 25 51
REMARK SMILES IDX 26 52 27 53 77 54 28 55 82 56 76 57 78 58 29 59 81 60 75 61
REMARK SMILES IDX 74 62 30 64 62 65 42 66 61 67 43 68 46 69 60 70 79 71 44 72
REMARK SMILES IDX 45 73 59 75 80 76 47 77 31 78 32 79 40 80 33 81 39 82 41 83
REMARK SMILES IDX 38 84 34 85 35 86 36 87 37 88 63 89 64 90 72 91 65 92 71 93
REMARK SMILES IDX 73 94 70 95 66 96 67 97 68 98 69 99 48 100 49 101 57 102
REMARK SMILES IDX 50 103 56 104 58 105 55 106 51 107 52 108 53 109 54 110
REMARK H PARENT 3 21 78 63 46 74
REMARK Flexibility Score: inf
ROOT
ATOM      1  C   UNL A   1      40.725  25.295  25.922  1.00  0.00     0.188 C 
ENDROOT
BRANCH   1   2
ATOM      2  C   UNL A   1      40.838  26.813  26.072  1.00  0.00     0.188 C 
BRANCH   2   3
ATOM      3  O   UNL A   1      40.264  27.451  27.195  1.00  0.00    -0.376 OA
BRANCH   3   4
ATOM      4  C   UNL A   1      40.640  27.107  28.525  1.00  0.00     0.202 C 
BRANCH   4   5
ATOM      5  C   UNL A   1      42.020  27.433  29.117  1.00  0.00     0.261 C 
BRANCH   5   6
ATOM      6  O   UNL A   1      42.011  28.347  30.235  1.00  0.00    -0.461 OA
BRANCH   6   7
ATOM      7  C   UNL A   1      41.546  29.589  29.970  1.00  0.00     0.332 C 
ATOM      8  O   UNL A   1      41.873  30.204  28.950  1.00  0.00    -0.249 OA
BRANCH   7   9
ATOM      9  C   UNL A   1      40.690  30.271  31.087  1.00  0.00     0.149 C 
ATOM     10  C   UNL A   1      39.275  30.301  30.459  1.00  0.00     0.076 C 
ATOM     11  C   UNL A   1      40.872  31.715  31.624  1.00  0.00     0.076 C 
ATOM     12  C   UNL A   1      39.113  31.728  30.044  1.00  0.00    -0.042 A 
ATOM     13  C   UNL A   1      39.928  32.542  30.816  1.00  0.00    -0.042 A 
ATOM     14  C   UNL A   1      38.192  32.256  29.160  1.00  0.00     0.004 A 
ATOM     15  C   UNL A   1      39.738  33.912  30.834  1.00  0.00     0.004 A 
ATOM     16  C   UNL A   1      38.027  33.638  29.128  1.00  0.00     0.000 A 
ATOM     17  C   UNL A   1      38.770  34.459  29.989  1.00  0.00     0.000 A 
BRANCH   9  18
ATOM     18  N   UNL A   1      41.004  29.369  32.247  1.00  0.00    -0.305 N 
ATOM     19  O   UNL A   1      40.225  27.835  33.737  1.00  0.00    -0.225 OA
ATOM     20  C   UNL A   1      40.127  28.921  33.171  1.00  0.00     0.408 C 
ATOM     21  H   UNL A   1      41.938  29.076  32.342  1.00  0.00     0.168 HD
BRANCH  20  22
ATOM     22  O   UNL A   1      39.196  29.837  33.426  1.00  0.00    -0.449 OA
BRANCH  22  23
ATOM     23  C   UNL A   1      39.479  30.779  34.455  1.00  0.00     0.248 C 
BRANCH  23  24
ATOM     24  C   UNL A   1      38.157  31.230  35.112  1.00  0.00     0.088 C 
ATOM     25  C   UNL A   1      37.250  32.159  34.295  1.00  0.00    -0.029 A 
ATOM     26  C   UNL A   1      38.242  31.996  36.442  1.00  0.00    -0.029 A 
ATOM     27  C   UNL A   1      36.975  32.166  32.933  1.00  0.00     0.005 A 
ATOM     28  C   UNL A   1      36.680  33.136  35.145  1.00  0.00    -0.014 A 
ATOM     29  C   UNL A   1      37.275  33.026  36.460  1.00  0.00    -0.014 A 
ATOM     30  C   UNL A   1      39.133  31.859  37.500  1.00  0.00     0.005 A 
ATOM     31  C   UNL A   1      36.133  33.165  32.427  1.00  0.00     0.000 A 
ATOM     32  C   UNL A   1      35.815  34.102  34.649  1.00  0.00     0.009 A 
ATOM     33  C   UNL A   1      37.113  33.839  37.572  1.00  0.00     0.009 A 
ATOM     34  C   UNL A   1      39.013  32.723  38.594  1.00  0.00     0.000 A 
ATOM     35  C   UNL A   1      35.545  34.112  33.279  1.00  0.00     0.001 A 
ATOM     36  C   UNL A   1      37.987  33.678  38.647  1.00  0.00     0.001 A 
ENDBRANCH  23  24
ENDBRANCH  22  23
ENDBRANCH  20  22
ENDBRANCH   9  18
ENDBRANCH   7   9
ENDBRANCH   6   7
ENDBRANCH   5   6
ENDBRANCH   4   5
ENDBRANCH   3   4
ENDBRANCH   2   3
ENDBRANCH   1   2
BRANCH   1  37
ATOM     37  O   UNL A   1      41.798  24.531  26.425  1.00  0.00    -0.377 OA
BRANCH  37  38
ATOM     38  C   UNL A   1      42.925  24.233  25.613  1.00  0.00     0.188 C 
BRANCH  38  39
ATOM     39  C   UNL A   1      44.232  23.793  26.283  1.00  0.00     0.188 C 
BRANCH  39  40
ATOM     40  O   UNL A   1      45.208  23.301  25.375  1.00  0.00    -0.376 OA
BRANCH  40  41
ATOM     41  C   UNL A   1      46.098  24.224  24.763  1.00  0.00     0.202 C 
BRANCH  41  42
ATOM     42  C   UNL A   1      47.393  24.582  25.512  1.00  0.00     0.261 C 
BRANCH  42  43
ATOM     43  O   UNL A   1      47.489  24.169  26.888  1.00  0.00    -0.460 OA
BRANCH  43  44
ATOM     44  C   UNL A   1      48.330  24.827  27.713  1.00  0.00     0.338 C 
ATOM     45  O   UNL A   1      49.522  24.636  27.856  1.00  0.00    -0.246 OA
BRANCH  44  46
ATOM     46  C   UNL A   1      47.595  25.974  28.284  1.00  0.00     0.060 A 
ATOM     47  C   UNL A   1      48.321  26.995  28.911  1.00  0.00     0.016 A 
ATOM     48  C   UNL A   1      46.201  26.023  28.230  1.00  0.00     0.016 A 
ATOM     49  C   UNL A   1      47.650  28.048  29.530  1.00  0.00     0.010 A 
ATOM     50  C   UNL A   1      45.528  27.067  28.870  1.00  0.00     0.010 A 
ATOM     51  C   UNL A   1      46.249  28.060  29.557  1.00  0.00    -0.014 A 
BRANCH  51  52
ATOM     52  C   UNL A   1      45.547  28.967  30.496  1.00  0.00     0.031 A 
ATOM     53  C   UNL A   1      45.244  30.367  30.033  1.00  0.00     0.074 A 
ATOM     54  C   UNL A   1      45.162  28.556  31.717  1.00  0.00     0.049 A 
ATOM     55  N   UNL A   1      44.696  31.361  30.681  1.00  0.00    -0.248 NA
ATOM     56  C   UNL A   1      45.620  30.685  28.645  1.00  0.00     0.031 C 
ATOM     57  C   UNL A   1      45.348  27.209  32.252  1.00  0.00     0.029 A 
ATOM     58  N   UNL A   1      44.537  29.239  32.730  1.00  0.00    -0.354 N 
ATOM     59  C   UNL A   1      44.663  32.423  29.783  1.00  0.00     0.074 A 
ATOM     60  C   UNL A   1      45.283  31.962  28.560  1.00  0.00     0.031 C 
ATOM     61  C   UNL A   1      44.858  27.168  33.504  1.00  0.00     0.029 A 
ATOM     62  C   UNL A   1      44.362  28.493  33.872  1.00  0.00     0.049 A 
ATOM     63  H   UNL A   1      44.241  30.174  32.646  1.00  0.00     0.167 HD
ATOM     64  C   UNL A   1      44.154  33.667  29.961  1.00  0.00     0.034 A 
ATOM     65  C   UNL A   1      43.884  28.853  35.082  1.00  0.00     0.034 A 
ATOM     66  C   UNL A   1      43.559  34.116  31.194  1.00  0.00     0.049 A 
ATOM     67  C   UNL A   1      43.418  30.275  35.292  1.00  0.00     0.074 A 
ATOM     68  C   UNL A   1      43.011  35.354  31.487  1.00  0.00     0.029 A 
ATOM     69  N   UNL A   1      43.447  33.350  32.348  1.00  0.00    -0.354 N 
ATOM     70  N   UNL A   1      43.389  31.274  34.437  1.00  0.00    -0.248 NA
ATOM     71  C   UNL A   1      42.912  30.617  36.628  1.00  0.00     0.031 C 
ATOM     72  C   UNL A   1      42.639  35.360  32.836  1.00  0.00     0.029 A 
ATOM     73  C   UNL A   1      42.872  34.099  33.364  1.00  0.00     0.049 A 
ATOM     74  H   UNL A   1      43.733  32.412  32.432  1.00  0.00     0.167 HD
ATOM     75  C   UNL A   1      42.832  32.350  35.126  1.00  0.00     0.074 A 
ATOM     76  C   UNL A   1      42.529  31.874  36.460  1.00  0.00     0.031 C 
ATOM     77  C   UNL A   1      42.585  33.614  34.694  1.00  0.00     0.034 A 
BRANCH  64  78
ATOM     78  C   UNL A   1      44.283  34.637  28.811  1.00  0.00     0.023 A 
ATOM     79  C   UNL A   1      45.519  35.204  28.455  1.00  0.00     0.031 A 
ATOM     80  C   UNL A   1      43.144  35.034  28.089  1.00  0.00     0.131 A 
ATOM     81  C   UNL A   1      45.575  36.191  27.458  1.00  0.00     0.055 A 
ATOM     82  C   UNL A   1      43.220  35.954  27.040  1.00  0.00     0.041 A 
ATOM     83  F   UNL A   1      41.933  34.547  28.400  1.00  0.00    -0.206 F 
ATOM     84  C   UNL A   1      44.439  36.551  26.731  1.00  0.00     0.022 A 
BRANCH  81  85
ATOM     85  S   UNL A   1      47.124  37.108  27.233  1.00  0.00     0.124 S 
ATOM     86  O   UNL A   1      47.049  38.085  28.316  1.00  0.00    -0.237 OA
ATOM     87  O   UNL A   1      48.132  36.066  27.381  1.00  0.00    -0.237 OA
ATOM     88  O   UNL A   1      46.997  37.670  25.889  1.00  0.00    -0.744 OA
ENDBRANCH  81  85
ENDBRANCH  64  78
BRANCH  65  89
ATOM     89  C   UNL A   1      43.865  27.875  36.209  1.00  0.00     0.023 A 
ATOM     90  C   UNL A   1      45.040  27.538  36.901  1.00  0.00     0.031 A 
ATOM     91  C   UNL A   1      42.676  27.218  36.572  1.00  0.00     0.131 A 
ATOM     92  C   UNL A   1      45.008  26.537  37.885  1.00  0.00     0.055 A 
ATOM     93  C   UNL A   1      42.639  26.263  37.589  1.00  0.00     0.041 A 
ATOM     94  F   UNL A   1      41.524  27.499  35.941  1.00  0.00    -0.206 F 
ATOM     95  C   UNL A   1      43.814  25.907  38.244  1.00  0.00     0.022 A 
BRANCH  92  96
ATOM     96  S   UNL A   1      46.573  26.004  38.634  1.00  0.00     0.124 S 
ATOM     97  O   UNL A   1      47.473  26.024  37.486  1.00  0.00    -0.237 OA
ATOM     98  O   UNL A   1      46.792  27.036  39.641  1.00  0.00    -0.237 OA
ATOM     99  O   UNL A   1      46.262  24.678  39.162  1.00  0.00    -0.744 OA
ENDBRANCH  92  96
ENDBRANCH  65  89
BRANCH  77 100
ATOM    100  C   UNL A   1      41.909  34.555  35.662  1.00  0.00     0.023 A 
ATOM    101  C   UNL A   1      42.612  35.186  36.704  1.00  0.00     0.031 A 
ATOM    102  C   UNL A   1      40.532  34.825  35.538  1.00  0.00     0.131 A 
ATOM    103  C   UNL A   1      41.928  36.009  37.611  1.00  0.00     0.055 A 
ATOM    104  C   UNL A   1      39.872  35.696  36.404  1.00  0.00     0.041 A 
ATOM    105  F   UNL A   1      39.809  34.250  34.564  1.00  0.00    -0.206 F 
ATOM    106  C   UNL A   1      40.566  36.282  37.457  1.00  0.00     0.022 A 
BRANCH 103 107
ATOM    107  S   UNL A   1      42.822  36.645  39.057  1.00  0.00     0.124 S 
ATOM    108  O   UNL A   1      42.519  35.638  40.068  1.00  0.00    -0.237 OA
ATOM    109  O   UNL A   1      44.200  36.678  38.581  1.00  0.00    -0.237 OA
ATOM    110  O   UNL A   1      42.215  37.956  39.286  1.00  0.00    -0.744 OA
ENDBRANCH 103 107
ENDBRANCH  77 100
ENDBRANCH  51  52
ENDBRANCH  44  46
ENDBRANCH  43  44
ENDBRANCH  42  43
ENDBRANCH  41  42
ENDBRANCH  40  41
ENDBRANCH  39  40
ENDBRANCH  38  39
ENDBRANCH  37  38
ENDBRANCH   1  37
TORSDOF 27
ENDMDL
