MODEL 1
REMARK VINA RESULT:     -11.8      0.000      0.000
REMARK SMILES Cc1ccc(C(=O)NC2(CC(=O)OCCOCCOCCOCCOC(=O)c3ccc(-c4c5nc(c(-c6cc(S(=O)(=O)[O-])ccc6F)c6ccc([nH]6)c(-c6cc(S(=O)(=O)[O-])ccc6F)c6nc(c(-c7cc(S(=O)(=O)[O-])ccc7F)c7ccc4[nH]7)C=C6)C=C5)cc3)CCC2)cc1
REMARK SMILES IDX 19 1 18 2 17 3 16 4 15 5 14 6 13 7 11 8 12 9 10 10 9 11
REMARK SMILES IDX 91 12 93 13 92 14 8 15 6 16 7 17 5 19 1 20 2 21 3 22 95 23
REMARK SMILES IDX 4 24 94 25 20 26 21 27 22 28 23 29 24 30 25 31 26 32 27 33
REMARK SMILES IDX 28 34 29 35 90 36 30 37 89 38 31 39 32 40 33 41 83 42 34 43
REMARK SMILES IDX 88 44 82 45 84 46 35 47 87 48 81 49 80 50 36 52 68 53 48 54
REMARK SMILES IDX 67 55 49 56 52 57 66 58 85 59 50 60 51 61 65 63 86 64 53 65
REMARK SMILES IDX 37 66 38 67 46 68 39 69 45 70 47 71 44 72 40 73 41 74 42 75
REMARK SMILES IDX 43 76 69 77 70 78 78 79 71 80 77 81 79 82 76 83 72 84 73 85
REMARK SMILES IDX 74 86 75 87 54 88 55 89 63 90 56 91 62 92 64 93 61 94 57 95
REMARK SMILES IDX 58 96 59 97 60 98
REMARK H PARENT 8 18 84 51 52 62
REMARK Flexibility Score: inf
ROOT
ATOM      1  O   UNL A   1      35.340  31.814  31.366  1.00  0.00    -0.377 OA
ENDROOT
BRANCH   1   2
ATOM      2  C   UNL A   1      35.259  33.261  31.517  1.00  0.00     0.188 C 
BRANCH   2   3
ATOM      3  C   UNL A   1      34.739  34.077  30.136  1.00  0.00     0.188 C 
BRANCH   3   4
ATOM      4  O   UNL A   1      33.205  34.223  29.384  1.00  0.00    -0.376 OA
BRANCH   4   5
ATOM      5  C   UNL A   1      32.423  34.024  27.828  1.00  0.00     0.202 C 
BRANCH   5   6
ATOM      6  C   UNL A   1      31.768  32.685  26.606  1.00  0.00     0.261 C 
BRANCH   6   7
ATOM      7  O   UNL A   1      31.713  30.594  26.477  1.00  0.00    -0.463 OA
BRANCH   7   8
ATOM      8  C   UNL A   1      32.179  29.380  25.281  1.00  0.00     0.308 C 
ATOM      9  O   UNL A   1      33.251  29.469  24.660  1.00  0.00    -0.252 OA
BRANCH   8  10
ATOM     10  C   UNL A   1      31.752  27.732  25.132  1.00  0.00     0.151 C 
BRANCH  10  11
ATOM     11  C   UNL A   1      31.129  27.300  23.794  1.00  0.00     0.051 C 
ATOM     12  C   UNL A   1      30.158  28.337  23.090  1.00  0.00     0.029 C 
ATOM     13  C   UNL A   1      29.872  26.303  23.526  1.00  0.00     0.029 C 
ATOM     14  C   UNL A   1      28.951  27.499  23.550  1.00  0.00     0.005 C 
BRANCH  11  15
ATOM     15  N   UNL A   1      32.160  26.846  22.919  1.00  0.00    -0.346 N 
ATOM     16  C   UNL A   1      33.111  25.879  22.891  1.00  0.00     0.251 C 
ATOM     17  O   UNL A   1      33.807  26.255  21.931  1.00  0.00    -0.269 OA
ATOM     18  H   UNL A   1      32.191  27.392  22.100  1.00  0.00     0.164 HD
BRANCH  16  19
ATOM     19  C   UNL A   1      33.199  24.416  23.890  1.00  0.00     0.039 A 
ATOM     20  C   UNL A   1      33.219  19.453  25.222  1.00  0.00     0.044 C 
ATOM     21  C   UNL A   1      33.219  20.920  24.926  1.00  0.00    -0.051 A 
ATOM     22  C   UNL A   1      31.840  21.813  25.176  1.00  0.00     0.004 A 
ATOM     23  C   UNL A   1      34.615  21.662  24.338  1.00  0.00     0.004 A 
ATOM     24  C   UNL A   1      31.779  23.511  24.726  1.00  0.00     0.014 A 
ATOM     25  C   UNL A   1      34.623  23.363  23.759  1.00  0.00     0.014 A 
ENDBRANCH  16  19
ENDBRANCH  11  15
ENDBRANCH  10  11
ENDBRANCH   8  10
ENDBRANCH   7   8
ENDBRANCH   6   7
ENDBRANCH   5   6
ENDBRANCH   4   5
ENDBRANCH   3   4
ENDBRANCH   2   3
ENDBRANCH   1   2
BRANCH   1  26
ATOM     26  C   UNL A   1      36.103  31.485  30.180  1.00  0.00     0.188 C 
BRANCH  26  27
ATOM     27  C   UNL A   1      36.120  30.015  29.836  1.00  0.00     0.188 C 
BRANCH  27  28
ATOM     28  O   UNL A   1      36.476  29.368  31.034  1.00  0.00    -0.376 OA
BRANCH  28  29
ATOM     29  C   UNL A   1      37.667  28.606  31.019  1.00  0.00     0.202 C 
BRANCH  29  30
ATOM     30  C   UNL A   1      38.626  29.457  31.836  1.00  0.00     0.261 C 
BRANCH  30  31
ATOM     31  O   UNL A   1      39.828  28.654  32.044  1.00  0.00    -0.460 OA
BRANCH  31  32
ATOM     32  C   UNL A   1      40.624  29.084  33.073  1.00  0.00     0.338 C 
ATOM     33  O   UNL A   1      40.225  29.770  34.003  1.00  0.00    -0.246 OA
BRANCH  32  34
ATOM     34  C   UNL A   1      42.072  28.778  32.815  1.00  0.00     0.060 A 
ATOM     35  C   UNL A   1      42.533  28.621  31.526  1.00  0.00     0.016 A 
ATOM     36  C   UNL A   1      43.026  28.551  33.785  1.00  0.00     0.016 A 
ATOM     37  C   UNL A   1      43.743  27.917  31.282  1.00  0.00     0.010 A 
ATOM     38  C   UNL A   1      44.249  27.859  33.456  1.00  0.00     0.010 A 
ATOM     39  C   UNL A   1      44.438  27.146  32.229  1.00  0.00    -0.014 A 
BRANCH  39  40
ATOM     40  C   UNL A   1      44.934  25.414  31.855  1.00  0.00     0.031 A 
ATOM     41  C   UNL A   1      44.681  23.770  32.961  1.00  0.00     0.074 A 
ATOM     42  C   UNL A   1      45.601  25.584  30.562  1.00  0.00     0.049 A 
ATOM     43  N   UNL A   1      45.658  23.140  33.658  1.00  0.00    -0.248 NA
ATOM     44  C   UNL A   1      43.577  22.904  33.734  1.00  0.00     0.031 C 
ATOM     45  C   UNL A   1      45.852  24.700  29.413  1.00  0.00     0.029 A 
ATOM     46  N   UNL A   1      46.522  26.724  30.079  1.00  0.00    -0.354 N 
ATOM     47  C   UNL A   1      45.647  21.982  34.418  1.00  0.00     0.074 A 
ATOM     48  C   UNL A   1      44.196  21.985  34.555  1.00  0.00     0.031 C 
ATOM     49  C   UNL A   1      46.871  25.155  28.620  1.00  0.00     0.029 A 
ATOM     50  C   UNL A   1      47.616  26.298  29.170  1.00  0.00     0.049 A 
ATOM     51  H   UNL A   1      46.396  27.660  30.355  1.00  0.00     0.167 HD
ATOM     52  C   UNL A   1      46.806  21.237  34.940  1.00  0.00     0.034 A 
ATOM     53  C   UNL A   1      49.077  26.424  29.272  1.00  0.00     0.034 A 
ATOM     54  C   UNL A   1      48.439  21.266  34.484  1.00  0.00     0.049 A 
ATOM     55  C   UNL A   1      50.440  25.712  30.262  1.00  0.00     0.074 A 
ATOM     56  C   UNL A   1      49.339  20.285  34.001  1.00  0.00     0.029 A 
ATOM     57  N   UNL A   1      49.487  22.309  34.622  1.00  0.00    -0.354 N 
ATOM     58  N   UNL A   1      50.550  24.547  30.921  1.00  0.00    -0.248 NA
ATOM     59  C   UNL A   1      51.657  26.455  30.627  1.00  0.00     0.031 C 
ATOM     60  C   UNL A   1      50.630  20.892  33.508  1.00  0.00     0.029 A 
ATOM     61  C   UNL A   1      50.602  22.293  33.635  1.00  0.00     0.049 A 
ATOM     62  H   UNL A   1      49.447  22.984  35.338  1.00  0.00     0.167 HD
ATOM     63  C   UNL A   1      51.484  24.472  32.009  1.00  0.00     0.074 A 
ATOM     64  C   UNL A   1      52.216  25.723  31.633  1.00  0.00     0.031 C 
ATOM     65  C   UNL A   1      51.565  23.568  33.195  1.00  0.00     0.034 A 
BRANCH  52  66
ATOM     66  C   UNL A   1      46.478  20.323  36.124  1.00  0.00     0.023 A 
ATOM     67  C   UNL A   1      46.824  20.615  37.460  1.00  0.00     0.031 A 
ATOM     68  C   UNL A   1      45.686  19.173  35.923  1.00  0.00     0.131 A 
ATOM     69  C   UNL A   1      46.412  19.768  38.511  1.00  0.00     0.055 A 
ATOM     70  C   UNL A   1      45.340  18.298  36.952  1.00  0.00     0.041 A 
ATOM     71  F   UNL A   1      45.200  18.872  34.708  1.00  0.00    -0.206 F 
ATOM     72  C   UNL A   1      45.701  18.596  38.255  1.00  0.00     0.022 A 
BRANCH  69  73
ATOM     73  S   UNL A   1      46.792  20.182  40.242  1.00  0.00     0.124 S 
ATOM     74  O   UNL A   1      47.149  21.595  40.175  1.00  0.00    -0.237 OA
ATOM     75  O   UNL A   1      45.538  19.865  40.918  1.00  0.00    -0.237 OA
ATOM     76  O   UNL A   1      47.906  19.288  40.564  1.00  0.00    -0.744 OA
ENDBRANCH  69  73
ENDBRANCH  52  66
BRANCH  53  77
ATOM     77  C   UNL A   1      49.279  27.804  28.661  1.00  0.00     0.023 A 
ATOM     78  C   UNL A   1      48.917  27.817  27.294  1.00  0.00     0.031 A 
ATOM     79  C   UNL A   1      48.974  28.934  29.436  1.00  0.00     0.131 A 
ATOM     80  C   UNL A   1      47.870  28.664  26.914  1.00  0.00     0.055 A 
ATOM     81  C   UNL A   1      48.063  29.886  28.983  1.00  0.00     0.041 A 
ATOM     82  F   UNL A   1      49.416  29.050  30.694  1.00  0.00    -0.206 F 
ATOM     83  C   UNL A   1      47.444  29.703  27.749  1.00  0.00     0.022 A 
BRANCH  80  84
ATOM     84  S   UNL A   1      46.701  28.072  25.632  1.00  0.00     0.124 S 
ATOM     85  O   UNL A   1      45.541  27.698  26.429  1.00  0.00    -0.237 OA
ATOM     86  O   UNL A   1      46.528  29.234  24.762  1.00  0.00    -0.237 OA
ATOM     87  O   UNL A   1      47.453  26.976  25.023  1.00  0.00    -0.744 OA
ENDBRANCH  80  84
ENDBRANCH  53  77
BRANCH  65  88
ATOM     88  C   UNL A   1      52.648  23.845  34.284  1.00  0.00     0.023 A 
ATOM     89  C   UNL A   1      53.947  23.327  34.226  1.00  0.00     0.031 A 
ATOM     90  C   UNL A   1      52.405  24.664  35.419  1.00  0.00     0.131 A 
ATOM     91  C   UNL A   1      54.976  23.822  35.049  1.00  0.00     0.055 A 
ATOM     92  C   UNL A   1      53.399  25.045  36.330  1.00  0.00     0.041 A 
ATOM     93  F   UNL A   1      51.197  25.160  35.709  1.00  0.00    -0.206 F 
ATOM     94  C   UNL A   1      54.710  24.671  36.115  1.00  0.00     0.022 A 
BRANCH  91  95
ATOM     95  S   UNL A   1      56.693  23.425  34.625  1.00  0.00     0.124 S 
ATOM     96  O   UNL A   1      57.414  24.632  35.020  1.00  0.00    -0.237 OA
ATOM     97  O   UNL A   1      56.932  22.249  35.458  1.00  0.00    -0.237 OA
ATOM     98  O   UNL A   1      56.642  23.172  33.188  1.00  0.00    -0.744 OA
ENDBRANCH  91  95
ENDBRANCH  65  88
ENDBRANCH  39  40
ENDBRANCH  32  34
ENDBRANCH  31  32
ENDBRANCH  30  31
ENDBRANCH  29  30
ENDBRANCH  28  29
ENDBRANCH  27  28
ENDBRANCH  26  27
ENDBRANCH   1  26
TORSDOF 26
ENDMDL
MODEL 2
REMARK VINA RESULT:     -11.3      2.477      4.252
REMARK SMILES Cc1ccc(C(=O)NC2(CC(=O)OCCOCCOCCOCCOC(=O)c3ccc(-c4c5nc(c(-c6cc(S(=O)(=O)[O-])ccc6F)c6ccc([nH]6)c(-c6cc(S(=O)(=O)[O-])ccc6F)c6nc(c(-c7cc(S(=O)(=O)[O-])ccc7F)c7ccc4[nH]7)C=C6)C=C5)cc3)CCC2)cc1
REMARK SMILES IDX 19 1 18 2 17 3 16 4 15 5 14 6 13 7 11 8 12 9 10 10 9 11
REMARK SMILES IDX 91 12 93 13 92 14 8 15 6 16 7 17 5 19 1 20 2 21 3 22 95 23
REMARK SMILES IDX 4 24 94 25 20 26 21 27 22 28 23 29 24 30 25 31 26 32 27 33
REMARK SMILES IDX 28 34 29 35 90 36 30 37 89 38 31 39 32 40 33 41 83 42 34 43
REMARK SMILES IDX 88 44 82 45 84 46 35 47 87 48 81 49 80 50 36 52 68 53 48 54
REMARK SMILES IDX 67 55 49 56 52 57 66 58 85 59 50 60 51 61 65 63 86 64 53 65
REMARK SMILES IDX 37 66 38 67 46 68 39 69 45 70 47 71 44 72 40 73 41 74 42 75
REMARK SMILES IDX 43 76 69 77 70 78 78 79 71 80 77 81 79 82 76 83 72 84 73 85
REMARK SMILES IDX 74 86 75 87 54 88 55 89 63 90 56 91 62 92 64 93 61 94 57 95
REMARK SMILES IDX 58 96 59 97 60 98
REMARK H PARENT 8 18 84 51 52 62
REMARK Flexibility Score: inf
ROOT
ATOM      1  O   UNL A   1      37.657  30.305  27.919  1.00  0.00    -0.377 OA
ENDROOT
BRANCH   1   2
ATOM      2  C   UNL A   1      37.298  28.995  28.448  1.00  0.00     0.188 C 
BRANCH   2   3
ATOM      3  C   UNL A   1      38.602  28.098  29.029  1.00  0.00     0.188 C 
BRANCH   3   4
ATOM      4  O   UNL A   1      39.613  26.919  28.302  1.00  0.00    -0.376 OA
BRANCH   4   5
ATOM      5  C   UNL A   1      39.577  25.272  27.702  1.00  0.00     0.202 C 
BRANCH   5   6
ATOM      6  C   UNL A   1      38.539  24.062  26.618  1.00  0.00     0.261 C 
BRANCH   6   7
ATOM      7  O   UNL A   1      36.537  23.811  26.055  1.00  0.00    -0.463 OA
BRANCH   7   8
ATOM      8  C   UNL A   1      35.591  22.557  25.245  1.00  0.00     0.308 C 
ATOM      9  O   UNL A   1      35.694  21.364  25.572  1.00  0.00    -0.252 OA
BRANCH   8  10
ATOM     10  C   UNL A   1      34.087  22.635  24.437  1.00  0.00     0.151 C 
BRANCH  10  11
ATOM     11  C   UNL A   1      33.330  23.971  24.518  1.00  0.00     0.051 C 
ATOM     12  C   UNL A   1      32.598  24.460  23.200  1.00  0.00     0.029 C 
ATOM     13  C   UNL A   1      33.920  25.486  24.468  1.00  0.00     0.029 C 
ATOM     14  C   UNL A   1      33.723  25.485  22.971  1.00  0.00     0.005 C 
BRANCH  11  15
ATOM     15  N   UNL A   1      32.454  23.948  25.644  1.00  0.00    -0.346 N 
ATOM     16  C   UNL A   1      31.586  24.784  26.269  1.00  0.00     0.251 C 
ATOM     17  O   UNL A   1      31.384  24.169  27.331  1.00  0.00    -0.269 OA
ATOM     18  H   UNL A   1      32.491  23.076  26.100  1.00  0.00     0.164 HD
BRANCH  16  19
ATOM     19  C   UNL A   1      30.858  26.268  25.627  1.00  0.00     0.039 A 
ATOM     20  C   UNL A   1      29.629  30.043  22.364  1.00  0.00     0.044 C 
ATOM     21  C   UNL A   1      29.940  28.991  23.382  1.00  0.00    -0.051 A 
ATOM     22  C   UNL A   1      31.114  29.267  24.524  1.00  0.00     0.004 A 
ATOM     23  C   UNL A   1      29.101  27.528  23.366  1.00  0.00     0.004 A 
ATOM     24  C   UNL A   1      31.579  28.005  25.655  1.00  0.00     0.014 A 
ATOM     25  C   UNL A   1      29.567  26.145  24.413  1.00  0.00     0.014 A 
ENDBRANCH  16  19
ENDBRANCH  11  15
ENDBRANCH  10  11
ENDBRANCH   8  10
ENDBRANCH   7   8
ENDBRANCH   6   7
ENDBRANCH   5   6
ENDBRANCH   4   5
ENDBRANCH   3   4
ENDBRANCH   2   3
ENDBRANCH   1   2
BRANCH   1  26
ATOM     26  C   UNL A   1      36.911  31.336  28.610  1.00  0.00     0.188 C 
BRANCH  26  27
ATOM     27  C   UNL A   1      36.829  31.151  30.106  1.00  0.00     0.188 C 
BRANCH  27  28
ATOM     28  O   UNL A   1      38.090  31.550  30.588  1.00  0.00    -0.376 OA
BRANCH  28  29
ATOM     29  C   UNL A   1      38.107  32.302  31.786  1.00  0.00     0.202 C 
BRANCH  29  30
ATOM     30  C   UNL A   1      39.149  31.582  32.626  1.00  0.00     0.261 C 
BRANCH  30  31
ATOM     31  O   UNL A   1      39.686  30.505  31.799  1.00  0.00    -0.460 OA
BRANCH  31  32
ATOM     32  C   UNL A   1      40.258  29.480  32.506  1.00  0.00     0.338 C 
ATOM     33  O   UNL A   1      39.817  29.051  33.562  1.00  0.00    -0.246 OA
BRANCH  32  34
ATOM     34  C   UNL A   1      41.589  29.090  31.930  1.00  0.00     0.060 A 
ATOM     35  C   UNL A   1      41.662  28.446  30.713  1.00  0.00     0.016 A 
ATOM     36  C   UNL A   1      42.809  29.248  32.556  1.00  0.00     0.016 A 
ATOM     37  C   UNL A   1      42.818  27.696  30.371  1.00  0.00     0.010 A 
ATOM     38  C   UNL A   1      43.951  28.476  32.130  1.00  0.00     0.010 A 
ATOM     39  C   UNL A   1      43.849  27.344  31.259  1.00  0.00    -0.014 A 
BRANCH  39  40
ATOM     40  C   UNL A   1      44.412  25.599  31.408  1.00  0.00     0.031 A 
ATOM     41  C   UNL A   1      44.353  24.394  33.000  1.00  0.00     0.074 A 
ATOM     42  C   UNL A   1      44.955  25.362  30.069  1.00  0.00     0.049 A 
ATOM     43  N   UNL A   1      45.421  24.049  33.759  1.00  0.00    -0.248 NA
ATOM     44  C   UNL A   1      43.373  23.792  34.115  1.00  0.00     0.031 C 
ATOM     45  C   UNL A   1      45.157  24.162  29.242  1.00  0.00     0.029 A 
ATOM     46  N   UNL A   1      45.762  26.310  29.159  1.00  0.00    -0.354 N 
ATOM     47  C   UNL A   1      45.544  23.199  34.846  1.00  0.00     0.074 A 
ATOM     48  C   UNL A   1      44.113  23.205  35.120  1.00  0.00     0.031 C 
ATOM     49  C   UNL A   1      46.076  24.365  28.248  1.00  0.00     0.029 A 
ATOM     50  C   UNL A   1      46.797  25.645  28.327  1.00  0.00     0.049 A 
ATOM     51  H   UNL A   1      45.605  27.282  29.132  1.00  0.00     0.167 HD
ATOM     52  C   UNL A   1      46.786  22.695  35.458  1.00  0.00     0.034 A 
ATOM     53  C   UNL A   1      48.252  25.839  28.237  1.00  0.00     0.034 A 
ATOM     54  C   UNL A   1      48.369  22.622  34.856  1.00  0.00     0.049 A 
ATOM     55  C   UNL A   1      49.734  25.522  29.259  1.00  0.00     0.074 A 
ATOM     56  C   UNL A   1      49.280  21.563  34.622  1.00  0.00     0.029 A 
ATOM     57  N   UNL A   1      49.362  23.683  34.548  1.00  0.00    -0.354 N 
ATOM     58  N   UNL A   1      49.968  24.636  30.240  1.00  0.00    -0.248 NA
ATOM     59  C   UNL A   1      50.932  26.378  29.246  1.00  0.00     0.031 C 
ATOM     60  C   UNL A   1      50.486  22.015  33.835  1.00  0.00     0.029 A 
ATOM     61  C   UNL A   1      50.387  23.381  33.512  1.00  0.00     0.049 A 
ATOM     62  H   UNL A   1      49.344  24.551  35.012  1.00  0.00     0.167 HD
ATOM     63  C   UNL A   1      50.995  24.942  31.197  1.00  0.00     0.074 A 
ATOM     64  C   UNL A   1      51.618  26.026  30.370  1.00  0.00     0.031 C 
ATOM     65  C   UNL A   1      51.232  24.472  32.594  1.00  0.00     0.034 A 
BRANCH  52  66
ATOM     66  C   UNL A   1      46.615  22.203  36.899  1.00  0.00     0.023 A 
ATOM     67  C   UNL A   1      46.419  20.851  37.249  1.00  0.00     0.031 A 
ATOM     68  C   UNL A   1      46.774  23.108  37.971  1.00  0.00     0.131 A 
ATOM     69  C   UNL A   1      46.358  20.461  38.604  1.00  0.00     0.055 A 
ATOM     70  C   UNL A   1      46.643  22.733  39.308  1.00  0.00     0.041 A 
ATOM     71  F   UNL A   1      47.088  24.394  37.749  1.00  0.00    -0.206 F 
ATOM     72  C   UNL A   1      46.436  21.403  39.630  1.00  0.00     0.022 A 
BRANCH  69  73
ATOM     73  S   UNL A   1      46.180  18.708  39.059  1.00  0.00     0.124 S 
ATOM     74  O   UNL A   1      45.513  18.767  40.354  1.00  0.00    -0.237 OA
ATOM     75  O   UNL A   1      45.393  18.179  37.950  1.00  0.00    -0.237 OA
ATOM     76  O   UNL A   1      47.564  18.233  39.109  1.00  0.00    -0.744 OA
ENDBRANCH  69  73
ENDBRANCH  52  66
BRANCH  53  77
ATOM     77  C   UNL A   1      48.319  26.952  27.201  1.00  0.00     0.023 A 
ATOM     78  C   UNL A   1      48.185  28.224  27.807  1.00  0.00     0.031 A 
ATOM     79  C   UNL A   1      49.217  26.822  26.130  1.00  0.00     0.131 A 
ATOM     80  C   UNL A   1      49.259  29.111  27.682  1.00  0.00     0.055 A 
ATOM     81  C   UNL A   1      50.181  27.797  25.882  1.00  0.00     0.041 A 
ATOM     82  F   UNL A   1      49.285  25.690  25.419  1.00  0.00    -0.206 F 
ATOM     83  C   UNL A   1      50.255  28.908  26.718  1.00  0.00     0.022 A 
BRANCH  80  84
ATOM     84  S   UNL A   1      49.671  30.178  29.114  1.00  0.00     0.124 S 
ATOM     85  O   UNL A   1      49.369  31.507  28.600  1.00  0.00    -0.237 OA
ATOM     86  O   UNL A   1      48.789  29.689  30.172  1.00  0.00    -0.237 OA
ATOM     87  O   UNL A   1      51.084  29.867  29.324  1.00  0.00    -0.744 OA
ENDBRANCH  80  84
ENDBRANCH  53  77
BRANCH  65  88
ATOM     88  C   UNL A   1      52.386  25.116  33.423  1.00  0.00     0.023 A 
ATOM     89  C   UNL A   1      53.641  24.519  33.587  1.00  0.00     0.031 A 
ATOM     90  C   UNL A   1      52.259  26.375  34.069  1.00  0.00     0.131 A 
ATOM     91  C   UNL A   1      54.743  25.242  34.082  1.00  0.00     0.055 A 
ATOM     92  C   UNL A   1      53.322  27.039  34.695  1.00  0.00     0.041 A 
ATOM     93  F   UNL A   1      51.105  27.049  34.122  1.00  0.00    -0.206 F 
ATOM     94  C   UNL A   1      54.591  26.499  34.653  1.00  0.00     0.022 A 
BRANCH  91  95
ATOM     95  S   UNL A   1      56.404  24.553  33.858  1.00  0.00     0.124 S 
ATOM     96  O   UNL A   1      57.005  24.713  35.179  1.00  0.00    -0.237 OA
ATOM     97  O   UNL A   1      56.098  23.179  33.468  1.00  0.00    -0.237 OA
ATOM     98  O   UNL A   1      56.982  25.386  32.806  1.00  0.00    -0.744 OA
ENDBRANCH  91  95
ENDBRANCH  65  88
ENDBRANCH  39  40
ENDBRANCH  32  34
ENDBRANCH  31  32
ENDBRANCH  30  31
ENDBRANCH  29  30
ENDBRANCH  28  29
ENDBRANCH  27  28
ENDBRANCH  26  27
ENDBRANCH   1  26
TORSDOF 26
ENDMDL
MODEL 3
REMARK VINA RESULT:     -11.3      8.158     14.634
REMARK SMILES Cc1ccc(C(=O)NC2(CC(=O)OCCOCCOCCOCCOC(=O)c3ccc(-c4c5nc(c(-c6cc(S(=O)(=O)[O-])ccc6F)c6ccc([nH]6)c(-c6cc(S(=O)(=O)[O-])ccc6F)c6nc(c(-c7cc(S(=O)(=O)[O-])ccc7F)c7ccc4[nH]7)C=C6)C=C5)cc3)CCC2)cc1
REMARK SMILES IDX 19 1 18 2 17 3 16 4 15 5 14 6 13 7 11 8 12 9 10 10 9 11
REMARK SMILES IDX 91 12 93 13 92 14 8 15 6 16 7 17 5 19 1 20 2 21 3 22 95 23
REMARK SMILES IDX 4 24 94 25 20 26 21 27 22 28 23 29 24 30 25 31 26 32 27 33
REMARK SMILES IDX 28 34 29 35 90 36 30 37 89 38 31 39 32 40 33 41 83 42 34 43
REMARK SMILES IDX 88 44 82 45 84 46 35 47 87 48 81 49 80 50 36 52 68 53 48 54
REMARK SMILES IDX 67 55 49 56 52 57 66 58 85 59 50 60 51 61 65 63 86 64 53 65
REMARK SMILES IDX 37 66 38 67 46 68 39 69 45 70 47 71 44 72 40 73 41 74 42 75
REMARK SMILES IDX 43 76 69 77 70 78 78 79 71 80 77 81 79 82 76 83 72 84 73 85
REMARK SMILES IDX 74 86 75 87 54 88 55 89 63 90 56 91 62 92 64 93 61 94 57 95
REMARK SMILES IDX 58 96 59 97 60 98
REMARK H PARENT 8 18 84 51 52 62
REMARK Flexibility Score: inf
ROOT
ATOM      1  O   UNL A   1      38.037  31.554  29.597  1.00  0.00    -0.377 OA
ENDROOT
BRANCH   1   2
ATOM      2  C   UNL A   1      39.287  31.230  30.273  1.00  0.00     0.188 C 
BRANCH   2   3
ATOM      3  C   UNL A   1      40.378  30.351  29.335  1.00  0.00     0.188 C 
BRANCH   3   4
ATOM      4  O   UNL A   1      40.353  28.749  28.725  1.00  0.00    -0.376 OA
BRANCH   4   5
ATOM      5  C   UNL A   1      40.332  27.864  27.211  1.00  0.00     0.202 C 
BRANCH   5   6
ATOM      6  C   UNL A   1      41.485  27.028  25.913  1.00  0.00     0.261 C 
BRANCH   6   7
ATOM      7  O   UNL A   1      43.102  25.696  25.902  1.00  0.00    -0.463 OA
BRANCH   7   8
ATOM      8  C   UNL A   1      43.328  23.971  25.591  1.00  0.00     0.308 C 
ATOM      9  O   UNL A   1      43.587  23.553  24.451  1.00  0.00    -0.252 OA
BRANCH   8  10
ATOM     10  C   UNL A   1      43.834  22.704  26.620  1.00  0.00     0.151 C 
BRANCH  10  11
ATOM     11  C   UNL A   1      43.143  22.612  27.991  1.00  0.00     0.051 C 
ATOM     12  C   UNL A   1      42.362  23.900  28.485  1.00  0.00     0.029 C 
ATOM     13  C   UNL A   1      43.796  22.729  29.476  1.00  0.00     0.029 C 
ATOM     14  C   UNL A   1      43.517  24.213  29.452  1.00  0.00     0.005 C 
BRANCH  11  15
ATOM     15  N   UNL A   1      42.331  21.440  28.031  1.00  0.00    -0.346 N 
ATOM     16  C   UNL A   1      41.063  21.075  27.711  1.00  0.00     0.251 C 
ATOM     17  O   UNL A   1      40.987  19.963  28.263  1.00  0.00    -0.269 OA
ATOM     18  H   UNL A   1      42.833  20.676  28.397  1.00  0.00     0.164 HD
BRANCH  16  19
ATOM     19  C   UNL A   1      39.920  21.933  26.661  1.00  0.00     0.039 A 
ATOM     20  C   UNL A   1      35.633  24.258  25.044  1.00  0.00     0.044 C 
ATOM     21  C   UNL A   1      36.916  23.593  25.427  1.00  0.00    -0.051 A 
ATOM     22  C   UNL A   1      37.209  22.028  24.952  1.00  0.00     0.004 A 
ATOM     23  C   UNL A   1      38.060  24.429  26.342  1.00  0.00     0.004 A 
ATOM     24  C   UNL A   1      38.655  21.184  25.488  1.00  0.00     0.014 A 
ATOM     25  C   UNL A   1      39.518  23.626  27.019  1.00  0.00     0.014 A 
ENDBRANCH  16  19
ENDBRANCH  11  15
ENDBRANCH  10  11
ENDBRANCH   8  10
ENDBRANCH   7   8
ENDBRANCH   6   7
ENDBRANCH   5   6
ENDBRANCH   4   5
ENDBRANCH   3   4
ENDBRANCH   2   3
ENDBRANCH   1   2
BRANCH   1  26
ATOM     26  C   UNL A   1      36.929  31.426  30.521  1.00  0.00     0.188 C 
BRANCH  26  27
ATOM     27  C   UNL A   1      37.336  31.167  31.952  1.00  0.00     0.188 C 
BRANCH  27  28
ATOM     28  O   UNL A   1      37.162  32.401  32.605  1.00  0.00    -0.376 OA
BRANCH  28  29
ATOM     29  C   UNL A   1      35.970  32.568  33.347  1.00  0.00     0.202 C 
BRANCH  29  30
ATOM     30  C   UNL A   1      36.449  33.265  34.610  1.00  0.00     0.261 C 
BRANCH  30  31
ATOM     31  O   UNL A   1      37.811  32.801  34.856  1.00  0.00    -0.460 OA
BRANCH  31  32
ATOM     32  C   UNL A   1      38.051  32.412  36.148  1.00  0.00     0.338 C 
ATOM     33  O   UNL A   1      37.558  31.419  36.663  1.00  0.00    -0.246 OA
BRANCH  32  34
ATOM     34  C   UNL A   1      38.828  33.453  36.902  1.00  0.00     0.060 A 
ATOM     35  C   UNL A   1      38.952  34.731  36.400  1.00  0.00     0.016 A 
ATOM     36  C   UNL A   1      39.530  33.237  38.069  1.00  0.00     0.016 A 
ATOM     37  C   UNL A   1      40.007  35.572  36.843  1.00  0.00     0.010 A 
ATOM     38  C   UNL A   1      40.567  34.155  38.476  1.00  0.00     0.010 A 
ATOM     39  C   UNL A   1      41.110  35.155  37.607  1.00  0.00    -0.014 A 
BRANCH  39  40
ATOM     40  C   UNL A   1      42.827  35.549  37.078  1.00  0.00     0.031 A 
ATOM     41  C   UNL A   1      43.730  37.329  36.972  1.00  0.00     0.074 A 
ATOM     42  C   UNL A   1      43.324  34.221  36.714  1.00  0.00     0.049 A 
ATOM     43  N   UNL A   1      43.988  38.007  35.827  1.00  0.00    -0.248 NA
ATOM     44  C   UNL A   1      44.076  38.641  37.822  1.00  0.00     0.031 C 
ATOM     45  C   UNL A   1      44.659  33.607  36.650  1.00  0.00     0.029 A 
ATOM     46  N   UNL A   1      42.592  33.065  36.000  1.00  0.00    -0.354 N 
ATOM     47  C   UNL A   1      44.639  39.207  35.593  1.00  0.00     0.074 A 
ATOM     48  C   UNL A   1      44.513  39.642  36.979  1.00  0.00     0.031 C 
ATOM     49  C   UNL A   1      44.680  32.491  35.857  1.00  0.00     0.029 A 
ATOM     50  C   UNL A   1      43.444  32.252  35.096  1.00  0.00     0.049 A 
ATOM     51  H   UNL A   1      41.634  32.883  36.132  1.00  0.00     0.167 HD
ATOM     52  C   UNL A   1      45.088  39.750  34.300  1.00  0.00     0.034 A 
ATOM     53  C   UNL A   1      43.342  31.957  33.659  1.00  0.00     0.034 A 
ATOM     54  C   UNL A   1      45.345  38.989  32.807  1.00  0.00     0.049 A 
ATOM     55  C   UNL A   1      43.547  32.839  32.070  1.00  0.00     0.074 A 
ATOM     56  C   UNL A   1      46.472  38.845  31.962  1.00  0.00     0.029 A 
ATOM     57  N   UNL A   1      44.406  38.380  31.831  1.00  0.00    -0.354 N 
ATOM     58  N   UNL A   1      44.257  33.929  31.740  1.00  0.00    -0.248 NA
ATOM     59  C   UNL A   1      42.768  32.530  30.860  1.00  0.00     0.031 C 
ATOM     60  C   UNL A   1      46.227  37.853  30.851  1.00  0.00     0.029 A 
ATOM     61  C   UNL A   1      44.936  37.301  30.952  1.00  0.00     0.049 A 
ATOM     62  H   UNL A   1      43.470  38.678  31.767  1.00  0.00     0.167 HD
ATOM     63  C   UNL A   1      43.839  34.687  30.594  1.00  0.00     0.074 A 
ATOM     64  C   UNL A   1      42.951  33.610  30.049  1.00  0.00     0.031 C 
ATOM     65  C   UNL A   1      44.068  36.108  30.198  1.00  0.00     0.034 A 
BRANCH  52  66
ATOM     66  C   UNL A   1      45.309  41.266  34.303  1.00  0.00     0.023 A 
ATOM     67  C   UNL A   1      44.344  42.201  33.875  1.00  0.00     0.031 A 
ATOM     68  C   UNL A   1      46.488  41.800  34.866  1.00  0.00     0.131 A 
ATOM     69  C   UNL A   1      44.586  43.587  33.988  1.00  0.00     0.055 A 
ATOM     70  C   UNL A   1      46.756  43.168  34.913  1.00  0.00     0.041 A 
ATOM     71  F   UNL A   1      47.415  41.000  35.416  1.00  0.00    -0.206 F 
ATOM     72  C   UNL A   1      45.801  44.069  34.474  1.00  0.00     0.022 A 
BRANCH  69  73
ATOM     73  S   UNL A   1      43.312  44.795  33.506  1.00  0.00     0.124 S 
ATOM     74  O   UNL A   1      42.169  44.417  34.329  1.00  0.00    -0.237 OA
ATOM     75  O   UNL A   1      43.952  46.065  33.833  1.00  0.00    -0.237 OA
ATOM     76  O   UNL A   1      43.140  44.546  32.074  1.00  0.00    -0.744 OA
ENDBRANCH  69  73
ENDBRANCH  52  66
BRANCH  53  77
ATOM     77  C   UNL A   1      42.433  30.737  33.691  1.00  0.00     0.023 A 
ATOM     78  C   UNL A   1      43.103  29.613  34.226  1.00  0.00     0.031 A 
ATOM     79  C   UNL A   1      41.078  30.915  34.016  1.00  0.00     0.131 A 
ATOM     80  C   UNL A   1      42.586  29.054  35.400  1.00  0.00     0.055 A 
ATOM     81  C   UNL A   1      40.501  30.221  35.077  1.00  0.00     0.041 A 
ATOM     82  F   UNL A   1      40.347  31.871  33.431  1.00  0.00    -0.206 F 
ATOM     83  C   UNL A   1      41.285  29.347  35.826  1.00  0.00     0.022 A 
BRANCH  80  84
ATOM     84  S   UNL A   1      43.767  28.426  36.652  1.00  0.00     0.124 S 
ATOM     85  O   UNL A   1      44.910  28.051  35.831  1.00  0.00    -0.237 OA
ATOM     86  O   UNL A   1      43.968  29.569  37.540  1.00  0.00    -0.237 OA
ATOM     87  O   UNL A   1      43.011  27.328  37.254  1.00  0.00    -0.744 OA
ENDBRANCH  80  84
ENDBRANCH  53  77
BRANCH  65  88
ATOM     88  C   UNL A   1      43.346  36.666  28.932  1.00  0.00     0.023 A 
ATOM     89  C   UNL A   1      42.664  37.888  28.912  1.00  0.00     0.031 A 
ATOM     90  C   UNL A   1      43.336  35.981  27.688  1.00  0.00     0.131 A 
ATOM     91  C   UNL A   1      42.280  38.499  27.702  1.00  0.00     0.055 A 
ATOM     92  C   UNL A   1      42.822  36.526  26.503  1.00  0.00     0.041 A 
ATOM     93  F   UNL A   1      43.838  34.751  27.534  1.00  0.00    -0.206 F 
ATOM     94  C   UNL A   1      42.341  37.819  26.493  1.00  0.00     0.022 A 
BRANCH  91  95
ATOM     95  S   UNL A   1      41.806  40.248  27.726  1.00  0.00     0.124 S 
ATOM     96  O   UNL A   1      41.175  40.398  29.033  1.00  0.00    -0.237 OA
ATOM     97  O   UNL A   1      43.105  40.901  27.575  1.00  0.00    -0.237 OA
ATOM     98  O   UNL A   1      40.907  40.375  26.582  1.00  0.00    -0.744 OA
ENDBRANCH  91  95
ENDBRANCH  65  88
ENDBRANCH  39  40
ENDBRANCH  32  34
ENDBRANCH  31  32
ENDBRANCH  30  31
ENDBRANCH  29  30
ENDBRANCH  28  29
ENDBRANCH  27  28
ENDBRANCH  26  27
ENDBRANCH   1  26
TORSDOF 26
ENDMDL
