MODEL 1
REMARK VINA RESULT:      -8.9      0.000      0.000
REMARK SMILES CC(C)[NH2+][C@@]1(C(=O)OCCOCCOCCOCCOC(=O)c2ccc(-c3c4nc(c(-c5cc(S(=O)(=O)[O-])ccc5F)c5ccc([nH]5)c(-c5cc(S(=O)(=O)[O-])ccc5F)c5nc(c(-c6cc(S(=O)(=O)[O-])ccc6F)c6ccc3[nH]6)C=C5)C=C4)cc2)CC[C@H](Sc2ccccn2)C1
REMARK SMILES IDX 15 1 14 2 13 3 12 4 11 5 10 6 9 7 8 8 6 9 7 10 5 11 86 12
REMARK SMILES IDX 96 13 87 14 88 15 4 16 2 19 1 20 3 21 89 22 90 23 91 24
REMARK SMILES IDX 95 25 92 26 94 27 93 28 16 29 17 30 18 31 19 32 20 33 21 34
REMARK SMILES IDX 22 35 23 36 24 37 85 38 25 39 84 40 26 41 27 42 28 43 78 44
REMARK SMILES IDX 29 45 83 46 77 47 79 48 30 49 82 50 76 51 75 52 31 54 63 55
REMARK SMILES IDX 43 56 62 57 44 58 47 59 61 60 80 61 45 62 46 63 60 65 81 66
REMARK SMILES IDX 48 67 32 68 33 69 41 70 34 71 40 72 42 73 39 74 35 75 36 76
REMARK SMILES IDX 37 77 38 78 64 79 65 80 73 81 66 82 72 83 74 84 71 85 67 86
REMARK SMILES IDX 68 87 69 88 70 89 49 90 50 91 58 92 51 93 57 94 59 95 56 96
REMARK SMILES IDX 52 97 53 98 54 99 55 100
REMARK H PARENT 4 17 4 18 79 53 47 64
REMARK Flexibility Score: inf
ROOT
ATOM      1  C   UNL A   1      38.356  22.255  25.734  1.00  0.00     0.188 C 
ENDROOT
BRANCH   1   2
ATOM      2  O   UNL A   1      37.477  21.387  25.045  1.00  0.00    -0.377 OA
BRANCH   2   3
ATOM      3  C   UNL A   1      36.334  21.031  25.778  1.00  0.00     0.188 C 
BRANCH   3   4
ATOM      4  C   UNL A   1      34.973  21.670  25.504  1.00  0.00     0.188 C 
BRANCH   4   5
ATOM      5  O   UNL A   1      34.546  22.823  26.200  1.00  0.00    -0.376 OA
BRANCH   5   6
ATOM      6  C   UNL A   1      33.528  22.871  27.183  1.00  0.00     0.202 C 
BRANCH   6   7
ATOM      7  C   UNL A   1      32.095  23.393  26.985  1.00  0.00     0.261 C 
BRANCH   7   8
ATOM      8  O   UNL A   1      31.941  24.781  26.669  1.00  0.00    -0.459 OA
BRANCH   8   9
ATOM      9  C   UNL A   1      31.546  25.067  25.408  1.00  0.00     0.368 C 
ATOM     10  O   UNL A   1      30.465  24.700  24.949  1.00  0.00    -0.245 OA
BRANCH   9  11
ATOM     11  C   UNL A   1      32.580  25.925  24.558  1.00  0.00     0.195 C 
ATOM     12  C   UNL A   1      32.876  27.127  25.467  1.00  0.00     0.082 C 
ATOM     13  C   UNL A   1      32.178  26.685  23.276  1.00  0.00     0.096 C 
ATOM     14  C   UNL A   1      31.676  28.062  25.190  1.00  0.00     0.022 C 
ATOM     15  C   UNL A   1      31.389  27.930  23.689  1.00  0.00     0.060 C 
BRANCH  11  16
ATOM     16  N   UNL A   1      33.623  24.938  24.232  1.00  0.00    -0.330 N 
ATOM     17  H   UNL A   1      34.509  25.421  24.373  1.00  0.00     0.347 HD
ATOM     18  H   UNL A   1      33.336  24.161  24.827  1.00  0.00     0.347 HD
BRANCH  16  19
ATOM     19  C   UNL A   1      33.749  24.261  22.958  1.00  0.00     0.176 C 
ATOM     20  C   UNL A   1      35.155  23.640  22.969  1.00  0.00     0.075 C 
ATOM     21  C   UNL A   1      32.733  23.136  22.757  1.00  0.00     0.075 C 
ENDBRANCH  16  19
ENDBRANCH  11  16
BRANCH  15  22
ATOM     22  S   UNL A   1      29.650  27.682  23.190  1.00  0.00    -0.103 SA
BRANCH  22  23
ATOM     23  C   UNL A   1      29.026  29.283  22.777  1.00  0.00     0.096 A 
ATOM     24  C   UNL A   1      28.116  30.010  23.532  1.00  0.00     0.035 A 
ATOM     25  N   UNL A   1      29.514  29.750  21.606  1.00  0.00    -0.250 NA
ATOM     26  C   UNL A   1      27.654  31.230  23.044  1.00  0.00     0.004 A 
ATOM     27  C   UNL A   1      29.074  30.948  21.167  1.00  0.00     0.112 A 
ATOM     28  C   UNL A   1      28.136  31.709  21.835  1.00  0.00     0.020 A 
ENDBRANCH  22  23
ENDBRANCH  15  22
ENDBRANCH   9  11
ENDBRANCH   8   9
ENDBRANCH   7   8
ENDBRANCH   6   7
ENDBRANCH   5   6
ENDBRANCH   4   5
ENDBRANCH   3   4
ENDBRANCH   2   3
ENDBRANCH   1   2
BRANCH   1  29
ATOM     29  C   UNL A   1      39.588  21.480  26.185  1.00  0.00     0.188 C 
BRANCH  29  30
ATOM     30  O   UNL A   1      40.775  22.227  26.385  1.00  0.00    -0.376 OA
BRANCH  30  31
ATOM     31  C   UNL A   1      42.000  21.632  26.791  1.00  0.00     0.202 C 
BRANCH  31  32
ATOM     32  C   UNL A   1      43.118  21.041  25.894  1.00  0.00     0.261 C 
BRANCH  32  33
ATOM     33  O   UNL A   1      44.033  21.896  25.214  1.00  0.00    -0.460 OA
BRANCH  33  34
ATOM     34  C   UNL A   1      45.268  22.030  25.735  1.00  0.00     0.338 C 
ATOM     35  O   UNL A   1      46.140  21.181  25.772  1.00  0.00    -0.246 OA
BRANCH  34  36
ATOM     36  C   UNL A   1      45.436  23.459  26.091  1.00  0.00     0.060 A 
ATOM     37  C   UNL A   1      45.735  23.794  27.418  1.00  0.00     0.016 A 
ATOM     38  C   UNL A   1      45.318  24.461  25.122  1.00  0.00     0.016 A 
ATOM     39  C   UNL A   1      45.874  25.130  27.791  1.00  0.00     0.010 A 
ATOM     40  C   UNL A   1      45.426  25.802  25.503  1.00  0.00     0.010 A 
ATOM     41  C   UNL A   1      45.663  26.143  26.847  1.00  0.00    -0.014 A 
BRANCH  41  42
ATOM     42  C   UNL A   1      45.416  27.530  27.313  1.00  0.00     0.031 A 
ATOM     43  C   UNL A   1      46.583  28.482  27.314  1.00  0.00     0.074 A 
ATOM     44  C   UNL A   1      44.196  27.956  27.683  1.00  0.00     0.049 A 
ATOM     45  N   UNL A   1      46.658  29.712  27.745  1.00  0.00    -0.248 NA
ATOM     46  C   UNL A   1      47.838  27.964  26.746  1.00  0.00     0.031 C 
ATOM     47  C   UNL A   1      42.971  27.162  27.635  1.00  0.00     0.029 A 
ATOM     48  N   UNL A   1      43.791  29.171  28.181  1.00  0.00    -0.354 N 
ATOM     49  C   UNL A   1      47.967  30.117  27.504  1.00  0.00     0.074 A 
ATOM     50  C   UNL A   1      48.660  28.983  26.930  1.00  0.00     0.031 C 
ATOM     51  C   UNL A   1      41.953  27.908  28.102  1.00  0.00     0.029 A 
ATOM     52  C   UNL A   1      42.464  29.205  28.540  1.00  0.00     0.049 A 
ATOM     53  H   UNL A   1      44.394  29.945  28.272  1.00  0.00     0.167 HD
ATOM     54  C   UNL A   1      48.536  31.325  27.732  1.00  0.00     0.034 A 
ATOM     55  C   UNL A   1      41.759  30.156  29.186  1.00  0.00     0.034 A 
ATOM     56  C   UNL A   1      47.834  32.437  28.322  1.00  0.00     0.049 A 
ATOM     57  C   UNL A   1      42.445  31.449  29.561  1.00  0.00     0.074 A 
ATOM     58  C   UNL A   1      48.310  33.705  28.601  1.00  0.00     0.029 A 
ATOM     59  N   UNL A   1      46.510  32.409  28.741  1.00  0.00    -0.354 N 
ATOM     60  N   UNL A   1      43.688  31.819  29.345  1.00  0.00    -0.248 NA
ATOM     61  C   UNL A   1      41.633  32.459  30.251  1.00  0.00     0.031 C 
ATOM     62  C   UNL A   1      47.303  34.414  29.263  1.00  0.00     0.029 A 
ATOM     63  C   UNL A   1      46.164  33.623  29.310  1.00  0.00     0.049 A 
ATOM     64  H   UNL A   1      45.905  31.638  28.646  1.00  0.00     0.167 HD
ATOM     65  C   UNL A   1      43.789  33.122  29.830  1.00  0.00     0.074 A 
ATOM     66  C   UNL A   1      42.482  33.471  30.351  1.00  0.00     0.031 C 
ATOM     67  C   UNL A   1      44.859  33.959  29.830  1.00  0.00     0.034 A 
BRANCH  54  68
ATOM     68  C   UNL A   1      50.002  31.471  27.402  1.00  0.00     0.023 A 
ATOM     69  C   UNL A   1      50.440  31.921  26.143  1.00  0.00     0.031 A 
ATOM     70  C   UNL A   1      50.979  31.106  28.345  1.00  0.00     0.131 A 
ATOM     71  C   UNL A   1      51.810  31.920  25.838  1.00  0.00     0.055 A 
ATOM     72  C   UNL A   1      52.344  31.192  28.065  1.00  0.00     0.041 A 
ATOM     73  F   UNL A   1      50.623  30.642  29.554  1.00  0.00    -0.206 F 
ATOM     74  C   UNL A   1      52.766  31.585  26.799  1.00  0.00     0.022 A 
BRANCH  71  75
ATOM     75  S   UNL A   1      52.315  32.208  24.119  1.00  0.00     0.124 S 
ATOM     76  O   UNL A   1      51.780  33.545  23.875  1.00  0.00    -0.237 OA
ATOM     77  O   UNL A   1      53.767  32.103  24.195  1.00  0.00    -0.237 OA
ATOM     78  O   UNL A   1      51.649  31.135  23.382  1.00  0.00    -0.744 OA
ENDBRANCH  71  75
ENDBRANCH  54  68
BRANCH  55  79
ATOM     79  C   UNL A   1      40.338  29.911  29.575  1.00  0.00     0.023 A 
ATOM     80  C   UNL A   1      39.944  29.885  30.921  1.00  0.00     0.031 A 
ATOM     81  C   UNL A   1      39.361  29.637  28.598  1.00  0.00     0.131 A 
ATOM     82  C   UNL A   1      38.624  29.544  31.258  1.00  0.00     0.055 A 
ATOM     83  C   UNL A   1      38.037  29.353  28.935  1.00  0.00     0.041 A 
ATOM     84  F   UNL A   1      39.680  29.645  27.294  1.00  0.00    -0.206 F 
ATOM     85  C   UNL A   1      37.664  29.292  30.274  1.00  0.00     0.022 A 
BRANCH  82  86
ATOM     86  S   UNL A   1      38.196  29.344  33.009  1.00  0.00     0.124 S 
ATOM     87  O   UNL A   1      37.441  28.097  32.988  1.00  0.00    -0.237 OA
ATOM     88  O   UNL A   1      39.511  29.290  33.636  1.00  0.00    -0.237 OA
ATOM     89  O   UNL A   1      37.415  30.544  33.306  1.00  0.00    -0.744 OA
ENDBRANCH  82  86
ENDBRANCH  55  79
BRANCH  67  90
ATOM     90  C   UNL A   1      44.643  35.363  30.347  1.00  0.00     0.023 A 
ATOM     91  C   UNL A   1      44.297  36.429  29.500  1.00  0.00     0.031 A 
ATOM     92  C   UNL A   1      44.781  35.630  31.723  1.00  0.00     0.131 A 
ATOM     93  C   UNL A   1      44.153  37.722  30.027  1.00  0.00     0.055 A 
ATOM     94  C   UNL A   1      44.570  36.904  32.251  1.00  0.00     0.041 A 
ATOM     95  F   UNL A   1      45.115  34.653  32.580  1.00  0.00    -0.206 F 
ATOM     96  C   UNL A   1      44.266  37.962  31.399  1.00  0.00     0.022 A 
BRANCH  93  97
ATOM     97  S   UNL A   1      43.908  39.108  28.884  1.00  0.00     0.124 S 
ATOM     98  O   UNL A   1      42.466  39.320  28.971  1.00  0.00    -0.237 OA
ATOM     99  O   UNL A   1      44.742  40.151  29.473  1.00  0.00    -0.237 OA
ATOM    100  O   UNL A   1      44.382  38.587  27.603  1.00  0.00    -0.744 OA
ENDBRANCH  93  97
ENDBRANCH  67  90
ENDBRANCH  41  42
ENDBRANCH  34  36
ENDBRANCH  33  34
ENDBRANCH  32  33
ENDBRANCH  31  32
ENDBRANCH  30  31
ENDBRANCH  29  30
ENDBRANCH   1  29
TORSDOF 27
ENDMDL
MODEL 2
REMARK VINA RESULT:      -8.8      6.012     11.562
REMARK SMILES CC(C)[NH2+][C@@]1(C(=O)OCCOCCOCCOCCOC(=O)c2ccc(-c3c4nc(c(-c5cc(S(=O)(=O)[O-])ccc5F)c5ccc([nH]5)c(-c5cc(S(=O)(=O)[O-])ccc5F)c5nc(c(-c6cc(S(=O)(=O)[O-])ccc6F)c6ccc3[nH]6)C=C5)C=C4)cc2)CC[C@H](Sc2ccccn2)C1
REMARK SMILES IDX 15 1 14 2 13 3 12 4 11 5 10 6 9 7 8 8 6 9 7 10 5 11 86 12
REMARK SMILES IDX 96 13 87 14 88 15 4 16 2 19 1 20 3 21 89 22 90 23 91 24
REMARK SMILES IDX 95 25 92 26 94 27 93 28 16 29 17 30 18 31 19 32 20 33 21 34
REMARK SMILES IDX 22 35 23 36 24 37 85 38 25 39 84 40 26 41 27 42 28 43 78 44
REMARK SMILES IDX 29 45 83 46 77 47 79 48 30 49 82 50 76 51 75 52 31 54 63 55
REMARK SMILES IDX 43 56 62 57 44 58 47 59 61 60 80 61 45 62 46 63 60 65 81 66
REMARK SMILES IDX 48 67 32 68 33 69 41 70 34 71 40 72 42 73 39 74 35 75 36 76
REMARK SMILES IDX 37 77 38 78 64 79 65 80 73 81 66 82 72 83 74 84 71 85 67 86
REMARK SMILES IDX 68 87 69 88 70 89 49 90 50 91 58 92 51 93 57 94 59 95 56 96
REMARK SMILES IDX 52 97 53 98 54 99 55 100
REMARK H PARENT 4 17 4 18 79 53 47 64
REMARK Flexibility Score: inf
ROOT
ATOM      1  C   UNL A   1      37.039  31.824  40.918  1.00  0.00     0.188 C 
ENDROOT
BRANCH   1   2
ATOM      2  O   UNL A   1      37.780  31.595  39.735  1.00  0.00    -0.377 OA
BRANCH   2   3
ATOM      3  C   UNL A   1      37.160  32.072  38.571  1.00  0.00     0.188 C 
BRANCH   3   4
ATOM      4  C   UNL A   1      37.859  32.029  37.212  1.00  0.00     0.188 C 
BRANCH   4   5
ATOM      5  O   UNL A   1      38.643  30.920  36.822  1.00  0.00    -0.376 OA
BRANCH   5   6
ATOM      6  C   UNL A   1      38.806  30.441  35.499  1.00  0.00     0.202 C 
BRANCH   6   7
ATOM      7  C   UNL A   1      38.087  30.967  34.245  1.00  0.00     0.261 C 
BRANCH   7   8
ATOM      8  O   UNL A   1      38.829  31.837  33.383  1.00  0.00    -0.459 OA
BRANCH   8   9
ATOM      9  C   UNL A   1      39.257  31.301  32.217  1.00  0.00     0.368 C 
ATOM     10  O   UNL A   1      40.187  30.498  32.155  1.00  0.00    -0.245 OA
BRANCH   9  11
ATOM     11  C   UNL A   1      38.461  31.777  30.926  1.00  0.00     0.195 C 
ATOM     12  C   UNL A   1      39.476  32.666  30.192  1.00  0.00     0.082 C 
ATOM     13  C   UNL A   1      37.277  32.765  30.992  1.00  0.00     0.096 C 
ATOM     14  C   UNL A   1      39.337  34.017  30.932  1.00  0.00     0.022 C 
ATOM     15  C   UNL A   1      37.842  34.166  31.239  1.00  0.00     0.060 C 
BRANCH  11  16
ATOM     16  N   UNL A   1      38.001  30.504  30.346  1.00  0.00    -0.330 N 
ATOM     17  H   UNL A   1      37.734  29.923  31.141  1.00  0.00     0.347 HD
ATOM     18  H   UNL A   1      37.311  30.843  29.677  1.00  0.00     0.347 HD
BRANCH  16  19
ATOM     19  C   UNL A   1      38.799  29.649  29.493  1.00  0.00     0.176 C 
ATOM     20  C   UNL A   1      38.529  28.219  29.988  1.00  0.00     0.075 C 
ATOM     21  C   UNL A   1      38.412  29.723  28.016  1.00  0.00     0.075 C 
ENDBRANCH  16  19
ENDBRANCH  11  16
BRANCH  15  22
ATOM     22  S   UNL A   1      37.382  34.665  32.934  1.00  0.00    -0.103 SA
BRANCH  22  23
ATOM     23  C   UNL A   1      35.616  34.744  32.959  1.00  0.00     0.096 A 
ATOM     24  C   UNL A   1      34.767  33.665  33.163  1.00  0.00     0.035 A 
ATOM     25  N   UNL A   1      35.143  35.990  32.733  1.00  0.00    -0.250 NA
ATOM     26  C   UNL A   1      33.390  33.863  33.082  1.00  0.00     0.004 A 
ATOM     27  C   UNL A   1      33.805  36.163  32.687  1.00  0.00     0.112 A 
ATOM     28  C   UNL A   1      32.897  35.135  32.833  1.00  0.00     0.020 A 
ENDBRANCH  22  23
ENDBRANCH  15  22
ENDBRANCH   9  11
ENDBRANCH   8   9
ENDBRANCH   7   8
ENDBRANCH   6   7
ENDBRANCH   5   6
ENDBRANCH   4   5
ENDBRANCH   3   4
ENDBRANCH   2   3
ENDBRANCH   1   2
BRANCH   1  29
ATOM     29  C   UNL A   1      37.764  32.848  41.784  1.00  0.00     0.188 C 
BRANCH  29  30
ATOM     30  O   UNL A   1      38.161  34.052  41.152  1.00  0.00    -0.376 OA
BRANCH  30  31
ATOM     31  C   UNL A   1      39.488  34.556  41.220  1.00  0.00     0.202 C 
BRANCH  31  32
ATOM     32  C   UNL A   1      40.570  34.548  40.110  1.00  0.00     0.261 C 
BRANCH  32  33
ATOM     33  O   UNL A   1      41.037  35.769  39.540  1.00  0.00    -0.460 OA
BRANCH  33  34
ATOM     34  C   UNL A   1      40.344  36.278  38.503  1.00  0.00     0.338 C 
ATOM     35  O   UNL A   1      39.550  37.201  38.539  1.00  0.00    -0.246 OA
BRANCH  34  36
ATOM     36  C   UNL A   1      40.865  35.632  37.275  1.00  0.00     0.060 A 
ATOM     37  C   UNL A   1      39.956  35.056  36.378  1.00  0.00     0.016 A 
ATOM     38  C   UNL A   1      42.236  35.609  36.999  1.00  0.00     0.016 A 
ATOM     39  C   UNL A   1      40.414  34.417  35.226  1.00  0.00     0.010 A 
ATOM     40  C   UNL A   1      42.697  34.941  35.861  1.00  0.00     0.010 A 
ATOM     41  C   UNL A   1      41.791  34.306  34.992  1.00  0.00    -0.014 A 
BRANCH  41  42
ATOM     42  C   UNL A   1      42.281  33.307  34.011  1.00  0.00     0.031 A 
ATOM     43  C   UNL A   1      42.579  33.790  32.616  1.00  0.00     0.074 A 
ATOM     44  C   UNL A   1      42.503  32.024  34.344  1.00  0.00     0.049 A 
ATOM     45  N   UNL A   1      42.938  33.115  31.557  1.00  0.00    -0.248 NA
ATOM     46  C   UNL A   1      42.453  35.239  32.395  1.00  0.00     0.031 C 
ATOM     47  C   UNL A   1      42.346  31.456  35.681  1.00  0.00     0.029 A 
ATOM     48  N   UNL A   1      42.903  30.960  33.571  1.00  0.00    -0.354 N 
ATOM     49  C   UNL A   1      43.077  34.056  30.541  1.00  0.00     0.074 A 
ATOM     50  C   UNL A   1      42.721  35.340  31.104  1.00  0.00     0.031 C 
ATOM     51  C   UNL A   1      42.632  30.142  35.630  1.00  0.00     0.029 A 
ATOM     52  C   UNL A   1      42.928  29.765  34.250  1.00  0.00     0.049 A 
ATOM     53  H   UNL A   1      43.149  31.047  32.621  1.00  0.00     0.167 HD
ATOM     54  C   UNL A   1      43.475  33.866  29.260  1.00  0.00     0.034 A 
ATOM     55  C   UNL A   1      43.125  28.509  33.798  1.00  0.00     0.034 A 
ATOM     56  C   UNL A   1      43.808  32.575  28.712  1.00  0.00     0.049 A 
ATOM     57  C   UNL A   1      43.431  28.297  32.333  1.00  0.00     0.074 A 
ATOM     58  C   UNL A   1      44.220  32.265  27.429  1.00  0.00     0.029 A 
ATOM     59  N   UNL A   1      43.750  31.377  29.412  1.00  0.00    -0.354 N 
ATOM     60  N   UNL A   1      43.546  29.189  31.374  1.00  0.00    -0.248 NA
ATOM     61  C   UNL A   1      43.650  26.914  31.891  1.00  0.00     0.031 C 
ATOM     62  C   UNL A   1      44.330  30.874  27.330  1.00  0.00     0.029 A 
ATOM     63  C   UNL A   1      44.081  30.321  28.577  1.00  0.00     0.049 A 
ATOM     64  H   UNL A   1      43.509  31.289  30.363  1.00  0.00     0.167 HD
ATOM     65  C   UNL A   1      43.898  28.476  30.229  1.00  0.00     0.074 A 
ATOM     66  C   UNL A   1      43.974  27.083  30.618  1.00  0.00     0.031 C 
ATOM     67  C   UNL A   1      44.151  28.934  28.975  1.00  0.00     0.034 A 
BRANCH  54  68
ATOM     68  C   UNL A   1      43.501  35.078  28.359  1.00  0.00     0.023 A 
ATOM     69  C   UNL A   1      44.706  35.687  27.966  1.00  0.00     0.031 A 
ATOM     70  C   UNL A   1      42.297  35.662  27.926  1.00  0.00     0.131 A 
ATOM     71  C   UNL A   1      44.678  36.884  27.234  1.00  0.00     0.055 A 
ATOM     72  C   UNL A   1      42.279  36.803  27.122  1.00  0.00     0.041 A 
ATOM     73  F   UNL A   1      41.115  35.143  28.291  1.00  0.00    -0.206 F 
ATOM     74  C   UNL A   1      43.474  37.431  26.786  1.00  0.00     0.022 A 
BRANCH  71  75
ATOM     75  S   UNL A   1      46.229  37.801  27.012  1.00  0.00     0.124 S 
ATOM     76  O   UNL A   1      46.715  37.893  28.387  1.00  0.00    -0.237 OA
ATOM     77  O   UNL A   1      46.987  36.928  26.122  1.00  0.00    -0.237 OA
ATOM     78  O   UNL A   1      45.797  39.068  26.425  1.00  0.00    -0.744 OA
ENDBRANCH  71  75
ENDBRANCH  54  68
BRANCH  55  79
ATOM     79  C   UNL A   1      42.986  27.343  34.720  1.00  0.00     0.023 A 
ATOM     80  C   UNL A   1      44.074  26.872  35.469  1.00  0.00     0.031 A 
ATOM     81  C   UNL A   1      41.768  26.641  34.815  1.00  0.00     0.131 A 
ATOM     82  C   UNL A   1      43.940  25.707  36.243  1.00  0.00     0.055 A 
ATOM     83  C   UNL A   1      41.625  25.515  35.628  1.00  0.00     0.041 A 
ATOM     84  F   UNL A   1      40.693  27.043  34.119  1.00  0.00    -0.206 F 
ATOM     85  C   UNL A   1      42.720  25.034  36.339  1.00  0.00     0.022 A 
BRANCH  82  86
ATOM     86  S   UNL A   1      45.413  25.027  37.055  1.00  0.00     0.124 S 
ATOM     87  O   UNL A   1      44.885  24.659  38.363  1.00  0.00    -0.237 OA
ATOM     88  O   UNL A   1      45.763  23.923  36.168  1.00  0.00    -0.237 OA
ATOM     89  O   UNL A   1      46.350  26.149  37.051  1.00  0.00    -0.744 OA
ENDBRANCH  82  86
ENDBRANCH  55  79
BRANCH  67  90
ATOM     90  C   UNL A   1      44.604  27.925  27.945  1.00  0.00     0.023 A 
ATOM     91  C   UNL A   1      43.696  27.137  27.218  1.00  0.00     0.031 A 
ATOM     92  C   UNL A   1      45.978  27.760  27.685  1.00  0.00     0.131 A 
ATOM     93  C   UNL A   1      44.174  26.183  26.305  1.00  0.00     0.055 A 
ATOM     94  C   UNL A   1      46.444  26.859  26.727  1.00  0.00     0.041 A 
ATOM     95  F   UNL A   1      46.892  28.482  28.352  1.00  0.00    -0.206 F 
ATOM     96  C   UNL A   1      45.540  26.054  26.040  1.00  0.00     0.022 A 
BRANCH  93  97
ATOM     97  S   UNL A   1      42.992  25.044  25.535  1.00  0.00     0.124 S 
ATOM     98  O   UNL A   1      42.553  24.246  26.676  1.00  0.00    -0.237 OA
ATOM     99  O   UNL A   1      41.998  25.955  24.975  1.00  0.00    -0.237 OA
ATOM    100  O   UNL A   1      43.798  24.326  24.549  1.00  0.00    -0.744 OA
ENDBRANCH  93  97
ENDBRANCH  67  90
ENDBRANCH  41  42
ENDBRANCH  34  36
ENDBRANCH  33  34
ENDBRANCH  32  33
ENDBRANCH  31  32
ENDBRANCH  30  31
ENDBRANCH  29  30
ENDBRANCH   1  29
TORSDOF 27
ENDMDL
MODEL 3
REMARK VINA RESULT:      -8.2      1.865      2.095
REMARK SMILES CC(C)[NH2+][C@@]1(C(=O)OCCOCCOCCOCCOC(=O)c2ccc(-c3c4nc(c(-c5cc(S(=O)(=O)[O-])ccc5F)c5ccc([nH]5)c(-c5cc(S(=O)(=O)[O-])ccc5F)c5nc(c(-c6cc(S(=O)(=O)[O-])ccc6F)c6ccc3[nH]6)C=C5)C=C4)cc2)CC[C@H](Sc2ccccn2)C1
REMARK SMILES IDX 15 1 14 2 13 3 12 4 11 5 10 6 9 7 8 8 6 9 7 10 5 11 86 12
REMARK SMILES IDX 96 13 87 14 88 15 4 16 2 19 1 20 3 21 89 22 90 23 91 24
REMARK SMILES IDX 95 25 92 26 94 27 93 28 16 29 17 30 18 31 19 32 20 33 21 34
REMARK SMILES IDX 22 35 23 36 24 37 85 38 25 39 84 40 26 41 27 42 28 43 78 44
REMARK SMILES IDX 29 45 83 46 77 47 79 48 30 49 82 50 76 51 75 52 31 54 63 55
REMARK SMILES IDX 43 56 62 57 44 58 47 59 61 60 80 61 45 62 46 63 60 65 81 66
REMARK SMILES IDX 48 67 32 68 33 69 41 70 34 71 40 72 42 73 39 74 35 75 36 76
REMARK SMILES IDX 37 77 38 78 64 79 65 80 73 81 66 82 72 83 74 84 71 85 67 86
REMARK SMILES IDX 68 87 69 88 70 89 49 90 50 91 58 92 51 93 57 94 59 95 56 96
REMARK SMILES IDX 52 97 53 98 54 99 55 100
REMARK H PARENT 4 17 4 18 79 53 47 64
REMARK Flexibility Score: inf
ROOT
ATOM      1  C   UNL A   1      38.579  22.003  25.761  1.00  0.00     0.188 C 
ENDROOT
BRANCH   1   2
ATOM      2  O   UNL A   1      37.681  21.252  24.967  1.00  0.00    -0.377 OA
BRANCH   2   3
ATOM      3  C   UNL A   1      36.396  21.131  25.518  1.00  0.00     0.188 C 
BRANCH   3   4
ATOM      4  C   UNL A   1      35.240  22.020  25.062  1.00  0.00     0.188 C 
BRANCH   4   5
ATOM      5  O   UNL A   1      34.776  23.092  25.858  1.00  0.00    -0.376 OA
BRANCH   5   6
ATOM      6  C   UNL A   1      33.681  23.048  26.754  1.00  0.00     0.202 C 
BRANCH   6   7
ATOM      7  C   UNL A   1      32.232  23.459  26.442  1.00  0.00     0.261 C 
BRANCH   7   8
ATOM      8  O   UNL A   1      31.982  24.850  26.206  1.00  0.00    -0.459 OA
BRANCH   8   9
ATOM      9  C   UNL A   1      31.592  25.183  24.954  1.00  0.00     0.368 C 
ATOM     10  O   UNL A   1      30.568  24.738  24.435  1.00  0.00    -0.245 OA
BRANCH   9  11
ATOM     11  C   UNL A   1      32.550  26.203  24.201  1.00  0.00     0.195 C 
ATOM     12  C   UNL A   1      32.837  27.271  25.265  1.00  0.00     0.082 C 
ATOM     13  C   UNL A   1      32.060  27.122  23.061  1.00  0.00     0.096 C 
ATOM     14  C   UNL A   1      31.589  28.180  25.176  1.00  0.00     0.022 C 
ATOM     15  C   UNL A   1      31.240  28.254  23.685  1.00  0.00     0.060 C 
BRANCH  11  16
ATOM     16  N   UNL A   1      33.617  25.324  23.692  1.00  0.00    -0.330 N 
ATOM     17  H   UNL A   1      34.479  25.858  23.788  1.00  0.00     0.347 HD
ATOM     18  H   UNL A   1      33.444  24.484  24.244  1.00  0.00     0.347 HD
BRANCH  16  19
ATOM     19  C   UNL A   1      33.656  24.760  22.359  1.00  0.00     0.176 C 
ATOM     20  C   UNL A   1      33.191  23.304  22.523  1.00  0.00     0.075 C 
ATOM     21  C   UNL A   1      32.715  25.453  21.372  1.00  0.00     0.075 C 
ENDBRANCH  16  19
ENDBRANCH  11  16
BRANCH  15  22
ATOM     22  S   UNL A   1      29.492  28.000  23.222  1.00  0.00    -0.103 SA
BRANCH  22  23
ATOM     23  C   UNL A   1      28.871  29.590  22.762  1.00  0.00     0.096 A 
ATOM     24  C   UNL A   1      28.013  30.369  23.525  1.00  0.00     0.035 A 
ATOM     25  N   UNL A   1      29.304  29.990  21.545  1.00  0.00    -0.250 NA
ATOM     26  C   UNL A   1      27.544  31.572  23.001  1.00  0.00     0.004 A 
ATOM     27  C   UNL A   1      28.860  31.172  21.070  1.00  0.00     0.112 A 
ATOM     28  C   UNL A   1      27.970  31.981  21.746  1.00  0.00     0.020 A 
ENDBRANCH  22  23
ENDBRANCH  15  22
ENDBRANCH   9  11
ENDBRANCH   8   9
ENDBRANCH   7   8
ENDBRANCH   6   7
ENDBRANCH   5   6
ENDBRANCH   4   5
ENDBRANCH   3   4
ENDBRANCH   2   3
ENDBRANCH   1   2
BRANCH   1  29
ATOM     29  C   UNL A   1      39.765  21.130  26.155  1.00  0.00     0.188 C 
BRANCH  29  30
ATOM     30  O   UNL A   1      40.989  21.793  26.413  1.00  0.00    -0.376 OA
BRANCH  30  31
ATOM     31  C   UNL A   1      42.241  21.120  26.434  1.00  0.00     0.202 C 
BRANCH  31  32
ATOM     32  C   UNL A   1      43.260  20.962  25.276  1.00  0.00     0.261 C 
BRANCH  32  33
ATOM     33  O   UNL A   1      44.124  22.038  24.916  1.00  0.00    -0.460 OA
BRANCH  33  34
ATOM     34  C   UNL A   1      45.266  22.180  25.615  1.00  0.00     0.338 C 
ATOM     35  O   UNL A   1      46.125  21.334  25.790  1.00  0.00    -0.246 OA
BRANCH  34  36
ATOM     36  C   UNL A   1      45.377  23.613  25.979  1.00  0.00     0.060 A 
ATOM     37  C   UNL A   1      45.982  23.956  27.195  1.00  0.00     0.016 A 
ATOM     38  C   UNL A   1      44.907  24.611  25.120  1.00  0.00     0.016 A 
ATOM     39  C   UNL A   1      46.079  25.293  27.579  1.00  0.00     0.010 A 
ATOM     40  C   UNL A   1      44.975  25.950  25.519  1.00  0.00     0.010 A 
ATOM     41  C   UNL A   1      45.524  26.293  26.769  1.00  0.00    -0.014 A 
BRANCH  41  42
ATOM     42  C   UNL A   1      45.270  27.636  27.345  1.00  0.00     0.031 A 
ATOM     43  C   UNL A   1      46.434  28.589  27.425  1.00  0.00     0.074 A 
ATOM     44  C   UNL A   1      44.048  28.026  27.746  1.00  0.00     0.049 A 
ATOM     45  N   UNL A   1      46.502  29.781  27.955  1.00  0.00    -0.248 NA
ATOM     46  C   UNL A   1      47.692  28.124  26.820  1.00  0.00     0.031 C 
ATOM     47  C   UNL A   1      42.826  27.234  27.631  1.00  0.00     0.029 A 
ATOM     48  N   UNL A   1      43.637  29.195  28.340  1.00  0.00    -0.354 N 
ATOM     49  C   UNL A   1      47.811  30.209  27.750  1.00  0.00     0.074 A 
ATOM     50  C   UNL A   1      48.509  29.129  27.088  1.00  0.00     0.031 C 
ATOM     51  C   UNL A   1      41.805  27.935  28.155  1.00  0.00     0.029 A 
ATOM     52  C   UNL A   1      42.310  29.194  28.698  1.00  0.00     0.049 A 
ATOM     53  H   UNL A   1      44.237  29.961  28.494  1.00  0.00     0.167 HD
ATOM     54  C   UNL A   1      48.374  31.397  28.076  1.00  0.00     0.034 A 
ATOM     55  C   UNL A   1      41.599  30.087  29.417  1.00  0.00     0.034 A 
ATOM     56  C   UNL A   1      47.667  32.455  28.753  1.00  0.00     0.049 A 
ATOM     57  C   UNL A   1      42.280  31.349  29.897  1.00  0.00     0.074 A 
ATOM     58  C   UNL A   1      48.137  33.698  29.135  1.00  0.00     0.029 A 
ATOM     59  N   UNL A   1      46.342  32.387  29.165  1.00  0.00    -0.354 N 
ATOM     60  N   UNL A   1      43.521  31.739  29.714  1.00  0.00    -0.248 NA
ATOM     61  C   UNL A   1      41.462  32.296  30.665  1.00  0.00     0.031 C 
ATOM     62  C   UNL A   1      47.125  34.347  29.850  1.00  0.00     0.029 A 
ATOM     63  C   UNL A   1      45.990  33.551  29.830  1.00  0.00     0.049 A 
ATOM     64  H   UNL A   1      45.740  31.625  29.007  1.00  0.00     0.167 HD
ATOM     65  C   UNL A   1      43.616  33.000  30.303  1.00  0.00     0.074 A 
ATOM     66  C   UNL A   1      42.307  33.299  30.847  1.00  0.00     0.031 C 
ATOM     67  C   UNL A   1      44.682  33.838  30.373  1.00  0.00     0.034 A 
BRANCH  54  68
ATOM     68  C   UNL A   1      49.840  31.575  27.762  1.00  0.00     0.023 A 
ATOM     69  C   UNL A   1      50.280  32.062  26.517  1.00  0.00     0.031 A 
ATOM     70  C   UNL A   1      50.815  31.205  28.705  1.00  0.00     0.131 A 
ATOM     71  C   UNL A   1      51.653  32.091  26.224  1.00  0.00     0.055 A 
ATOM     72  C   UNL A   1      52.180  31.320  28.439  1.00  0.00     0.041 A 
ATOM     73  F   UNL A   1      50.457  30.707  29.899  1.00  0.00    -0.206 F 
ATOM     74  C   UNL A   1      52.606  31.750  27.185  1.00  0.00     0.022 A 
BRANCH  71  75
ATOM     75  S   UNL A   1      52.166  32.427  24.516  1.00  0.00     0.124 S 
ATOM     76  O   UNL A   1      51.474  33.684  24.243  1.00  0.00    -0.237 OA
ATOM     77  O   UNL A   1      53.618  32.507  24.634  1.00  0.00    -0.237 OA
ATOM     78  O   UNL A   1      51.663  31.273  23.774  1.00  0.00    -0.744 OA
ENDBRANCH  71  75
ENDBRANCH  54  68
BRANCH  55  79
ATOM     79  C   UNL A   1      40.179  29.806  29.782  1.00  0.00     0.023 A 
ATOM     80  C   UNL A   1      39.118  30.466  29.145  1.00  0.00     0.031 A 
ATOM     81  C   UNL A   1      39.866  28.912  30.824  1.00  0.00     0.131 A 
ATOM     82  C   UNL A   1      37.800  30.261  29.584  1.00  0.00     0.055 A 
ATOM     83  C   UNL A   1      38.550  28.670  31.222  1.00  0.00     0.041 A 
ATOM     84  F   UNL A   1      40.840  28.253  31.473  1.00  0.00    -0.206 F 
ATOM     85  C   UNL A   1      37.508  29.357  30.609  1.00  0.00     0.022 A 
BRANCH  82  86
ATOM     86  S   UNL A   1      36.474  31.264  28.859  1.00  0.00     0.124 S 
ATOM     87  O   UNL A   1      35.577  31.433  29.995  1.00  0.00    -0.237 OA
ATOM     88  O   UNL A   1      37.198  32.455  28.429  1.00  0.00    -0.237 OA
ATOM     89  O   UNL A   1      35.965  30.422  27.778  1.00  0.00    -0.744 OA
ENDBRANCH  82  86
ENDBRANCH  55  79
BRANCH  67  90
ATOM     90  C   UNL A   1      44.460  35.194  31.002  1.00  0.00     0.023 A 
ATOM     91  C   UNL A   1      44.553  35.401  32.389  1.00  0.00     0.031 A 
ATOM     92  C   UNL A   1      44.156  36.302  30.187  1.00  0.00     0.131 A 
ATOM     93  C   UNL A   1      44.293  36.673  32.925  1.00  0.00     0.055 A 
ATOM     94  C   UNL A   1      43.966  37.578  30.720  1.00  0.00     0.041 A 
ATOM     95  F   UNL A   1      44.049  36.164  28.857  1.00  0.00    -0.206 F 
ATOM     96  C   UNL A   1      44.021  37.766  32.097  1.00  0.00     0.022 A 
BRANCH  93  97
ATOM     97  S   UNL A   1      44.221  36.862  34.726  1.00  0.00     0.124 S 
ATOM     98  O   UNL A   1      44.098  35.477  35.171  1.00  0.00    -0.237 OA
ATOM     99  O   UNL A   1      45.492  37.516  35.023  1.00  0.00    -0.237 OA
ATOM    100  O   UNL A   1      43.035  37.689  34.939  1.00  0.00    -0.744 OA
ENDBRANCH  93  97
ENDBRANCH  67  90
ENDBRANCH  41  42
ENDBRANCH  34  36
ENDBRANCH  33  34
ENDBRANCH  32  33
ENDBRANCH  31  32
ENDBRANCH  30  31
ENDBRANCH  29  30
ENDBRANCH   1  29
TORSDOF 27
ENDMDL
