MODEL 1
REMARK VINA RESULT:     -10.0      0.000      0.000
REMARK SMILES Nc1cc(C(=O)OCCOCCOCCOCCOC(=O)c2ccc(-c3c4nc(c(-c5cc(S(=O)(=O)[O-])ccc5F)c5ccc([nH]5)c(-c5cc(S(=O)(=O)[O-])ccc5F)c5nc(c(-c6cc(S(=O)(=O)[O-])ccc6F)c6ccc3[nH]6)C=C5)C=C4)cc2)nc2ccccc12
REMARK SMILES IDX 14 1 13 2 12 3 11 4 10 5 9 6 8 7 7 8 5 9 6 10 4 11 2 12 3 13
REMARK SMILES IDX 91 14 86 15 90 16 85 17 87 18 89 19 88 20 1 21 15 24 16 25
REMARK SMILES IDX 17 26 18 27 19 28 20 29 21 30 22 31 23 32 84 33 24 34 83 35
REMARK SMILES IDX 25 36 26 37 27 38 77 39 28 40 82 41 76 42 78 43 29 44 81 45
REMARK SMILES IDX 75 46 74 47 30 49 62 50 42 51 61 52 43 53 46 54 60 55 79 56
REMARK SMILES IDX 44 57 45 58 59 60 80 61 47 62 31 63 32 64 40 65 33 66 39 67
REMARK SMILES IDX 41 68 38 69 34 70 35 71 36 72 37 73 63 74 64 75 72 76 65 77
REMARK SMILES IDX 71 78 73 79 70 80 66 81 67 82 68 83 69 84 48 85 49 86 57 87
REMARK SMILES IDX 50 88 56 89 58 90 55 91 51 92 52 93 53 94 54 95
REMARK H PARENT 1 22 1 23 78 48 46 59
REMARK Flexibility Score: inf
ROOT
ATOM      1  C   UNL A   1      33.484  21.520  23.878  1.00  0.00     0.188 C 
ENDROOT
BRANCH   1   2
ATOM      2  O   UNL A   1      32.564  22.586  24.106  1.00  0.00    -0.377 OA
BRANCH   2   3
ATOM      3  C   UNL A   1      33.059  23.859  24.480  1.00  0.00     0.188 C 
BRANCH   3   4
ATOM      4  C   UNL A   1      34.253  24.377  23.662  1.00  0.00     0.188 C 
BRANCH   4   5
ATOM      5  O   UNL A   1      33.957  24.570  22.281  1.00  0.00    -0.376 OA
BRANCH   5   6
ATOM      6  C   UNL A   1      33.381  25.819  21.922  1.00  0.00     0.202 C 
BRANCH   6   7
ATOM      7  C   UNL A   1      31.906  25.782  21.496  1.00  0.00     0.261 C 
BRANCH   7   8
ATOM      8  O   UNL A   1      31.076  26.794  22.082  1.00  0.00    -0.459 OA
BRANCH   8   9
ATOM      9  C   UNL A   1      30.623  26.582  23.341  1.00  0.00     0.357 C 
ATOM     10  O   UNL A   1      29.990  25.615  23.727  1.00  0.00    -0.244 OA
BRANCH   9  11
ATOM     11  C   UNL A   1      31.193  27.659  24.206  1.00  0.00     0.151 A 
ATOM     12  C   UNL A   1      31.267  29.929  24.944  1.00  0.00     0.043 A 
ATOM     13  C   UNL A   1      30.650  28.933  24.192  1.00  0.00     0.062 A 
ATOM     14  C   UNL A   1      32.382  29.589  25.752  1.00  0.00     0.023 A 
ATOM     15  C   UNL A   1      32.877  28.267  25.663  1.00  0.00     0.073 A 
ATOM     16  C   UNL A   1      33.029  30.494  26.629  1.00  0.00     0.012 A 
ATOM     17  N   UNL A   1      32.300  27.319  24.913  1.00  0.00    -0.241 NA
ATOM     18  C   UNL A   1      34.015  27.924  26.381  1.00  0.00     0.029 A 
ATOM     19  C   UNL A   1      34.154  30.116  27.363  1.00  0.00     0.001 A 
ATOM     20  C   UNL A   1      34.659  28.831  27.225  1.00  0.00     0.002 A 
BRANCH  12  21
ATOM     21  N   UNL A   1      30.682  31.199  24.963  1.00  0.00    -0.398 N 
ATOM     22  H   UNL A   1      30.909  31.834  25.680  1.00  0.00     0.156 HD
ATOM     23  H   UNL A   1      30.042  31.456  24.260  1.00  0.00     0.156 HD
ENDBRANCH  12  21
ENDBRANCH   9  11
ENDBRANCH   8   9
ENDBRANCH   7   8
ENDBRANCH   6   7
ENDBRANCH   5   6
ENDBRANCH   4   5
ENDBRANCH   3   4
ENDBRANCH   2   3
ENDBRANCH   1   2
BRANCH   1  24
ATOM     24  C   UNL A   1      33.891  20.505  24.973  1.00  0.00     0.188 C 
BRANCH  24  25
ATOM     25  O   UNL A   1      35.276  20.184  25.010  1.00  0.00    -0.376 OA
BRANCH  25  26
ATOM     26  C   UNL A   1      36.169  21.197  24.571  1.00  0.00     0.202 C 
BRANCH  26  27
ATOM     27  C   UNL A   1      37.607  20.993  25.054  1.00  0.00     0.261 C 
BRANCH  27  28
ATOM     28  O   UNL A   1      38.023  21.872  26.109  1.00  0.00    -0.460 OA
BRANCH  28  29
ATOM     29  C   UNL A   1      39.342  21.903  26.413  1.00  0.00     0.338 C 
ATOM     30  O   UNL A   1      40.165  21.030  26.200  1.00  0.00    -0.246 OA
BRANCH  29  31
ATOM     31  C   UNL A   1      39.648  23.272  26.877  1.00  0.00     0.060 A 
ATOM     32  C   UNL A   1      40.641  23.479  27.837  1.00  0.00     0.016 A 
ATOM     33  C   UNL A   1      38.900  24.348  26.385  1.00  0.00     0.016 A 
ATOM     34  C   UNL A   1      40.904  24.773  28.288  1.00  0.00     0.010 A 
ATOM     35  C   UNL A   1      39.162  25.644  26.841  1.00  0.00     0.010 A 
ATOM     36  C   UNL A   1      40.182  25.865  27.780  1.00  0.00    -0.014 A 
BRANCH  36  37
ATOM     37  C   UNL A   1      40.647  27.242  28.078  1.00  0.00     0.031 A 
ATOM     38  C   UNL A   1      39.743  28.293  28.645  1.00  0.00     0.074 A 
ATOM     39  C   UNL A   1      41.939  27.524  27.823  1.00  0.00     0.049 A 
ATOM     40  N   UNL A   1      40.053  29.492  29.064  1.00  0.00    -0.248 NA
ATOM     41  C   UNL A   1      38.316  27.964  28.753  1.00  0.00     0.031 C 
ATOM     42  C   UNL A   1      42.891  26.580  27.236  1.00  0.00     0.029 A 
ATOM     43  N   UNL A   1      42.676  28.662  28.027  1.00  0.00    -0.354 N 
ATOM     44  C   UNL A   1      38.866  30.062  29.509  1.00  0.00     0.074 A 
ATOM     45  C   UNL A   1      37.821  29.089  29.260  1.00  0.00     0.031 C 
ATOM     46  C   UNL A   1      44.091  27.168  27.148  1.00  0.00     0.029 A 
ATOM     47  C   UNL A   1      43.992  28.538  27.647  1.00  0.00     0.049 A 
ATOM     48  H   UNL A   1      42.300  29.488  28.409  1.00  0.00     0.167 HD
ATOM     49  C   UNL A   1      38.682  31.273  30.088  1.00  0.00     0.034 A 
ATOM     50  C   UNL A   1      45.010  29.418  27.700  1.00  0.00     0.034 A 
ATOM     51  C   UNL A   1      39.741  32.232  30.306  1.00  0.00     0.049 A 
ATOM     52  C   UNL A   1      44.773  30.767  28.325  1.00  0.00     0.074 A 
ATOM     53  C   UNL A   1      39.662  33.462  30.937  1.00  0.00     0.029 A 
ATOM     54  N   UNL A   1      41.058  32.086  29.893  1.00  0.00    -0.354 N 
ATOM     55  N   UNL A   1      43.672  31.244  28.859  1.00  0.00    -0.248 NA
ATOM     56  C   UNL A   1      45.912  31.693  28.375  1.00  0.00     0.031 C 
ATOM     57  C   UNL A   1      40.904  34.089  30.837  1.00  0.00     0.029 A 
ATOM     58  C   UNL A   1      41.789  33.219  30.220  1.00  0.00     0.049 A 
ATOM     59  H   UNL A   1      41.421  31.293  29.435  1.00  0.00     0.167 HD
ATOM     60  C   UNL A   1      43.992  32.514  29.330  1.00  0.00     0.074 A 
ATOM     61  C   UNL A   1      45.398  32.719  29.042  1.00  0.00     0.031 C 
ATOM     62  C   UNL A   1      43.191  33.425  29.939  1.00  0.00     0.034 A 
BRANCH  49  63
ATOM     63  C   UNL A   1      37.300  31.650  30.572  1.00  0.00     0.023 A 
ATOM     64  C   UNL A   1      36.460  32.447  29.772  1.00  0.00     0.031 A 
ATOM     65  C   UNL A   1      36.889  31.364  31.886  1.00  0.00     0.131 A 
ATOM     66  C   UNL A   1      35.273  32.966  30.308  1.00  0.00     0.055 A 
ATOM     67  C   UNL A   1      35.686  31.849  32.401  1.00  0.00     0.041 A 
ATOM     68  F   UNL A   1      37.658  30.616  32.694  1.00  0.00    -0.206 F 
ATOM     69  C   UNL A   1      34.880  32.667  31.616  1.00  0.00     0.022 A 
BRANCH  66  70
ATOM     70  S   UNL A   1      34.234  34.112  29.362  1.00  0.00     0.124 S 
ATOM     71  O   UNL A   1      35.232  34.992  28.758  1.00  0.00    -0.237 OA
ATOM     72  O   UNL A   1      33.552  33.214  28.435  1.00  0.00    -0.237 OA
ATOM     73  O   UNL A   1      33.388  34.737  30.374  1.00  0.00    -0.744 OA
ENDBRANCH  66  70
ENDBRANCH  49  63
BRANCH  50  74
ATOM     74  C   UNL A   1      46.354  28.993  27.215  1.00  0.00     0.023 A 
ATOM     75  C   UNL A   1      46.573  28.710  25.854  1.00  0.00     0.031 A 
ATOM     76  C   UNL A   1      47.396  28.735  28.120  1.00  0.00     0.131 A 
ATOM     77  C   UNL A   1      47.776  28.119  25.450  1.00  0.00     0.055 A 
ATOM     78  C   UNL A   1      48.622  28.214  27.702  1.00  0.00     0.041 A 
ATOM     79  F   UNL A   1      47.228  28.970  29.430  1.00  0.00    -0.206 F 
ATOM     80  C   UNL A   1      48.809  27.885  26.362  1.00  0.00     0.022 A 
BRANCH  77  81
ATOM     81  S   UNL A   1      47.984  27.496  23.758  1.00  0.00     0.124 S 
ATOM     82  O   UNL A   1      47.625  26.090  23.905  1.00  0.00    -0.237 OA
ATOM     83  O   UNL A   1      47.029  28.318  23.019  1.00  0.00    -0.237 OA
ATOM     84  O   UNL A   1      49.388  27.763  23.464  1.00  0.00    -0.744 OA
ENDBRANCH  77  81
ENDBRANCH  50  74
BRANCH  62  85
ATOM     85  C   UNL A   1      43.788  34.752  30.349  1.00  0.00     0.023 A 
ATOM     86  C   UNL A   1      44.249  34.944  31.666  1.00  0.00     0.031 A 
ATOM     87  C   UNL A   1      43.761  35.864  29.489  1.00  0.00     0.131 A 
ATOM     88  C   UNL A   1      44.620  36.224  32.098  1.00  0.00     0.055 A 
ATOM     89  C   UNL A   1      44.183  37.128  29.909  1.00  0.00     0.041 A 
ATOM     90  F   UNL A   1      43.321  35.739  28.227  1.00  0.00    -0.206 F 
ATOM     91  C   UNL A   1      44.600  37.315  31.223  1.00  0.00     0.022 A 
BRANCH  88  92
ATOM     92  S   UNL A   1      45.054  36.540  33.832  1.00  0.00     0.124 S 
ATOM     93  O   UNL A   1      45.338  37.973  33.816  1.00  0.00    -0.237 OA
ATOM     94  O   UNL A   1      43.830  36.155  34.529  1.00  0.00    -0.237 OA
ATOM     95  O   UNL A   1      46.209  35.681  34.069  1.00  0.00    -0.744 OA
ENDBRANCH  88  92
ENDBRANCH  62  85
ENDBRANCH  36  37
ENDBRANCH  29  31
ENDBRANCH  28  29
ENDBRANCH  27  28
ENDBRANCH  26  27
ENDBRANCH  25  26
ENDBRANCH  24  25
ENDBRANCH   1  24
TORSDOF 24
ENDMDL
MODEL 2
REMARK VINA RESULT:      -9.7      2.314      3.088
REMARK SMILES Nc1cc(C(=O)OCCOCCOCCOCCOC(=O)c2ccc(-c3c4nc(c(-c5cc(S(=O)(=O)[O-])ccc5F)c5ccc([nH]5)c(-c5cc(S(=O)(=O)[O-])ccc5F)c5nc(c(-c6cc(S(=O)(=O)[O-])ccc6F)c6ccc3[nH]6)C=C5)C=C4)cc2)nc2ccccc12
REMARK SMILES IDX 14 1 13 2 12 3 11 4 10 5 9 6 8 7 7 8 5 9 6 10 4 11 2 12 3 13
REMARK SMILES IDX 91 14 86 15 90 16 85 17 87 18 89 19 88 20 1 21 15 24 16 25
REMARK SMILES IDX 17 26 18 27 19 28 20 29 21 30 22 31 23 32 84 33 24 34 83 35
REMARK SMILES IDX 25 36 26 37 27 38 77 39 28 40 82 41 76 42 78 43 29 44 81 45
REMARK SMILES IDX 75 46 74 47 30 49 62 50 42 51 61 52 43 53 46 54 60 55 79 56
REMARK SMILES IDX 44 57 45 58 59 60 80 61 47 62 31 63 32 64 40 65 33 66 39 67
REMARK SMILES IDX 41 68 38 69 34 70 35 71 36 72 37 73 63 74 64 75 72 76 65 77
REMARK SMILES IDX 71 78 73 79 70 80 66 81 67 82 68 83 69 84 48 85 49 86 57 87
REMARK SMILES IDX 50 88 56 89 58 90 55 91 51 92 52 93 53 94 54 95
REMARK H PARENT 1 22 1 23 78 48 46 59
REMARK Flexibility Score: inf
ROOT
ATOM      1  C   UNL A   1      33.102  21.329  23.986  1.00  0.00     0.188 C 
ENDROOT
BRANCH   1   2
ATOM      2  O   UNL A   1      31.784  21.858  24.125  1.00  0.00    -0.377 OA
BRANCH   2   3
ATOM      3  C   UNL A   1      31.413  22.481  25.341  1.00  0.00     0.188 C 
BRANCH   3   4
ATOM      4  C   UNL A   1      32.516  23.293  26.039  1.00  0.00     0.188 C 
BRANCH   4   5
ATOM      5  O   UNL A   1      32.385  24.702  25.864  1.00  0.00    -0.376 OA
BRANCH   5   6
ATOM      6  C   UNL A   1      31.076  25.191  25.604  1.00  0.00     0.202 C 
BRANCH   6   7
ATOM      7  C   UNL A   1      30.706  25.371  24.125  1.00  0.00     0.261 C 
BRANCH   7   8
ATOM      8  O   UNL A   1      31.800  25.703  23.258  1.00  0.00    -0.459 OA
BRANCH   8   9
ATOM      9  C   UNL A   1      31.535  26.486  22.185  1.00  0.00     0.357 C 
ATOM     10  O   UNL A   1      31.592  26.150  21.015  1.00  0.00    -0.244 OA
BRANCH   9  11
ATOM     11  C   UNL A   1      30.988  27.777  22.701  1.00  0.00     0.151 A 
ATOM     12  C   UNL A   1      30.984  29.561  24.289  1.00  0.00     0.043 A 
ATOM     13  C   UNL A   1      31.578  28.407  23.783  1.00  0.00     0.062 A 
ATOM     14  C   UNL A   1      29.841  30.088  23.636  1.00  0.00     0.023 A 
ATOM     15  C   UNL A   1      29.299  29.344  22.561  1.00  0.00     0.073 A 
ATOM     16  C   UNL A   1      29.211  31.303  24.000  1.00  0.00     0.012 A 
ATOM     17  N   UNL A   1      29.855  28.217  22.098  1.00  0.00    -0.241 NA
ATOM     18  C   UNL A   1      28.135  29.792  21.951  1.00  0.00     0.029 A 
ATOM     19  C   UNL A   1      28.058  31.747  23.351  1.00  0.00     0.001 A 
ATOM     20  C   UNL A   1      27.508  30.980  22.335  1.00  0.00     0.002 A 
BRANCH  12  21
ATOM     21  N   UNL A   1      31.616  30.218  25.349  1.00  0.00    -0.398 N 
ATOM     22  H   UNL A   1      31.685  31.199  25.348  1.00  0.00     0.156 HD
ATOM     23  H   UNL A   1      31.991  29.698  26.096  1.00  0.00     0.156 HD
ENDBRANCH  12  21
ENDBRANCH   9  11
ENDBRANCH   8   9
ENDBRANCH   7   8
ENDBRANCH   6   7
ENDBRANCH   5   6
ENDBRANCH   4   5
ENDBRANCH   3   4
ENDBRANCH   2   3
ENDBRANCH   1   2
BRANCH   1  24
ATOM     24  C   UNL A   1      33.601  20.086  24.760  1.00  0.00     0.188 C 
BRANCH  24  25
ATOM     25  O   UNL A   1      35.010  19.895  24.745  1.00  0.00    -0.376 OA
BRANCH  25  26
ATOM     26  C   UNL A   1      35.806  21.068  24.833  1.00  0.00     0.202 C 
BRANCH  26  27
ATOM     27  C   UNL A   1      37.299  20.779  25.004  1.00  0.00     0.261 C 
BRANCH  27  28
ATOM     28  O   UNL A   1      37.914  21.414  26.134  1.00  0.00    -0.460 OA
BRANCH  28  29
ATOM     29  C   UNL A   1      39.258  21.310  26.255  1.00  0.00     0.338 C 
ATOM     30  O   UNL A   1      39.952  20.359  25.941  1.00  0.00    -0.246 OA
BRANCH  29  31
ATOM     31  C   UNL A   1      39.761  22.639  26.662  1.00  0.00     0.060 A 
ATOM     32  C   UNL A   1      40.826  22.739  27.561  1.00  0.00     0.016 A 
ATOM     33  C   UNL A   1      39.129  23.790  26.179  1.00  0.00     0.016 A 
ATOM     34  C   UNL A   1      41.276  23.998  27.958  1.00  0.00     0.010 A 
ATOM     35  C   UNL A   1      39.578  25.052  26.582  1.00  0.00     0.010 A 
ATOM     36  C   UNL A   1      40.670  25.162  27.457  1.00  0.00    -0.014 A 
BRANCH  36  37
ATOM     37  C   UNL A   1      41.322  26.475  27.689  1.00  0.00     0.031 A 
ATOM     38  C   UNL A   1      40.657  27.582  28.446  1.00  0.00     0.074 A 
ATOM     39  C   UNL A   1      42.561  26.642  27.191  1.00  0.00     0.049 A 
ATOM     40  N   UNL A   1      41.163  28.727  28.823  1.00  0.00    -0.248 NA
ATOM     41  C   UNL A   1      39.251  27.387  28.826  1.00  0.00     0.031 C 
ATOM     42  C   UNL A   1      43.280  25.637  26.406  1.00  0.00     0.029 A 
ATOM     43  N   UNL A   1      43.437  27.694  27.271  1.00  0.00    -0.354 N 
ATOM     44  C   UNL A   1      40.149  29.388  29.506  1.00  0.00     0.074 A 
ATOM     45  C   UNL A   1      38.982  28.532  29.446  1.00  0.00     0.031 C 
ATOM     46  C   UNL A   1      44.493  26.110  26.097  1.00  0.00     0.029 A 
ATOM     47  C   UNL A   1      44.633  27.461  26.636  1.00  0.00     0.049 A 
ATOM     48  H   UNL A   1      43.228  28.536  27.738  1.00  0.00     0.167 HD
ATOM     49  C   UNL A   1      40.205  30.586  30.137  1.00  0.00     0.034 A 
ATOM     50  C   UNL A   1      45.727  28.238  26.507  1.00  0.00     0.034 A 
ATOM     51  C   UNL A   1      41.379  31.430  30.164  1.00  0.00     0.049 A 
ATOM     52  C   UNL A   1      45.754  29.575  27.197  1.00  0.00     0.074 A 
ATOM     53  C   UNL A   1      41.549  32.634  30.825  1.00  0.00     0.029 A 
ATOM     54  N   UNL A   1      42.569  31.176  29.496  1.00  0.00    -0.354 N 
ATOM     55  N   UNL A   1      44.833  30.132  27.948  1.00  0.00    -0.248 NA
ATOM     56  C   UNL A   1      46.970  30.385  27.043  1.00  0.00     0.031 C 
ATOM     57  C   UNL A   1      42.806  33.143  30.497  1.00  0.00     0.029 A 
ATOM     58  C   UNL A   1      43.461  32.219  29.698  1.00  0.00     0.049 A 
ATOM     59  H   UNL A   1      42.753  30.372  28.957  1.00  0.00     0.167 HD
ATOM     60  C   UNL A   1      45.366  31.344  28.375  1.00  0.00     0.074 A 
ATOM     61  C   UNL A   1      46.702  31.426  27.821  1.00  0.00     0.031 C 
ATOM     62  C   UNL A   1      44.795  32.301  29.151  1.00  0.00     0.034 A 
BRANCH  49  63
ATOM     63  C   UNL A   1      38.990  31.073  30.893  1.00  0.00     0.023 A 
ATOM     64  C   UNL A   1      38.001  31.831  30.236  1.00  0.00     0.031 A 
ATOM     65  C   UNL A   1      38.899  30.931  32.288  1.00  0.00     0.131 A 
ATOM     66  C   UNL A   1      36.991  32.454  30.981  1.00  0.00     0.055 A 
ATOM     67  C   UNL A   1      37.866  31.520  33.021  1.00  0.00     0.041 A 
ATOM     68  F   UNL A   1      39.820  30.226  32.964  1.00  0.00    -0.206 F 
ATOM     69  C   UNL A   1      36.915  32.298  32.369  1.00  0.00     0.022 A 
BRANCH  66  70
ATOM     70  S   UNL A   1      35.783  33.556  30.195  1.00  0.00     0.124 S 
ATOM     71  O   UNL A   1      35.372  34.398  31.316  1.00  0.00    -0.237 OA
ATOM     72  O   UNL A   1      36.592  34.222  29.178  1.00  0.00    -0.237 OA
ATOM     73  O   UNL A   1      34.756  32.650  29.691  1.00  0.00    -0.744 OA
ENDBRANCH  66  70
ENDBRANCH  49  63
BRANCH  50  74
ATOM     74  C   UNL A   1      46.901  27.706  25.757  1.00  0.00     0.023 A 
ATOM     75  C   UNL A   1      47.132  28.080  24.420  1.00  0.00     0.031 A 
ATOM     76  C   UNL A   1      47.727  26.720  26.320  1.00  0.00     0.131 A 
ATOM     77  C   UNL A   1      48.113  27.419  23.671  1.00  0.00     0.055 A 
ATOM     78  C   UNL A   1      48.754  26.116  25.592  1.00  0.00     0.041 A 
ATOM     79  F   UNL A   1      47.533  26.317  27.585  1.00  0.00    -0.206 F 
ATOM     80  C   UNL A   1      48.937  26.452  24.254  1.00  0.00     0.022 A 
BRANCH  77  81
ATOM     81  S   UNL A   1      48.253  27.685  21.882  1.00  0.00     0.124 S 
ATOM     82  O   UNL A   1      49.434  28.535  21.791  1.00  0.00    -0.237 OA
ATOM     83  O   UNL A   1      48.418  26.319  21.390  1.00  0.00    -0.237 OA
ATOM     84  O   UNL A   1      46.987  28.321  21.529  1.00  0.00    -0.744 OA
ENDBRANCH  77  81
ENDBRANCH  50  74
BRANCH  62  85
ATOM     85  C   UNL A   1      45.593  33.547  29.465  1.00  0.00     0.023 A 
ATOM     86  C   UNL A   1      45.572  34.642  28.579  1.00  0.00     0.031 A 
ATOM     87  C   UNL A   1      46.484  33.593  30.552  1.00  0.00     0.131 A 
ATOM     88  C   UNL A   1      46.455  35.713  28.769  1.00  0.00     0.055 A 
ATOM     89  C   UNL A   1      47.325  34.687  30.768  1.00  0.00     0.041 A 
ATOM     90  F   UNL A   1      46.552  32.571  31.420  1.00  0.00    -0.206 F 
ATOM     91  C   UNL A   1      47.323  35.746  29.865  1.00  0.00     0.022 A 
BRANCH  88  92
ATOM     92  S   UNL A   1      46.575  37.057  27.556  1.00  0.00     0.124 S 
ATOM     93  O   UNL A   1      47.611  37.903  28.144  1.00  0.00    -0.237 OA
ATOM     94  O   UNL A   1      46.968  36.342  26.345  1.00  0.00    -0.237 OA
ATOM     95  O   UNL A   1      45.237  37.637  27.536  1.00  0.00    -0.744 OA
ENDBRANCH  88  92
ENDBRANCH  62  85
ENDBRANCH  36  37
ENDBRANCH  29  31
ENDBRANCH  28  29
ENDBRANCH  27  28
ENDBRANCH  26  27
ENDBRANCH  25  26
ENDBRANCH  24  25
ENDBRANCH   1  24
TORSDOF 24
ENDMDL
MODEL 3
REMARK VINA RESULT:      -9.2      2.420      7.941
REMARK SMILES Nc1cc(C(=O)OCCOCCOCCOCCOC(=O)c2ccc(-c3c4nc(c(-c5cc(S(=O)(=O)[O-])ccc5F)c5ccc([nH]5)c(-c5cc(S(=O)(=O)[O-])ccc5F)c5nc(c(-c6cc(S(=O)(=O)[O-])ccc6F)c6ccc3[nH]6)C=C5)C=C4)cc2)nc2ccccc12
REMARK SMILES IDX 14 1 13 2 12 3 11 4 10 5 9 6 8 7 7 8 5 9 6 10 4 11 2 12 3 13
REMARK SMILES IDX 91 14 86 15 90 16 85 17 87 18 89 19 88 20 1 21 15 24 16 25
REMARK SMILES IDX 17 26 18 27 19 28 20 29 21 30 22 31 23 32 84 33 24 34 83 35
REMARK SMILES IDX 25 36 26 37 27 38 77 39 28 40 82 41 76 42 78 43 29 44 81 45
REMARK SMILES IDX 75 46 74 47 30 49 62 50 42 51 61 52 43 53 46 54 60 55 79 56
REMARK SMILES IDX 44 57 45 58 59 60 80 61 47 62 31 63 32 64 40 65 33 66 39 67
REMARK SMILES IDX 41 68 38 69 34 70 35 71 36 72 37 73 63 74 64 75 72 76 65 77
REMARK SMILES IDX 71 78 73 79 70 80 66 81 67 82 68 83 69 84 48 85 49 86 57 87
REMARK SMILES IDX 50 88 56 89 58 90 55 91 51 92 52 93 53 94 54 95
REMARK H PARENT 1 22 1 23 78 48 46 59
REMARK Flexibility Score: inf
ROOT
ATOM      1  C   UNL A   1      34.001  22.839  22.741  1.00  0.00     0.188 C 
ENDROOT
BRANCH   1   2
ATOM      2  O   UNL A   1      32.863  23.455  22.142  1.00  0.00    -0.377 OA
BRANCH   2   3
ATOM      3  C   UNL A   1      32.610  24.828  22.385  1.00  0.00     0.188 C 
BRANCH   3   4
ATOM      4  C   UNL A   1      33.834  25.672  22.776  1.00  0.00     0.188 C 
BRANCH   4   5
ATOM      5  O   UNL A   1      34.070  26.772  21.901  1.00  0.00    -0.376 OA
BRANCH   5   6
ATOM      6  C   UNL A   1      33.166  27.865  21.995  1.00  0.00     0.202 C 
BRANCH   6   7
ATOM      7  C   UNL A   1      33.588  29.009  22.928  1.00  0.00     0.261 C 
BRANCH   7   8
ATOM      8  O   UNL A   1      33.901  28.616  24.273  1.00  0.00    -0.459 OA
BRANCH   8   9
ATOM      9  C   UNL A   1      32.943  28.789  25.216  1.00  0.00     0.357 C 
ATOM     10  O   UNL A   1      32.641  29.841  25.752  1.00  0.00    -0.244 OA
BRANCH   9  11
ATOM     11  C   UNL A   1      32.208  27.496  25.345  1.00  0.00     0.151 A 
ATOM     12  C   UNL A   1      30.239  26.172  25.070  1.00  0.00     0.043 A 
ATOM     13  C   UNL A   1      30.921  27.366  24.849  1.00  0.00     0.062 A 
ATOM     14  C   UNL A   1      30.908  25.109  25.729  1.00  0.00     0.023 A 
ATOM     15  C   UNL A   1      32.208  25.362  26.226  1.00  0.00     0.073 A 
ATOM     16  C   UNL A   1      30.350  23.821  25.923  1.00  0.00     0.012 A 
ATOM     17  N   UNL A   1      32.849  26.522  26.040  1.00  0.00    -0.241 NA
ATOM     18  C   UNL A   1      32.860  24.368  26.944  1.00  0.00     0.029 A 
ATOM     19  C   UNL A   1      31.038  22.830  26.623  1.00  0.00     0.001 A 
ATOM     20  C   UNL A   1      32.290  23.110  27.151  1.00  0.00     0.002 A 
BRANCH  12  21
ATOM     21  N   UNL A   1      28.961  26.032  24.522  1.00  0.00    -0.398 N 
ATOM     22  H   UNL A   1      28.687  25.174  24.123  1.00  0.00     0.156 HD
ATOM     23  H   UNL A   1      28.334  26.792  24.534  1.00  0.00     0.156 HD
ENDBRANCH  12  21
ENDBRANCH   9  11
ENDBRANCH   8   9
ENDBRANCH   7   8
ENDBRANCH   6   7
ENDBRANCH   5   6
ENDBRANCH   4   5
ENDBRANCH   3   4
ENDBRANCH   2   3
ENDBRANCH   1   2
BRANCH   1  24
ATOM     24  C   UNL A   1      33.965  22.171  24.137  1.00  0.00     0.188 C 
BRANCH  24  25
ATOM     25  O   UNL A   1      35.012  21.240  24.384  1.00  0.00    -0.376 OA
BRANCH  25  26
ATOM     26  C   UNL A   1      36.337  21.736  24.266  1.00  0.00     0.202 C 
BRANCH  26  27
ATOM     27  C   UNL A   1      37.315  21.102  25.258  1.00  0.00     0.261 C 
BRANCH  27  28
ATOM     28  O   UNL A   1      38.047  22.033  26.068  1.00  0.00    -0.460 OA
BRANCH  28  29
ATOM     29  C   UNL A   1      39.344  21.750  26.329  1.00  0.00     0.338 C 
ATOM     30  O   UNL A   1      39.933  20.712  26.080  1.00  0.00    -0.246 OA
BRANCH  29  31
ATOM     31  C   UNL A   1      39.976  23.000  26.799  1.00  0.00     0.060 A 
ATOM     32  C   UNL A   1      40.939  22.960  27.811  1.00  0.00     0.016 A 
ATOM     33  C   UNL A   1      39.563  24.224  26.259  1.00  0.00     0.016 A 
ATOM     34  C   UNL A   1      41.509  24.149  28.265  1.00  0.00     0.010 A 
ATOM     35  C   UNL A   1      40.133  25.415  26.719  1.00  0.00     0.010 A 
ATOM     36  C   UNL A   1      41.127  25.381  27.710  1.00  0.00    -0.014 A 
BRANCH  36  37
ATOM     37  C   UNL A   1      41.922  26.594  28.023  1.00  0.00     0.031 A 
ATOM     38  C   UNL A   1      43.307  26.807  27.497  1.00  0.00     0.074 A 
ATOM     39  C   UNL A   1      41.344  27.523  28.808  1.00  0.00     0.049 A 
ATOM     40  N   UNL A   1      44.059  27.872  27.594  1.00  0.00    -0.248 NA
ATOM     41  C   UNL A   1      43.932  25.688  26.778  1.00  0.00     0.031 C 
ATOM     42  C   UNL A   1      40.012  27.393  29.401  1.00  0.00     0.029 A 
ATOM     43  N   UNL A   1      41.782  28.751  29.234  1.00  0.00    -0.354 N 
ATOM     44  C   UNL A   1      45.241  27.569  26.929  1.00  0.00     0.074 A 
ATOM     45  C   UNL A   1      45.123  26.197  26.478  1.00  0.00     0.031 C 
ATOM     46  C   UNL A   1      39.732  28.503  30.094  1.00  0.00     0.029 A 
ATOM     47  C   UNL A   1      40.871  29.416  30.019  1.00  0.00     0.049 A 
ATOM     48  H   UNL A   1      42.665  29.119  29.001  1.00  0.00     0.167 HD
ATOM     49  C   UNL A   1      46.309  28.374  26.706  1.00  0.00     0.034 A 
ATOM     50  C   UNL A   1      40.933  30.627  30.607  1.00  0.00     0.034 A 
ATOM     51  C   UNL A   1      46.408  29.734  27.186  1.00  0.00     0.049 A 
ATOM     52  C   UNL A   1      42.141  31.491  30.363  1.00  0.00     0.074 A 
ATOM     53  C   UNL A   1      47.425  30.646  26.962  1.00  0.00     0.029 A 
ATOM     54  N   UNL A   1      45.478  30.373  27.995  1.00  0.00    -0.354 N 
ATOM     55  N   UNL A   1      43.197  31.240  29.625  1.00  0.00    -0.248 NA
ATOM     56  C   UNL A   1      42.165  32.809  31.011  1.00  0.00     0.031 C 
ATOM     57  C   UNL A   1      47.149  31.802  27.692  1.00  0.00     0.029 A 
ATOM     58  C   UNL A   1      45.917  31.651  28.308  1.00  0.00     0.049 A 
ATOM     59  H   UNL A   1      44.629  29.977  28.300  1.00  0.00     0.167 HD
ATOM     60  C   UNL A   1      43.998  32.375  29.701  1.00  0.00     0.074 A 
ATOM     61  C   UNL A   1      43.290  33.326  30.534  1.00  0.00     0.031 C 
ATOM     62  C   UNL A   1      45.211  32.603  29.134  1.00  0.00     0.034 A 
BRANCH  49  63
ATOM     63  C   UNL A   1      47.460  27.849  25.879  1.00  0.00     0.023 A 
ATOM     64  C   UNL A   1      47.508  28.093  24.493  1.00  0.00     0.031 A 
ATOM     65  C   UNL A   1      48.409  26.972  26.432  1.00  0.00     0.131 A 
ATOM     66  C   UNL A   1      48.457  27.432  23.701  1.00  0.00     0.055 A 
ATOM     67  C   UNL A   1      49.379  26.347  25.645  1.00  0.00     0.041 A 
ATOM     68  F   UNL A   1      48.401  26.698  27.747  1.00  0.00    -0.206 F 
ATOM     69  C   UNL A   1      49.396  26.565  24.271  1.00  0.00     0.022 A 
BRANCH  66  70
ATOM     70  S   UNL A   1      48.464  27.604  21.896  1.00  0.00     0.124 S 
ATOM     71  O   UNL A   1      49.598  28.500  21.685  1.00  0.00    -0.237 OA
ATOM     72  O   UNL A   1      48.667  26.227  21.457  1.00  0.00    -0.237 OA
ATOM     73  O   UNL A   1      47.157  28.177  21.593  1.00  0.00    -0.744 OA
ENDBRANCH  66  70
ENDBRANCH  49  63
BRANCH  50  74
ATOM     74  C   UNL A   1      39.766  31.099  31.406  1.00  0.00     0.023 A 
ATOM     75  C   UNL A   1      38.703  31.787  30.793  1.00  0.00     0.031 A 
ATOM     76  C   UNL A   1      39.761  30.986  32.806  1.00  0.00     0.131 A 
ATOM     77  C   UNL A   1      37.722  32.399  31.582  1.00  0.00     0.055 A 
ATOM     78  C   UNL A   1      38.740  31.533  33.585  1.00  0.00     0.041 A 
ATOM     79  F   UNL A   1      40.764  30.355  33.437  1.00  0.00    -0.206 F 
ATOM     80  C   UNL A   1      37.724  32.261  32.973  1.00  0.00     0.022 A 
BRANCH  77  81
ATOM     81  S   UNL A   1      36.497  33.515  30.843  1.00  0.00     0.124 S 
ATOM     82  O   UNL A   1      35.399  32.605  30.539  1.00  0.00    -0.237 OA
ATOM     83  O   UNL A   1      36.255  34.455  31.934  1.00  0.00    -0.237 OA
ATOM     84  O   UNL A   1      37.193  34.073  29.688  1.00  0.00    -0.744 OA
ENDBRANCH  77  81
ENDBRANCH  50  74
BRANCH  62  85
ATOM     85  C   UNL A   1      45.886  33.933  29.383  1.00  0.00     0.023 A 
ATOM     86  C   UNL A   1      45.662  35.014  28.508  1.00  0.00     0.031 A 
ATOM     87  C   UNL A   1      46.860  34.084  30.386  1.00  0.00     0.131 A 
ATOM     88  C   UNL A   1      46.431  36.179  28.624  1.00  0.00     0.055 A 
ATOM     89  C   UNL A   1      47.587  35.268  30.531  1.00  0.00     0.041 A 
ATOM     90  F   UNL A   1      47.122  33.081  31.238  1.00  0.00    -0.206 F 
ATOM     91  C   UNL A   1      47.385  36.316  29.638  1.00  0.00     0.022 A 
BRANCH  88  92
ATOM     92  S   UNL A   1      46.289  37.522  27.412  1.00  0.00     0.124 S 
ATOM     93  O   UNL A   1      44.883  37.430  27.023  1.00  0.00    -0.237 OA
ATOM     94  O   UNL A   1      46.638  38.694  28.211  1.00  0.00    -0.237 OA
ATOM     95  O   UNL A   1      47.246  37.163  26.372  1.00  0.00    -0.744 OA
ENDBRANCH  88  92
ENDBRANCH  62  85
ENDBRANCH  36  37
ENDBRANCH  29  31
ENDBRANCH  28  29
ENDBRANCH  27  28
ENDBRANCH  26  27
ENDBRANCH  25  26
ENDBRANCH  24  25
ENDBRANCH   1  24
TORSDOF 24
ENDMDL
