MODEL 1
REMARK VINA RESULT:      -9.6      0.000      0.000
REMARK SMILES Cc1ccc(C#N)cc1S(=O)(=O)Nc1cccc(C(=O)OCCOCCOCCOCCOC(=O)c2ccc(-c3c4nc(c(-c5cc(S(=O)(=O)[O-])ccc5F)c5ccc([nH]5)c(-c5cc(S(=O)(=O)[O-])ccc5F)c5nc(c(-c6cc(S(=O)(=O)[O-])ccc6F)c6ccc3[nH]6)C=C5)C=C4)cc2)c1
REMARK SMILES IDX 26 1 25 2 24 3 23 4 22 5 21 6 19 7 20 8 18 9 14 10 15 11
REMARK SMILES IDX 99 12 16 13 17 14 13 15 10 17 11 18 12 19 9 20 1 21 2 22
REMARK SMILES IDX 3 23 4 24 8 25 5 26 6 27 7 28 27 29 28 30 29 31 30 32 31 33
REMARK SMILES IDX 32 34 33 35 34 36 35 37 36 38 37 39 98 40 38 41 97 42 39 43
REMARK SMILES IDX 40 44 41 45 91 46 42 47 96 48 90 49 92 50 43 51 95 52 89 53
REMARK SMILES IDX 88 54 44 56 76 57 56 58 75 59 57 60 60 61 74 62 93 63 58 64
REMARK SMILES IDX 59 65 73 67 94 68 61 69 45 70 46 71 54 72 47 73 53 74 55 75
REMARK SMILES IDX 52 76 48 77 49 78 50 79 51 80 77 81 78 82 86 83 79 84 85 85
REMARK SMILES IDX 87 86 84 87 80 88 81 89 82 90 83 91 62 92 63 93 71 94 64 95
REMARK SMILES IDX 70 96 72 97 69 98 65 99 66 100 67 101 68 102
REMARK H PARENT 13 16 92 55 60 66
REMARK Flexibility Score: inf
ROOT
ATOM      1  C   UNL A   1      33.947  30.487  27.369  1.00  0.00     0.188 C 
ENDROOT
BRANCH   1   2
ATOM      2  C   UNL A   1      32.509  30.125  26.954  1.00  0.00     0.188 C 
BRANCH   2   3
ATOM      3  O   UNL A   1      32.358  29.519  25.694  1.00  0.00    -0.376 OA
BRANCH   3   4
ATOM      4  C   UNL A   1      33.381  29.523  24.719  1.00  0.00     0.202 C 
BRANCH   4   5
ATOM      5  C   UNL A   1      33.500  28.521  23.557  1.00  0.00     0.261 C 
BRANCH   5   6
ATOM      6  O   UNL A   1      32.718  28.755  22.383  1.00  0.00    -0.460 OA
BRANCH   6   7
ATOM      7  C   UNL A   1      31.380  28.636  22.527  1.00  0.00     0.338 C 
ATOM      8  O   UNL A   1      30.538  29.395  22.073  1.00  0.00    -0.246 OA
BRANCH   7   9
ATOM      9  C   UNL A   1      31.044  27.334  23.168  1.00  0.00     0.062 A 
ATOM     10  C   UNL A   1      31.093  24.904  23.287  1.00  0.00     0.050 A 
ATOM     11  C   UNL A   1      30.249  24.946  24.399  1.00  0.00     0.027 A 
ATOM     12  C   UNL A   1      31.548  26.106  22.718  1.00  0.00     0.042 A 
ATOM     13  C   UNL A   1      29.730  26.169  24.834  1.00  0.00     0.003 A 
ATOM     14  C   UNL A   1      30.098  27.353  24.197  1.00  0.00     0.016 A 
BRANCH  10  15
ATOM     15  N   UNL A   1      31.330  23.722  22.531  1.00  0.00    -0.280 N 
ATOM     16  H   UNL A   1      30.605  23.447  21.924  1.00  0.00     0.180 HD
BRANCH  15  17
ATOM     17  S   UNL A   1      32.676  22.745  22.543  1.00  0.00     0.262 S 
ATOM     18  O   UNL A   1      33.818  23.523  22.108  1.00  0.00    -0.201 OA
ATOM     19  O   UNL A   1      32.274  21.562  21.808  1.00  0.00    -0.201 OA
BRANCH  17  20
ATOM     20  C   UNL A   1      33.098  22.141  24.187  1.00  0.00     0.092 A 
ATOM     21  C   UNL A   1      34.023  24.277  25.328  1.00  0.00     0.046 C 
ATOM     22  C   UNL A   1      33.761  22.812  25.226  1.00  0.00    -0.030 A 
ATOM     23  C   UNL A   1      34.223  22.060  26.330  1.00  0.00     0.006 A 
ATOM     24  C   UNL A   1      33.922  20.710  26.473  1.00  0.00     0.020 A 
ATOM     25  C   UNL A   1      32.750  20.781  24.371  1.00  0.00     0.042 A 
ATOM     26  C   UNL A   1      33.140  20.075  25.514  1.00  0.00     0.053 A 
BRANCH  26  27
ATOM     27  C   UNL A   1      32.761  18.710  25.706  1.00  0.00     0.099 C 
ATOM     28  N   UNL A   1      32.486  17.592  25.887  1.00  0.00    -0.192 NA
ENDBRANCH  26  27
ENDBRANCH  17  20
ENDBRANCH  15  17
ENDBRANCH  10  15
ENDBRANCH   7   9
ENDBRANCH   6   7
ENDBRANCH   5   6
ENDBRANCH   4   5
ENDBRANCH   3   4
ENDBRANCH   2   3
ENDBRANCH   1   2
BRANCH   1  29
ATOM     29  O   UNL A   1      34.347  31.832  27.546  1.00  0.00    -0.377 OA
BRANCH  29  30
ATOM     30  C   UNL A   1      33.934  32.578  28.684  1.00  0.00     0.188 C 
BRANCH  30  31
ATOM     31  C   UNL A   1      34.627  33.891  29.115  1.00  0.00     0.188 C 
BRANCH  31  32
ATOM     32  O   UNL A   1      35.453  33.767  30.252  1.00  0.00    -0.376 OA
BRANCH  32  33
ATOM     33  C   UNL A   1      34.969  34.112  31.529  1.00  0.00     0.202 C 
BRANCH  33  34
ATOM     34  C   UNL A   1      34.576  33.043  32.558  1.00  0.00     0.261 C 
BRANCH  34  35
ATOM     35  O   UNL A   1      35.521  32.008  32.838  1.00  0.00    -0.460 OA
BRANCH  35  36
ATOM     36  C   UNL A   1      36.579  32.322  33.626  1.00  0.00     0.338 C 
ATOM     37  O   UNL A   1      36.538  32.801  34.743  1.00  0.00    -0.246 OA
BRANCH  36  38
ATOM     38  C   UNL A   1      37.782  31.780  32.952  1.00  0.00     0.060 A 
ATOM     39  C   UNL A   1      38.469  30.707  33.521  1.00  0.00     0.016 A 
ATOM     40  C   UNL A   1      38.268  32.398  31.791  1.00  0.00     0.016 A 
ATOM     41  C   UNL A   1      39.639  30.242  32.916  1.00  0.00     0.010 A 
ATOM     42  C   UNL A   1      39.447  31.936  31.193  1.00  0.00     0.010 A 
ATOM     43  C   UNL A   1      40.129  30.839  31.739  1.00  0.00    -0.014 A 
BRANCH  43  44
ATOM     44  C   UNL A   1      41.230  30.178  30.991  1.00  0.00     0.031 A 
ATOM     45  C   UNL A   1      41.045  28.890  30.248  1.00  0.00     0.074 A 
ATOM     46  C   UNL A   1      42.433  30.784  30.997  1.00  0.00     0.049 A 
ATOM     47  N   UNL A   1      41.897  28.266  29.474  1.00  0.00    -0.248 NA
ATOM     48  C   UNL A   1      39.753  28.206  30.394  1.00  0.00     0.031 C 
ATOM     49  C   UNL A   1      42.733  32.015  31.729  1.00  0.00     0.029 A 
ATOM     50  N   UNL A   1      43.614  30.470  30.374  1.00  0.00    -0.354 N 
ATOM     51  C   UNL A   1      41.245  27.125  29.023  1.00  0.00     0.074 A 
ATOM     52  C   UNL A   1      39.941  27.118  29.653  1.00  0.00     0.031 C 
ATOM     53  C   UNL A   1      43.997  32.376  31.478  1.00  0.00     0.029 A 
ATOM     54  C   UNL A   1      44.619  31.379  30.611  1.00  0.00     0.049 A 
ATOM     55  H   UNL A   1      43.731  29.671  29.811  1.00  0.00     0.167 HD
ATOM     56  C   UNL A   1      41.695  26.190  28.150  1.00  0.00     0.034 A 
ATOM     57  C   UNL A   1      45.898  31.415  30.183  1.00  0.00     0.034 A 
ATOM     58  C   UNL A   1      43.006  26.219  27.542  1.00  0.00     0.049 A 
ATOM     59  C   UNL A   1      46.378  30.354  29.230  1.00  0.00     0.074 A 
ATOM     60  C   UNL A   1      43.526  25.348  26.599  1.00  0.00     0.029 A 
ATOM     61  N   UNL A   1      44.005  27.145  27.814  1.00  0.00    -0.354 N 
ATOM     62  N   UNL A   1      45.709  29.348  28.717  1.00  0.00    -0.248 NA
ATOM     63  C   UNL A   1      47.774  30.436  28.780  1.00  0.00     0.031 C 
ATOM     64  C   UNL A   1      44.860  25.684  26.377  1.00  0.00     0.029 A 
ATOM     65  C   UNL A   1      45.149  26.835  27.093  1.00  0.00     0.049 A 
ATOM     66  H   UNL A   1      43.914  27.909  28.429  1.00  0.00     0.167 HD
ATOM     67  C   UNL A   1      46.593  28.695  27.863  1.00  0.00     0.074 A 
ATOM     68  C   UNL A   1      47.835  29.437  27.908  1.00  0.00     0.031 C 
ATOM     69  C   UNL A   1      46.389  27.580  27.118  1.00  0.00     0.034 A 
BRANCH  56  70
ATOM     70  C   UNL A   1      40.781  25.050  27.755  1.00  0.00     0.023 A 
ATOM     71  C   UNL A   1      41.249  23.721  27.808  1.00  0.00     0.031 A 
ATOM     72  C   UNL A   1      39.532  25.285  27.154  1.00  0.00     0.131 A 
ATOM     73  C   UNL A   1      40.501  22.692  27.223  1.00  0.00     0.055 A 
ATOM     74  C   UNL A   1      38.764  24.247  26.622  1.00  0.00     0.041 A 
ATOM     75  F   UNL A   1      39.041  26.533  27.065  1.00  0.00    -0.206 F 
ATOM     76  C   UNL A   1      39.257  22.947  26.639  1.00  0.00     0.022 A 
BRANCH  73  77
ATOM     77  S   UNL A   1      41.155  21.004  27.106  1.00  0.00     0.124 S 
ATOM     78  O   UNL A   1      40.738  20.433  28.386  1.00  0.00    -0.237 OA
ATOM     79  O   UNL A   1      40.455  20.485  25.935  1.00  0.00    -0.237 OA
ATOM     80  O   UNL A   1      42.593  21.194  26.951  1.00  0.00    -0.744 OA
ENDBRANCH  73  77
ENDBRANCH  56  70
BRANCH  57  81
ATOM     81  C   UNL A   1      46.772  32.543  30.624  1.00  0.00     0.023 A 
ATOM     82  C   UNL A   1      46.982  33.652  29.784  1.00  0.00     0.031 A 
ATOM     83  C   UNL A   1      47.504  32.470  31.819  1.00  0.00     0.131 A 
ATOM     84  C   UNL A   1      47.965  34.595  30.108  1.00  0.00     0.055 A 
ATOM     85  C   UNL A   1      48.420  33.460  32.182  1.00  0.00     0.041 A 
ATOM     86  F   UNL A   1      47.351  31.424  32.646  1.00  0.00    -0.206 F 
ATOM     87  C   UNL A   1      48.670  34.519  31.313  1.00  0.00     0.022 A 
BRANCH  84  88
ATOM     88  S   UNL A   1      48.467  35.857  28.906  1.00  0.00     0.124 S 
ATOM     89  O   UNL A   1      48.699  37.017  29.761  1.00  0.00    -0.237 OA
ATOM     90  O   UNL A   1      49.662  35.252  28.324  1.00  0.00    -0.237 OA
ATOM     91  O   UNL A   1      47.321  35.954  28.008  1.00  0.00    -0.744 OA
ENDBRANCH  84  88
ENDBRANCH  57  81
BRANCH  69  92
ATOM     92  C   UNL A   1      47.517  27.058  26.253  1.00  0.00     0.023 A 
ATOM     93  C   UNL A   1      48.615  26.410  26.851  1.00  0.00     0.031 A 
ATOM     94  C   UNL A   1      47.592  27.350  24.879  1.00  0.00     0.131 A 
ATOM     95  C   UNL A   1      49.762  26.133  26.096  1.00  0.00     0.055 A 
ATOM     96  C   UNL A   1      48.711  27.011  24.116  1.00  0.00     0.041 A 
ATOM     97  F   UNL A   1      46.580  27.979  24.259  1.00  0.00    -0.206 F 
ATOM     98  C   UNL A   1      49.810  26.418  24.729  1.00  0.00     0.022 A 
BRANCH  95  99
ATOM     99  S   UNL A   1      51.273  25.505  26.883  1.00  0.00     0.124 S 
ATOM    100  O   UNL A   1      50.734  24.744  28.008  1.00  0.00    -0.237 OA
ATOM    101  O   UNL A   1      51.863  24.704  25.815  1.00  0.00    -0.237 OA
ATOM    102  O   UNL A   1      52.009  26.712  27.246  1.00  0.00    -0.744 OA
ENDBRANCH  95  99
ENDBRANCH  69  92
ENDBRANCH  43  44
ENDBRANCH  36  38
ENDBRANCH  35  36
ENDBRANCH  34  35
ENDBRANCH  33  34
ENDBRANCH  32  33
ENDBRANCH  31  32
ENDBRANCH  30  31
ENDBRANCH  29  30
ENDBRANCH   1  29
TORSDOF 27
ENDMDL
MODEL 2
REMARK VINA RESULT:      -9.2      4.384      8.717
REMARK SMILES Cc1ccc(C#N)cc1S(=O)(=O)Nc1cccc(C(=O)OCCOCCOCCOCCOC(=O)c2ccc(-c3c4nc(c(-c5cc(S(=O)(=O)[O-])ccc5F)c5ccc([nH]5)c(-c5cc(S(=O)(=O)[O-])ccc5F)c5nc(c(-c6cc(S(=O)(=O)[O-])ccc6F)c6ccc3[nH]6)C=C5)C=C4)cc2)c1
REMARK SMILES IDX 26 1 25 2 24 3 23 4 22 5 21 6 19 7 20 8 18 9 14 10 15 11
REMARK SMILES IDX 99 12 16 13 17 14 13 15 10 17 11 18 12 19 9 20 1 21 2 22
REMARK SMILES IDX 3 23 4 24 8 25 5 26 6 27 7 28 27 29 28 30 29 31 30 32 31 33
REMARK SMILES IDX 32 34 33 35 34 36 35 37 36 38 37 39 98 40 38 41 97 42 39 43
REMARK SMILES IDX 40 44 41 45 91 46 42 47 96 48 90 49 92 50 43 51 95 52 89 53
REMARK SMILES IDX 88 54 44 56 76 57 56 58 75 59 57 60 60 61 74 62 93 63 58 64
REMARK SMILES IDX 59 65 73 67 94 68 61 69 45 70 46 71 54 72 47 73 53 74 55 75
REMARK SMILES IDX 52 76 48 77 49 78 50 79 51 80 77 81 78 82 86 83 79 84 85 85
REMARK SMILES IDX 87 86 84 87 80 88 81 89 82 90 83 91 62 92 63 93 71 94 64 95
REMARK SMILES IDX 70 96 72 97 69 98 65 99 66 100 67 101 68 102
REMARK H PARENT 13 16 92 55 60 66
REMARK Flexibility Score: inf
ROOT
ATOM      1  C   UNL A   1      30.161  24.877  26.805  1.00  0.00     0.188 C 
ENDROOT
BRANCH   1   2
ATOM      2  C   UNL A   1      31.137  23.751  26.418  1.00  0.00     0.188 C 
BRANCH   2   3
ATOM      3  O   UNL A   1      31.367  22.764  27.392  1.00  0.00    -0.376 OA
BRANCH   3   4
ATOM      4  C   UNL A   1      32.664  22.326  27.741  1.00  0.00     0.202 C 
BRANCH   4   5
ATOM      5  C   UNL A   1      33.659  21.653  26.779  1.00  0.00     0.261 C 
BRANCH   5   6
ATOM      6  O   UNL A   1      33.291  20.401  26.194  1.00  0.00    -0.460 OA
BRANCH   6   7
ATOM      7  C   UNL A   1      33.004  20.424  24.874  1.00  0.00     0.338 C 
ATOM      8  O   UNL A   1      32.333  19.603  24.271  1.00  0.00    -0.246 OA
BRANCH   7   9
ATOM      9  C   UNL A   1      33.467  21.703  24.268  1.00  0.00     0.062 A 
ATOM     10  C   UNL A   1      33.083  23.853  23.195  1.00  0.00     0.050 A 
ATOM     11  C   UNL A   1      34.461  24.018  23.042  1.00  0.00     0.027 A 
ATOM     12  C   UNL A   1      32.592  22.726  23.876  1.00  0.00     0.042 A 
ATOM     13  C   UNL A   1      35.332  22.989  23.414  1.00  0.00     0.003 A 
ATOM     14  C   UNL A   1      34.833  21.823  23.990  1.00  0.00     0.016 A 
BRANCH  10  15
ATOM     15  N   UNL A   1      32.121  24.629  22.490  1.00  0.00    -0.280 N 
ATOM     16  H   UNL A   1      31.185  24.331  22.570  1.00  0.00     0.180 HD
BRANCH  15  17
ATOM     17  S   UNL A   1      32.376  25.974  21.546  1.00  0.00     0.262 S 
ATOM     18  O   UNL A   1      31.608  25.836  20.325  1.00  0.00    -0.201 OA
ATOM     19  O   UNL A   1      33.818  26.114  21.491  1.00  0.00    -0.201 OA
BRANCH  17  20
ATOM     20  C   UNL A   1      31.798  27.498  22.312  1.00  0.00     0.092 A 
ATOM     21  C   UNL A   1      34.025  28.726  22.821  1.00  0.00     0.046 C 
ATOM     22  C   UNL A   1      32.551  28.517  22.917  1.00  0.00    -0.030 A 
ATOM     23  C   UNL A   1      31.875  29.490  23.689  1.00  0.00     0.006 A 
ATOM     24  C   UNL A   1      30.487  29.538  23.752  1.00  0.00     0.020 A 
ATOM     25  C   UNL A   1      30.386  27.593  22.338  1.00  0.00     0.042 A 
ATOM     26  C   UNL A   1      29.734  28.616  23.034  1.00  0.00     0.053 A 
BRANCH  26  27
ATOM     27  C   UNL A   1      28.308  28.721  23.031  1.00  0.00     0.099 C 
ATOM     28  N   UNL A   1      27.146  28.803  22.988  1.00  0.00    -0.192 NA
ENDBRANCH  26  27
ENDBRANCH  17  20
ENDBRANCH  15  17
ENDBRANCH  10  15
ENDBRANCH   7   9
ENDBRANCH   6   7
ENDBRANCH   5   6
ENDBRANCH   4   5
ENDBRANCH   3   4
ENDBRANCH   2   3
ENDBRANCH   1   2
BRANCH   1  29
ATOM     29  O   UNL A   1      30.218  26.148  26.187  1.00  0.00    -0.377 OA
BRANCH  29  30
ATOM     30  C   UNL A   1      31.464  26.754  25.866  1.00  0.00     0.188 C 
BRANCH  30  31
ATOM     31  C   UNL A   1      32.381  27.390  26.936  1.00  0.00     0.188 C 
BRANCH  31  32
ATOM     32  O   UNL A   1      31.767  28.406  27.698  1.00  0.00    -0.376 OA
BRANCH  32  33
ATOM     33  C   UNL A   1      31.395  29.626  27.098  1.00  0.00     0.202 C 
BRANCH  33  34
ATOM     34  C   UNL A   1      32.375  30.802  26.987  1.00  0.00     0.261 C 
BRANCH  34  35
ATOM     35  O   UNL A   1      33.564  30.756  27.778  1.00  0.00    -0.460 OA
BRANCH  35  36
ATOM     36  C   UNL A   1      34.269  31.904  27.918  1.00  0.00     0.338 C 
ATOM     37  O   UNL A   1      33.845  33.038  27.801  1.00  0.00    -0.246 OA
BRANCH  36  38
ATOM     38  C   UNL A   1      35.602  31.519  28.439  1.00  0.00     0.060 A 
ATOM     39  C   UNL A   1      36.637  32.454  28.449  1.00  0.00     0.016 A 
ATOM     40  C   UNL A   1      35.836  30.197  28.844  1.00  0.00     0.016 A 
ATOM     41  C   UNL A   1      37.908  32.068  28.881  1.00  0.00     0.010 A 
ATOM     42  C   UNL A   1      37.114  29.811  29.267  1.00  0.00     0.010 A 
ATOM     43  C   UNL A   1      38.154  30.750  29.310  1.00  0.00    -0.014 A 
BRANCH  43  44
ATOM     44  C   UNL A   1      39.439  30.432  29.985  1.00  0.00     0.031 A 
ATOM     45  C   UNL A   1      39.768  30.906  31.368  1.00  0.00     0.074 A 
ATOM     46  C   UNL A   1      40.328  29.683  29.302  1.00  0.00     0.049 A 
ATOM     47  N   UNL A   1      40.809  30.612  32.105  1.00  0.00    -0.248 NA
ATOM     48  C   UNL A   1      38.823  31.834  32.006  1.00  0.00     0.031 C 
ATOM     49  C   UNL A   1      40.127  29.210  27.932  1.00  0.00     0.029 A 
ATOM     50  N   UNL A   1      41.555  29.180  29.654  1.00  0.00    -0.354 N 
ATOM     51  C   UNL A   1      40.643  31.299  33.301  1.00  0.00     0.074 A 
ATOM     52  C   UNL A   1      39.421  32.068  33.168  1.00  0.00     0.031 C 
ATOM     53  C   UNL A   1      41.170  28.450  27.575  1.00  0.00     0.029 A 
ATOM     54  C   UNL A   1      42.140  28.421  28.666  1.00  0.00     0.049 A 
ATOM     55  H   UNL A   1      41.976  29.345  30.528  1.00  0.00     0.167 HD
ATOM     56  C   UNL A   1      41.430  31.269  34.405  1.00  0.00     0.034 A 
ATOM     57  C   UNL A   1      43.322  27.771  28.634  1.00  0.00     0.034 A 
ATOM     58  C   UNL A   1      42.649  30.498  34.504  1.00  0.00     0.049 A 
ATOM     59  C   UNL A   1      44.186  27.769  29.866  1.00  0.00     0.074 A 
ATOM     60  C   UNL A   1      43.478  30.356  35.604  1.00  0.00     0.029 A 
ATOM     61  N   UNL A   1      43.221  29.751  33.483  1.00  0.00    -0.354 N 
ATOM     62  N   UNL A   1      43.955  28.325  31.033  1.00  0.00    -0.248 NA
ATOM     63  C   UNL A   1      45.460  27.041  29.793  1.00  0.00     0.031 C 
ATOM     64  C   UNL A   1      44.594  29.614  35.221  1.00  0.00     0.029 A 
ATOM     65  C   UNL A   1      44.415  29.191  33.914  1.00  0.00     0.049 A 
ATOM     66  H   UNL A   1      42.837  29.638  32.583  1.00  0.00     0.167 HD
ATOM     67  C   UNL A   1      45.039  27.990  31.840  1.00  0.00     0.074 A 
ATOM     68  C   UNL A   1      45.911  27.161  31.036  1.00  0.00     0.031 C 
ATOM     69  C   UNL A   1      45.284  28.346  33.125  1.00  0.00     0.034 A 
BRANCH  56  70
ATOM     70  C   UNL A   1      41.019  32.062  35.625  1.00  0.00     0.023 A 
ATOM     71  C   UNL A   1      39.840  31.724  36.322  1.00  0.00     0.031 A 
ATOM     72  C   UNL A   1      41.677  33.252  35.984  1.00  0.00     0.131 A 
ATOM     73  C   UNL A   1      39.330  32.591  37.297  1.00  0.00     0.055 A 
ATOM     74  C   UNL A   1      41.194  34.085  36.995  1.00  0.00     0.041 A 
ATOM     75  F   UNL A   1      42.798  33.630  35.347  1.00  0.00    -0.206 F 
ATOM     76  C   UNL A   1      40.006  33.764  37.644  1.00  0.00     0.022 A 
BRANCH  73  77
ATOM     77  S   UNL A   1      37.722  32.283  38.079  1.00  0.00     0.124 S 
ATOM     78  O   UNL A   1      36.838  33.137  37.289  1.00  0.00    -0.237 OA
ATOM     79  O   UNL A   1      37.552  30.848  37.870  1.00  0.00    -0.237 OA
ATOM     80  O   UNL A   1      37.918  32.702  39.462  1.00  0.00    -0.744 OA
ENDBRANCH  73  77
ENDBRANCH  56  70
BRANCH  57  81
ATOM     81  C   UNL A   1      43.699  27.027  27.397  1.00  0.00     0.023 A 
ATOM     82  C   UNL A   1      43.198  25.733  27.162  1.00  0.00     0.031 A 
ATOM     83  C   UNL A   1      44.657  27.536  26.506  1.00  0.00     0.131 A 
ATOM     84  C   UNL A   1      43.722  24.961  26.117  1.00  0.00     0.055 A 
ATOM     85  C   UNL A   1      45.112  26.796  25.412  1.00  0.00     0.041 A 
ATOM     86  F   UNL A   1      45.177  28.759  26.696  1.00  0.00    -0.206 F 
ATOM     87  C   UNL A   1      44.659  25.492  25.226  1.00  0.00     0.022 A 
BRANCH  84  88
ATOM     88  S   UNL A   1      43.318  23.198  25.979  1.00  0.00     0.124 S 
ATOM     89  O   UNL A   1      44.489  22.570  26.583  1.00  0.00    -0.237 OA
ATOM     90  O   UNL A   1      42.085  23.116  26.758  1.00  0.00    -0.237 OA
ATOM     91  O   UNL A   1      43.161  22.991  24.544  1.00  0.00    -0.744 OA
ENDBRANCH  84  88
ENDBRANCH  57  81
BRANCH  69  92
ATOM     92  C   UNL A   1      46.545  27.846  33.797  1.00  0.00     0.023 A 
ATOM     93  C   UNL A   1      46.498  26.687  34.598  1.00  0.00     0.031 A 
ATOM     94  C   UNL A   1      47.734  28.596  33.791  1.00  0.00     0.131 A 
ATOM     95  C   UNL A   1      47.592  26.349  35.406  1.00  0.00     0.055 A 
ATOM     96  C   UNL A   1      48.846  28.217  34.546  1.00  0.00     0.041 A 
ATOM     97  F   UNL A   1      47.831  29.717  33.057  1.00  0.00    -0.206 F 
ATOM     98  C   UNL A   1      48.771  27.100  35.373  1.00  0.00     0.022 A 
BRANCH  95  99
ATOM     99  S   UNL A   1      47.483  24.997  36.611  1.00  0.00     0.124 S 
ATOM    100  O   UNL A   1      46.047  24.730  36.638  1.00  0.00    -0.237 OA
ATOM    101  O   UNL A   1      48.298  23.961  35.983  1.00  0.00    -0.237 OA
ATOM    102  O   UNL A   1      48.031  25.572  37.836  1.00  0.00    -0.744 OA
ENDBRANCH  95  99
ENDBRANCH  69  92
ENDBRANCH  43  44
ENDBRANCH  36  38
ENDBRANCH  35  36
ENDBRANCH  34  35
ENDBRANCH  33  34
ENDBRANCH  32  33
ENDBRANCH  31  32
ENDBRANCH  30  31
ENDBRANCH  29  30
ENDBRANCH   1  29
TORSDOF 27
ENDMDL
MODEL 3
REMARK VINA RESULT:      -9.0      4.005      7.871
REMARK SMILES Cc1ccc(C#N)cc1S(=O)(=O)Nc1cccc(C(=O)OCCOCCOCCOCCOC(=O)c2ccc(-c3c4nc(c(-c5cc(S(=O)(=O)[O-])ccc5F)c5ccc([nH]5)c(-c5cc(S(=O)(=O)[O-])ccc5F)c5nc(c(-c6cc(S(=O)(=O)[O-])ccc6F)c6ccc3[nH]6)C=C5)C=C4)cc2)c1
REMARK SMILES IDX 26 1 25 2 24 3 23 4 22 5 21 6 19 7 20 8 18 9 14 10 15 11
REMARK SMILES IDX 99 12 16 13 17 14 13 15 10 17 11 18 12 19 9 20 1 21 2 22
REMARK SMILES IDX 3 23 4 24 8 25 5 26 6 27 7 28 27 29 28 30 29 31 30 32 31 33
REMARK SMILES IDX 32 34 33 35 34 36 35 37 36 38 37 39 98 40 38 41 97 42 39 43
REMARK SMILES IDX 40 44 41 45 91 46 42 47 96 48 90 49 92 50 43 51 95 52 89 53
REMARK SMILES IDX 88 54 44 56 76 57 56 58 75 59 57 60 60 61 74 62 93 63 58 64
REMARK SMILES IDX 59 65 73 67 94 68 61 69 45 70 46 71 54 72 47 73 53 74 55 75
REMARK SMILES IDX 52 76 48 77 49 78 50 79 51 80 77 81 78 82 86 83 79 84 85 85
REMARK SMILES IDX 87 86 84 87 80 88 81 89 82 90 83 91 62 92 63 93 71 94 64 95
REMARK SMILES IDX 70 96 72 97 69 98 65 99 66 100 67 101 68 102
REMARK H PARENT 13 16 92 55 60 66
REMARK Flexibility Score: inf
ROOT
ATOM      1  C   UNL A   1      33.311  28.823  25.399  1.00  0.00     0.188 C 
ENDROOT
BRANCH   1   2
ATOM      2  C   UNL A   1      33.789  28.490  23.973  1.00  0.00     0.188 C 
BRANCH   2   3
ATOM      3  O   UNL A   1      32.972  27.620  23.230  1.00  0.00    -0.376 OA
BRANCH   3   4
ATOM      4  C   UNL A   1      31.776  28.044  22.609  1.00  0.00     0.202 C 
BRANCH   4   5
ATOM      5  C   UNL A   1      30.473  28.400  23.347  1.00  0.00     0.261 C 
BRANCH   5   6
ATOM      6  O   UNL A   1      30.129  27.642  24.510  1.00  0.00    -0.460 OA
BRANCH   6   7
ATOM      7  C   UNL A   1      29.579  26.428  24.286  1.00  0.00     0.338 C 
ATOM      8  O   UNL A   1      28.564  26.207  23.645  1.00  0.00    -0.246 OA
BRANCH   7   9
ATOM      9  C   UNL A   1      30.485  25.353  24.777  1.00  0.00     0.062 A 
ATOM     10  C   UNL A   1      31.846  23.360  24.465  1.00  0.00     0.050 A 
ATOM     11  C   UNL A   1      32.085  23.314  25.840  1.00  0.00     0.027 A 
ATOM     12  C   UNL A   1      31.104  24.425  23.928  1.00  0.00     0.042 A 
ATOM     13  C   UNL A   1      31.451  24.226  26.689  1.00  0.00     0.003 A 
ATOM     14  C   UNL A   1      30.626  25.218  26.162  1.00  0.00     0.016 A 
BRANCH  10  15
ATOM     15  N   UNL A   1      32.093  22.263  23.592  1.00  0.00    -0.280 N 
ATOM     16  H   UNL A   1      32.075  22.468  22.629  1.00  0.00     0.180 HD
BRANCH  15  17
ATOM     17  S   UNL A   1      32.407  20.681  23.992  1.00  0.00     0.262 S 
ATOM     18  O   UNL A   1      32.052  19.839  22.868  1.00  0.00    -0.201 OA
ATOM     19  O   UNL A   1      31.762  20.494  25.278  1.00  0.00    -0.201 OA
BRANCH  17  20
ATOM     20  C   UNL A   1      34.151  20.361  24.306  1.00  0.00     0.092 A 
ATOM     21  C   UNL A   1      34.272  17.778  24.110  1.00  0.00     0.046 C 
ATOM     22  C   UNL A   1      34.805  19.127  24.456  1.00  0.00    -0.030 A 
ATOM     23  C   UNL A   1      36.125  19.119  24.962  1.00  0.00     0.006 A 
ATOM     24  C   UNL A   1      36.831  20.297  25.184  1.00  0.00     0.020 A 
ATOM     25  C   UNL A   1      34.899  21.550  24.482  1.00  0.00     0.042 A 
ATOM     26  C   UNL A   1      36.234  21.519  24.898  1.00  0.00     0.053 A 
BRANCH  26  27
ATOM     27  C   UNL A   1      36.991  22.724  25.046  1.00  0.00     0.099 C 
ATOM     28  N   UNL A   1      37.610  23.697  25.208  1.00  0.00    -0.192 NA
ENDBRANCH  26  27
ENDBRANCH  17  20
ENDBRANCH  15  17
ENDBRANCH  10  15
ENDBRANCH   7   9
ENDBRANCH   6   7
ENDBRANCH   5   6
ENDBRANCH   4   5
ENDBRANCH   3   4
ENDBRANCH   2   3
ENDBRANCH   1   2
BRANCH   1  29
ATOM     29  O   UNL A   1      32.765  30.087  25.717  1.00  0.00    -0.377 OA
BRANCH  29  30
ATOM     30  C   UNL A   1      33.064  30.729  26.950  1.00  0.00     0.188 C 
BRANCH  30  31
ATOM     31  C   UNL A   1      34.474  30.695  27.586  1.00  0.00     0.188 C 
BRANCH  31  32
ATOM     32  O   UNL A   1      35.154  31.931  27.558  1.00  0.00    -0.376 OA
BRANCH  32  33
ATOM     33  C   UNL A   1      34.568  33.084  28.117  1.00  0.00     0.202 C 
BRANCH  33  34
ATOM     34  C   UNL A   1      34.303  33.203  29.624  1.00  0.00     0.261 C 
BRANCH  34  35
ATOM     35  O   UNL A   1      34.699  32.112  30.459  1.00  0.00    -0.460 OA
BRANCH  35  36
ATOM     36  C   UNL A   1      35.307  32.410  31.633  1.00  0.00     0.338 C 
ATOM     37  O   UNL A   1      34.797  32.935  32.604  1.00  0.00    -0.246 OA
BRANCH  36  38
ATOM     38  C   UNL A   1      36.651  31.788  31.581  1.00  0.00     0.060 A 
ATOM     39  C   UNL A   1      37.624  32.312  30.729  1.00  0.00     0.016 A 
ATOM     40  C   UNL A   1      36.912  30.629  32.327  1.00  0.00     0.016 A 
ATOM     41  C   UNL A   1      38.867  31.683  30.636  1.00  0.00     0.010 A 
ATOM     42  C   UNL A   1      38.156  29.995  32.223  1.00  0.00     0.010 A 
ATOM     43  C   UNL A   1      39.151  30.531  31.394  1.00  0.00    -0.014 A 
BRANCH  43  44
ATOM     44  C   UNL A   1      40.548  30.027  31.457  1.00  0.00     0.031 A 
ATOM     45  C   UNL A   1      41.531  30.492  32.489  1.00  0.00     0.074 A 
ATOM     46  C   UNL A   1      40.919  29.115  30.538  1.00  0.00     0.049 A 
ATOM     47  N   UNL A   1      42.744  30.055  32.713  1.00  0.00    -0.248 NA
ATOM     48  C   UNL A   1      41.113  31.588  33.374  1.00  0.00     0.031 C 
ATOM     49  C   UNL A   1      40.054  28.631  29.461  1.00  0.00     0.029 A 
ATOM     50  N   UNL A   1      42.092  28.426  30.360  1.00  0.00    -0.354 N 
ATOM     51  C   UNL A   1      43.234  30.805  33.775  1.00  0.00     0.074 A 
ATOM     52  C   UNL A   1      42.201  31.762  34.116  1.00  0.00     0.031 C 
ATOM     53  C   UNL A   1      40.708  27.694  28.763  1.00  0.00     0.029 A 
ATOM     54  C   UNL A   1      42.056  27.544  29.305  1.00  0.00     0.049 A 
ATOM     55  H   UNL A   1      42.883  28.552  30.932  1.00  0.00     0.167 HD
ATOM     56  C   UNL A   1      44.426  30.684  34.410  1.00  0.00     0.034 A 
ATOM     57  C   UNL A   1      42.995  26.704  28.822  1.00  0.00     0.034 A 
ATOM     58  C   UNL A   1      45.443  29.724  34.041  1.00  0.00     0.049 A 
ATOM     59  C   UNL A   1      44.317  26.603  29.534  1.00  0.00     0.074 A 
ATOM     60  C   UNL A   1      46.655  29.487  34.666  1.00  0.00     0.029 A 
ATOM     61  N   UNL A   1      45.381  28.854  32.960  1.00  0.00    -0.354 N 
ATOM     62  N   UNL A   1      44.720  27.234  30.613  1.00  0.00    -0.248 NA
ATOM     63  C   UNL A   1      45.308  25.670  28.982  1.00  0.00     0.031 C 
ATOM     64  C   UNL A   1      47.365  28.554  33.911  1.00  0.00     0.029 A 
ATOM     65  C   UNL A   1      46.554  28.118  32.875  1.00  0.00     0.049 A 
ATOM     66  H   UNL A   1      44.617  28.773  32.344  1.00  0.00     0.167 HD
ATOM     67  C   UNL A   1      45.997  26.752  30.885  1.00  0.00     0.074 A 
ATOM     68  C   UNL A   1      46.288  25.758  29.873  1.00  0.00     0.031 C 
ATOM     69  C   UNL A   1      46.847  27.110  31.880  1.00  0.00     0.034 A 
BRANCH  56  70
ATOM     70  C   UNL A   1      44.727  31.581  35.591  1.00  0.00     0.023 A 
ATOM     71  C   UNL A   1      44.241  31.247  36.872  1.00  0.00     0.031 A 
ATOM     72  C   UNL A   1      45.322  32.844  35.421  1.00  0.00     0.131 A 
ATOM     73  C   UNL A   1      44.308  32.182  37.912  1.00  0.00     0.055 A 
ATOM     74  C   UNL A   1      45.437  33.751  36.476  1.00  0.00     0.041 A 
ATOM     75  F   UNL A   1      45.793  33.221  34.221  1.00  0.00    -0.206 F 
ATOM     76  C   UNL A   1      44.912  33.428  37.723  1.00  0.00     0.022 A 
BRANCH  73  77
ATOM     77  S   UNL A   1      43.526  31.859  39.517  1.00  0.00     0.124 S 
ATOM     78  O   UNL A   1      42.115  31.765  39.148  1.00  0.00    -0.237 OA
ATOM     79  O   UNL A   1      44.152  30.601  39.913  1.00  0.00    -0.237 OA
ATOM     80  O   UNL A   1      43.880  33.023  40.321  1.00  0.00    -0.744 OA
ENDBRANCH  73  77
ENDBRANCH  56  70
BRANCH  57  81
ATOM     81  C   UNL A   1      42.664  25.861  27.636  1.00  0.00     0.023 A 
ATOM     82  C   UNL A   1      42.136  24.567  27.805  1.00  0.00     0.031 A 
ATOM     83  C   UNL A   1      42.987  26.277  26.335  1.00  0.00     0.131 A 
ATOM     84  C   UNL A   1      42.032  23.707  26.705  1.00  0.00     0.055 A 
ATOM     85  C   UNL A   1      42.798  25.446  25.228  1.00  0.00     0.041 A 
ATOM     86  F   UNL A   1      43.508  27.496  26.124  1.00  0.00    -0.206 F 
ATOM     87  C   UNL A   1      42.338  24.146  25.414  1.00  0.00     0.022 A 
BRANCH  84  88
ATOM     88  S   UNL A   1      41.647  21.950  26.940  1.00  0.00     0.124 S 
ATOM     89  O   UNL A   1      40.188  21.964  27.002  1.00  0.00    -0.237 OA
ATOM     90  O   UNL A   1      42.223  21.358  25.734  1.00  0.00    -0.237 OA
ATOM     91  O   UNL A   1      42.328  21.610  28.183  1.00  0.00    -0.744 OA
ENDBRANCH  84  88
ENDBRANCH  57  81
BRANCH  69  92
ATOM     92  C   UNL A   1      48.197  26.431  31.972  1.00  0.00     0.023 A 
ATOM     93  C   UNL A   1      48.392  25.384  32.894  1.00  0.00     0.031 A 
ATOM     94  C   UNL A   1      49.321  26.923  31.286  1.00  0.00     0.131 A 
ATOM     95  C   UNL A   1      49.684  24.909  33.152  1.00  0.00     0.055 A 
ATOM     96  C   UNL A   1      50.599  26.400  31.497  1.00  0.00     0.041 A 
ATOM     97  F   UNL A   1      49.197  27.930  30.405  1.00  0.00    -0.206 F 
ATOM     98  C   UNL A   1      50.787  25.402  32.449  1.00  0.00     0.022 A 
BRANCH  95  99
ATOM     99  S   UNL A   1      49.996  23.722  34.490  1.00  0.00     0.124 S 
ATOM    100  O   UNL A   1      49.846  24.559  35.678  1.00  0.00    -0.237 OA
ATOM    101  O   UNL A   1      48.936  22.740  34.281  1.00  0.00    -0.237 OA
ATOM    102  O   UNL A   1      51.352  23.249  34.232  1.00  0.00    -0.744 OA
ENDBRANCH  95  99
ENDBRANCH  69  92
ENDBRANCH  43  44
ENDBRANCH  36  38
ENDBRANCH  35  36
ENDBRANCH  34  35
ENDBRANCH  33  34
ENDBRANCH  32  33
ENDBRANCH  31  32
ENDBRANCH  30  31
ENDBRANCH  29  30
ENDBRANCH   1  29
TORSDOF 27
ENDMDL
