MODEL 1
REMARK VINA RESULT:     -10.8      0.000      0.000
REMARK SMILES Cc1c(NCc2ccccn2)cccc1C(=O)N1CCOC[C@@H]1CC(=O)OCCOCCOCCOCCOC(=O)c1ccc(-c2c3nc(c(-c4cc(S(=O)(=O)[O-])ccc4F)c4ccc([nH]4)c(-c4cc(S(=O)(=O)[O-])ccc4F)c4nc(c(-c5cc(S(=O)(=O)[O-])ccc5F)c5ccc2[nH]5)C=C4)C=C3)cc1
REMARK SMILES IDX 31 1 30 2 29 3 28 4 27 5 25 6 26 7 24 8 23 9 18 10 19 11
REMARK SMILES IDX 20 12 22 13 21 14 16 15 17 16 15 17 1 18 2 19 3 20 12 21
REMARK SMILES IDX 14 22 13 23 4 24 5 26 6 27 7 28 11 29 8 30 10 31 9 32 32 33
REMARK SMILES IDX 33 34 34 35 35 36 36 37 37 38 38 39 39 40 40 41 41 42 42 43
REMARK SMILES IDX 43 44 104 45 44 46 103 47 45 48 46 49 47 50 97 51 48 52
REMARK SMILES IDX 102 53 96 54 98 55 49 56 101 57 95 58 94 59 50 61 82 62
REMARK SMILES IDX 62 63 81 64 63 65 66 66 80 67 99 68 64 69 65 70 79 72 100 73
REMARK SMILES IDX 67 74 51 75 52 76 60 77 53 78 59 79 61 80 58 81 54 82 55 83
REMARK SMILES IDX 56 84 57 85 83 86 84 87 92 88 85 89 91 90 93 91 90 92 86 93
REMARK SMILES IDX 87 94 88 95 89 96 68 97 69 98 77 99 70 100 76 101 78 102
REMARK SMILES IDX 75 103 71 104 72 105 73 106 74 107
REMARK H PARENT 4 25 98 60 66 71
REMARK Flexibility Score: inf
ROOT
ATOM      1  C   UNL A   1      41.552  21.333  27.053  1.00  0.00     0.188 C 
ENDROOT
BRANCH   1   2
ATOM      2  O   UNL A   1      40.665  21.970  26.163  1.00  0.00    -0.376 OA
BRANCH   2   3
ATOM      3  C   UNL A   1      39.346  22.122  26.573  1.00  0.00     0.202 C 
BRANCH   3   4
ATOM      4  C   UNL A   1      38.222  22.178  25.604  1.00  0.00     0.261 C 
BRANCH   4   5
ATOM      5  O   UNL A   1      37.848  23.452  25.212  1.00  0.00    -0.463 OA
BRANCH   5   6
ATOM      6  C   UNL A   1      36.553  23.650  24.993  1.00  0.00     0.308 C 
ATOM      7  O   UNL A   1      35.810  24.382  25.629  1.00  0.00    -0.252 OA
BRANCH   6   8
ATOM      8  C   UNL A   1      36.080  22.649  24.021  1.00  0.00     0.150 C 
BRANCH   8   9
ATOM      9  C   UNL A   1      34.645  22.149  24.232  1.00  0.00     0.122 C 
ATOM     10  N   UNL A   1      33.385  23.035  24.043  1.00  0.00    -0.330 N 
ATOM     11  C   UNL A   1      32.219  22.140  24.194  1.00  0.00     0.148 C 
ATOM     12  C   UNL A   1      32.243  21.365  25.535  1.00  0.00     0.181 C 
ATOM     13  C   UNL A   1      34.592  21.393  25.592  1.00  0.00     0.185 C 
ATOM     14  O   UNL A   1      33.428  20.570  25.695  1.00  0.00    -0.377 OA
BRANCH  10  15
ATOM     15  C   UNL A   1      33.380  24.118  23.041  1.00  0.00     0.254 C 
ATOM     16  O   UNL A   1      34.124  23.817  22.096  1.00  0.00    -0.269 OA
BRANCH  15  17
ATOM     17  C   UNL A   1      32.576  25.757  23.148  1.00  0.00     0.045 A 
ATOM     18  C   UNL A   1      32.836  25.571  26.041  1.00  0.00     0.047 C 
ATOM     19  C   UNL A   1      32.774  26.459  24.820  1.00  0.00    -0.015 A 
ATOM     20  C   UNL A   1      31.933  27.973  25.239  1.00  0.00     0.038 A 
ATOM     21  C   UNL A   1      30.797  28.806  24.151  1.00  0.00     0.026 A 
ATOM     22  C   UNL A   1      31.258  26.757  21.945  1.00  0.00     0.014 A 
ATOM     23  C   UNL A   1      30.426  28.242  22.539  1.00  0.00     0.003 A 
BRANCH  20  24
ATOM     24  N   UNL A   1      32.361  28.608  26.410  1.00  0.00    -0.379 N 
ATOM     25  H   UNL A   1      32.379  28.094  27.248  1.00  0.00     0.160 HD
BRANCH  24  26
ATOM     26  C   UNL A   1      32.780  29.994  26.434  1.00  0.00     0.169 C 
BRANCH  26  27
ATOM     27  C   UNL A   1      34.064  30.220  27.195  1.00  0.00     0.059 A 
ATOM     28  C   UNL A   1      35.100  29.280  27.190  1.00  0.00     0.026 A 
ATOM     29  N   UNL A   1      34.130  31.355  27.935  1.00  0.00    -0.259 NA
ATOM     30  C   UNL A   1      36.194  29.458  28.016  1.00  0.00     0.004 A 
ATOM     31  C   UNL A   1      35.230  31.523  28.695  1.00  0.00     0.111 A 
ATOM     32  C   UNL A   1      36.266  30.607  28.783  1.00  0.00     0.020 A 
ENDBRANCH  26  27
ENDBRANCH  24  26
ENDBRANCH  20  24
ENDBRANCH  15  17
ENDBRANCH  10  15
ENDBRANCH   8   9
ENDBRANCH   6   8
ENDBRANCH   5   6
ENDBRANCH   4   5
ENDBRANCH   3   4
ENDBRANCH   2   3
ENDBRANCH   1   2
BRANCH   1  33
ATOM     33  C   UNL A   1      41.357  19.856  27.446  1.00  0.00     0.188 C 
BRANCH  33  34
ATOM     34  O   UNL A   1      42.477  19.005  27.361  1.00  0.00    -0.377 OA
BRANCH  34  35
ATOM     35  C   UNL A   1      42.788  18.284  26.185  1.00  0.00     0.188 C 
BRANCH  35  36
ATOM     36  C   UNL A   1      43.850  18.808  25.299  1.00  0.00     0.188 C 
BRANCH  36  37
ATOM     37  O   UNL A   1      45.023  18.051  25.426  1.00  0.00    -0.376 OA
BRANCH  37  38
ATOM     38  C   UNL A   1      46.092  18.937  25.620  1.00  0.00     0.202 C 
BRANCH  38  39
ATOM     39  C   UNL A   1      46.121  20.019  24.489  1.00  0.00     0.261 C 
BRANCH  39  40
ATOM     40  O   UNL A   1      45.827  21.410  24.989  1.00  0.00    -0.460 OA
BRANCH  40  41
ATOM     41  C   UNL A   1      44.822  22.161  24.389  1.00  0.00     0.338 C 
ATOM     42  O   UNL A   1      44.657  22.170  23.176  1.00  0.00    -0.246 OA
BRANCH  41  43
ATOM     43  C   UNL A   1      44.114  23.209  25.299  1.00  0.00     0.060 A 
ATOM     44  C   UNL A   1      43.112  24.089  24.803  1.00  0.00     0.016 A 
ATOM     45  C   UNL A   1      44.602  23.546  26.546  1.00  0.00     0.016 A 
ATOM     46  C   UNL A   1      42.773  25.371  25.403  1.00  0.00     0.010 A 
ATOM     47  C   UNL A   1      44.310  24.831  27.097  1.00  0.00     0.010 A 
ATOM     48  C   UNL A   1      43.431  25.825  26.545  1.00  0.00    -0.014 A 
BRANCH  48  49
ATOM     49  C   UNL A   1      43.535  27.311  27.112  1.00  0.00     0.031 A 
ATOM     50  C   UNL A   1      42.227  27.974  27.478  1.00  0.00     0.074 A 
ATOM     51  C   UNL A   1      44.639  27.952  27.706  1.00  0.00     0.049 A 
ATOM     52  N   UNL A   1      42.105  29.213  27.831  1.00  0.00    -0.248 NA
ATOM     53  C   UNL A   1      40.914  27.323  27.444  1.00  0.00     0.031 C 
ATOM     54  C   UNL A   1      44.587  28.785  28.939  1.00  0.00     0.029 A 
ATOM     55  N   UNL A   1      46.022  27.792  27.644  1.00  0.00    -0.354 N 
ATOM     56  C   UNL A   1      40.938  29.295  28.561  1.00  0.00     0.074 A 
ATOM     57  C   UNL A   1      40.138  28.222  28.054  1.00  0.00     0.031 C 
ATOM     58  C   UNL A   1      45.802  29.187  29.364  1.00  0.00     0.029 A 
ATOM     59  C   UNL A   1      46.819  28.671  28.448  1.00  0.00     0.049 A 
ATOM     60  H   UNL A   1      46.433  27.104  27.073  1.00  0.00     0.167 HD
ATOM     61  C   UNL A   1      40.862  30.109  29.657  1.00  0.00     0.034 A 
ATOM     62  C   UNL A   1      48.091  29.234  28.264  1.00  0.00     0.034 A 
ATOM     63  C   UNL A   1      42.124  30.857  29.895  1.00  0.00     0.049 A 
ATOM     64  C   UNL A   1      47.650  30.682  27.888  1.00  0.00     0.074 A 
ATOM     65  C   UNL A   1      42.950  31.058  30.995  1.00  0.00     0.029 A 
ATOM     66  N   UNL A   1      42.834  31.387  28.815  1.00  0.00    -0.354 N 
ATOM     67  N   UNL A   1      46.367  30.944  27.842  1.00  0.00    -0.248 NA
ATOM     68  C   UNL A   1      48.395  31.919  27.628  1.00  0.00     0.031 C 
ATOM     69  C   UNL A   1      44.125  31.746  30.558  1.00  0.00     0.029 A 
ATOM     70  C   UNL A   1      44.046  31.931  29.185  1.00  0.00     0.049 A 
ATOM     71  H   UNL A   1      42.503  31.375  27.888  1.00  0.00     0.167 HD
ATOM     72  C   UNL A   1      46.110  32.253  27.914  1.00  0.00     0.074 A 
ATOM     73  C   UNL A   1      47.397  32.843  27.586  1.00  0.00     0.031 C 
ATOM     74  C   UNL A   1      44.843  32.670  28.204  1.00  0.00     0.034 A 
BRANCH  61  75
ATOM     75  C   UNL A   1      39.694  30.169  30.647  1.00  0.00     0.023 A 
ATOM     76  C   UNL A   1      39.176  31.442  30.957  1.00  0.00     0.031 A 
ATOM     77  C   UNL A   1      39.023  29.104  31.295  1.00  0.00     0.131 A 
ATOM     78  C   UNL A   1      38.069  31.626  31.804  1.00  0.00     0.055 A 
ATOM     79  C   UNL A   1      37.883  29.281  32.101  1.00  0.00     0.041 A 
ATOM     80  F   UNL A   1      39.427  27.833  31.232  1.00  0.00    -0.206 F 
ATOM     81  C   UNL A   1      37.392  30.548  32.354  1.00  0.00     0.022 A 
BRANCH  78  82
ATOM     82  S   UNL A   1      37.513  33.315  32.138  1.00  0.00     0.124 S 
ATOM     83  O   UNL A   1      36.508  33.103  33.174  1.00  0.00    -0.237 OA
ATOM     84  O   UNL A   1      38.746  33.973  32.556  1.00  0.00    -0.237 OA
ATOM     85  O   UNL A   1      36.988  33.758  30.848  1.00  0.00    -0.744 OA
ENDBRANCH  78  82
ENDBRANCH  61  75
BRANCH  62  86
ATOM     86  C   UNL A   1      49.183  28.339  27.558  1.00  0.00     0.023 A 
ATOM     87  C   UNL A   1      49.676  28.069  25.799  1.00  0.00     0.031 A 
ATOM     88  C   UNL A   1      50.356  28.362  28.792  1.00  0.00     0.131 A 
ATOM     89  C   UNL A   1      51.410  27.897  25.253  1.00  0.00     0.055 A 
ATOM     90  C   UNL A   1      52.025  28.395  28.409  1.00  0.00     0.041 A 
ATOM     91  F   UNL A   1      50.014  28.131  30.071  1.00  0.00    -0.206 F 
ATOM     92  C   UNL A   1      52.679  28.048  26.535  1.00  0.00     0.022 A 
BRANCH  89  93
ATOM     93  S   UNL A   1      52.086  27.965  23.587  1.00  0.00     0.124 S 
ATOM     94  O   UNL A   1      52.381  26.568  23.296  1.00  0.00    -0.237 OA
ATOM     95  O   UNL A   1      51.020  28.583  22.813  1.00  0.00    -0.237 OA
ATOM     96  O   UNL A   1      53.270  28.815  23.752  1.00  0.00    -0.744 OA
ENDBRANCH  89  93
ENDBRANCH  62  86
BRANCH  74  97
ATOM     97  C   UNL A   1      44.265  33.892  27.602  1.00  0.00     0.023 A 
ATOM     98  C   UNL A   1      44.380  35.101  28.272  1.00  0.00     0.031 A 
ATOM     99  C   UNL A   1      43.685  33.917  26.318  1.00  0.00     0.131 A 
ATOM    100  C   UNL A   1      43.703  36.217  27.805  1.00  0.00     0.055 A 
ATOM    101  C   UNL A   1      43.152  35.078  25.773  1.00  0.00     0.041 A 
ATOM    102  F   UNL A   1      43.611  32.831  25.535  1.00  0.00    -0.206 F 
ATOM    103  C   UNL A   1      43.103  36.227  26.548  1.00  0.00     0.022 A 
BRANCH 100 104
ATOM    104  S   UNL A   1      43.456  37.532  29.006  1.00  0.00     0.124 S 
ATOM    105  O   UNL A   1      42.205  38.126  28.538  1.00  0.00    -0.237 OA
ATOM    106  O   UNL A   1      43.370  36.801  30.267  1.00  0.00    -0.237 OA
ATOM    107  O   UNL A   1      44.642  38.367  28.842  1.00  0.00    -0.744 OA
ENDBRANCH 100 104
ENDBRANCH  74  97
ENDBRANCH  48  49
ENDBRANCH  41  43
ENDBRANCH  40  41
ENDBRANCH  39  40
ENDBRANCH  38  39
ENDBRANCH  37  38
ENDBRANCH  36  37
ENDBRANCH  35  36
ENDBRANCH  34  35
ENDBRANCH  33  34
ENDBRANCH   1  33
TORSDOF 29
ENDMDL
MODEL 2
REMARK VINA RESULT:     -10.6      5.594      6.873
REMARK SMILES Cc1c(NCc2ccccn2)cccc1C(=O)N1CCOC[C@@H]1CC(=O)OCCOCCOCCOCCOC(=O)c1ccc(-c2c3nc(c(-c4cc(S(=O)(=O)[O-])ccc4F)c4ccc([nH]4)c(-c4cc(S(=O)(=O)[O-])ccc4F)c4nc(c(-c5cc(S(=O)(=O)[O-])ccc5F)c5ccc2[nH]5)C=C4)C=C3)cc1
REMARK SMILES IDX 31 1 30 2 29 3 28 4 27 5 25 6 26 7 24 8 23 9 18 10 19 11
REMARK SMILES IDX 20 12 22 13 21 14 16 15 17 16 15 17 1 18 2 19 3 20 12 21
REMARK SMILES IDX 14 22 13 23 4 24 5 26 6 27 7 28 11 29 8 30 10 31 9 32 32 33
REMARK SMILES IDX 33 34 34 35 35 36 36 37 37 38 38 39 39 40 40 41 41 42 42 43
REMARK SMILES IDX 43 44 104 45 44 46 103 47 45 48 46 49 47 50 97 51 48 52
REMARK SMILES IDX 102 53 96 54 98 55 49 56 101 57 95 58 94 59 50 61 82 62
REMARK SMILES IDX 62 63 81 64 63 65 66 66 80 67 99 68 64 69 65 70 79 72 100 73
REMARK SMILES IDX 67 74 51 75 52 76 60 77 53 78 59 79 61 80 58 81 54 82 55 83
REMARK SMILES IDX 56 84 57 85 83 86 84 87 92 88 85 89 91 90 93 91 90 92 86 93
REMARK SMILES IDX 87 94 88 95 89 96 68 97 69 98 77 99 70 100 76 101 78 102
REMARK SMILES IDX 75 103 71 104 72 105 73 106 74 107
REMARK H PARENT 4 25 98 60 66 71
REMARK Flexibility Score: inf
ROOT
ATOM      1  C   UNL A   1      40.004  21.506  26.438  1.00  0.00     0.188 C 
ENDROOT
BRANCH   1   2
ATOM      2  O   UNL A   1      38.982  21.911  25.558  1.00  0.00    -0.376 OA
BRANCH   2   3
ATOM      3  C   UNL A   1      37.774  22.308  26.118  1.00  0.00     0.202 C 
BRANCH   3   4
ATOM      4  C   UNL A   1      37.320  23.721  26.092  1.00  0.00     0.261 C 
BRANCH   4   5
ATOM      5  O   UNL A   1      36.503  24.055  25.025  1.00  0.00    -0.463 OA
BRANCH   5   6
ATOM      6  C   UNL A   1      35.309  24.556  25.325  1.00  0.00     0.308 C 
ATOM      7  O   UNL A   1      34.916  25.688  25.092  1.00  0.00    -0.252 OA
BRANCH   6   8
ATOM      8  C   UNL A   1      34.614  23.616  26.221  1.00  0.00     0.150 C 
BRANCH   8   9
ATOM      9  C   UNL A   1      33.602  22.683  25.544  1.00  0.00     0.122 C 
ATOM     10  N   UNL A   1      32.081  22.690  25.850  1.00  0.00    -0.330 N 
ATOM     11  C   UNL A   1      31.456  21.760  24.888  1.00  0.00     0.148 C 
ATOM     12  C   UNL A   1      32.097  20.350  24.934  1.00  0.00     0.181 C 
ATOM     13  C   UNL A   1      34.171  21.235  25.595  1.00  0.00     0.185 C 
ATOM     14  O   UNL A   1      33.508  20.373  24.667  1.00  0.00    -0.377 OA
BRANCH  10  15
ATOM     15  C   UNL A   1      31.404  23.944  26.234  1.00  0.00     0.254 C 
ATOM     16  O   UNL A   1      30.962  23.845  27.388  1.00  0.00    -0.269 OA
BRANCH  15  17
ATOM     17  C   UNL A   1      31.065  25.411  25.196  1.00  0.00     0.045 A 
ATOM     18  C   UNL A   1      32.375  27.020  27.237  1.00  0.00     0.047 C 
ATOM     19  C   UNL A   1      32.034  26.843  25.775  1.00  0.00    -0.015 A 
ATOM     20  C   UNL A   1      31.756  28.443  25.042  1.00  0.00     0.038 A 
ATOM     21  C   UNL A   1      30.489  28.770  23.834  1.00  0.00     0.026 A 
ATOM     22  C   UNL A   1      29.625  25.849  23.810  1.00  0.00     0.014 A 
ATOM     23  C   UNL A   1      29.417  27.537  23.213  1.00  0.00     0.003 A 
BRANCH  20  24
ATOM     24  N   UNL A   1      32.724  29.417  25.308  1.00  0.00    -0.379 N 
ATOM     25  H   UNL A   1      33.545  29.430  24.765  1.00  0.00     0.160 HD
BRANCH  24  26
ATOM     26  C   UNL A   1      32.565  30.407  26.352  1.00  0.00     0.169 C 
BRANCH  26  27
ATOM     27  C   UNL A   1      33.792  30.570  27.217  1.00  0.00     0.059 A 
ATOM     28  C   UNL A   1      34.736  29.549  27.358  1.00  0.00     0.026 A 
ATOM     29  N   UNL A   1      33.893  31.739  27.898  1.00  0.00    -0.259 NA
ATOM     30  C   UNL A   1      35.764  29.684  28.272  1.00  0.00     0.004 A 
ATOM     31  C   UNL A   1      34.932  31.860  28.748  1.00  0.00     0.111 A 
ATOM     32  C   UNL A   1      35.870  30.867  28.981  1.00  0.00     0.020 A 
ENDBRANCH  26  27
ENDBRANCH  24  26
ENDBRANCH  20  24
ENDBRANCH  15  17
ENDBRANCH  10  15
ENDBRANCH   8   9
ENDBRANCH   6   8
ENDBRANCH   5   6
ENDBRANCH   4   5
ENDBRANCH   3   4
ENDBRANCH   2   3
ENDBRANCH   1   2
BRANCH   1  33
ATOM     33  C   UNL A   1      40.944  20.339  26.078  1.00  0.00     0.188 C 
BRANCH  33  34
ATOM     34  O   UNL A   1      41.798  19.854  27.089  1.00  0.00    -0.377 OA
BRANCH  34  35
ATOM     35  C   UNL A   1      42.798  18.888  26.831  1.00  0.00     0.188 C 
BRANCH  35  36
ATOM     36  C   UNL A   1      43.331  18.778  25.456  1.00  0.00     0.188 C 
BRANCH  36  37
ATOM     37  O   UNL A   1      44.724  18.931  25.449  1.00  0.00    -0.376 OA
BRANCH  37  38
ATOM     38  C   UNL A   1      45.045  19.923  24.510  1.00  0.00     0.202 C 
BRANCH  38  39
ATOM     39  C   UNL A   1      45.405  21.266  25.231  1.00  0.00     0.261 C 
BRANCH  39  40
ATOM     40  O   UNL A   1      44.326  22.311  25.113  1.00  0.00    -0.460 OA
BRANCH  40  41
ATOM     41  C   UNL A   1      44.496  23.550  25.721  1.00  0.00     0.338 C 
ATOM     42  O   UNL A   1      44.614  24.580  25.070  1.00  0.00    -0.246 OA
BRANCH  41  43
ATOM     43  C   UNL A   1      44.822  23.527  27.245  1.00  0.00     0.060 A 
ATOM     44  C   UNL A   1      43.978  22.882  28.191  1.00  0.00     0.016 A 
ATOM     45  C   UNL A   1      45.774  24.358  27.803  1.00  0.00     0.016 A 
ATOM     46  C   UNL A   1      43.921  23.218  29.606  1.00  0.00     0.010 A 
ATOM     47  C   UNL A   1      45.672  24.727  29.178  1.00  0.00     0.010 A 
ATOM     48  C   UNL A   1      44.725  24.226  30.137  1.00  0.00    -0.014 A 
BRANCH  48  49
ATOM     49  C   UNL A   1      44.544  25.033  31.500  1.00  0.00     0.031 A 
ATOM     50  C   UNL A   1      43.711  26.292  31.418  1.00  0.00     0.074 A 
ATOM     51  C   UNL A   1      44.677  24.570  32.822  1.00  0.00     0.049 A 
ATOM     52  N   UNL A   1      43.562  27.137  32.387  1.00  0.00    -0.248 NA
ATOM     53  C   UNL A   1      42.994  26.753  30.226  1.00  0.00     0.031 C 
ATOM     54  C   UNL A   1      43.737  24.870  33.936  1.00  0.00     0.029 A 
ATOM     55  N   UNL A   1      45.371  23.529  33.436  1.00  0.00    -0.354 N 
ATOM     56  C   UNL A   1      42.385  27.812  32.135  1.00  0.00     0.074 A 
ATOM     57  C   UNL A   1      42.249  27.749  30.712  1.00  0.00     0.031 C 
ATOM     58  C   UNL A   1      44.028  24.209  35.075  1.00  0.00     0.029 A 
ATOM     59  C   UNL A   1      45.217  23.387  34.854  1.00  0.00     0.049 A 
ATOM     60  H   UNL A   1      45.942  22.918  32.917  1.00  0.00     0.167 HD
ATOM     61  C   UNL A   1      41.548  28.149  33.162  1.00  0.00     0.034 A 
ATOM     62  C   UNL A   1      46.087  22.947  35.863  1.00  0.00     0.034 A 
ATOM     63  C   UNL A   1      42.082  27.739  34.487  1.00  0.00     0.049 A 
ATOM     64  C   UNL A   1      46.445  24.336  36.479  1.00  0.00     0.074 A 
ATOM     65  C   UNL A   1      41.571  27.040  35.573  1.00  0.00     0.029 A 
ATOM     66  N   UNL A   1      43.444  27.885  34.764  1.00  0.00    -0.354 N 
ATOM     67  N   UNL A   1      45.910  25.404  35.943  1.00  0.00    -0.248 NA
ATOM     68  C   UNL A   1      47.241  24.738  37.644  1.00  0.00     0.031 C 
ATOM     69  C   UNL A   1      42.632  26.815  36.506  1.00  0.00     0.029 A 
ATOM     70  C   UNL A   1      43.805  27.337  35.977  1.00  0.00     0.049 A 
ATOM     71  H   UNL A   1      44.077  28.333  34.159  1.00  0.00     0.167 HD
ATOM     72  C   UNL A   1      45.949  26.460  36.762  1.00  0.00     0.074 A 
ATOM     73  C   UNL A   1      46.954  26.065  37.733  1.00  0.00     0.031 C 
ATOM     74  C   UNL A   1      45.159  27.541  36.494  1.00  0.00     0.034 A 
BRANCH  61  75
ATOM     75  C   UNL A   1      40.144  28.744  33.011  1.00  0.00     0.023 A 
ATOM     76  C   UNL A   1      39.796  29.805  33.872  1.00  0.00     0.031 A 
ATOM     77  C   UNL A   1      39.124  28.394  32.094  1.00  0.00     0.131 A 
ATOM     78  C   UNL A   1      38.562  30.474  33.794  1.00  0.00     0.055 A 
ATOM     79  C   UNL A   1      37.909  29.096  31.977  1.00  0.00     0.041 A 
ATOM     80  F   UNL A   1      39.203  27.345  31.272  1.00  0.00    -0.206 F 
ATOM     81  C   UNL A   1      37.624  30.149  32.825  1.00  0.00     0.022 A 
BRANCH  78  82
ATOM     82  S   UNL A   1      38.231  31.806  34.971  1.00  0.00     0.124 S 
ATOM     83  O   UNL A   1      36.910  32.261  34.548  1.00  0.00    -0.237 OA
ATOM     84  O   UNL A   1      38.299  31.116  36.254  1.00  0.00    -0.237 OA
ATOM     85  O   UNL A   1      39.319  32.752  34.724  1.00  0.00    -0.744 OA
ENDBRANCH  78  82
ENDBRANCH  61  75
BRANCH  62  86
ATOM     86  C   UNL A   1      47.067  21.761  35.510  1.00  0.00     0.023 A 
ATOM     87  C   UNL A   1      48.555  21.610  34.427  1.00  0.00     0.031 A 
ATOM     88  C   UNL A   1      46.982  20.922  36.989  1.00  0.00     0.131 A 
ATOM     89  C   UNL A   1      50.039  20.648  34.884  1.00  0.00     0.055 A 
ATOM     90  C   UNL A   1      48.363  20.134  37.625  1.00  0.00     0.041 A 
ATOM     91  F   UNL A   1      45.798  20.671  37.571  1.00  0.00    -0.206 F 
ATOM     92  C   UNL A   1      50.018  19.854  36.510  1.00  0.00     0.022 A 
BRANCH  89  93
ATOM     93  S   UNL A   1      51.673  20.659  34.131  1.00  0.00     0.124 S 
ATOM     94  O   UNL A   1      51.399  21.066  32.759  1.00  0.00    -0.237 OA
ATOM     95  O   UNL A   1      52.420  21.599  34.954  1.00  0.00    -0.237 OA
ATOM     96  O   UNL A   1      52.107  19.266  34.277  1.00  0.00    -0.744 OA
ENDBRANCH  89  93
ENDBRANCH  62  86
BRANCH  74  97
ATOM     97  C   UNL A   1      45.606  28.924  36.773  1.00  0.00     0.023 A 
ATOM     98  C   UNL A   1      45.289  29.510  37.990  1.00  0.00     0.031 A 
ATOM     99  C   UNL A   1      46.438  29.655  35.900  1.00  0.00     0.131 A 
ATOM    100  C   UNL A   1      45.555  30.854  38.199  1.00  0.00     0.055 A 
ATOM    101  C   UNL A   1      46.847  30.950  36.186  1.00  0.00     0.041 A 
ATOM    102  F   UNL A   1      46.892  29.152  34.743  1.00  0.00    -0.206 F 
ATOM    103  C   UNL A   1      46.351  31.582  37.317  1.00  0.00     0.022 A 
BRANCH 100 104
ATOM    104  S   UNL A   1      44.625  31.630  39.528  1.00  0.00     0.124 S 
ATOM    105  O   UNL A   1      43.254  31.263  39.180  1.00  0.00    -0.237 OA
ATOM    106  O   UNL A   1      45.166  30.980  40.718  1.00  0.00    -0.237 OA
ATOM    107  O   UNL A   1      44.948  33.047  39.384  1.00  0.00    -0.744 OA
ENDBRANCH 100 104
ENDBRANCH  74  97
ENDBRANCH  48  49
ENDBRANCH  41  43
ENDBRANCH  40  41
ENDBRANCH  39  40
ENDBRANCH  38  39
ENDBRANCH  37  38
ENDBRANCH  36  37
ENDBRANCH  35  36
ENDBRANCH  34  35
ENDBRANCH  33  34
ENDBRANCH   1  33
TORSDOF 29
ENDMDL
MODEL 3
REMARK VINA RESULT:     -10.5      4.583      6.858
REMARK SMILES Cc1c(NCc2ccccn2)cccc1C(=O)N1CCOC[C@@H]1CC(=O)OCCOCCOCCOCCOC(=O)c1ccc(-c2c3nc(c(-c4cc(S(=O)(=O)[O-])ccc4F)c4ccc([nH]4)c(-c4cc(S(=O)(=O)[O-])ccc4F)c4nc(c(-c5cc(S(=O)(=O)[O-])ccc5F)c5ccc2[nH]5)C=C4)C=C3)cc1
REMARK SMILES IDX 31 1 30 2 29 3 28 4 27 5 25 6 26 7 24 8 23 9 18 10 19 11
REMARK SMILES IDX 20 12 22 13 21 14 16 15 17 16 15 17 1 18 2 19 3 20 12 21
REMARK SMILES IDX 14 22 13 23 4 24 5 26 6 27 7 28 11 29 8 30 10 31 9 32 32 33
REMARK SMILES IDX 33 34 34 35 35 36 36 37 37 38 38 39 39 40 40 41 41 42 42 43
REMARK SMILES IDX 43 44 104 45 44 46 103 47 45 48 46 49 47 50 97 51 48 52
REMARK SMILES IDX 102 53 96 54 98 55 49 56 101 57 95 58 94 59 50 61 82 62
REMARK SMILES IDX 62 63 81 64 63 65 66 66 80 67 99 68 64 69 65 70 79 72 100 73
REMARK SMILES IDX 67 74 51 75 52 76 60 77 53 78 59 79 61 80 58 81 54 82 55 83
REMARK SMILES IDX 56 84 57 85 83 86 84 87 92 88 85 89 91 90 93 91 90 92 86 93
REMARK SMILES IDX 87 94 88 95 89 96 68 97 69 98 77 99 70 100 76 101 78 102
REMARK SMILES IDX 75 103 71 104 72 105 73 106 74 107
REMARK H PARENT 4 25 98 60 66 71
REMARK Flexibility Score: inf
ROOT
ATOM      1  C   UNL A   1      41.911  20.962  26.634  1.00  0.00     0.188 C 
ENDROOT
BRANCH   1   2
ATOM      2  O   UNL A   1      40.984  21.886  26.115  1.00  0.00    -0.376 OA
BRANCH   2   3
ATOM      3  C   UNL A   1      39.731  21.943  26.714  1.00  0.00     0.202 C 
BRANCH   3   4
ATOM      4  C   UNL A   1      38.478  21.778  25.936  1.00  0.00     0.261 C 
BRANCH   4   5
ATOM      5  O   UNL A   1      37.977  22.941  25.376  1.00  0.00    -0.463 OA
BRANCH   5   6
ATOM      6  C   UNL A   1      36.654  23.047  25.309  1.00  0.00     0.308 C 
ATOM      7  O   UNL A   1      35.918  23.515  26.163  1.00  0.00    -0.252 OA
BRANCH   6   8
ATOM      8  C   UNL A   1      36.177  22.274  24.150  1.00  0.00     0.150 C 
BRANCH   8   9
ATOM      9  C   UNL A   1      34.696  21.874  24.187  1.00  0.00     0.122 C 
ATOM     10  N   UNL A   1      33.525  22.881  24.037  1.00  0.00    -0.330 N 
ATOM     11  C   UNL A   1      32.287  22.077  23.979  1.00  0.00     0.148 C 
ATOM     12  C   UNL A   1      32.145  21.129  25.196  1.00  0.00     0.181 C 
ATOM     13  C   UNL A   1      34.477  20.949  25.420  1.00  0.00     0.185 C 
ATOM     14  O   UNL A   1      33.250  20.221  25.325  1.00  0.00    -0.377 OA
BRANCH  10  15
ATOM     15  C   UNL A   1      33.682  24.086  23.200  1.00  0.00     0.254 C 
ATOM     16  O   UNL A   1      34.693  23.974  22.491  1.00  0.00    -0.269 OA
BRANCH  15  17
ATOM     17  C   UNL A   1      32.700  25.628  23.238  1.00  0.00     0.045 A 
ATOM     18  C   UNL A   1      32.940  25.577  26.138  1.00  0.00     0.047 C 
ATOM     19  C   UNL A   1      32.796  26.407  24.884  1.00  0.00    -0.015 A 
ATOM     20  C   UNL A   1      31.788  27.833  25.239  1.00  0.00     0.038 A 
ATOM     21  C   UNL A   1      30.580  28.495  24.110  1.00  0.00     0.026 A 
ATOM     22  C   UNL A   1      31.295  26.431  21.986  1.00  0.00     0.014 A 
ATOM     23  C   UNL A   1      30.296  27.835  22.516  1.00  0.00     0.003 A 
BRANCH  20  24
ATOM     24  N   UNL A   1      32.127  28.554  26.388  1.00  0.00    -0.379 N 
ATOM     25  H   UNL A   1      32.055  28.111  27.264  1.00  0.00     0.160 HD
BRANCH  24  26
ATOM     26  C   UNL A   1      32.580  29.928  26.339  1.00  0.00     0.169 C 
BRANCH  26  27
ATOM     27  C   UNL A   1      33.875  30.159  27.082  1.00  0.00     0.059 A 
ATOM     28  C   UNL A   1      34.243  31.426  27.545  1.00  0.00     0.026 A 
ATOM     29  N   UNL A   1      34.688  29.082  27.218  1.00  0.00    -0.259 NA
ATOM     30  C   UNL A   1      35.499  31.622  28.087  1.00  0.00     0.004 A 
ATOM     31  C   UNL A   1      35.888  29.295  27.793  1.00  0.00     0.111 A 
ATOM     32  C   UNL A   1      36.341  30.532  28.220  1.00  0.00     0.020 A 
ENDBRANCH  26  27
ENDBRANCH  24  26
ENDBRANCH  20  24
ENDBRANCH  15  17
ENDBRANCH  10  15
ENDBRANCH   8   9
ENDBRANCH   6   8
ENDBRANCH   5   6
ENDBRANCH   4   5
ENDBRANCH   3   4
ENDBRANCH   2   3
ENDBRANCH   1   2
BRANCH   1  33
ATOM     33  C   UNL A   1      42.826  20.147  25.700  1.00  0.00     0.188 C 
BRANCH  33  34
ATOM     34  O   UNL A   1      44.205  20.438  25.721  1.00  0.00    -0.377 OA
BRANCH  34  35
ATOM     35  C   UNL A   1      44.807  21.305  24.780  1.00  0.00     0.188 C 
BRANCH  35  36
ATOM     36  C   UNL A   1      44.135  22.586  24.474  1.00  0.00     0.188 C 
BRANCH  36  37
ATOM     37  O   UNL A   1      44.867  23.666  24.983  1.00  0.00    -0.376 OA
BRANCH  37  38
ATOM     38  C   UNL A   1      44.030  24.792  24.992  1.00  0.00     0.202 C 
BRANCH  38  39
ATOM     39  C   UNL A   1      43.123  24.792  26.267  1.00  0.00     0.261 C 
BRANCH  39  40
ATOM     40  O   UNL A   1      42.673  26.170  26.677  1.00  0.00    -0.460 OA
BRANCH  40  41
ATOM     41  C   UNL A   1      41.390  26.601  26.358  1.00  0.00     0.338 C 
ATOM     42  O   UNL A   1      40.763  26.127  25.419  1.00  0.00    -0.246 OA
BRANCH  41  43
ATOM     43  C   UNL A   1      40.909  27.906  27.062  1.00  0.00     0.060 A 
ATOM     44  C   UNL A   1      41.772  29.017  27.269  1.00  0.00     0.016 A 
ATOM     45  C   UNL A   1      39.727  27.961  27.773  1.00  0.00     0.016 A 
ATOM     46  C   UNL A   1      41.585  30.021  28.305  1.00  0.00     0.010 A 
ATOM     47  C   UNL A   1      39.580  28.913  28.827  1.00  0.00     0.010 A 
ATOM     48  C   UNL A   1      40.505  29.953  29.184  1.00  0.00    -0.014 A 
BRANCH  48  49
ATOM     49  C   UNL A   1      40.329  30.654  30.605  1.00  0.00     0.031 A 
ATOM     50  C   UNL A   1      39.526  31.935  30.616  1.00  0.00     0.074 A 
ATOM     51  C   UNL A   1      40.438  30.086  31.888  1.00  0.00     0.049 A 
ATOM     52  N   UNL A   1      39.385  32.705  31.647  1.00  0.00    -0.248 NA
ATOM     53  C   UNL A   1      38.830  32.504  29.458  1.00  0.00     0.031 C 
ATOM     54  C   UNL A   1      39.494  30.320  33.014  1.00  0.00     0.029 A 
ATOM     55  N   UNL A   1      41.102  28.984  32.424  1.00  0.00    -0.354 N 
ATOM     56  C   UNL A   1      38.227  33.424  31.439  1.00  0.00     0.074 A 
ATOM     57  C   UNL A   1      38.104  33.476  30.014  1.00  0.00     0.031 C 
ATOM     58  C   UNL A   1      39.759  29.565  34.100  1.00  0.00     0.029 A 
ATOM     59  C   UNL A   1      40.931  28.735  33.825  1.00  0.00     0.049 A 
ATOM     60  H   UNL A   1      41.665  28.403  31.863  1.00  0.00     0.167 HD
ATOM     61  C   UNL A   1      37.387  33.699  32.482  1.00  0.00     0.034 A 
ATOM     62  C   UNL A   1      41.781  28.198  34.804  1.00  0.00     0.034 A 
ATOM     63  C   UNL A   1      37.898  33.174  33.775  1.00  0.00     0.049 A 
ATOM     64  C   UNL A   1      42.164  29.525  35.530  1.00  0.00     0.074 A 
ATOM     65  C   UNL A   1      37.361  32.404  34.799  1.00  0.00     0.029 A 
ATOM     66  N   UNL A   1      39.260  33.266  34.074  1.00  0.00    -0.354 N 
ATOM     67  N   UNL A   1      41.658  30.644  35.075  1.00  0.00    -0.248 NA
ATOM     68  C   UNL A   1      42.956  29.816  36.729  1.00  0.00     0.031 C 
ATOM     69  C   UNL A   1      38.407  32.082  35.720  1.00  0.00     0.029 A 
ATOM     70  C   UNL A   1      39.597  32.616  35.243  1.00  0.00     0.049 A 
ATOM     71  H   UNL A   1      39.910  33.746  33.511  1.00  0.00     0.167 HD
ATOM     72  C   UNL A   1      41.712  31.631  35.974  1.00  0.00     0.074 A 
ATOM     73  C   UNL A   1      42.698  31.138  36.920  1.00  0.00     0.031 C 
ATOM     74  C   UNL A   1      40.949  32.748  35.786  1.00  0.00     0.034 A 
BRANCH  61  75
ATOM     75  C   UNL A   1      35.998  34.337  32.366  1.00  0.00     0.023 A 
ATOM     76  C   UNL A   1      35.471  34.506  31.070  1.00  0.00     0.031 A 
ATOM     77  C   UNL A   1      35.131  34.771  33.397  1.00  0.00     0.131 A 
ATOM     78  C   UNL A   1      34.186  35.023  30.834  1.00  0.00     0.055 A 
ATOM     79  C   UNL A   1      33.824  35.239  33.167  1.00  0.00     0.041 A 
ATOM     80  F   UNL A   1      35.481  34.809  34.685  1.00  0.00    -0.206 F 
ATOM     81  C   UNL A   1      33.339  35.361  31.879  1.00  0.00     0.022 A 
BRANCH  78  82
ATOM     82  S   UNL A   1      33.635  35.208  29.121  1.00  0.00     0.124 S 
ATOM     83  O   UNL A   1      33.081  36.558  29.126  1.00  0.00    -0.237 OA
ATOM     84  O   UNL A   1      34.872  35.018  28.372  1.00  0.00    -0.237 OA
ATOM     85  O   UNL A   1      32.652  34.137  28.965  1.00  0.00    -0.744 OA
ENDBRANCH  78  82
ENDBRANCH  61  75
BRANCH  62  86
ATOM     86  C   UNL A   1      42.737  27.021  34.367  1.00  0.00     0.023 A 
ATOM     87  C   UNL A   1      44.521  26.928  33.899  1.00  0.00     0.031 A 
ATOM     88  C   UNL A   1      42.009  25.766  35.257  1.00  0.00     0.131 A 
ATOM     89  C   UNL A   1      45.627  25.568  34.413  1.00  0.00     0.055 A 
ATOM     90  C   UNL A   1      42.960  24.526  35.957  1.00  0.00     0.041 A 
ATOM     91  F   UNL A   1      40.676  25.597  35.243  1.00  0.00    -0.206 F 
ATOM     92  C   UNL A   1      44.901  24.291  35.469  1.00  0.00     0.022 A 
BRANCH  89  93
ATOM     93  S   UNL A   1      47.423  25.479  34.341  1.00  0.00     0.124 S 
ATOM     94  O   UNL A   1      47.838  26.327  35.450  1.00  0.00    -0.237 OA
ATOM     95  O   UNL A   1      47.698  24.056  34.468  1.00  0.00    -0.237 OA
ATOM     96  O   UNL A   1      47.721  26.026  33.013  1.00  0.00    -0.744 OA
ENDBRANCH  89  93
ENDBRANCH  62  86
BRANCH  74  97
ATOM     97  C   UNL A   1      41.425  34.094  36.176  1.00  0.00     0.023 A 
ATOM     98  C   UNL A   1      41.231  34.534  37.478  1.00  0.00     0.031 A 
ATOM     99  C   UNL A   1      42.167  34.928  35.316  1.00  0.00     0.131 A 
ATOM    100  C   UNL A   1      41.519  35.848  37.813  1.00  0.00     0.055 A 
ATOM    101  C   UNL A   1      42.605  36.186  35.707  1.00  0.00     0.041 A 
ATOM    102  F   UNL A   1      42.503  34.566  34.070  1.00  0.00    -0.206 F 
ATOM    103  C   UNL A   1      42.225  36.679  36.946  1.00  0.00     0.022 A 
BRANCH 100 104
ATOM    104  S   UNL A   1      40.726  36.458  39.308  1.00  0.00     0.124 S 
ATOM    105  O   UNL A   1      41.186  37.845  39.338  1.00  0.00    -0.237 OA
ATOM    106  O   UNL A   1      39.308  36.272  39.016  1.00  0.00    -0.237 OA
ATOM    107  O   UNL A   1      41.271  35.596  40.354  1.00  0.00    -0.744 OA
ENDBRANCH 100 104
ENDBRANCH  74  97
ENDBRANCH  48  49
ENDBRANCH  41  43
ENDBRANCH  40  41
ENDBRANCH  39  40
ENDBRANCH  38  39
ENDBRANCH  37  38
ENDBRANCH  36  37
ENDBRANCH  35  36
ENDBRANCH  34  35
ENDBRANCH  33  34
ENDBRANCH   1  33
TORSDOF 29
ENDMDL
