MODEL 1
REMARK VINA RESULT:      -9.0      0.000      0.000
REMARK SMILES C/C(=N\Nc1nc(-c2ccc(Cl)cc2)cs1)c1nnn(-c2ccc(C(=O)OCCOCCOCCOCCOC(=O)c3ccc(-c4c5nc(c(-c6cc(S(=O)(=O)[O-])ccc6F)c6ccc([nH]6)c(-c6cc(S(=O)(=O)[O-])ccc6F)c6nc(c(-c7cc(S(=O)(=O)[O-])ccc7F)c7ccc4[nH]7)C=C6)C=C5)cc3)cc2)c1C
REMARK SMILES IDX 32 1 31 2 30 3 29 4 28 5 27 6 25 7 26 8 24 9 21 10 22 11
REMARK SMILES IDX 106 12 23 13 105 14 20 15 17 16 18 17 107 18 19 19 108 20
REMARK SMILES IDX 2 21 1 22 3 23 4 24 5 26 6 27 16 28 7 29 15 30 8 31 9 32
REMARK SMILES IDX 14 33 10 34 13 35 11 36 12 37 33 38 34 39 35 40 36 41 37 42
REMARK SMILES IDX 38 43 39 44 40 45 41 46 42 47 43 48 104 49 44 50 103 51
REMARK SMILES IDX 45 52 46 53 47 54 97 55 48 56 102 57 96 58 98 59 49 60
REMARK SMILES IDX 101 61 95 62 94 63 50 65 82 66 62 67 81 68 63 69 66 70 80 71
REMARK SMILES IDX 99 72 64 73 65 74 79 76 100 77 67 78 51 79 52 80 60 81 53 82
REMARK SMILES IDX 59 83 61 84 58 85 54 86 55 87 56 88 57 89 83 90 84 91 92 92
REMARK SMILES IDX 85 93 91 94 93 95 90 96 86 97 87 98 88 99 89 100 68 101
REMARK SMILES IDX 69 102 77 103 70 104 76 105 78 106 75 107 71 108 72 109
REMARK SMILES IDX 73 110 74 111
REMARK H PARENT 4 25 98 64 66 75
REMARK Flexibility Score: inf
ROOT
ATOM      1  C   UNL A   1      42.867  29.349  33.670  1.00  0.00     0.188 C 
ENDROOT
BRANCH   1   2
ATOM      2  C   UNL A   1      41.340  29.338  33.425  1.00  0.00     0.188 C 
BRANCH   2   3
ATOM      3  O   UNL A   1      40.697  30.280  32.574  1.00  0.00    -0.376 OA
BRANCH   3   4
ATOM      4  C   UNL A   1      39.340  30.664  32.724  1.00  0.00     0.202 C 
BRANCH   4   5
ATOM      5  C   UNL A   1      38.883  32.128  32.786  1.00  0.00     0.261 C 
BRANCH   5   6
ATOM      6  O   UNL A   1      38.818  32.820  31.546  1.00  0.00    -0.460 OA
BRANCH   6   7
ATOM      7  C   UNL A   1      37.685  33.517  31.324  1.00  0.00     0.338 C 
ATOM      8  O   UNL A   1      37.342  34.562  31.848  1.00  0.00    -0.246 OA
BRANCH   7   9
ATOM      9  C   UNL A   1      36.963  32.878  30.200  1.00  0.00     0.060 A 
ATOM     10  C   UNL A   1      35.402  31.813  28.191  1.00  0.00     0.067 A 
ATOM     11  C   UNL A   1      35.869  33.122  28.048  1.00  0.00     0.029 A 
ATOM     12  C   UNL A   1      35.858  30.983  29.224  1.00  0.00     0.029 A 
ATOM     13  C   UNL A   1      36.638  33.659  29.079  1.00  0.00     0.018 A 
ATOM     14  C   UNL A   1      36.635  31.520  30.240  1.00  0.00     0.018 A 
BRANCH  10  15
ATOM     15  N   UNL A   1      34.201  31.457  27.547  1.00  0.00    -0.217 N 
ATOM     16  C   UNL A   1      32.588  30.229  26.748  1.00  0.00     0.132 A 
ATOM     17  N   UNL A   1      32.087  31.463  27.063  1.00  0.00    -0.128 NA
ATOM     18  C   UNL A   1      33.934  30.186  27.063  1.00  0.00     0.071 A 
ATOM     19  N   UNL A   1      33.056  32.163  27.649  1.00  0.00    -0.061 NA
ATOM     20  C   UNL A   1      34.894  29.047  27.106  1.00  0.00     0.069 C 
BRANCH  16  21
ATOM     21  C   UNL A   1      31.792  29.090  26.314  1.00  0.00     0.087 C 
ATOM     22  C   UNL A   1      31.442  28.108  27.403  1.00  0.00     0.071 C 
ATOM     23  N   UNL A   1      31.561  29.012  25.033  1.00  0.00    -0.176 NA
BRANCH  23  24
ATOM     24  N   UNL A   1      31.010  27.923  24.394  1.00  0.00    -0.252 N 
ATOM     25  H   UNL A   1      30.028  27.940  24.327  1.00  0.00     0.193 HD
BRANCH  24  26
ATOM     26  C   UNL A   1      31.596  26.830  23.843  1.00  0.00     0.203 A 
ATOM     27  N   UNL A   1      32.370  25.970  24.463  1.00  0.00    -0.219 NA
ATOM     28  S   UNL A   1      31.414  26.499  22.154  1.00  0.00    -0.103 S 
ATOM     29  C   UNL A   1      33.104  25.236  23.556  1.00  0.00     0.084 A 
ATOM     30  C   UNL A   1      32.723  25.387  22.241  1.00  0.00     0.097 A 
BRANCH  29  31
ATOM     31  C   UNL A   1      34.244  24.461  24.015  1.00  0.00     0.001 A 
ATOM     32  C   UNL A   1      34.752  24.677  25.302  1.00  0.00     0.012 A 
ATOM     33  C   UNL A   1      34.916  23.588  23.147  1.00  0.00     0.012 A 
ATOM     34  C   UNL A   1      35.898  24.001  25.732  1.00  0.00     0.021 A 
ATOM     35  C   UNL A   1      36.070  22.922  23.574  1.00  0.00     0.021 A 
ATOM     36  C   UNL A   1      36.550  23.126  24.866  1.00  0.00     0.041 A 
ATOM     37  Cl  UNL A   1      37.966  22.301  25.391  1.00  0.00    -0.084 Cl
ENDBRANCH  29  31
ENDBRANCH  24  26
ENDBRANCH  23  24
ENDBRANCH  16  21
ENDBRANCH  10  15
ENDBRANCH   7   9
ENDBRANCH   6   7
ENDBRANCH   5   6
ENDBRANCH   4   5
ENDBRANCH   3   4
ENDBRANCH   2   3
ENDBRANCH   1   2
BRANCH   1  38
ATOM     38  O   UNL A   1      43.382  28.119  34.142  1.00  0.00    -0.377 OA
BRANCH  38  39
ATOM     39  C   UNL A   1      42.459  27.031  34.159  1.00  0.00     0.188 C 
BRANCH  39  40
ATOM     40  C   UNL A   1      42.123  26.341  35.513  1.00  0.00     0.188 C 
BRANCH  40  41
ATOM     41  O   UNL A   1      42.525  24.981  35.611  1.00  0.00    -0.376 OA
BRANCH  41  42
ATOM     42  C   UNL A   1      43.312  24.319  34.636  1.00  0.00     0.202 C 
BRANCH  42  43
ATOM     43  C   UNL A   1      44.687  23.807  35.057  1.00  0.00     0.261 C 
BRANCH  43  44
ATOM     44  O   UNL A   1      45.637  24.844  35.160  1.00  0.00    -0.460 OA
BRANCH  44  45
ATOM     45  C   UNL A   1      46.896  24.477  34.869  1.00  0.00     0.338 C 
ATOM     46  O   UNL A   1      47.479  23.464  35.246  1.00  0.00    -0.246 OA
BRANCH  45  47
ATOM     47  C   UNL A   1      47.491  25.529  34.046  1.00  0.00     0.060 A 
ATOM     48  C   UNL A   1      46.789  26.734  34.039  1.00  0.00     0.016 A 
ATOM     49  C   UNL A   1      48.292  25.098  32.981  1.00  0.00     0.016 A 
ATOM     50  C   UNL A   1      46.541  27.290  32.814  1.00  0.00     0.010 A 
ATOM     51  C   UNL A   1      47.991  25.608  31.760  1.00  0.00     0.010 A 
ATOM     52  C   UNL A   1      47.032  26.618  31.696  1.00  0.00    -0.014 A 
BRANCH  52  53
ATOM     53  C   UNL A   1      46.570  27.006  30.390  1.00  0.00     0.031 A 
ATOM     54  C   UNL A   1      45.451  26.148  29.961  1.00  0.00     0.074 A 
ATOM     55  C   UNL A   1      47.037  28.130  29.814  1.00  0.00     0.049 A 
ATOM     56  N   UNL A   1      45.467  25.216  29.067  1.00  0.00    -0.248 NA
ATOM     57  C   UNL A   1      44.262  26.105  30.839  1.00  0.00     0.031 C 
ATOM     58  C   UNL A   1      47.961  29.128  30.365  1.00  0.00     0.029 A 
ATOM     59  N   UNL A   1      46.679  28.684  28.633  1.00  0.00    -0.354 N 
ATOM     60  C   UNL A   1      44.183  24.688  29.099  1.00  0.00     0.074 A 
ATOM     61  C   UNL A   1      43.660  25.008  30.390  1.00  0.00     0.031 C 
ATOM     62  C   UNL A   1      47.890  30.260  29.624  1.00  0.00     0.029 A 
ATOM     63  C   UNL A   1      47.006  30.030  28.494  1.00  0.00     0.049 A 
ATOM     64  H   UNL A   1      46.221  28.175  27.926  1.00  0.00     0.167 HD
ATOM     65  C   UNL A   1      43.520  24.403  27.946  1.00  0.00     0.034 A 
ATOM     66  C   UNL A   1      46.474  30.885  27.574  1.00  0.00     0.034 A 
ATOM     67  C   UNL A   1      44.456  24.265  26.849  1.00  0.00     0.049 A 
ATOM     68  C   UNL A   1      45.883  30.024  26.508  1.00  0.00     0.074 A 
ATOM     69  C   UNL A   1      45.547  23.449  26.618  1.00  0.00     0.029 A 
ATOM     70  N   UNL A   1      44.596  25.327  25.980  1.00  0.00    -0.354 N 
ATOM     71  N   UNL A   1      46.604  29.236  25.750  1.00  0.00    -0.248 NA
ATOM     72  C   UNL A   1      44.489  29.620  26.656  1.00  0.00     0.031 C 
ATOM     73  C   UNL A   1      46.515  24.291  25.995  1.00  0.00     0.029 A 
ATOM     74  C   UNL A   1      45.940  25.548  25.789  1.00  0.00     0.049 A 
ATOM     75  H   UNL A   1      43.862  25.838  25.567  1.00  0.00     0.167 HD
ATOM     76  C   UNL A   1      45.892  28.046  25.670  1.00  0.00     0.074 A 
ATOM     77  C   UNL A   1      44.562  28.367  26.191  1.00  0.00     0.031 C 
ATOM     78  C   UNL A   1      46.526  26.846  25.493  1.00  0.00     0.034 A 
BRANCH  65  79
ATOM     79  C   UNL A   1      42.042  24.679  27.739  1.00  0.00     0.023 A 
ATOM     80  C   UNL A   1      41.645  26.020  27.843  1.00  0.00     0.031 A 
ATOM     81  C   UNL A   1      40.984  23.734  27.723  1.00  0.00     0.131 A 
ATOM     82  C   UNL A   1      40.300  26.363  28.053  1.00  0.00     0.055 A 
ATOM     83  C   UNL A   1      39.640  24.084  27.871  1.00  0.00     0.041 A 
ATOM     84  F   UNL A   1      41.163  22.412  27.637  1.00  0.00    -0.206 F 
ATOM     85  C   UNL A   1      39.292  25.403  28.077  1.00  0.00     0.022 A 
BRANCH  82  86
ATOM     86  S   UNL A   1      39.920  28.076  28.478  1.00  0.00     0.124 S 
ATOM     87  O   UNL A   1      40.803  28.802  27.572  1.00  0.00    -0.237 OA
ATOM     88  O   UNL A   1      38.493  28.144  28.183  1.00  0.00    -0.237 OA
ATOM     89  O   UNL A   1      40.270  28.156  29.894  1.00  0.00    -0.744 OA
ENDBRANCH  82  86
ENDBRANCH  65  79
BRANCH  66  90
ATOM     90  C   UNL A   1      46.087  32.312  27.812  1.00  0.00     0.023 A 
ATOM     91  C   UNL A   1      45.215  32.729  28.844  1.00  0.00     0.031 A 
ATOM     92  C   UNL A   1      46.770  33.342  27.121  1.00  0.00     0.131 A 
ATOM     93  C   UNL A   1      45.049  34.111  29.129  1.00  0.00     0.055 A 
ATOM     94  C   UNL A   1      46.600  34.700  27.402  1.00  0.00     0.041 A 
ATOM     95  F   UNL A   1      47.698  33.061  26.193  1.00  0.00    -0.206 F 
ATOM     96  C   UNL A   1      45.741  35.090  28.414  1.00  0.00     0.022 A 
BRANCH  93  97
ATOM     97  S   UNL A   1      43.968  34.667  30.493  1.00  0.00     0.124 S 
ATOM     98  O   UNL A   1      44.833  34.518  31.657  1.00  0.00    -0.237 OA
ATOM     99  O   UNL A   1      43.640  36.031  30.098  1.00  0.00    -0.237 OA
ATOM    100  O   UNL A   1      42.843  33.730  30.443  1.00  0.00    -0.744 OA
ENDBRANCH  93  97
ENDBRANCH  66  90
BRANCH  78 101
ATOM    101  C   UNL A   1      48.007  26.855  25.147  1.00  0.00     0.023 A 
ATOM    102  C   UNL A   1      48.542  27.095  23.859  1.00  0.00     0.031 A 
ATOM    103  C   UNL A   1      48.910  26.773  26.221  1.00  0.00     0.131 A 
ATOM    104  C   UNL A   1      49.936  27.244  23.690  1.00  0.00     0.055 A 
ATOM    105  C   UNL A   1      50.283  26.943  26.053  1.00  0.00     0.041 A 
ATOM    106  F   UNL A   1      48.461  26.577  27.472  1.00  0.00    -0.206 F 
ATOM    107  C   UNL A   1      50.802  27.178  24.785  1.00  0.00     0.022 A 
BRANCH 104 108
ATOM    108  S   UNL A   1      50.655  27.534  22.037  1.00  0.00     0.124 S 
ATOM    109  O   UNL A   1      52.070  27.238  22.230  1.00  0.00    -0.237 OA
ATOM    110  O   UNL A   1      49.912  26.596  21.200  1.00  0.00    -0.237 OA
ATOM    111  O   UNL A   1      50.358  28.945  21.778  1.00  0.00    -0.744 OA
ENDBRANCH 104 108
ENDBRANCH  78 101
ENDBRANCH  52  53
ENDBRANCH  45  47
ENDBRANCH  44  45
ENDBRANCH  43  44
ENDBRANCH  42  43
ENDBRANCH  41  42
ENDBRANCH  40  41
ENDBRANCH  39  40
ENDBRANCH  38  39
ENDBRANCH   1  38
TORSDOF 28
ENDMDL
MODEL 2
REMARK VINA RESULT:      -8.5      1.990      2.340
REMARK SMILES C/C(=N\Nc1nc(-c2ccc(Cl)cc2)cs1)c1nnn(-c2ccc(C(=O)OCCOCCOCCOCCOC(=O)c3ccc(-c4c5nc(c(-c6cc(S(=O)(=O)[O-])ccc6F)c6ccc([nH]6)c(-c6cc(S(=O)(=O)[O-])ccc6F)c6nc(c(-c7cc(S(=O)(=O)[O-])ccc7F)c7ccc4[nH]7)C=C6)C=C5)cc3)cc2)c1C
REMARK SMILES IDX 32 1 31 2 30 3 29 4 28 5 27 6 25 7 26 8 24 9 21 10 22 11
REMARK SMILES IDX 106 12 23 13 105 14 20 15 17 16 18 17 107 18 19 19 108 20
REMARK SMILES IDX 2 21 1 22 3 23 4 24 5 26 6 27 16 28 7 29 15 30 8 31 9 32
REMARK SMILES IDX 14 33 10 34 13 35 11 36 12 37 33 38 34 39 35 40 36 41 37 42
REMARK SMILES IDX 38 43 39 44 40 45 41 46 42 47 43 48 104 49 44 50 103 51
REMARK SMILES IDX 45 52 46 53 47 54 97 55 48 56 102 57 96 58 98 59 49 60
REMARK SMILES IDX 101 61 95 62 94 63 50 65 82 66 62 67 81 68 63 69 66 70 80 71
REMARK SMILES IDX 99 72 64 73 65 74 79 76 100 77 67 78 51 79 52 80 60 81 53 82
REMARK SMILES IDX 59 83 61 84 58 85 54 86 55 87 56 88 57 89 83 90 84 91 92 92
REMARK SMILES IDX 85 93 91 94 93 95 90 96 86 97 87 98 88 99 89 100 68 101
REMARK SMILES IDX 69 102 77 103 70 104 76 105 78 106 75 107 71 108 72 109
REMARK SMILES IDX 73 110 74 111
REMARK H PARENT 4 25 98 64 66 75
REMARK Flexibility Score: inf
ROOT
ATOM      1  C   UNL A   1      42.958  28.747  33.977  1.00  0.00     0.188 C 
ENDROOT
BRANCH   1   2
ATOM      2  C   UNL A   1      41.578  28.580  33.299  1.00  0.00     0.188 C 
BRANCH   2   3
ATOM      3  O   UNL A   1      40.986  29.606  32.511  1.00  0.00    -0.376 OA
BRANCH   3   4
ATOM      4  C   UNL A   1      39.590  29.707  32.287  1.00  0.00     0.202 C 
BRANCH   4   5
ATOM      5  C   UNL A   1      38.817  31.031  32.374  1.00  0.00     0.261 C 
BRANCH   5   6
ATOM      6  O   UNL A   1      38.855  31.858  31.218  1.00  0.00    -0.460 OA
BRANCH   6   7
ATOM      7  C   UNL A   1      37.771  32.636  31.021  1.00  0.00     0.338 C 
ATOM      8  O   UNL A   1      37.507  33.692  31.567  1.00  0.00    -0.246 OA
BRANCH   7   9
ATOM      9  C   UNL A   1      36.997  32.070  29.893  1.00  0.00     0.060 A 
ATOM     10  C   UNL A   1      35.343  31.140  27.890  1.00  0.00     0.067 A 
ATOM     11  C   UNL A   1      35.824  32.449  27.802  1.00  0.00     0.029 A 
ATOM     12  C   UNL A   1      35.827  30.248  28.857  1.00  0.00     0.029 A 
ATOM     13  C   UNL A   1      36.641  32.917  28.830  1.00  0.00     0.018 A 
ATOM     14  C   UNL A   1      36.650  30.716  29.869  1.00  0.00     0.018 A 
BRANCH  10  15
ATOM     15  N   UNL A   1      34.113  30.836  27.275  1.00  0.00    -0.217 N 
ATOM     16  C   UNL A   1      32.470  29.676  26.439  1.00  0.00     0.132 A 
ATOM     17  N   UNL A   1      31.977  30.866  26.902  1.00  0.00    -0.128 NA
ATOM     18  C   UNL A   1      33.831  29.618  26.679  1.00  0.00     0.071 A 
ATOM     19  N   UNL A   1      32.970  31.514  27.506  1.00  0.00    -0.061 NA
ATOM     20  C   UNL A   1      34.800  28.492  26.558  1.00  0.00     0.069 C 
BRANCH  16  21
ATOM     21  C   UNL A   1      31.660  28.577  25.932  1.00  0.00     0.087 C 
ATOM     22  C   UNL A   1      31.406  27.468  26.921  1.00  0.00     0.071 C 
ATOM     23  N   UNL A   1      31.336  28.642  24.671  1.00  0.00    -0.176 NA
BRANCH  23  24
ATOM     24  N   UNL A   1      30.755  27.622  23.950  1.00  0.00    -0.252 N 
ATOM     25  H   UNL A   1      29.778  27.694  23.853  1.00  0.00     0.193 HD
BRANCH  24  26
ATOM     26  C   UNL A   1      31.306  26.535  23.352  1.00  0.00     0.203 A 
ATOM     27  N   UNL A   1      31.116  25.283  23.697  1.00  0.00    -0.219 NA
ATOM     28  S   UNL A   1      32.427  26.729  22.049  1.00  0.00    -0.103 S 
ATOM     29  C   UNL A   1      32.105  24.480  23.170  1.00  0.00     0.084 A 
ATOM     30  C   UNL A   1      32.919  25.092  22.242  1.00  0.00     0.097 A 
BRANCH  29  31
ATOM     31  C   UNL A   1      32.279  23.129  23.676  1.00  0.00     0.001 A 
ATOM     32  C   UNL A   1      32.307  22.054  22.779  1.00  0.00     0.012 A 
ATOM     33  C   UNL A   1      32.300  22.875  25.055  1.00  0.00     0.012 A 
ATOM     34  C   UNL A   1      32.391  20.742  23.251  1.00  0.00     0.021 A 
ATOM     35  C   UNL A   1      32.371  21.560  25.527  1.00  0.00     0.021 A 
ATOM     36  C   UNL A   1      32.424  20.501  24.623  1.00  0.00     0.041 A 
ATOM     37  Cl  UNL A   1      32.517  18.885  25.206  1.00  0.00    -0.084 Cl
ENDBRANCH  29  31
ENDBRANCH  24  26
ENDBRANCH  23  24
ENDBRANCH  16  21
ENDBRANCH  10  15
ENDBRANCH   7   9
ENDBRANCH   6   7
ENDBRANCH   5   6
ENDBRANCH   4   5
ENDBRANCH   3   4
ENDBRANCH   2   3
ENDBRANCH   1   2
BRANCH   1  38
ATOM     38  O   UNL A   1      43.410  27.589  34.652  1.00  0.00    -0.377 OA
BRANCH  38  39
ATOM     39  C   UNL A   1      42.630  26.412  34.446  1.00  0.00     0.188 C 
BRANCH  39  40
ATOM     40  C   UNL A   1      42.139  25.601  35.679  1.00  0.00     0.188 C 
BRANCH  40  41
ATOM     41  O   UNL A   1      42.838  24.385  35.918  1.00  0.00    -0.376 OA
BRANCH  41  42
ATOM     42  C   UNL A   1      43.578  23.694  34.926  1.00  0.00     0.202 C 
BRANCH  42  43
ATOM     43  C   UNL A   1      45.051  23.407  35.208  1.00  0.00     0.261 C 
BRANCH  43  44
ATOM     44  O   UNL A   1      45.859  24.552  35.058  1.00  0.00    -0.460 OA
BRANCH  44  45
ATOM     45  C   UNL A   1      47.152  24.292  34.798  1.00  0.00     0.338 C 
ATOM     46  O   UNL A   1      47.780  23.282  35.102  1.00  0.00    -0.246 OA
BRANCH  45  47
ATOM     47  C   UNL A   1      47.716  25.457  34.118  1.00  0.00     0.060 A 
ATOM     48  C   UNL A   1      46.939  26.613  34.194  1.00  0.00     0.016 A 
ATOM     49  C   UNL A   1      48.593  25.187  33.060  1.00  0.00     0.016 A 
ATOM     50  C   UNL A   1      46.714  27.276  33.019  1.00  0.00     0.010 A 
ATOM     51  C   UNL A   1      48.318  25.801  31.881  1.00  0.00     0.010 A 
ATOM     52  C   UNL A   1      47.300  26.753  31.867  1.00  0.00    -0.014 A 
BRANCH  52  53
ATOM     53  C   UNL A   1      46.877  27.245  30.583  1.00  0.00     0.031 A 
ATOM     54  C   UNL A   1      45.736  26.460  30.078  1.00  0.00     0.074 A 
ATOM     55  C   UNL A   1      47.394  28.388  30.093  1.00  0.00     0.049 A 
ATOM     56  N   UNL A   1      45.736  25.591  29.123  1.00  0.00    -0.248 NA
ATOM     57  C   UNL A   1      44.530  26.401  30.932  1.00  0.00     0.031 C 
ATOM     58  C   UNL A   1      48.342  29.312  30.726  1.00  0.00     0.029 A 
ATOM     59  N   UNL A   1      47.078  29.034  28.947  1.00  0.00    -0.354 N 
ATOM     60  C   UNL A   1      44.434  25.109  29.097  1.00  0.00     0.074 A 
ATOM     61  C   UNL A   1      43.898  25.359  30.399  1.00  0.00     0.031 C 
ATOM     62  C   UNL A   1      48.325  30.494  30.064  1.00  0.00     0.029 A 
ATOM     63  C   UNL A   1      47.455  30.373  28.907  1.00  0.00     0.049 A 
ATOM     64  H   UNL A   1      46.616  28.591  28.200  1.00  0.00     0.167 HD
ATOM     65  C   UNL A   1      43.784  24.928  27.917  1.00  0.00     0.034 A 
ATOM     66  C   UNL A   1      46.970  31.307  28.039  1.00  0.00     0.034 A 
ATOM     67  C   UNL A   1      44.735  24.831  26.829  1.00  0.00     0.049 A 
ATOM     68  C   UNL A   1      46.370  30.543  26.906  1.00  0.00     0.074 A 
ATOM     69  C   UNL A   1      45.801  23.993  26.560  1.00  0.00     0.029 A 
ATOM     70  N   UNL A   1      44.928  25.943  26.036  1.00  0.00    -0.354 N 
ATOM     71  N   UNL A   1      47.077  29.783  26.108  1.00  0.00    -0.248 NA
ATOM     72  C   UNL A   1      44.960  30.181  27.003  1.00  0.00     0.031 C 
ATOM     73  C   UNL A   1      46.809  24.839  26.013  1.00  0.00     0.029 A 
ATOM     74  C   UNL A   1      46.283  26.128  25.884  1.00  0.00     0.049 A 
ATOM     75  H   UNL A   1      44.221  26.507  25.648  1.00  0.00     0.167 HD
ATOM     76  C   UNL A   1      46.325  28.628  25.935  1.00  0.00     0.074 A 
ATOM     77  C   UNL A   1      44.998  28.961  26.455  1.00  0.00     0.031 C 
ATOM     78  C   UNL A   1      46.920  27.421  25.687  1.00  0.00     0.034 A 
BRANCH  65  79
ATOM     79  C   UNL A   1      42.320  25.270  27.705  1.00  0.00     0.023 A 
ATOM     80  C   UNL A   1      42.038  26.614  27.418  1.00  0.00     0.031 A 
ATOM     81  C   UNL A   1      41.194  24.469  28.023  1.00  0.00     0.131 A 
ATOM     82  C   UNL A   1      40.742  27.131  27.577  1.00  0.00     0.055 A 
ATOM     83  C   UNL A   1      39.896  24.976  28.121  1.00  0.00     0.041 A 
ATOM     84  F   UNL A   1      41.263  23.171  28.331  1.00  0.00    -0.206 F 
ATOM     85  C   UNL A   1      39.667  26.323  27.935  1.00  0.00     0.022 A 
BRANCH  82  86
ATOM     86  S   UNL A   1      40.529  28.921  27.483  1.00  0.00     0.124 S 
ATOM     87  O   UNL A   1      40.838  29.323  28.851  1.00  0.00    -0.237 OA
ATOM     88  O   UNL A   1      41.510  29.282  26.466  1.00  0.00    -0.237 OA
ATOM     89  O   UNL A   1      39.131  29.072  27.086  1.00  0.00    -0.744 OA
ENDBRANCH  82  86
ENDBRANCH  65  79
BRANCH  66  90
ATOM     90  C   UNL A   1      46.630  32.728  28.367  1.00  0.00     0.023 A 
ATOM     91  C   UNL A   1      47.225  33.846  27.737  1.00  0.00     0.031 A 
ATOM     92  C   UNL A   1      45.514  33.003  29.194  1.00  0.00     0.131 A 
ATOM     93  C   UNL A   1      46.714  35.152  27.960  1.00  0.00     0.055 A 
ATOM     94  C   UNL A   1      45.018  34.291  29.413  1.00  0.00     0.041 A 
ATOM     95  F   UNL A   1      44.806  32.013  29.761  1.00  0.00    -0.206 F 
ATOM     96  C   UNL A   1      45.615  35.373  28.791  1.00  0.00     0.022 A 
BRANCH  93  97
ATOM     97  S   UNL A   1      47.436  36.601  27.113  1.00  0.00     0.124 S 
ATOM     98  O   UNL A   1      46.926  37.713  27.906  1.00  0.00    -0.237 OA
ATOM     99  O   UNL A   1      48.867  36.340  27.207  1.00  0.00    -0.237 OA
ATOM    100  O   UNL A   1      46.889  36.515  25.758  1.00  0.00    -0.744 OA
ENDBRANCH  93  97
ENDBRANCH  66  90
BRANCH  78 101
ATOM    101  C   UNL A   1      48.406  27.398  25.367  1.00  0.00     0.023 A 
ATOM    102  C   UNL A   1      49.443  27.243  26.318  1.00  0.00     0.031 A 
ATOM    103  C   UNL A   1      48.762  27.373  24.008  1.00  0.00     0.131 A 
ATOM    104  C   UNL A   1      50.776  27.069  25.887  1.00  0.00     0.055 A 
ATOM    105  C   UNL A   1      50.077  27.178  23.587  1.00  0.00     0.041 A 
ATOM    106  F   UNL A   1      47.820  27.485  23.057  1.00  0.00    -0.206 F 
ATOM    107  C   UNL A   1      51.090  27.028  24.525  1.00  0.00     0.022 A 
BRANCH 104 108
ATOM    108  S   UNL A   1      52.135  26.887  27.092  1.00  0.00     0.124 S 
ATOM    109  O   UNL A   1      52.131  28.164  27.798  1.00  0.00    -0.237 OA
ATOM    110  O   UNL A   1      51.717  25.724  27.869  1.00  0.00    -0.237 OA
ATOM    111  O   UNL A   1      53.312  26.663  26.250  1.00  0.00    -0.744 OA
ENDBRANCH 104 108
ENDBRANCH  78 101
ENDBRANCH  52  53
ENDBRANCH  45  47
ENDBRANCH  44  45
ENDBRANCH  43  44
ENDBRANCH  42  43
ENDBRANCH  41  42
ENDBRANCH  40  41
ENDBRANCH  39  40
ENDBRANCH  38  39
ENDBRANCH   1  38
TORSDOF 28
ENDMDL
MODEL 3
REMARK VINA RESULT:      -8.0      3.473      7.712
REMARK SMILES C/C(=N\Nc1nc(-c2ccc(Cl)cc2)cs1)c1nnn(-c2ccc(C(=O)OCCOCCOCCOCCOC(=O)c3ccc(-c4c5nc(c(-c6cc(S(=O)(=O)[O-])ccc6F)c6ccc([nH]6)c(-c6cc(S(=O)(=O)[O-])ccc6F)c6nc(c(-c7cc(S(=O)(=O)[O-])ccc7F)c7ccc4[nH]7)C=C6)C=C5)cc3)cc2)c1C
REMARK SMILES IDX 32 1 31 2 30 3 29 4 28 5 27 6 25 7 26 8 24 9 21 10 22 11
REMARK SMILES IDX 106 12 23 13 105 14 20 15 17 16 18 17 107 18 19 19 108 20
REMARK SMILES IDX 2 21 1 22 3 23 4 24 5 26 6 27 16 28 7 29 15 30 8 31 9 32
REMARK SMILES IDX 14 33 10 34 13 35 11 36 12 37 33 38 34 39 35 40 36 41 37 42
REMARK SMILES IDX 38 43 39 44 40 45 41 46 42 47 43 48 104 49 44 50 103 51
REMARK SMILES IDX 45 52 46 53 47 54 97 55 48 56 102 57 96 58 98 59 49 60
REMARK SMILES IDX 101 61 95 62 94 63 50 65 82 66 62 67 81 68 63 69 66 70 80 71
REMARK SMILES IDX 99 72 64 73 65 74 79 76 100 77 67 78 51 79 52 80 60 81 53 82
REMARK SMILES IDX 59 83 61 84 58 85 54 86 55 87 56 88 57 89 83 90 84 91 92 92
REMARK SMILES IDX 85 93 91 94 93 95 90 96 86 97 87 98 88 99 89 100 68 101
REMARK SMILES IDX 69 102 77 103 70 104 76 105 78 106 75 107 71 108 72 109
REMARK SMILES IDX 73 110 74 111
REMARK H PARENT 4 25 98 64 66 75
REMARK Flexibility Score: inf
ROOT
ATOM      1  C   UNL A   1      39.552  29.951  28.913  1.00  0.00     0.188 C 
ENDROOT
BRANCH   1   2
ATOM      2  C   UNL A   1      39.066  31.102  29.824  1.00  0.00     0.188 C 
BRANCH   2   3
ATOM      3  O   UNL A   1      37.686  31.338  30.085  1.00  0.00    -0.376 OA
BRANCH   3   4
ATOM      4  C   UNL A   1      36.961  32.416  29.518  1.00  0.00     0.202 C 
BRANCH   4   5
ATOM      5  C   UNL A   1      36.538  32.462  28.043  1.00  0.00     0.261 C 
BRANCH   5   6
ATOM      6  O   UNL A   1      35.674  33.528  27.670  1.00  0.00    -0.460 OA
BRANCH   6   7
ATOM      7  C   UNL A   1      34.518  33.612  28.361  1.00  0.00     0.338 C 
ATOM      8  O   UNL A   1      34.220  34.432  29.211  1.00  0.00    -0.246 OA
BRANCH   7   9
ATOM      9  C   UNL A   1      33.576  32.613  27.807  1.00  0.00     0.060 A 
ATOM     10  C   UNL A   1      31.997  30.713  26.579  1.00  0.00     0.067 A 
ATOM     11  C   UNL A   1      33.070  30.281  27.365  1.00  0.00     0.029 A 
ATOM     12  C   UNL A   1      31.603  32.057  26.558  1.00  0.00     0.029 A 
ATOM     13  C   UNL A   1      33.875  31.249  27.963  1.00  0.00     0.018 A 
ATOM     14  C   UNL A   1      32.401  33.014  27.166  1.00  0.00     0.018 A 
BRANCH  10  15
ATOM     15  N   UNL A   1      31.565  29.885  25.524  1.00  0.00    -0.217 N 
ATOM     16  C   UNL A   1      30.960  28.098  24.435  1.00  0.00     0.132 A 
ATOM     17  N   UNL A   1      30.343  29.184  23.876  1.00  0.00    -0.128 NA
ATOM     18  C   UNL A   1      31.735  28.511  25.504  1.00  0.00     0.071 A 
ATOM     19  N   UNL A   1      30.635  30.250  24.617  1.00  0.00    -0.061 NA
ATOM     20  C   UNL A   1      32.443  27.732  26.560  1.00  0.00     0.069 C 
BRANCH  16  21
ATOM     21  C   UNL A   1      30.705  26.712  24.071  1.00  0.00     0.087 C 
ATOM     22  C   UNL A   1      29.270  26.272  24.215  1.00  0.00     0.071 C 
ATOM     23  N   UNL A   1      31.753  26.003  23.757  1.00  0.00    -0.176 NA
BRANCH  23  24
ATOM     24  N   UNL A   1      31.759  24.637  23.581  1.00  0.00    -0.252 N 
ATOM     25  H   UNL A   1      31.378  24.332  22.726  1.00  0.00     0.193 HD
BRANCH  24  26
ATOM     26  C   UNL A   1      32.204  23.641  24.390  1.00  0.00     0.203 A 
ATOM     27  N   UNL A   1      32.544  22.431  24.014  1.00  0.00    -0.219 NA
ATOM     28  S   UNL A   1      32.298  23.883  26.101  1.00  0.00    -0.103 S 
ATOM     29  C   UNL A   1      32.557  21.573  25.093  1.00  0.00     0.084 A 
ATOM     30  C   UNL A   1      32.443  22.184  26.323  1.00  0.00     0.097 A 
BRANCH  29  31
ATOM     31  C   UNL A   1      32.591  20.138  24.869  1.00  0.00     0.001 A 
ATOM     32  C   UNL A   1      32.716  19.272  25.962  1.00  0.00     0.012 A 
ATOM     33  C   UNL A   1      32.620  19.614  23.568  1.00  0.00     0.012 A 
ATOM     34  C   UNL A   1      32.834  17.894  25.762  1.00  0.00     0.021 A 
ATOM     35  C   UNL A   1      32.750  18.236  23.368  1.00  0.00     0.021 A 
ATOM     36  C   UNL A   1      32.849  17.382  24.465  1.00  0.00     0.041 A 
ATOM     37  Cl  UNL A   1      33.002  15.686  24.217  1.00  0.00    -0.084 Cl
ENDBRANCH  29  31
ENDBRANCH  24  26
ENDBRANCH  23  24
ENDBRANCH  16  21
ENDBRANCH  10  15
ENDBRANCH   7   9
ENDBRANCH   6   7
ENDBRANCH   5   6
ENDBRANCH   4   5
ENDBRANCH   3   4
ENDBRANCH   2   3
ENDBRANCH   1   2
BRANCH   1  38
ATOM     38  O   UNL A   1      39.171  28.664  29.362  1.00  0.00    -0.377 OA
BRANCH  38  39
ATOM     39  C   UNL A   1      39.930  27.578  28.832  1.00  0.00     0.188 C 
BRANCH  39  40
ATOM     40  C   UNL A   1      39.247  26.582  27.851  1.00  0.00     0.188 C 
BRANCH  40  41
ATOM     41  O   UNL A   1      39.277  25.220  28.258  1.00  0.00    -0.376 OA
BRANCH  41  42
ATOM     42  C   UNL A   1      39.772  24.166  27.448  1.00  0.00     0.202 C 
BRANCH  42  43
ATOM     43  C   UNL A   1      41.284  23.965  27.389  1.00  0.00     0.261 C 
BRANCH  43  44
ATOM     44  O   UNL A   1      41.766  23.905  26.066  1.00  0.00    -0.460 OA
BRANCH  44  45
ATOM     45  C   UNL A   1      42.522  22.827  25.795  1.00  0.00     0.338 C 
ATOM     46  O   UNL A   1      42.127  21.700  25.511  1.00  0.00    -0.246 OA
BRANCH  45  47
ATOM     47  C   UNL A   1      43.924  23.213  25.943  1.00  0.00     0.060 A 
ATOM     48  C   UNL A   1      44.514  22.826  27.145  1.00  0.00     0.016 A 
ATOM     49  C   UNL A   1      44.334  24.333  25.208  1.00  0.00     0.016 A 
ATOM     50  C   UNL A   1      45.208  23.790  27.824  1.00  0.00     0.010 A 
ATOM     51  C   UNL A   1      44.963  25.312  25.909  1.00  0.00     0.010 A 
ATOM     52  C   UNL A   1      45.281  25.055  27.241  1.00  0.00    -0.014 A 
BRANCH  52  53
ATOM     53  C   UNL A   1      45.755  26.160  28.030  1.00  0.00     0.031 A 
ATOM     54  C   UNL A   1      47.189  26.003  28.333  1.00  0.00     0.074 A 
ATOM     55  C   UNL A   1      44.963  27.229  28.241  1.00  0.00     0.049 A 
ATOM     56  N   UNL A   1      47.728  25.687  29.464  1.00  0.00    -0.248 NA
ATOM     57  C   UNL A   1      48.109  25.874  27.182  1.00  0.00     0.031 C 
ATOM     58  C   UNL A   1      43.621  27.497  27.711  1.00  0.00     0.029 A 
ATOM     59  N   UNL A   1      45.253  28.377  28.896  1.00  0.00    -0.354 N 
ATOM     60  C   UNL A   1      49.087  25.616  29.187  1.00  0.00     0.074 A 
ATOM     61  C   UNL A   1      49.189  25.381  27.781  1.00  0.00     0.031 C 
ATOM     62  C   UNL A   1      43.333  28.811  27.866  1.00  0.00     0.029 A 
ATOM     63  C   UNL A   1      44.414  29.448  28.600  1.00  0.00     0.049 A 
ATOM     64  H   UNL A   1      45.999  28.450  29.533  1.00  0.00     0.167 HD
ATOM     65  C   UNL A   1      49.998  26.154  30.040  1.00  0.00     0.034 A 
ATOM     66  C   UNL A   1      44.684  30.760  28.852  1.00  0.00     0.034 A 
ATOM     67  C   UNL A   1      49.418  26.319  31.357  1.00  0.00     0.049 A 
ATOM     68  C   UNL A   1      45.761  30.766  29.885  1.00  0.00     0.074 A 
ATOM     69  C   UNL A   1      48.837  25.452  32.264  1.00  0.00     0.029 A 
ATOM     70  N   UNL A   1      48.995  27.580  31.725  1.00  0.00    -0.354 N 
ATOM     71  N   UNL A   1      45.589  30.294  31.094  1.00  0.00    -0.248 NA
ATOM     72  C   UNL A   1      47.145  30.769  29.423  1.00  0.00     0.031 C 
ATOM     73  C   UNL A   1      47.729  26.169  32.804  1.00  0.00     0.029 A 
ATOM     74  C   UNL A   1      47.741  27.464  32.278  1.00  0.00     0.049 A 
ATOM     75  H   UNL A   1      49.501  28.417  31.612  1.00  0.00     0.167 HD
ATOM     76  C   UNL A   1      46.742  29.572  31.378  1.00  0.00     0.074 A 
ATOM     77  C   UNL A   1      47.695  29.960  30.336  1.00  0.00     0.031 C 
ATOM     78  C   UNL A   1      46.720  28.499  32.226  1.00  0.00     0.034 A 
BRANCH  65  79
ATOM     79  C   UNL A   1      51.230  26.913  29.580  1.00  0.00     0.023 A 
ATOM     80  C   UNL A   1      52.461  26.435  30.054  1.00  0.00     0.031 A 
ATOM     81  C   UNL A   1      51.273  28.189  28.960  1.00  0.00     0.131 A 
ATOM     82  C   UNL A   1      53.610  27.242  30.026  1.00  0.00     0.055 A 
ATOM     83  C   UNL A   1      52.433  28.963  28.881  1.00  0.00     0.041 A 
ATOM     84  F   UNL A   1      50.204  28.811  28.456  1.00  0.00    -0.206 F 
ATOM     85  C   UNL A   1      53.604  28.509  29.450  1.00  0.00     0.022 A 
BRANCH  82  86
ATOM     86  S   UNL A   1      55.066  26.670  30.926  1.00  0.00     0.124 S 
ATOM     87  O   UNL A   1      55.941  27.834  30.834  1.00  0.00    -0.237 OA
ATOM     88  O   UNL A   1      54.507  26.384  32.242  1.00  0.00    -0.237 OA
ATOM     89  O   UNL A   1      55.495  25.501  30.161  1.00  0.00    -0.744 OA
ENDBRANCH  82  86
ENDBRANCH  65  79
BRANCH  66  90
ATOM     90  C   UNL A   1      44.378  31.917  27.951  1.00  0.00     0.023 A 
ATOM     91  C   UNL A   1      43.724  33.095  28.378  1.00  0.00     0.031 A 
ATOM     92  C   UNL A   1      44.942  31.954  26.653  1.00  0.00     0.131 A 
ATOM     93  C   UNL A   1      43.643  34.224  27.519  1.00  0.00     0.055 A 
ATOM     94  C   UNL A   1      44.856  33.066  25.810  1.00  0.00     0.041 A 
ATOM     95  F   UNL A   1      45.675  30.934  26.181  1.00  0.00    -0.206 F 
ATOM     96  C   UNL A   1      44.210  34.209  26.243  1.00  0.00     0.022 A 
BRANCH  93  97
ATOM     97  S   UNL A   1      42.848  35.772  28.072  1.00  0.00     0.124 S 
ATOM     98  O   UNL A   1      42.744  36.530  26.831  1.00  0.00    -0.237 OA
ATOM     99  O   UNL A   1      41.597  35.295  28.648  1.00  0.00    -0.237 OA
ATOM    100  O   UNL A   1      43.798  36.318  29.044  1.00  0.00    -0.744 OA
ENDBRANCH  93  97
ENDBRANCH  66  90
BRANCH  78 101
ATOM    101  C   UNL A   1      45.463  28.248  33.043  1.00  0.00     0.023 A 
ATOM    102  C   UNL A   1      45.096  28.953  34.215  1.00  0.00     0.031 A 
ATOM    103  C   UNL A   1      44.521  27.356  32.501  1.00  0.00     0.131 A 
ATOM    104  C   UNL A   1      43.826  28.748  34.794  1.00  0.00     0.055 A 
ATOM    105  C   UNL A   1      43.259  27.174  33.064  1.00  0.00     0.041 A 
ATOM    106  F   UNL A   1      44.798  26.680  31.373  1.00  0.00    -0.206 F 
ATOM    107  C   UNL A   1      42.907  27.868  34.215  1.00  0.00     0.022 A 
BRANCH 104 108
ATOM    108  S   UNL A   1      43.336  29.628  36.317  1.00  0.00     0.124 S 
ATOM    109  O   UNL A   1      42.117  28.940  36.726  1.00  0.00    -0.237 OA
ATOM    110  O   UNL A   1      44.498  29.438  37.180  1.00  0.00    -0.237 OA
ATOM    111  O   UNL A   1      43.135  31.007  35.866  1.00  0.00    -0.744 OA
ENDBRANCH 104 108
ENDBRANCH  78 101
ENDBRANCH  52  53
ENDBRANCH  45  47
ENDBRANCH  44  45
ENDBRANCH  43  44
ENDBRANCH  42  43
ENDBRANCH  41  42
ENDBRANCH  40  41
ENDBRANCH  39  40
ENDBRANCH  38  39
ENDBRANCH   1  38
TORSDOF 28
ENDMDL
