MODEL 1
REMARK VINA RESULT:     -10.4      0.000      0.000
REMARK SMILES Cc1ccc([C@@H](C)Nc2ccc(N)cc2C(=O)OCCOCCOCCOCCOC(=O)c2ccc(-c3c4nc(c(-c5cc(S(=O)(=O)[O-])ccc5F)c5ccc([nH]5)c(-c5cc(S(=O)(=O)[O-])ccc5F)c5nc(c(-c6cc(S(=O)(=O)[O-])ccc6F)c6ccc3[nH]6)C=C5)C=C4)cc2)cc1F
REMARK SMILES IDX 24 1 23 2 22 3 21 4 20 5 19 6 18 7 16 8 17 9 15 10 9 11
REMARK SMILES IDX 10 12 11 13 14 14 12 15 8 16 6 18 7 19 5 20 1 21 2 22 3 23
REMARK SMILES IDX 97 24 4 25 96 26 98 27 13 28 25 31 26 32 27 33 28 34 29 35
REMARK SMILES IDX 30 36 31 37 32 38 33 39 34 40 95 41 35 42 94 43 36 44 37 45
REMARK SMILES IDX 38 46 88 47 39 48 93 49 87 50 89 51 40 52 92 53 86 54 85 55
REMARK SMILES IDX 41 57 73 58 53 59 72 60 54 61 57 62 71 63 90 64 55 65 56 66
REMARK SMILES IDX 70 68 91 69 58 70 42 71 43 72 51 73 44 74 50 75 52 76 49 77
REMARK SMILES IDX 45 78 46 79 47 80 48 81 74 82 75 83 83 84 76 85 82 86 84 87
REMARK SMILES IDX 81 88 77 89 78 90 79 91 80 92 59 93 60 94 68 95 61 96 67 97
REMARK SMILES IDX 69 98 66 99 62 100 63 101 64 102 65 103
REMARK H PARENT 8 17 13 29 13 30 89 56 57 67
REMARK Flexibility Score: inf
ROOT
ATOM      1  O   UNL A   1      41.592  21.103  25.746  1.00  0.00    -0.377 OA
ENDROOT
BRANCH   1   2
ATOM      2  C   UNL A   1      40.335  21.055  26.385  1.00  0.00     0.188 C 
BRANCH   2   3
ATOM      3  C   UNL A   1      39.817  22.388  26.967  1.00  0.00     0.188 C 
BRANCH   3   4
ATOM      4  O   UNL A   1      38.864  23.167  26.255  1.00  0.00    -0.376 OA
BRANCH   4   5
ATOM      5  C   UNL A   1      37.684  22.610  25.693  1.00  0.00     0.202 C 
BRANCH   5   6
ATOM      6  C   UNL A   1      36.979  23.283  24.514  1.00  0.00     0.261 C 
BRANCH   6   7
ATOM      7  O   UNL A   1      35.549  23.220  24.608  1.00  0.00    -0.460 OA
BRANCH   7   8
ATOM      8  C   UNL A   1      34.902  24.397  24.770  1.00  0.00     0.340 C 
ATOM      9  O   UNL A   1      35.151  25.242  25.615  1.00  0.00    -0.246 OA
BRANCH   8  10
ATOM     10  C   UNL A   1      34.029  24.671  23.607  1.00  0.00     0.085 A 
ATOM     11  C   UNL A   1      33.162  23.779  22.956  1.00  0.00     0.049 A 
ATOM     12  C   UNL A   1      32.376  24.363  21.923  1.00  0.00     0.029 A 
ATOM     13  C   UNL A   1      32.463  25.703  21.530  1.00  0.00     0.027 A 
ATOM     14  C   UNL A   1      34.117  26.034  23.194  1.00  0.00     0.043 A 
ATOM     15  C   UNL A   1      33.375  26.547  22.135  1.00  0.00     0.032 A 
BRANCH  11  16
ATOM     16  N   UNL A   1      32.887  22.452  23.168  1.00  0.00    -0.378 N 
ATOM     17  H   UNL A   1      33.332  21.909  22.478  1.00  0.00     0.161 HD
BRANCH  16  18
ATOM     18  C   UNL A   1      32.150  21.576  24.077  1.00  0.00     0.106 C 
ATOM     19  C   UNL A   1      31.522  22.220  25.297  1.00  0.00     0.036 C 
BRANCH  18  20
ATOM     20  C   UNL A   1      32.831  20.228  24.306  1.00  0.00    -0.023 A 
ATOM     21  C   UNL A   1      34.832  16.380  24.255  1.00  0.00     0.047 C 
ATOM     22  C   UNL A   1      34.144  17.706  24.300  1.00  0.00    -0.015 A 
ATOM     23  C   UNL A   1      32.781  17.796  24.013  1.00  0.00     0.007 A 
ATOM     24  C   UNL A   1      34.827  18.871  24.640  1.00  0.00     0.126 A 
ATOM     25  C   UNL A   1      32.139  19.039  24.003  1.00  0.00     0.006 A 
ATOM     26  C   UNL A   1      34.187  20.112  24.656  1.00  0.00     0.045 A 
ATOM     27  F   UNL A   1      36.140  18.831  24.906  1.00  0.00    -0.207 F 
ENDBRANCH  18  20
ENDBRANCH  16  18
ENDBRANCH  11  16
BRANCH  15  28
ATOM     28  N   UNL A   1      33.433  27.887  21.793  1.00  0.00    -0.399 N 
ATOM     29  H   UNL A   1      32.605  28.379  21.586  1.00  0.00     0.156 HD
ATOM     30  H   UNL A   1      34.301  28.348  21.757  1.00  0.00     0.156 HD
ENDBRANCH  15  28
ENDBRANCH   8  10
ENDBRANCH   7   8
ENDBRANCH   6   7
ENDBRANCH   5   6
ENDBRANCH   4   5
ENDBRANCH   3   4
ENDBRANCH   2   3
ENDBRANCH   1   2
BRANCH   1  31
ATOM     31  C   UNL A   1      42.535  21.928  26.399  1.00  0.00     0.188 C 
BRANCH  31  32
ATOM     32  C   UNL A   1      43.134  23.029  25.505  1.00  0.00     0.188 C 
BRANCH  32  33
ATOM     33  O   UNL A   1      43.673  24.244  26.027  1.00  0.00    -0.376 OA
BRANCH  33  34
ATOM     34  C   UNL A   1      42.884  25.386  26.316  1.00  0.00     0.202 C 
BRANCH  34  35
ATOM     35  C   UNL A   1      42.306  25.629  27.715  1.00  0.00     0.261 C 
BRANCH  35  36
ATOM     36  O   UNL A   1      41.534  26.813  27.817  1.00  0.00    -0.460 OA
BRANCH  36  37
ATOM     37  C   UNL A   1      40.280  26.545  28.226  1.00  0.00     0.338 C 
ATOM     38  O   UNL A   1      39.867  25.503  28.700  1.00  0.00    -0.246 OA
BRANCH  37  39
ATOM     39  C   UNL A   1      39.416  27.710  27.996  1.00  0.00     0.060 A 
ATOM     40  C   UNL A   1      40.104  28.843  27.527  1.00  0.00     0.016 A 
ATOM     41  C   UNL A   1      38.346  27.783  28.877  1.00  0.00     0.016 A 
ATOM     42  C   UNL A   1      40.057  29.979  28.286  1.00  0.00     0.010 A 
ATOM     43  C   UNL A   1      38.278  28.924  29.622  1.00  0.00     0.010 A 
ATOM     44  C   UNL A   1      39.252  29.915  29.407  1.00  0.00    -0.014 A 
BRANCH  44  45
ATOM     45  C   UNL A   1      39.534  30.716  30.566  1.00  0.00     0.031 A 
ATOM     46  C   UNL A   1      40.231  30.092  31.678  1.00  0.00     0.074 A 
ATOM     47  C   UNL A   1      39.343  32.043  30.421  1.00  0.00     0.049 A 
ATOM     48  N   UNL A   1      40.413  30.654  32.814  1.00  0.00    -0.248 NA
ATOM     49  C   UNL A   1      40.741  28.730  31.603  1.00  0.00     0.031 C 
ATOM     50  C   UNL A   1      40.009  33.119  31.132  1.00  0.00     0.029 A 
ATOM     51  N   UNL A   1      38.349  32.689  29.670  1.00  0.00    -0.354 N 
ATOM     52  C   UNL A   1      41.358  29.900  33.466  1.00  0.00     0.074 A 
ATOM     53  C   UNL A   1      41.417  28.649  32.749  1.00  0.00     0.031 C 
ATOM     54  C   UNL A   1      39.273  34.234  31.002  1.00  0.00     0.029 A 
ATOM     55  C   UNL A   1      38.010  33.841  30.394  1.00  0.00     0.049 A 
ATOM     56  H   UNL A   1      37.969  32.394  28.811  1.00  0.00     0.167 HD
ATOM     57  C   UNL A   1      42.116  30.514  34.416  1.00  0.00     0.034 A 
ATOM     58  C   UNL A   1      36.781  34.011  30.969  1.00  0.00     0.034 A 
ATOM     59  C   UNL A   1      41.630  31.880  34.656  1.00  0.00     0.049 A 
ATOM     60  C   UNL A   1      36.842  34.106  32.490  1.00  0.00     0.074 A 
ATOM     61  C   UNL A   1      42.033  33.140  34.243  1.00  0.00     0.029 A 
ATOM     62  N   UNL A   1      40.330  32.038  35.114  1.00  0.00    -0.354 N 
ATOM     63  N   UNL A   1      37.930  33.970  33.200  1.00  0.00    -0.248 NA
ATOM     64  C   UNL A   1      35.660  34.271  33.333  1.00  0.00     0.031 C 
ATOM     65  C   UNL A   1      40.957  34.053  34.465  1.00  0.00     0.029 A 
ATOM     66  C   UNL A   1      39.906  33.353  35.027  1.00  0.00     0.049 A 
ATOM     67  H   UNL A   1      39.775  31.302  35.459  1.00  0.00     0.167 HD
ATOM     68  C   UNL A   1      37.623  33.932  34.535  1.00  0.00     0.074 A 
ATOM     69  C   UNL A   1      36.184  34.142  34.566  1.00  0.00     0.031 C 
ATOM     70  C   UNL A   1      38.561  33.678  35.498  1.00  0.00     0.034 A 
BRANCH  57  71
ATOM     71  C   UNL A   1      43.443  29.960  34.884  1.00  0.00     0.023 A 
ATOM     72  C   UNL A   1      43.631  29.277  36.106  1.00  0.00     0.031 A 
ATOM     73  C   UNL A   1      44.582  30.037  34.060  1.00  0.00     0.131 A 
ATOM     74  C   UNL A   1      44.833  28.613  36.411  1.00  0.00     0.055 A 
ATOM     75  C   UNL A   1      45.799  29.427  34.389  1.00  0.00     0.041 A 
ATOM     76  F   UNL A   1      44.555  30.672  32.880  1.00  0.00    -0.206 F 
ATOM     77  C   UNL A   1      45.924  28.688  35.555  1.00  0.00     0.022 A 
BRANCH  74  78
ATOM     78  S   UNL A   1      44.972  27.554  37.884  1.00  0.00     0.124 S 
ATOM     79  O   UNL A   1      46.129  26.720  37.560  1.00  0.00    -0.237 OA
ATOM     80  O   UNL A   1      45.184  28.525  38.952  1.00  0.00    -0.237 OA
ATOM     81  O   UNL A   1      43.698  26.839  37.925  1.00  0.00    -0.744 OA
ENDBRANCH  74  78
ENDBRANCH  57  71
BRANCH  58  82
ATOM     82  C   UNL A   1      35.653  33.406  30.201  1.00  0.00     0.023 A 
ATOM     83  C   UNL A   1      35.775  32.145  29.592  1.00  0.00     0.031 A 
ATOM     84  C   UNL A   1      34.595  34.244  29.786  1.00  0.00     0.131 A 
ATOM     85  C   UNL A   1      34.907  31.794  28.541  1.00  0.00     0.055 A 
ATOM     86  C   UNL A   1      33.742  33.891  28.739  1.00  0.00     0.041 A 
ATOM     87  F   UNL A   1      34.437  35.457  30.341  1.00  0.00    -0.206 F 
ATOM     88  C   UNL A   1      33.913  32.672  28.093  1.00  0.00     0.022 A 
BRANCH  85  89
ATOM     89  S   UNL A   1      35.136  30.241  27.627  1.00  0.00     0.124 S 
ATOM     90  O   UNL A   1      34.095  30.340  26.608  1.00  0.00    -0.237 OA
ATOM     91  O   UNL A   1      36.508  30.344  27.134  1.00  0.00    -0.237 OA
ATOM     92  O   UNL A   1      34.931  29.219  28.647  1.00  0.00    -0.744 OA
ENDBRANCH  85  89
ENDBRANCH  58  82
BRANCH  70  93
ATOM     93  C   UNL A   1      38.304  33.624  36.990  1.00  0.00     0.023 A 
ATOM     94  C   UNL A   1      37.644  32.498  37.542  1.00  0.00     0.031 A 
ATOM     95  C   UNL A   1      38.772  34.564  37.920  1.00  0.00     0.131 A 
ATOM     96  C   UNL A   1      37.405  32.367  38.913  1.00  0.00     0.055 A 
ATOM     97  C   UNL A   1      38.501  34.457  39.292  1.00  0.00     0.041 A 
ATOM     98  F   UNL A   1      39.565  35.580  37.547  1.00  0.00    -0.206 F 
ATOM     99  C   UNL A   1      37.805  33.362  39.795  1.00  0.00     0.022 A 
BRANCH  96 100
ATOM    100  S   UNL A   1      36.613  30.877  39.578  1.00  0.00     0.124 S 
ATOM    101  O   UNL A   1      37.392  30.643  40.793  1.00  0.00    -0.237 OA
ATOM    102  O   UNL A   1      35.244  31.334  39.791  1.00  0.00    -0.237 OA
ATOM    103  O   UNL A   1      36.785  29.885  38.523  1.00  0.00    -0.744 OA
ENDBRANCH  96 100
ENDBRANCH  70  93
ENDBRANCH  44  45
ENDBRANCH  37  39
ENDBRANCH  36  37
ENDBRANCH  35  36
ENDBRANCH  34  35
ENDBRANCH  33  34
ENDBRANCH  32  33
ENDBRANCH  31  32
ENDBRANCH   1  31
TORSDOF 27
ENDMDL
MODEL 2
REMARK VINA RESULT:     -10.3      2.256      3.712
REMARK SMILES Cc1ccc([C@@H](C)Nc2ccc(N)cc2C(=O)OCCOCCOCCOCCOC(=O)c2ccc(-c3c4nc(c(-c5cc(S(=O)(=O)[O-])ccc5F)c5ccc([nH]5)c(-c5cc(S(=O)(=O)[O-])ccc5F)c5nc(c(-c6cc(S(=O)(=O)[O-])ccc6F)c6ccc3[nH]6)C=C5)C=C4)cc2)cc1F
REMARK SMILES IDX 24 1 23 2 22 3 21 4 20 5 19 6 18 7 16 8 17 9 15 10 9 11
REMARK SMILES IDX 10 12 11 13 14 14 12 15 8 16 6 18 7 19 5 20 1 21 2 22 3 23
REMARK SMILES IDX 97 24 4 25 96 26 98 27 13 28 25 31 26 32 27 33 28 34 29 35
REMARK SMILES IDX 30 36 31 37 32 38 33 39 34 40 95 41 35 42 94 43 36 44 37 45
REMARK SMILES IDX 38 46 88 47 39 48 93 49 87 50 89 51 40 52 92 53 86 54 85 55
REMARK SMILES IDX 41 57 73 58 53 59 72 60 54 61 57 62 71 63 90 64 55 65 56 66
REMARK SMILES IDX 70 68 91 69 58 70 42 71 43 72 51 73 44 74 50 75 52 76 49 77
REMARK SMILES IDX 45 78 46 79 47 80 48 81 74 82 75 83 83 84 76 85 82 86 84 87
REMARK SMILES IDX 81 88 77 89 78 90 79 91 80 92 59 93 60 94 68 95 61 96 67 97
REMARK SMILES IDX 69 98 66 99 62 100 63 101 64 102 65 103
REMARK H PARENT 8 17 13 29 13 30 89 56 57 67
REMARK Flexibility Score: inf
ROOT
ATOM      1  O   UNL A   1      39.108  21.695  25.744  1.00  0.00    -0.377 OA
ENDROOT
BRANCH   1   2
ATOM      2  C   UNL A   1      37.706  21.819  25.651  1.00  0.00     0.188 C 
BRANCH   2   3
ATOM      3  C   UNL A   1      37.152  23.259  25.587  1.00  0.00     0.188 C 
BRANCH   3   4
ATOM      4  O   UNL A   1      36.465  23.721  24.433  1.00  0.00    -0.376 OA
BRANCH   4   5
ATOM      5  C   UNL A   1      35.638  22.876  23.644  1.00  0.00     0.202 C 
BRANCH   5   6
ATOM      6  C   UNL A   1      34.589  23.461  22.696  1.00  0.00     0.261 C 
BRANCH   6   7
ATOM      7  O   UNL A   1      33.557  22.525  22.359  1.00  0.00    -0.460 OA
BRANCH   7   8
ATOM      8  C   UNL A   1      32.506  22.450  23.208  1.00  0.00     0.340 C 
ATOM      9  O   UNL A   1      31.526  23.177  23.200  1.00  0.00    -0.246 OA
BRANCH   8  10
ATOM     10  C   UNL A   1      32.553  21.187  23.978  1.00  0.00     0.085 A 
ATOM     11  C   UNL A   1      32.544  21.032  25.373  1.00  0.00     0.049 A 
ATOM     12  C   UNL A   1      32.498  19.682  25.820  1.00  0.00     0.029 A 
ATOM     13  C   UNL A   1      32.504  18.571  24.969  1.00  0.00     0.027 A 
ATOM     14  C   UNL A   1      32.567  20.049  23.118  1.00  0.00     0.043 A 
ATOM     15  C   UNL A   1      32.587  18.744  23.601  1.00  0.00     0.032 A 
BRANCH  11  16
ATOM     16  N   UNL A   1      32.513  21.947  26.395  1.00  0.00    -0.378 N 
ATOM     17  H   UNL A   1      33.300  21.820  26.974  1.00  0.00     0.161 HD
BRANCH  16  18
ATOM     18  C   UNL A   1      31.700  23.046  26.912  1.00  0.00     0.106 C 
ATOM     19  C   UNL A   1      30.196  22.859  26.893  1.00  0.00     0.036 C 
BRANCH  18  20
ATOM     20  C   UNL A   1      32.210  24.425  26.497  1.00  0.00    -0.023 A 
ATOM     21  C   UNL A   1      33.651  28.083  24.665  1.00  0.00     0.047 C 
ATOM     22  C   UNL A   1      33.153  26.835  25.321  1.00  0.00    -0.015 A 
ATOM     23  C   UNL A   1      34.028  25.775  25.561  1.00  0.00     0.007 A 
ATOM     24  C   UNL A   1      31.825  26.702  25.720  1.00  0.00     0.126 A 
ATOM     25  C   UNL A   1      33.560  24.585  26.127  1.00  0.00     0.006 A 
ATOM     26  C   UNL A   1      31.357  25.526  26.309  1.00  0.00     0.045 A 
ATOM     27  F   UNL A   1      30.949  27.690  25.492  1.00  0.00    -0.207 F 
ENDBRANCH  18  20
ENDBRANCH  16  18
ENDBRANCH  11  16
BRANCH  15  28
ATOM     28  N   UNL A   1      32.539  17.656  22.747  1.00  0.00    -0.399 N 
ATOM     29  H   UNL A   1      32.911  16.788  23.032  1.00  0.00     0.156 HD
ATOM     30  H   UNL A   1      32.134  17.748  21.855  1.00  0.00     0.156 HD
ENDBRANCH  15  28
ENDBRANCH   8  10
ENDBRANCH   7   8
ENDBRANCH   6   7
ENDBRANCH   5   6
ENDBRANCH   4   5
ENDBRANCH   3   4
ENDBRANCH   2   3
ENDBRANCH   1   2
BRANCH   1  31
ATOM     31  C   UNL A   1      39.697  22.556  26.697  1.00  0.00     0.188 C 
BRANCH  31  32
ATOM     32  C   UNL A   1      41.161  22.924  26.393  1.00  0.00     0.188 C 
BRANCH  32  33
ATOM     33  O   UNL A   1      42.019  23.547  27.350  1.00  0.00    -0.376 OA
BRANCH  33  34
ATOM     34  C   UNL A   1      42.141  24.953  27.489  1.00  0.00     0.202 C 
BRANCH  34  35
ATOM     35  C   UNL A   1      41.692  25.675  28.764  1.00  0.00     0.261 C 
BRANCH  35  36
ATOM     36  O   UNL A   1      41.073  26.927  28.525  1.00  0.00    -0.460 OA
BRANCH  36  37
ATOM     37  C   UNL A   1      39.746  26.865  28.737  1.00  0.00     0.338 C 
ATOM     38  O   UNL A   1      39.090  25.877  29.012  1.00  0.00    -0.246 OA
BRANCH  37  39
ATOM     39  C   UNL A   1      39.146  28.194  28.565  1.00  0.00     0.060 A 
ATOM     40  C   UNL A   1      40.083  29.214  28.326  1.00  0.00     0.016 A 
ATOM     41  C   UNL A   1      37.997  28.381  29.322  1.00  0.00     0.016 A 
ATOM     42  C   UNL A   1      40.141  30.251  29.216  1.00  0.00     0.010 A 
ATOM     43  C   UNL A   1      38.037  29.428  30.196  1.00  0.00     0.010 A 
ATOM     44  C   UNL A   1      39.194  30.227  30.221  1.00  0.00    -0.014 A 
BRANCH  44  45
ATOM     45  C   UNL A   1      39.457  30.830  31.498  1.00  0.00     0.031 A 
ATOM     46  C   UNL A   1      40.062  30.009  32.533  1.00  0.00     0.074 A 
ATOM     47  C   UNL A   1      39.343  32.173  31.546  1.00  0.00     0.049 A 
ATOM     48  N   UNL A   1      40.215  30.386  33.748  1.00  0.00    -0.248 NA
ATOM     49  C   UNL A   1      40.504  28.645  32.277  1.00  0.00     0.031 C 
ATOM     50  C   UNL A   1      40.027  33.091  32.439  1.00  0.00     0.029 A 
ATOM     51  N   UNL A   1      38.424  32.980  30.859  1.00  0.00    -0.354 N 
ATOM     52  C   UNL A   1      41.084  29.489  34.320  1.00  0.00     0.074 A 
ATOM     53  C   UNL A   1      41.115  28.356  33.426  1.00  0.00     0.031 C 
ATOM     54  C   UNL A   1      39.357  34.255  32.446  1.00  0.00     0.029 A 
ATOM     55  C   UNL A   1      38.108  34.031  31.732  1.00  0.00     0.049 A 
ATOM     56  H   UNL A   1      38.074  32.838  29.949  1.00  0.00     0.167 HD
ATOM     57  C   UNL A   1      41.823  29.911  35.382  1.00  0.00     0.034 A 
ATOM     58  C   UNL A   1      36.862  34.186  32.272  1.00  0.00     0.034 A 
ATOM     59  C   UNL A   1      41.397  31.252  35.804  1.00  0.00     0.049 A 
ATOM     60  C   UNL A   1      36.849  34.052  33.792  1.00  0.00     0.074 A 
ATOM     61  C   UNL A   1      41.886  32.533  35.602  1.00  0.00     0.029 A 
ATOM     62  N   UNL A   1      40.085  31.417  36.223  1.00  0.00    -0.354 N 
ATOM     63  N   UNL A   1      37.890  33.749  34.519  1.00  0.00    -0.248 NA
ATOM     64  C   UNL A   1      35.635  34.160  34.598  1.00  0.00     0.031 C 
ATOM     65  C   UNL A   1      40.848  33.466  35.912  1.00  0.00     0.029 A 
ATOM     66  C   UNL A   1      39.735  32.754  36.317  1.00  0.00     0.049 A 
ATOM     67  H   UNL A   1      39.475  30.672  36.430  1.00  0.00     0.167 HD
ATOM     68  C   UNL A   1      37.513  33.533  35.819  1.00  0.00     0.074 A 
ATOM     69  C   UNL A   1      36.088  33.820  35.818  1.00  0.00     0.031 C 
ATOM     70  C   UNL A   1      38.387  33.085  36.773  1.00  0.00     0.034 A 
BRANCH  57  71
ATOM     71  C   UNL A   1      43.093  29.216  35.820  1.00  0.00     0.023 A 
ATOM     72  C   UNL A   1      43.134  28.122  36.711  1.00  0.00     0.031 A 
ATOM     73  C   UNL A   1      44.338  29.595  35.281  1.00  0.00     0.131 A 
ATOM     74  C   UNL A   1      44.312  27.388  36.938  1.00  0.00     0.055 A 
ATOM     75  C   UNL A   1      45.525  28.903  35.551  1.00  0.00     0.041 A 
ATOM     76  F   UNL A   1      44.454  30.629  34.435  1.00  0.00    -0.206 F 
ATOM     77  C   UNL A   1      45.514  27.777  36.361  1.00  0.00     0.022 A 
BRANCH  74  78
ATOM     78  S   UNL A   1      44.288  25.850  37.910  1.00  0.00     0.124 S 
ATOM     79  O   UNL A   1      43.112  25.163  37.378  1.00  0.00    -0.237 OA
ATOM     80  O   UNL A   1      45.570  25.243  37.570  1.00  0.00    -0.237 OA
ATOM     81  O   UNL A   1      44.153  26.309  39.291  1.00  0.00    -0.744 OA
ENDBRANCH  74  78
ENDBRANCH  57  71
BRANCH  58  82
ATOM     82  C   UNL A   1      35.745  33.769  31.374  1.00  0.00     0.023 A 
ATOM     83  C   UNL A   1      35.876  32.673  30.503  1.00  0.00     0.031 A 
ATOM     84  C   UNL A   1      34.692  34.680  31.140  1.00  0.00     0.131 A 
ATOM     85  C   UNL A   1      35.023  32.566  29.388  1.00  0.00     0.055 A 
ATOM     86  C   UNL A   1      33.853  34.570  30.030  1.00  0.00     0.041 A 
ATOM     87  F   UNL A   1      34.525  35.740  31.948  1.00  0.00    -0.206 F 
ATOM     88  C   UNL A   1      34.035  33.523  29.132  1.00  0.00     0.022 A 
BRANCH  85  89
ATOM     89  S   UNL A   1      35.266  31.253  28.157  1.00  0.00     0.124 S 
ATOM     90  O   UNL A   1      34.246  31.583  27.165  1.00  0.00    -0.237 OA
ATOM     91  O   UNL A   1      36.647  31.454  27.725  1.00  0.00    -0.237 OA
ATOM     92  O   UNL A   1      35.038  30.031  28.920  1.00  0.00    -0.744 OA
ENDBRANCH  85  89
ENDBRANCH  58  82
BRANCH  70  93
ATOM     93  C   UNL A   1      38.051  32.826  38.227  1.00  0.00     0.023 A 
ATOM     94  C   UNL A   1      38.276  33.847  39.185  1.00  0.00     0.031 A 
ATOM     95  C   UNL A   1      37.414  31.675  38.712  1.00  0.00     0.131 A 
ATOM     96  C   UNL A   1      37.958  33.688  40.537  1.00  0.00     0.055 A 
ATOM     97  C   UNL A   1      37.129  31.495  40.074  1.00  0.00     0.041 A 
ATOM     98  F   UNL A   1      36.984  30.713  37.882  1.00  0.00    -0.206 F 
ATOM     99  C   UNL A   1      37.410  32.498  40.996  1.00  0.00     0.022 A 
BRANCH  96 100
ATOM    100  S   UNL A   1      38.206  35.047  41.713  1.00  0.00     0.124 S 
ATOM    101  O   UNL A   1      37.014  34.935  42.553  1.00  0.00    -0.237 OA
ATOM    102  O   UNL A   1      39.460  34.665  42.353  1.00  0.00    -0.237 OA
ATOM    103  O   UNL A   1      38.269  36.235  40.870  1.00  0.00    -0.744 OA
ENDBRANCH  96 100
ENDBRANCH  70  93
ENDBRANCH  44  45
ENDBRANCH  37  39
ENDBRANCH  36  37
ENDBRANCH  35  36
ENDBRANCH  34  35
ENDBRANCH  33  34
ENDBRANCH  32  33
ENDBRANCH  31  32
ENDBRANCH   1  31
TORSDOF 27
ENDMDL
MODEL 3
REMARK VINA RESULT:      -9.8      3.661      7.114
REMARK SMILES Cc1ccc([C@@H](C)Nc2ccc(N)cc2C(=O)OCCOCCOCCOCCOC(=O)c2ccc(-c3c4nc(c(-c5cc(S(=O)(=O)[O-])ccc5F)c5ccc([nH]5)c(-c5cc(S(=O)(=O)[O-])ccc5F)c5nc(c(-c6cc(S(=O)(=O)[O-])ccc6F)c6ccc3[nH]6)C=C5)C=C4)cc2)cc1F
REMARK SMILES IDX 24 1 23 2 22 3 21 4 20 5 19 6 18 7 16 8 17 9 15 10 9 11
REMARK SMILES IDX 10 12 11 13 14 14 12 15 8 16 6 18 7 19 5 20 1 21 2 22 3 23
REMARK SMILES IDX 97 24 4 25 96 26 98 27 13 28 25 31 26 32 27 33 28 34 29 35
REMARK SMILES IDX 30 36 31 37 32 38 33 39 34 40 95 41 35 42 94 43 36 44 37 45
REMARK SMILES IDX 38 46 88 47 39 48 93 49 87 50 89 51 40 52 92 53 86 54 85 55
REMARK SMILES IDX 41 57 73 58 53 59 72 60 54 61 57 62 71 63 90 64 55 65 56 66
REMARK SMILES IDX 70 68 91 69 58 70 42 71 43 72 51 73 44 74 50 75 52 76 49 77
REMARK SMILES IDX 45 78 46 79 47 80 48 81 74 82 75 83 83 84 76 85 82 86 84 87
REMARK SMILES IDX 81 88 77 89 78 90 79 91 80 92 59 93 60 94 68 95 61 96 67 97
REMARK SMILES IDX 69 98 66 99 62 100 63 101 64 102 65 103
REMARK H PARENT 8 17 13 29 13 30 89 56 57 67
REMARK Flexibility Score: inf
ROOT
ATOM      1  O   UNL A   1      35.163  22.195  23.829  1.00  0.00    -0.377 OA
ENDROOT
BRANCH   1   2
ATOM      2  C   UNL A   1      34.735  23.454  24.298  1.00  0.00     0.188 C 
BRANCH   2   3
ATOM      3  C   UNL A   1      33.223  23.748  24.173  1.00  0.00     0.188 C 
BRANCH   3   4
ATOM      4  O   UNL A   1      32.521  24.389  25.229  1.00  0.00    -0.376 OA
BRANCH   4   5
ATOM      5  C   UNL A   1      31.106  24.348  25.345  1.00  0.00     0.202 C 
BRANCH   5   6
ATOM      6  C   UNL A   1      30.276  25.633  25.350  1.00  0.00     0.261 C 
BRANCH   6   7
ATOM      7  O   UNL A   1      30.384  26.373  24.127  1.00  0.00    -0.460 OA
BRANCH   7   8
ATOM      8  C   UNL A   1      31.216  27.440  24.136  1.00  0.00     0.340 C 
ATOM      9  O   UNL A   1      32.431  27.402  24.027  1.00  0.00    -0.246 OA
BRANCH   8  10
ATOM     10  C   UNL A   1      30.446  28.697  24.007  1.00  0.00     0.085 A 
ATOM     11  C   UNL A   1      30.758  29.954  24.549  1.00  0.00     0.049 A 
ATOM     12  C   UNL A   1      29.873  31.000  24.170  1.00  0.00     0.029 A 
ATOM     13  C   UNL A   1      28.746  30.823  23.358  1.00  0.00     0.027 A 
ATOM     14  C   UNL A   1      29.292  28.523  23.187  1.00  0.00     0.043 A 
ATOM     15  C   UNL A   1      28.416  29.564  22.894  1.00  0.00     0.032 A 
BRANCH  11  16
ATOM     16  N   UNL A   1      31.798  30.377  25.338  1.00  0.00    -0.378 N 
ATOM     17  H   UNL A   1      32.649  30.245  24.860  1.00  0.00     0.161 HD
BRANCH  16  18
ATOM     18  C   UNL A   1      32.063  30.959  26.653  1.00  0.00     0.106 C 
ATOM     19  C   UNL A   1      31.554  32.365  26.900  1.00  0.00     0.036 C 
BRANCH  18  20
ATOM     20  C   UNL A   1      33.461  30.648  27.183  1.00  0.00    -0.023 A 
ATOM     21  C   UNL A   1      37.618  29.721  28.010  1.00  0.00     0.047 C 
ATOM     22  C   UNL A   1      36.181  30.044  27.752  1.00  0.00    -0.015 A 
ATOM     23  C   UNL A   1      35.286  29.028  27.413  1.00  0.00     0.007 A 
ATOM     24  C   UNL A   1      35.696  31.346  27.856  1.00  0.00     0.126 A 
ATOM     25  C   UNL A   1      33.952  29.328  27.120  1.00  0.00     0.006 A 
ATOM     26  C   UNL A   1      34.360  31.648  27.589  1.00  0.00     0.045 A 
ATOM     27  F   UNL A   1      36.527  32.353  28.162  1.00  0.00    -0.207 F 
ENDBRANCH  18  20
ENDBRANCH  16  18
ENDBRANCH  11  16
BRANCH  15  28
ATOM     28  N   UNL A   1      27.336  29.384  22.047  1.00  0.00    -0.399 N 
ATOM     29  H   UNL A   1      27.239  28.542  21.544  1.00  0.00     0.156 HD
ATOM     30  H   UNL A   1      26.665  30.097  21.947  1.00  0.00     0.156 HD
ENDBRANCH  15  28
ENDBRANCH   8  10
ENDBRANCH   7   8
ENDBRANCH   6   7
ENDBRANCH   5   6
ENDBRANCH   4   5
ENDBRANCH   3   4
ENDBRANCH   2   3
ENDBRANCH   1   2
BRANCH   1  31
ATOM     31  C   UNL A   1      35.775  21.393  24.818  1.00  0.00     0.188 C 
BRANCH  31  32
ATOM     32  C   UNL A   1      37.223  20.986  24.491  1.00  0.00     0.188 C 
BRANCH  32  33
ATOM     33  O   UNL A   1      38.168  20.609  25.494  1.00  0.00    -0.376 OA
BRANCH  33  34
ATOM     34  C   UNL A   1      39.195  21.469  25.960  1.00  0.00     0.202 C 
BRANCH  34  35
ATOM     35  C   UNL A   1      38.906  22.920  26.359  1.00  0.00     0.261 C 
BRANCH  35  36
ATOM     36  O   UNL A   1      39.975  23.812  26.090  1.00  0.00    -0.460 OA
BRANCH  36  37
ATOM     37  C   UNL A   1      40.427  24.387  27.220  1.00  0.00     0.338 C 
ATOM     38  O   UNL A   1      41.132  23.880  28.073  1.00  0.00    -0.246 OA
BRANCH  37  39
ATOM     39  C   UNL A   1      39.922  25.762  27.321  1.00  0.00     0.060 A 
ATOM     40  C   UNL A   1      40.674  26.698  26.589  1.00  0.00     0.016 A 
ATOM     41  C   UNL A   1      39.345  26.047  28.551  1.00  0.00     0.016 A 
ATOM     42  C   UNL A   1      41.257  27.727  27.275  1.00  0.00     0.010 A 
ATOM     43  C   UNL A   1      39.906  27.088  29.233  1.00  0.00     0.010 A 
ATOM     44  C   UNL A   1      40.965  27.785  28.624  1.00  0.00    -0.014 A 
BRANCH  44  45
ATOM     45  C   UNL A   1      41.892  28.364  29.557  1.00  0.00     0.031 A 
ATOM     46  C   UNL A   1      42.915  27.507  30.131  1.00  0.00     0.074 A 
ATOM     47  C   UNL A   1      41.882  29.711  29.631  1.00  0.00     0.049 A 
ATOM     48  N   UNL A   1      43.704  27.867  31.073  1.00  0.00    -0.248 NA
ATOM     49  C   UNL A   1      43.091  26.125  29.707  1.00  0.00     0.031 C 
ATOM     50  C   UNL A   1      42.976  30.587  30.008  1.00  0.00     0.029 A 
ATOM     51  N   UNL A   1      40.777  30.568  29.518  1.00  0.00    -0.354 N 
ATOM     52  C   UNL A   1      44.702  26.924  31.115  1.00  0.00     0.074 A 
ATOM     53  C   UNL A   1      44.203  25.798  30.364  1.00  0.00     0.031 C 
ATOM     54  C   UNL A   1      42.466  31.783  30.345  1.00  0.00     0.029 A 
ATOM     55  C   UNL A   1      41.020  31.626  30.405  1.00  0.00     0.049 A 
ATOM     56  H   UNL A   1      39.992  30.450  28.935  1.00  0.00     0.167 HD
ATOM     57  C   UNL A   1      45.910  27.300  31.617  1.00  0.00     0.034 A 
ATOM     58  C   UNL A   1      40.257  31.839  31.519  1.00  0.00     0.034 A 
ATOM     59  C   UNL A   1      45.834  28.658  32.174  1.00  0.00     0.049 A 
ATOM     60  C   UNL A   1      41.044  31.695  32.818  1.00  0.00     0.074 A 
ATOM     61  C   UNL A   1      46.200  29.915  31.719  1.00  0.00     0.029 A 
ATOM     62  N   UNL A   1      44.952  28.885  33.221  1.00  0.00    -0.354 N 
ATOM     63  N   UNL A   1      42.298  31.335  32.890  1.00  0.00    -0.248 NA
ATOM     64  C   UNL A   1      40.448  31.856  34.142  1.00  0.00     0.031 C 
ATOM     65  C   UNL A   1      45.528  30.895  32.513  1.00  0.00     0.029 A 
ATOM     66  C   UNL A   1      44.767  30.236  33.459  1.00  0.00     0.049 A 
ATOM     67  H   UNL A   1      44.511  28.169  33.734  1.00  0.00     0.167 HD
ATOM     68  C   UNL A   1      42.657  31.128  34.197  1.00  0.00     0.074 A 
ATOM     69  C   UNL A   1      41.462  31.485  34.945  1.00  0.00     0.031 C 
ATOM     70  C   UNL A   1      43.881  30.630  34.552  1.00  0.00     0.034 A 
BRANCH  57  71
ATOM     71  C   UNL A   1      47.186  26.541  31.330  1.00  0.00     0.023 A 
ATOM     72  C   UNL A   1      47.718  26.342  30.037  1.00  0.00     0.031 A 
ATOM     73  C   UNL A   1      47.973  26.040  32.385  1.00  0.00     0.131 A 
ATOM     74  C   UNL A   1      49.000  25.800  29.834  1.00  0.00     0.055 A 
ATOM     75  C   UNL A   1      49.224  25.445  32.182  1.00  0.00     0.041 A 
ATOM     76  F   UNL A   1      47.584  26.140  33.664  1.00  0.00    -0.206 F 
ATOM     77  C   UNL A   1      49.758  25.346  30.906  1.00  0.00     0.022 A 
BRANCH  74  78
ATOM     78  S   UNL A   1      49.752  25.765  28.178  1.00  0.00     0.124 S 
ATOM     79  O   UNL A   1      50.968  26.554  28.370  1.00  0.00    -0.237 OA
ATOM     80  O   UNL A   1      49.964  24.338  27.959  1.00  0.00    -0.237 OA
ATOM     81  O   UNL A   1      48.747  26.391  27.321  1.00  0.00    -0.744 OA
ENDBRANCH  74  78
ENDBRANCH  57  71
BRANCH  58  82
ATOM     82  C   UNL A   1      38.817  31.484  31.357  1.00  0.00     0.023 A 
ATOM     83  C   UNL A   1      37.823  32.475  31.264  1.00  0.00     0.031 A 
ATOM     84  C   UNL A   1      38.411  30.165  31.654  1.00  0.00     0.131 A 
ATOM     85  C   UNL A   1      36.485  32.147  31.552  1.00  0.00     0.055 A 
ATOM     86  C   UNL A   1      37.082  29.848  31.944  1.00  0.00     0.041 A 
ATOM     87  F   UNL A   1      39.323  29.183  31.751  1.00  0.00    -0.206 F 
ATOM     88  C   UNL A   1      36.116  30.849  31.919  1.00  0.00     0.022 A 
BRANCH  85  89
ATOM     89  S   UNL A   1      35.203  33.434  31.595  1.00  0.00     0.124 S 
ATOM     90  O   UNL A   1      34.047  32.685  32.080  1.00  0.00    -0.237 OA
ATOM     91  O   UNL A   1      35.750  34.416  32.529  1.00  0.00    -0.237 OA
ATOM     92  O   UNL A   1      35.133  33.884  30.210  1.00  0.00    -0.744 OA
ENDBRANCH  85  89
ENDBRANCH  58  82
BRANCH  70  93
ATOM     93  C   UNL A   1      44.355  30.378  35.970  1.00  0.00     0.023 A 
ATOM     94  C   UNL A   1      44.612  29.049  36.391  1.00  0.00     0.031 A 
ATOM     95  C   UNL A   1      44.678  31.378  36.898  1.00  0.00     0.131 A 
ATOM     96  C   UNL A   1      45.082  28.748  37.672  1.00  0.00     0.055 A 
ATOM     97  C   UNL A   1      45.113  31.079  38.198  1.00  0.00     0.041 A 
ATOM     98  F   UNL A   1      44.652  32.677  36.563  1.00  0.00    -0.206 F 
ATOM     99  C   UNL A   1      45.307  29.760  38.595  1.00  0.00     0.022 A 
BRANCH  96 100
ATOM    100  S   UNL A   1      45.458  27.037  38.143  1.00  0.00     0.124 S 
ATOM    101  O   UNL A   1      44.539  26.284  37.291  1.00  0.00    -0.237 OA
ATOM    102  O   UNL A   1      46.870  26.930  37.786  1.00  0.00    -0.237 OA
ATOM    103  O   UNL A   1      45.168  26.992  39.571  1.00  0.00    -0.744 OA
ENDBRANCH  96 100
ENDBRANCH  70  93
ENDBRANCH  44  45
ENDBRANCH  37  39
ENDBRANCH  36  37
ENDBRANCH  35  36
ENDBRANCH  34  35
ENDBRANCH  33  34
ENDBRANCH  32  33
ENDBRANCH  31  32
ENDBRANCH   1  31
TORSDOF 27
ENDMDL
