MODEL 1
REMARK VINA RESULT:      -9.5      0.000      0.000
REMARK SMILES O=C(OCCOCCOCCOCCOC(=O)[C@@H]1CCCC[C@H]1C(=O)Nc1ccccc1C(=O)N1CCOCC1)c1ccc(-c2c3nc(c(-c4cc(S(=O)(=O)[O-])ccc4F)c4ccc([nH]4)c(-c4cc(S(=O)(=O)[O-])ccc4F)c4nc(c(-c5cc(S(=O)(=O)[O-])ccc5F)c5ccc2[nH]5)C=C4)C=C3)cc1
REMARK SMILES IDX 9 1 8 2 7 3 6 4 5 5 4 6 3 7 2 8 1 9 41 10 42 11 103 12 43 13
REMARK SMILES IDX 102 14 44 15 45 16 46 17 96 18 47 19 101 20 95 21 97 22
REMARK SMILES IDX 48 23 100 24 94 25 93 26 49 28 81 29 61 30 80 31 62 32 65 33
REMARK SMILES IDX 79 34 98 35 63 36 64 37 78 39 99 40 66 41 50 42 51 43 59 44
REMARK SMILES IDX 52 45 58 46 60 47 57 48 53 49 54 50 55 51 56 52 82 53 83 54
REMARK SMILES IDX 91 55 84 56 90 57 92 58 89 59 85 60 86 61 87 62 88 63 67 64
REMARK SMILES IDX 68 65 76 66 69 67 75 68 77 69 74 70 70 71 71 72 72 73 73 74
REMARK SMILES IDX 10 75 11 76 12 77 13 78 14 79 15 80 16 81 17 82 18 83 19 84
REMARK SMILES IDX 23 85 20 86 22 87 21 88 24 89 25 90 26 91 27 93 28 94 32 95
REMARK SMILES IDX 29 96 31 97 30 98 33 99 34 100 35 101 36 102 40 103 37 104
REMARK SMILES IDX 39 105 38 106
REMARK H PARENT 97 27 65 38 26 92
REMARK Flexibility Score: inf
ROOT
ATOM      1  O   UNL A   1      50.948  24.206  40.990  1.00  0.00    -0.377 OA
ENDROOT
BRANCH   1   2
ATOM      2  C   UNL A   1      50.714  23.973  39.610  1.00  0.00     0.188 C 
BRANCH   2   3
ATOM      3  C   UNL A   1      49.567  24.863  39.166  1.00  0.00     0.188 C 
BRANCH   3   4
ATOM      4  O   UNL A   1      48.916  24.205  38.087  1.00  0.00    -0.376 OA
BRANCH   4   5
ATOM      5  C   UNL A   1      48.865  24.736  36.770  1.00  0.00     0.202 C 
BRANCH   5   6
ATOM      6  C   UNL A   1      48.911  26.246  36.577  1.00  0.00     0.261 C 
BRANCH   6   7
ATOM      7  O   UNL A   1      47.838  27.038  37.144  1.00  0.00    -0.460 OA
BRANCH   7   8
ATOM      8  C   UNL A   1      46.520  26.779  37.347  1.00  0.00     0.338 C 
ATOM      9  O   UNL A   1      46.152  26.358  38.440  1.00  0.00    -0.246 OA
BRANCH   8  10
ATOM     10  C   UNL A   1      45.512  26.933  36.270  1.00  0.00     0.060 A 
ATOM     11  C   UNL A   1      45.711  27.796  35.220  1.00  0.00     0.016 A 
ATOM     12  C   UNL A   1      44.387  26.120  36.185  1.00  0.00     0.016 A 
ATOM     13  C   UNL A   1      44.753  28.168  34.331  1.00  0.00     0.010 A 
ATOM     14  C   UNL A   1      43.460  26.319  35.144  1.00  0.00     0.010 A 
ATOM     15  C   UNL A   1      43.622  27.399  34.259  1.00  0.00    -0.014 A 
BRANCH  15  16
ATOM     16  C   UNL A   1      42.590  27.962  33.387  1.00  0.00     0.031 A 
ATOM     17  C   UNL A   1      41.748  29.033  33.995  1.00  0.00     0.074 A 
ATOM     18  C   UNL A   1      42.657  27.770  32.052  1.00  0.00     0.049 A 
ATOM     19  N   UNL A   1      40.715  29.649  33.505  1.00  0.00    -0.248 NA
ATOM     20  C   UNL A   1      42.148  29.496  35.340  1.00  0.00     0.031 C 
ATOM     21  C   UNL A   1      43.688  26.984  31.351  1.00  0.00     0.029 A 
ATOM     22  N   UNL A   1      41.901  28.282  31.036  1.00  0.00    -0.354 N 
ATOM     23  C   UNL A   1      40.308  30.529  34.499  1.00  0.00     0.074 A 
ATOM     24  C   UNL A   1      41.210  30.383  35.615  1.00  0.00     0.031 C 
ATOM     25  C   UNL A   1      43.503  27.091  30.026  1.00  0.00     0.029 A 
ATOM     26  C   UNL A   1      42.277  27.834  29.789  1.00  0.00     0.049 A 
ATOM     27  H   UNL A   1      41.158  28.911  31.181  1.00  0.00     0.167 HD
ATOM     28  C   UNL A   1      39.245  31.360  34.468  1.00  0.00     0.034 A 
ATOM     29  C   UNL A   1      41.636  27.955  28.611  1.00  0.00     0.034 A 
ATOM     30  C   UNL A   1      38.381  31.424  33.323  1.00  0.00     0.049 A 
ATOM     31  C   UNL A   1      40.335  28.720  28.650  1.00  0.00     0.074 A 
ATOM     32  C   UNL A   1      37.149  32.027  33.186  1.00  0.00     0.029 A 
ATOM     33  N   UNL A   1      38.685  30.838  32.095  1.00  0.00    -0.354 N 
ATOM     34  N   UNL A   1      39.800  29.383  29.655  1.00  0.00    -0.248 NA
ATOM     35  C   UNL A   1      39.538  28.737  27.422  1.00  0.00     0.031 C 
ATOM     36  C   UNL A   1      36.684  31.757  31.892  1.00  0.00     0.029 A 
ATOM     37  C   UNL A   1      37.658  31.049  31.198  1.00  0.00     0.049 A 
ATOM     38  H   UNL A   1      39.512  30.343  31.897  1.00  0.00     0.167 HD
ATOM     39  C   UNL A   1      38.604  29.902  29.176  1.00  0.00     0.074 A 
ATOM     40  C   UNL A   1      38.525  29.509  27.780  1.00  0.00     0.031 C 
ATOM     41  C   UNL A   1      37.645  30.622  29.818  1.00  0.00     0.034 A 
BRANCH  28  42
ATOM     42  C   UNL A   1      38.927  32.077  35.750  1.00  0.00     0.023 A 
ATOM     43  C   UNL A   1      38.332  31.421  36.845  1.00  0.00     0.031 A 
ATOM     44  C   UNL A   1      39.060  33.475  35.810  1.00  0.00     0.131 A 
ATOM     45  C   UNL A   1      37.824  32.174  37.915  1.00  0.00     0.055 A 
ATOM     46  C   UNL A   1      38.623  34.210  36.914  1.00  0.00     0.041 A 
ATOM     47  F   UNL A   1      39.568  34.157  34.772  1.00  0.00    -0.206 F 
ATOM     48  C   UNL A   1      37.987  33.561  37.968  1.00  0.00     0.022 A 
BRANCH  45  49
ATOM     49  S   UNL A   1      36.804  31.340  39.164  1.00  0.00     0.124 S 
ATOM     50  O   UNL A   1      35.606  32.177  39.170  1.00  0.00    -0.237 OA
ATOM     51  O   UNL A   1      36.645  30.003  38.605  1.00  0.00    -0.237 OA
ATOM     52  O   UNL A   1      37.615  31.416  40.377  1.00  0.00    -0.744 OA
ENDBRANCH  45  49
ENDBRANCH  28  42
BRANCH  29  53
ATOM     53  C   UNL A   1      42.097  27.235  27.382  1.00  0.00     0.023 A 
ATOM     54  C   UNL A   1      42.088  25.833  27.301  1.00  0.00     0.031 A 
ATOM     55  C   UNL A   1      42.660  27.939  26.297  1.00  0.00     0.131 A 
ATOM     56  C   UNL A   1      42.686  25.185  26.203  1.00  0.00     0.055 A 
ATOM     57  C   UNL A   1      43.187  27.294  25.176  1.00  0.00     0.041 A 
ATOM     58  F   UNL A   1      42.723  29.281  26.311  1.00  0.00    -0.206 F 
ATOM     59  C   UNL A   1      43.222  25.907  25.134  1.00  0.00     0.022 A 
BRANCH  56  60
ATOM     60  S   UNL A   1      42.882  23.381  26.254  1.00  0.00     0.124 S 
ATOM     61  O   UNL A   1      42.701  23.023  24.852  1.00  0.00    -0.237 OA
ATOM     62  O   UNL A   1      44.233  23.240  26.785  1.00  0.00    -0.237 OA
ATOM     63  O   UNL A   1      41.811  22.948  27.151  1.00  0.00    -0.744 OA
ENDBRANCH  56  60
ENDBRANCH  29  53
BRANCH  41  64
ATOM     64  C   UNL A   1      36.469  31.038  28.984  1.00  0.00     0.023 A 
ATOM     65  C   UNL A   1      35.549  30.096  28.499  1.00  0.00     0.031 A 
ATOM     66  C   UNL A   1      36.279  32.393  28.665  1.00  0.00     0.131 A 
ATOM     67  C   UNL A   1      34.513  30.514  27.657  1.00  0.00     0.055 A 
ATOM     68  C   UNL A   1      35.203  32.811  27.886  1.00  0.00     0.041 A 
ATOM     69  F   UNL A   1      37.134  33.328  29.111  1.00  0.00    -0.206 F 
ATOM     70  C   UNL A   1      34.323  31.868  27.364  1.00  0.00     0.022 A 
BRANCH  67  71
ATOM     71  S   UNL A   1      33.483  29.251  26.867  1.00  0.00     0.124 S 
ATOM     72  O   UNL A   1      34.427  28.618  25.952  1.00  0.00    -0.237 OA
ATOM     73  O   UNL A   1      33.056  28.441  28.004  1.00  0.00    -0.237 OA
ATOM     74  O   UNL A   1      32.423  30.028  26.227  1.00  0.00    -0.744 OA
ENDBRANCH  67  71
ENDBRANCH  41  64
ENDBRANCH  15  16
ENDBRANCH   8  10
ENDBRANCH   7   8
ENDBRANCH   6   7
ENDBRANCH   5   6
ENDBRANCH   4   5
ENDBRANCH   3   4
ENDBRANCH   2   3
ENDBRANCH   1   2
BRANCH   1  75
ATOM     75  C   UNL A   1      50.997  22.994  41.745  1.00  0.00     0.188 C 
BRANCH  75  76
ATOM     76  C   UNL A   1      50.550  21.755  41.011  1.00  0.00     0.188 C 
BRANCH  76  77
ATOM     77  O   UNL A   1      49.404  20.995  41.322  1.00  0.00    -0.376 OA
BRANCH  77  78
ATOM     78  C   UNL A   1      48.712  20.702  40.083  1.00  0.00     0.202 C 
BRANCH  78  79
ATOM     79  C   UNL A   1      47.163  20.314  40.086  1.00  0.00     0.261 C 
BRANCH  79  80
ATOM     80  O   UNL A   1      46.735  19.320  41.074  1.00  0.00    -0.463 OA
BRANCH  80  81
ATOM     81  C   UNL A   1      47.050  17.989  41.021  1.00  0.00     0.309 C 
ATOM     82  O   UNL A   1      48.194  17.569  41.142  1.00  0.00    -0.252 OA
BRANCH  81  83
ATOM     83  C   UNL A   1      45.780  17.052  40.936  1.00  0.00     0.111 C 
ATOM     84  C   UNL A   1      45.510  16.921  39.414  1.00  0.00     0.016 C 
ATOM     85  C   UNL A   1      44.439  17.427  41.732  1.00  0.00     0.093 C 
ATOM     86  C   UNL A   1      44.346  15.983  39.118  1.00  0.00     0.001 C 
ATOM     87  C   UNL A   1      43.265  16.528  41.289  1.00  0.00     0.014 C 
ATOM     88  C   UNL A   1      43.084  16.496  39.784  1.00  0.00     0.001 C 
BRANCH  85  89
ATOM     89  C   UNL A   1      44.131  17.733  43.274  1.00  0.00     0.228 C 
ATOM     90  O   UNL A   1      43.535  18.787  43.550  1.00  0.00    -0.274 OA
ATOM     91  N   UNL A   1      44.187  16.802  44.318  1.00  0.00    -0.325 N 
ATOM     92  H   UNL A   1      43.431  16.847  44.947  1.00  0.00     0.169 HD
BRANCH  91  93
ATOM     93  C   UNL A   1      45.145  15.806  44.620  1.00  0.00     0.054 A 
ATOM     94  C   UNL A   1      46.500  15.961  44.311  1.00  0.00     0.027 A 
ATOM     95  C   UNL A   1      44.778  14.656  45.271  1.00  0.00     0.063 A 
ATOM     96  C   UNL A   1      47.467  15.170  44.961  1.00  0.00     0.002 A 
ATOM     97  C   UNL A   1      45.721  14.051  46.118  1.00  0.00     0.016 A 
ATOM     98  C   UNL A   1      47.075  14.290  45.955  1.00  0.00     0.001 A 
BRANCH  95  99
ATOM     99  C   UNL A   1      43.358  14.319  45.248  1.00  0.00     0.256 C 
ATOM    100  O   UNL A   1      42.711  15.060  45.953  1.00  0.00    -0.269 OA
ATOM    101  N   UNL A   1      42.756  13.456  44.343  1.00  0.00    -0.334 N 
ATOM    102  C   UNL A   1      43.124  12.057  44.230  1.00  0.00     0.148 C 
ATOM    103  C   UNL A   1      41.363  13.719  43.946  1.00  0.00     0.148 C 
ATOM    104  C   UNL A   1      42.734  11.495  42.855  1.00  0.00     0.181 C 
ATOM    105  C   UNL A   1      41.074  13.147  42.560  1.00  0.00     0.181 C 
ATOM    106  O   UNL A   1      41.351  11.739  42.539  1.00  0.00    -0.378 OA
ENDBRANCH  95  99
ENDBRANCH  91  93
ENDBRANCH  85  89
ENDBRANCH  81  83
ENDBRANCH  80  81
ENDBRANCH  79  80
ENDBRANCH  78  79
ENDBRANCH  77  78
ENDBRANCH  76  77
ENDBRANCH  75  76
ENDBRANCH   1  75
TORSDOF 26
ENDMDL
MODEL 2
REMARK VINA RESULT:      -9.2      8.964     15.710
REMARK SMILES O=C(OCCOCCOCCOCCOC(=O)[C@@H]1CCCC[C@H]1C(=O)Nc1ccccc1C(=O)N1CCOCC1)c1ccc(-c2c3nc(c(-c4cc(S(=O)(=O)[O-])ccc4F)c4ccc([nH]4)c(-c4cc(S(=O)(=O)[O-])ccc4F)c4nc(c(-c5cc(S(=O)(=O)[O-])ccc5F)c5ccc2[nH]5)C=C4)C=C3)cc1
REMARK SMILES IDX 9 1 8 2 7 3 6 4 5 5 4 6 3 7 2 8 1 9 41 10 42 11 103 12 43 13
REMARK SMILES IDX 102 14 44 15 45 16 46 17 96 18 47 19 101 20 95 21 97 22
REMARK SMILES IDX 48 23 100 24 94 25 93 26 49 28 81 29 61 30 80 31 62 32 65 33
REMARK SMILES IDX 79 34 98 35 63 36 64 37 78 39 99 40 66 41 50 42 51 43 59 44
REMARK SMILES IDX 52 45 58 46 60 47 57 48 53 49 54 50 55 51 56 52 82 53 83 54
REMARK SMILES IDX 91 55 84 56 90 57 92 58 89 59 85 60 86 61 87 62 88 63 67 64
REMARK SMILES IDX 68 65 76 66 69 67 75 68 77 69 74 70 70 71 71 72 72 73 73 74
REMARK SMILES IDX 10 75 11 76 12 77 13 78 14 79 15 80 16 81 17 82 18 83 19 84
REMARK SMILES IDX 23 85 20 86 22 87 21 88 24 89 25 90 26 91 27 93 28 94 32 95
REMARK SMILES IDX 29 96 31 97 30 98 33 99 34 100 35 101 36 102 40 103 37 104
REMARK SMILES IDX 39 105 38 106
REMARK H PARENT 97 27 65 38 26 92
REMARK Flexibility Score: inf
ROOT
ATOM      1  O   UNL A   1      37.667  32.895  31.982  1.00  0.00    -0.377 OA
ENDROOT
BRANCH   1   2
ATOM      2  C   UNL A   1      36.560  32.577  31.154  1.00  0.00     0.188 C 
BRANCH   2   3
ATOM      3  C   UNL A   1      36.247  33.789  30.294  1.00  0.00     0.188 C 
BRANCH   3   4
ATOM      4  O   UNL A   1      36.478  33.416  28.941  1.00  0.00    -0.376 OA
BRANCH   4   5
ATOM      5  C   UNL A   1      35.438  33.300  27.980  1.00  0.00     0.202 C 
BRANCH   5   6
ATOM      6  C   UNL A   1      34.314  32.300  28.219  1.00  0.00     0.261 C 
BRANCH   6   7
ATOM      7  O   UNL A   1      34.289  31.097  27.411  1.00  0.00    -0.460 OA
BRANCH   7   8
ATOM      8  C   UNL A   1      34.845  29.870  27.583  1.00  0.00     0.338 C 
ATOM      9  O   UNL A   1      34.197  28.870  27.286  1.00  0.00    -0.246 OA
BRANCH   8  10
ATOM     10  C   UNL A   1      36.194  29.691  28.173  1.00  0.00     0.060 A 
ATOM     11  C   UNL A   1      37.328  30.071  27.497  1.00  0.00     0.016 A 
ATOM     12  C   UNL A   1      36.381  29.268  29.484  1.00  0.00     0.016 A 
ATOM     13  C   UNL A   1      38.594  29.733  27.856  1.00  0.00     0.010 A 
ATOM     14  C   UNL A   1      37.687  29.108  29.987  1.00  0.00     0.010 A 
ATOM     15  C   UNL A   1      38.790  29.280  29.133  1.00  0.00    -0.014 A 
BRANCH  15  16
ATOM     16  C   UNL A   1      40.152  28.801  29.379  1.00  0.00     0.031 A 
ATOM     17  C   UNL A   1      40.830  29.379  30.576  1.00  0.00     0.074 A 
ATOM     18  C   UNL A   1      40.589  27.675  28.777  1.00  0.00     0.049 A 
ATOM     19  N   UNL A   1      42.049  29.216  30.994  1.00  0.00    -0.248 NA
ATOM     20  C   UNL A   1      40.003  30.242  31.445  1.00  0.00     0.031 C 
ATOM     21  C   UNL A   1      39.818  26.859  27.823  1.00  0.00     0.029 A 
ATOM     22  N   UNL A   1      41.750  26.972  28.933  1.00  0.00    -0.354 N 
ATOM     23  C   UNL A   1      42.152  29.997  32.136  1.00  0.00     0.074 A 
ATOM     24  C   UNL A   1      40.873  30.623  32.361  1.00  0.00     0.031 C 
ATOM     25  C   UNL A   1      40.523  25.762  27.505  1.00  0.00     0.029 A 
ATOM     26  C   UNL A   1      41.836  25.863  28.119  1.00  0.00     0.049 A 
ATOM     27  H   UNL A   1      42.457  27.232  29.566  1.00  0.00     0.167 HD
ATOM     28  C   UNL A   1      43.249  30.182  32.901  1.00  0.00     0.034 A 
ATOM     29  C   UNL A   1      42.899  25.081  27.855  1.00  0.00     0.034 A 
ATOM     30  C   UNL A   1      44.493  29.539  32.590  1.00  0.00     0.049 A 
ATOM     31  C   UNL A   1      44.175  25.445  28.577  1.00  0.00     0.074 A 
ATOM     32  C   UNL A   1      45.752  29.767  33.104  1.00  0.00     0.029 A 
ATOM     33  N   UNL A   1      44.618  28.515  31.651  1.00  0.00    -0.354 N 
ATOM     34  N   UNL A   1      44.359  26.351  29.516  1.00  0.00    -0.248 NA
ATOM     35  C   UNL A   1      45.385  24.714  28.196  1.00  0.00     0.031 C 
ATOM     36  C   UNL A   1      46.646  28.921  32.433  1.00  0.00     0.029 A 
ATOM     37  C   UNL A   1      45.934  28.112  31.556  1.00  0.00     0.049 A 
ATOM     38  H   UNL A   1      43.874  28.137  31.130  1.00  0.00     0.167 HD
ATOM     39  C   UNL A   1      45.708  26.292  29.842  1.00  0.00     0.074 A 
ATOM     40  C   UNL A   1      46.274  25.232  29.028  1.00  0.00     0.031 C 
ATOM     41  C   UNL A   1      46.428  27.046  30.715  1.00  0.00     0.034 A 
BRANCH  28  42
ATOM     42  C   UNL A   1      43.135  31.221  33.982  1.00  0.00     0.023 A 
ATOM     43  C   UNL A   1      43.365  32.587  33.731  1.00  0.00     0.031 A 
ATOM     44  C   UNL A   1      42.966  30.813  35.316  1.00  0.00     0.131 A 
ATOM     45  C   UNL A   1      43.497  33.479  34.807  1.00  0.00     0.055 A 
ATOM     46  C   UNL A   1      43.021  31.720  36.376  1.00  0.00     0.041 A 
ATOM     47  F   UNL A   1      42.800  29.515  35.617  1.00  0.00    -0.206 F 
ATOM     48  C   UNL A   1      43.303  33.060  36.126  1.00  0.00     0.022 A 
BRANCH  45  49
ATOM     49  S   UNL A   1      44.086  35.165  34.478  1.00  0.00     0.124 S 
ATOM     50  O   UNL A   1      43.572  35.888  35.639  1.00  0.00    -0.237 OA
ATOM     51  O   UNL A   1      45.532  34.992  34.422  1.00  0.00    -0.237 OA
ATOM     52  O   UNL A   1      43.451  35.508  33.207  1.00  0.00    -0.744 OA
ENDBRANCH  45  49
ENDBRANCH  28  42
BRANCH  29  53
ATOM     53  C   UNL A   1      42.863  24.029  26.790  1.00  0.00     0.023 A 
ATOM     54  C   UNL A   1      42.287  22.768  27.017  1.00  0.00     0.031 A 
ATOM     55  C   UNL A   1      43.506  24.229  25.550  1.00  0.00     0.131 A 
ATOM     56  C   UNL A   1      42.422  21.747  26.058  1.00  0.00     0.055 A 
ATOM     57  C   UNL A   1      43.574  23.236  24.571  1.00  0.00     0.041 A 
ATOM     58  F   UNL A   1      44.097  25.402  25.267  1.00  0.00    -0.206 F 
ATOM     59  C   UNL A   1      43.048  21.977  24.832  1.00  0.00     0.022 A 
BRANCH  56  60
ATOM     60  S   UNL A   1      41.889  20.066  26.491  1.00  0.00     0.124 S 
ATOM     61  O   UNL A   1      40.471  20.108  26.153  1.00  0.00    -0.237 OA
ATOM     62  O   UNL A   1      42.733  19.251  25.626  1.00  0.00    -0.237 OA
ATOM     63  O   UNL A   1      42.187  19.974  27.920  1.00  0.00    -0.744 OA
ENDBRANCH  56  60
ENDBRANCH  29  53
BRANCH  41  64
ATOM     64  C   UNL A   1      47.885  26.702  30.832  1.00  0.00     0.023 A 
ATOM     65  C   UNL A   1      48.330  25.708  31.717  1.00  0.00     0.031 A 
ATOM     66  C   UNL A   1      48.833  27.388  30.055  1.00  0.00     0.131 A 
ATOM     67  C   UNL A   1      49.702  25.474  31.856  1.00  0.00     0.055 A 
ATOM     68  C   UNL A   1      50.192  27.099  30.146  1.00  0.00     0.041 A 
ATOM     69  F   UNL A   1      48.450  28.345  29.194  1.00  0.00    -0.206 F 
ATOM     70  C   UNL A   1      50.634  26.149  31.062  1.00  0.00     0.022 A 
BRANCH  67  71
ATOM     71  S   UNL A   1      50.254  24.350  33.165  1.00  0.00     0.124 S 
ATOM     72  O   UNL A   1      49.024  24.135  33.919  1.00  0.00    -0.237 OA
ATOM     73  O   UNL A   1      50.746  23.205  32.405  1.00  0.00    -0.237 OA
ATOM     74  O   UNL A   1      51.283  25.120  33.862  1.00  0.00    -0.744 OA
ENDBRANCH  67  71
ENDBRANCH  41  64
ENDBRANCH  15  16
ENDBRANCH   8  10
ENDBRANCH   7   8
ENDBRANCH   6   7
ENDBRANCH   5   6
ENDBRANCH   4   5
ENDBRANCH   3   4
ENDBRANCH   2   3
ENDBRANCH   1   2
BRANCH   1  75
ATOM     75  C   UNL A   1      38.309  34.110  31.589  1.00  0.00     0.188 C 
BRANCH  75  76
ATOM     76  C   UNL A   1      39.752  33.976  31.176  1.00  0.00     0.188 C 
BRANCH  76  77
ATOM     77  O   UNL A   1      40.291  34.410  29.948  1.00  0.00    -0.376 OA
BRANCH  77  78
ATOM     78  C   UNL A   1      41.736  34.361  30.050  1.00  0.00     0.202 C 
BRANCH  78  79
ATOM     79  C   UNL A   1      42.626  35.617  29.627  1.00  0.00     0.261 C 
BRANCH  79  80
ATOM     80  O   UNL A   1      43.630  35.392  28.584  1.00  0.00    -0.463 OA
BRANCH  80  81
ATOM     81  C   UNL A   1      43.741  36.139  27.442  1.00  0.00     0.309 C 
ATOM     82  O   UNL A   1      42.814  36.297  26.655  1.00  0.00    -0.252 OA
BRANCH  81  83
ATOM     83  C   UNL A   1      45.126  36.888  27.321  1.00  0.00     0.111 C 
ATOM     84  C   UNL A   1      44.739  38.333  26.908  1.00  0.00     0.016 C 
ATOM     85  C   UNL A   1      46.284  36.308  26.374  1.00  0.00     0.093 C 
ATOM     86  C   UNL A   1      45.955  39.245  26.807  1.00  0.00     0.001 C 
ATOM     87  C   UNL A   1      47.425  37.334  26.205  1.00  0.00     0.014 C 
ATOM     88  C   UNL A   1      46.927  38.702  25.780  1.00  0.00     0.001 C 
BRANCH  85  89
ATOM     89  C   UNL A   1      47.026  34.890  26.296  1.00  0.00     0.228 C 
ATOM     90  O   UNL A   1      47.322  34.449  25.173  1.00  0.00    -0.274 OA
ATOM     91  N   UNL A   1      47.649  34.234  27.364  1.00  0.00    -0.325 N 
ATOM     92  H   UNL A   1      48.529  33.848  27.150  1.00  0.00     0.169 HD
BRANCH  91  93
ATOM     93  C   UNL A   1      47.229  34.036  28.700  1.00  0.00     0.054 A 
ATOM     94  C   UNL A   1      47.388  35.018  29.683  1.00  0.00     0.027 A 
ATOM     95  C   UNL A   1      46.608  32.871  29.074  1.00  0.00     0.063 A 
ATOM     96  C   UNL A   1      46.625  34.965  30.865  1.00  0.00     0.002 A 
ATOM     97  C   UNL A   1      45.654  32.936  30.102  1.00  0.00     0.016 A 
ATOM     98  C   UNL A   1      45.669  33.975  31.017  1.00  0.00     0.001 A 
BRANCH  95  99
ATOM     99  C   UNL A   1      46.783  31.726  28.186  1.00  0.00     0.256 C 
ATOM    100  O   UNL A   1      47.917  31.304  28.218  1.00  0.00    -0.269 OA
ATOM    101  N   UNL A   1      45.754  31.016  27.585  1.00  0.00    -0.334 N 
ATOM    102  C   UNL A   1      44.811  31.628  26.665  1.00  0.00     0.148 C 
ATOM    103  C   UNL A   1      45.944  29.577  27.341  1.00  0.00     0.148 C 
ATOM    104  C   UNL A   1      43.512  30.815  26.586  1.00  0.00     0.181 C 
ATOM    105  C   UNL A   1      44.603  28.848  27.302  1.00  0.00     0.181 C 
ATOM    106  O   UNL A   1      43.755  29.426  26.299  1.00  0.00    -0.378 OA
ENDBRANCH  95  99
ENDBRANCH  91  93
ENDBRANCH  85  89
ENDBRANCH  81  83
ENDBRANCH  80  81
ENDBRANCH  79  80
ENDBRANCH  78  79
ENDBRANCH  77  78
ENDBRANCH  76  77
ENDBRANCH  75  76
ENDBRANCH   1  75
TORSDOF 26
ENDMDL
MODEL 3
REMARK VINA RESULT:      -9.0     10.029     15.560
REMARK SMILES O=C(OCCOCCOCCOCCOC(=O)[C@@H]1CCCC[C@H]1C(=O)Nc1ccccc1C(=O)N1CCOCC1)c1ccc(-c2c3nc(c(-c4cc(S(=O)(=O)[O-])ccc4F)c4ccc([nH]4)c(-c4cc(S(=O)(=O)[O-])ccc4F)c4nc(c(-c5cc(S(=O)(=O)[O-])ccc5F)c5ccc2[nH]5)C=C4)C=C3)cc1
REMARK SMILES IDX 9 1 8 2 7 3 6 4 5 5 4 6 3 7 2 8 1 9 41 10 42 11 103 12 43 13
REMARK SMILES IDX 102 14 44 15 45 16 46 17 96 18 47 19 101 20 95 21 97 22
REMARK SMILES IDX 48 23 100 24 94 25 93 26 49 28 81 29 61 30 80 31 62 32 65 33
REMARK SMILES IDX 79 34 98 35 63 36 64 37 78 39 99 40 66 41 50 42 51 43 59 44
REMARK SMILES IDX 52 45 58 46 60 47 57 48 53 49 54 50 55 51 56 52 82 53 83 54
REMARK SMILES IDX 91 55 84 56 90 57 92 58 89 59 85 60 86 61 87 62 88 63 67 64
REMARK SMILES IDX 68 65 76 66 69 67 75 68 77 69 74 70 70 71 71 72 72 73 73 74
REMARK SMILES IDX 10 75 11 76 12 77 13 78 14 79 15 80 16 81 17 82 18 83 19 84
REMARK SMILES IDX 23 85 20 86 22 87 21 88 24 89 25 90 26 91 27 93 28 94 32 95
REMARK SMILES IDX 29 96 31 97 30 98 33 99 34 100 35 101 36 102 40 103 37 104
REMARK SMILES IDX 39 105 38 106
REMARK H PARENT 97 27 65 38 26 92
REMARK Flexibility Score: inf
ROOT
ATOM      1  O   UNL A   1      38.691  30.327  28.938  1.00  0.00    -0.377 OA
ENDROOT
BRANCH   1   2
ATOM      2  C   UNL A   1      39.269  29.988  30.189  1.00  0.00     0.188 C 
BRANCH   2   3
ATOM      3  C   UNL A   1      38.199  29.339  31.047  1.00  0.00     0.188 C 
BRANCH   3   4
ATOM      4  O   UNL A   1      37.508  30.384  31.721  1.00  0.00    -0.376 OA
BRANCH   4   5
ATOM      5  C   UNL A   1      38.058  31.680  31.915  1.00  0.00     0.202 C 
BRANCH   5   6
ATOM      6  C   UNL A   1      37.833  32.389  33.244  1.00  0.00     0.261 C 
BRANCH   6   7
ATOM      7  O   UNL A   1      38.750  32.108  34.330  1.00  0.00    -0.460 OA
BRANCH   7   8
ATOM      8  C   UNL A   1      39.985  32.587  34.630  1.00  0.00     0.338 C 
ATOM      9  O   UNL A   1      40.102  33.440  35.505  1.00  0.00    -0.246 OA
BRANCH   8  10
ATOM     10  C   UNL A   1      41.198  32.153  33.895  1.00  0.00     0.060 A 
ATOM     11  C   UNL A   1      41.485  32.633  32.640  1.00  0.00     0.016 A 
ATOM     12  C   UNL A   1      42.177  31.358  34.480  1.00  0.00     0.016 A 
ATOM     13  C   UNL A   1      42.431  32.120  31.812  1.00  0.00     0.010 A 
ATOM     14  C   UNL A   1      43.303  30.971  33.728  1.00  0.00     0.010 A 
ATOM     15  C   UNL A   1      43.383  31.305  32.366  1.00  0.00    -0.014 A 
BRANCH  15  16
ATOM     16  C   UNL A   1      44.265  30.684  31.377  1.00  0.00     0.031 A 
ATOM     17  C   UNL A   1      45.587  31.350  31.187  1.00  0.00     0.074 A 
ATOM     18  C   UNL A   1      44.028  29.422  30.960  1.00  0.00     0.049 A 
ATOM     19  N   UNL A   1      46.530  31.085  30.332  1.00  0.00    -0.248 NA
ATOM     20  C   UNL A   1      45.903  32.456  32.114  1.00  0.00     0.031 C 
ATOM     21  C   UNL A   1      42.899  28.577  31.387  1.00  0.00     0.029 A 
ATOM     22  N   UNL A   1      44.758  28.595  30.154  1.00  0.00    -0.354 N 
ATOM     23  C   UNL A   1      47.522  32.023  30.581  1.00  0.00     0.074 A 
ATOM     24  C   UNL A   1      47.081  32.855  31.673  1.00  0.00     0.031 C 
ATOM     25  C   UNL A   1      43.033  27.353  30.854  1.00  0.00     0.029 A 
ATOM     26  C   UNL A   1      44.171  27.365  29.950  1.00  0.00     0.049 A 
ATOM     27  H   UNL A   1      45.621  28.852  29.757  1.00  0.00     0.167 HD
ATOM     28  C   UNL A   1      48.687  32.174  29.916  1.00  0.00     0.034 A 
ATOM     29  C   UNL A   1      44.491  26.406  29.062  1.00  0.00     0.034 A 
ATOM     30  C   UNL A   1      49.037  31.315  28.820  1.00  0.00     0.049 A 
ATOM     31  C   UNL A   1      45.684  26.698  28.184  1.00  0.00     0.074 A 
ATOM     32  C   UNL A   1      50.050  31.443  27.894  1.00  0.00     0.029 A 
ATOM     33  N   UNL A   1      48.350  30.143  28.510  1.00  0.00    -0.354 N 
ATOM     34  N   UNL A   1      46.524  27.712  28.247  1.00  0.00    -0.248 NA
ATOM     35  C   UNL A   1      45.965  25.748  27.106  1.00  0.00     0.031 C 
ATOM     36  C   UNL A   1      49.939  30.377  26.991  1.00  0.00     0.029 A 
ATOM     37  C   UNL A   1      48.903  29.544  27.397  1.00  0.00     0.049 A 
ATOM     38  H   UNL A   1      47.579  29.793  29.012  1.00  0.00     0.167 HD
ATOM     39  C   UNL A   1      47.437  27.515  27.219  1.00  0.00     0.074 A 
ATOM     40  C   UNL A   1      47.066  26.263  26.584  1.00  0.00     0.031 C 
ATOM     41  C   UNL A   1      48.476  28.293  26.814  1.00  0.00     0.034 A 
BRANCH  28  42
ATOM     42  C   UNL A   1      49.503  33.384  30.274  1.00  0.00     0.023 A 
ATOM     43  C   UNL A   1      49.364  34.608  29.592  1.00  0.00     0.031 A 
ATOM     44  C   UNL A   1      50.557  33.257  31.196  1.00  0.00     0.131 A 
ATOM     45  C   UNL A   1      50.312  35.625  29.787  1.00  0.00     0.055 A 
ATOM     46  C   UNL A   1      51.451  34.301  31.441  1.00  0.00     0.041 A 
ATOM     47  F   UNL A   1      50.771  32.094  31.832  1.00  0.00    -0.206 F 
ATOM     48  C   UNL A   1      51.341  35.488  30.724  1.00  0.00     0.022 A 
BRANCH  45  49
ATOM     49  S   UNL A   1      50.286  37.067  28.684  1.00  0.00     0.124 S 
ATOM     50  O   UNL A   1      48.867  37.150  28.344  1.00  0.00    -0.237 OA
ATOM     51  O   UNL A   1      50.801  38.130  29.538  1.00  0.00    -0.237 OA
ATOM     52  O   UNL A   1      51.162  36.673  27.583  1.00  0.00    -0.744 OA
ENDBRANCH  45  49
ENDBRANCH  28  42
BRANCH  29  53
ATOM     53  C   UNL A   1      43.621  25.207  28.844  1.00  0.00     0.023 A 
ATOM     54  C   UNL A   1      42.493  25.255  28.009  1.00  0.00     0.031 A 
ATOM     55  C   UNL A   1      43.842  24.011  29.559  1.00  0.00     0.131 A 
ATOM     56  C   UNL A   1      41.602  24.166  27.961  1.00  0.00     0.055 A 
ATOM     57  C   UNL A   1      42.995  22.905  29.452  1.00  0.00     0.041 A 
ATOM     58  F   UNL A   1      44.888  23.895  30.393  1.00  0.00    -0.206 F 
ATOM     59  C   UNL A   1      41.853  22.988  28.666  1.00  0.00     0.022 A 
BRANCH  56  60
ATOM     60  S   UNL A   1      40.031  24.362  27.073  1.00  0.00     0.124 S 
ATOM     61  O   UNL A   1      39.117  24.699  28.159  1.00  0.00    -0.237 OA
ATOM     62  O   UNL A   1      40.344  25.438  26.140  1.00  0.00    -0.237 OA
ATOM     63  O   UNL A   1      39.819  23.050  26.463  1.00  0.00    -0.744 OA
ENDBRANCH  56  60
ENDBRANCH  29  53
BRANCH  41  64
ATOM     64  C   UNL A   1      49.277  27.768  25.659  1.00  0.00     0.023 A 
ATOM     65  C   UNL A   1      48.849  27.945  24.334  1.00  0.00     0.031 A 
ATOM     66  C   UNL A   1      50.476  27.073  25.893  1.00  0.00     0.131 A 
ATOM     67  C   UNL A   1      49.581  27.370  23.290  1.00  0.00     0.055 A 
ATOM     68  C   UNL A   1      51.237  26.566  24.844  1.00  0.00     0.041 A 
ATOM     69  F   UNL A   1      50.923  26.883  27.145  1.00  0.00    -0.206 F 
ATOM     70  C   UNL A   1      50.783  26.698  23.535  1.00  0.00     0.022 A 
BRANCH  67  71
ATOM     71  S   UNL A   1      48.884  27.422  21.619  1.00  0.00     0.124 S 
ATOM     72  O   UNL A   1      49.870  28.226  20.904  1.00  0.00    -0.237 OA
ATOM     73  O   UNL A   1      48.832  26.008  21.260  1.00  0.00    -0.237 OA
ATOM     74  O   UNL A   1      47.584  28.061  21.813  1.00  0.00    -0.744 OA
ENDBRANCH  67  71
ENDBRANCH  41  64
ENDBRANCH  15  16
ENDBRANCH   8  10
ENDBRANCH   7   8
ENDBRANCH   6   7
ENDBRANCH   5   6
ENDBRANCH   4   5
ENDBRANCH   3   4
ENDBRANCH   2   3
ENDBRANCH   1   2
BRANCH   1  75
ATOM     75  C   UNL A   1      37.649  29.425  28.560  1.00  0.00     0.188 C 
BRANCH  75  76
ATOM     76  C   UNL A   1      36.257  30.004  28.563  1.00  0.00     0.188 C 
BRANCH  76  77
ATOM     77  O   UNL A   1      35.085  29.306  28.209  1.00  0.00    -0.376 OA
BRANCH  77  78
ATOM     78  C   UNL A   1      34.333  30.133  27.286  1.00  0.00     0.202 C 
BRANCH  78  79
ATOM     79  C   UNL A   1      33.572  29.482  26.042  1.00  0.00     0.261 C 
BRANCH  79  80
ATOM     80  O   UNL A   1      33.571  28.019  25.962  1.00  0.00    -0.463 OA
BRANCH  80  81
ATOM     81  C   UNL A   1      32.512  27.225  26.311  1.00  0.00     0.309 C 
ATOM     82  O   UNL A   1      31.891  27.363  27.358  1.00  0.00    -0.252 OA
BRANCH  81  83
ATOM     83  C   UNL A   1      32.086  26.220  25.169  1.00  0.00     0.111 C 
ATOM     84  C   UNL A   1      31.275  27.097  24.178  1.00  0.00     0.016 C 
ATOM     85  C   UNL A   1      31.294  24.871  25.527  1.00  0.00     0.093 C 
ATOM     86  C   UNL A   1      30.828  26.311  22.951  1.00  0.00     0.001 C 
ATOM     87  C   UNL A   1      30.753  24.193  24.250  1.00  0.00     0.014 C 
ATOM     88  C   UNL A   1      29.960  25.142  23.372  1.00  0.00     0.001 C 
BRANCH  85  89
ATOM     89  C   UNL A   1      31.610  23.646  26.510  1.00  0.00     0.228 C 
ATOM     90  O   UNL A   1      30.813  23.424  27.437  1.00  0.00    -0.274 OA
ATOM     91  N   UNL A   1      32.519  22.611  26.260  1.00  0.00    -0.325 N 
ATOM     92  H   UNL A   1      32.187  21.712  26.484  1.00  0.00     0.169 HD
BRANCH  91  93
ATOM     93  C   UNL A   1      33.833  22.639  25.738  1.00  0.00     0.054 A 
ATOM     94  C   UNL A   1      34.754  23.630  26.096  1.00  0.00     0.027 A 
ATOM     95  C   UNL A   1      34.268  21.661  24.882  1.00  0.00     0.063 A 
ATOM     96  C   UNL A   1      36.131  23.420  25.894  1.00  0.00     0.002 A 
ATOM     97  C   UNL A   1      35.629  21.315  24.915  1.00  0.00     0.016 A 
ATOM     98  C   UNL A   1      36.572  22.203  25.404  1.00  0.00     0.001 A 
BRANCH  95  99
ATOM     99  C   UNL A   1      33.236  20.871  24.217  1.00  0.00     0.256 C 
ATOM    100  O   UNL A   1      32.670  21.507  23.357  1.00  0.00    -0.269 OA
ATOM    101  N   UNL A   1      33.082  19.497  24.333  1.00  0.00    -0.334 N 
ATOM    102  C   UNL A   1      32.814  18.842  25.601  1.00  0.00     0.148 C 
ATOM    103  C   UNL A   1      32.558  18.751  23.178  1.00  0.00     0.148 C 
ATOM    104  C   UNL A   1      33.226  17.363  25.553  1.00  0.00     0.181 C 
ATOM    105  C   UNL A   1      33.036  17.300  23.202  1.00  0.00     0.181 C 
ATOM    106  O   UNL A   1      32.647  16.672  24.432  1.00  0.00    -0.378 OA
ENDBRANCH  95  99
ENDBRANCH  91  93
ENDBRANCH  85  89
ENDBRANCH  81  83
ENDBRANCH  80  81
ENDBRANCH  79  80
ENDBRANCH  78  79
ENDBRANCH  77  78
ENDBRANCH  76  77
ENDBRANCH  75  76
ENDBRANCH   1  75
TORSDOF 26
ENDMDL
