MODEL 1
REMARK VINA RESULT:      -9.9      0.000      0.000
REMARK SMILES O=C(OCCOCCOCCOCCOC(=O)c1ccc(-c2c3nc(c(-c4cc(S(=O)(=O)[O-])ccc4F)c4ccc([nH]4)c(-c4cc(S(=O)(=O)[O-])ccc4F)c4nc(c(-c5cc(S(=O)(=O)[O-])ccc5F)c5ccc2[nH]5)C=C4)C=C3)cc1)C1=Cc2cc(S(F)(F)(F)(F)F)cc(Br)c2O[C@@H]1C(F)(F)F
REMARK SMILES IDX 10 1 9 2 8 3 7 4 6 5 5 6 4 7 3 8 2 9 1 10 81 11 82 12 97 13
REMARK SMILES IDX 83 14 96 15 84 16 95 17 85 18 93 19 92 20 94 21 98 22 99 23
REMARK SMILES IDX 100 24 101 25 86 26 87 27 88 28 89 29 90 30 91 31 11 32
REMARK SMILES IDX 12 33 13 34 14 35 15 36 16 37 17 38 18 39 19 40 80 41 20 42
REMARK SMILES IDX 79 43 21 44 22 45 23 46 73 47 24 48 78 49 72 50 74 51 25 52
REMARK SMILES IDX 77 53 71 54 70 55 26 57 58 58 38 59 57 60 39 61 42 62 56 63
REMARK SMILES IDX 75 64 40 65 41 66 55 68 76 69 43 70 27 71 28 72 36 73 29 74
REMARK SMILES IDX 35 75 37 76 34 77 30 78 31 79 32 80 33 81 59 82 60 83 68 84
REMARK SMILES IDX 61 85 67 86 69 87 66 88 62 89 63 90 64 91 65 92 44 93 45 94
REMARK SMILES IDX 53 95 46 96 52 97 54 98 51 99 47 100 48 101 49 102 50 103
REMARK H PARENT 74 56 42 67
REMARK Flexibility Score: inf
ROOT
ATOM      1  C   UNL A   1      38.390  23.670  26.235  1.00  0.00     0.188 C 
ENDROOT
BRANCH   1   2
ATOM      2  O   UNL A   1      37.724  23.455  24.999  1.00  0.00    -0.377 OA
BRANCH   2   3
ATOM      3  C   UNL A   1      36.347  23.770  25.143  1.00  0.00     0.188 C 
BRANCH   3   4
ATOM      4  C   UNL A   1      35.682  22.738  26.039  1.00  0.00     0.188 C 
BRANCH   4   5
ATOM      5  O   UNL A   1      34.696  23.371  26.841  1.00  0.00    -0.376 OA
BRANCH   5   6
ATOM      6  C   UNL A   1      34.022  22.394  27.621  1.00  0.00     0.202 C 
BRANCH   6   7
ATOM      7  C   UNL A   1      32.529  22.466  27.343  1.00  0.00     0.261 C 
BRANCH   7   8
ATOM      8  O   UNL A   1      32.188  23.778  26.921  1.00  0.00    -0.460 OA
BRANCH   8   9
ATOM      9  C   UNL A   1      31.082  23.980  26.053  1.00  0.00     0.338 C 
ATOM     10  O   UNL A   1      30.004  24.480  26.503  1.00  0.00    -0.246 OA
BRANCH   9  11
ATOM     11  C   UNL A   1      31.188  23.598  24.586  1.00  0.00     0.087 C 
ATOM     12  C   UNL A   1      31.097  24.557  23.625  1.00  0.00     0.027 C 
ATOM     13  C   UNL A   1      31.395  22.145  24.192  1.00  0.00     0.316 C 
ATOM     14  C   UNL A   1      30.890  26.011  24.019  1.00  0.00     0.020 A 
ATOM     15  O   UNL A   1      32.443  25.681  25.787  1.00  0.00    -0.474 OA
ATOM     16  C   UNL A   1      29.953  26.773  23.340  1.00  0.00     0.036 A 
ATOM     17  C   UNL A   1      31.610  26.527  25.008  1.00  0.00     0.142 A 
ATOM     18  C   UNL A   1      30.054  28.161  23.589  1.00  0.00     0.109 A 
ATOM     19  C   UNL A   1      31.556  27.872  25.285  1.00  0.00     0.062 A 
ATOM     20  C   UNL A   1      30.696  28.695  24.612  1.00  0.00     0.044 A 
ATOM     21  Br  UNL A   1      32.731  28.622  26.663  1.00  0.00    -0.047 Br
BRANCH  13  22
ATOM     22  C   UNL A   1      32.695  22.012  23.415  1.00  0.00     0.430 C 
ATOM     23  F   UNL A   1      32.442  22.077  22.111  1.00  0.00    -0.167 F 
ATOM     24  F   UNL A   1      33.517  23.001  23.756  1.00  0.00    -0.167 F 
ATOM     25  F   UNL A   1      33.264  20.845  23.699  1.00  0.00    -0.167 F 
ENDBRANCH  13  22
BRANCH  18  26
ATOM     26  S   UNL A   1      29.244  29.286  22.424  1.00  0.00     0.310 S 
ATOM     27  F   UNL A   1      29.520  30.543  23.350  1.00  0.00    -0.094 F 
ATOM     28  F   UNL A   1      27.895  29.087  23.214  1.00  0.00    -0.094 F 
ATOM     29  F   UNL A   1      28.548  30.252  21.423  1.00  0.00    -0.094 F 
ATOM     30  F   UNL A   1      30.632  29.582  21.732  1.00  0.00    -0.094 F 
ATOM     31  F   UNL A   1      29.986  28.396  23.499  1.00  0.00    -0.094 F 
ENDBRANCH  18  26
ENDBRANCH   9  11
ENDBRANCH   8   9
ENDBRANCH   7   8
ENDBRANCH   6   7
ENDBRANCH   5   6
ENDBRANCH   4   5
ENDBRANCH   3   4
ENDBRANCH   2   3
ENDBRANCH   1   2
BRANCH   1  32
ATOM     32  C   UNL A   1      39.347  22.519  26.501  1.00  0.00     0.188 C 
BRANCH  32  33
ATOM     33  O   UNL A   1      38.944  21.384  25.750  1.00  0.00    -0.376 OA
BRANCH  33  34
ATOM     34  C   UNL A   1      39.736  20.266  26.119  1.00  0.00     0.202 C 
BRANCH  34  35
ATOM     35  C   UNL A   1      41.084  20.745  26.631  1.00  0.00     0.261 C 
BRANCH  35  36
ATOM     36  O   UNL A   1      42.078  20.501  25.646  1.00  0.00    -0.460 OA
BRANCH  36  37
ATOM     37  C   UNL A   1      43.317  21.191  25.701  1.00  0.00     0.338 C 
ATOM     38  O   UNL A   1      44.375  20.632  25.272  1.00  0.00    -0.246 OA
BRANCH  37  39
ATOM     39  C   UNL A   1      43.381  22.597  26.274  1.00  0.00     0.060 A 
ATOM     40  C   UNL A   1      43.687  22.773  27.613  1.00  0.00     0.016 A 
ATOM     41  C   UNL A   1      43.142  23.634  25.480  1.00  0.00     0.016 A 
ATOM     42  C   UNL A   1      43.431  24.079  28.092  1.00  0.00     0.010 A 
ATOM     43  C   UNL A   1      43.040  24.902  25.997  1.00  0.00     0.010 A 
ATOM     44  C   UNL A   1      43.271  25.141  27.324  1.00  0.00    -0.014 A 
BRANCH  44  45
ATOM     45  C   UNL A   1      43.341  26.553  27.883  1.00  0.00     0.031 A 
ATOM     46  C   UNL A   1      42.144  27.172  28.250  1.00  0.00     0.074 A 
ATOM     47  C   UNL A   1      44.585  27.146  27.999  1.00  0.00     0.049 A 
ATOM     48  N   UNL A   1      41.985  28.382  28.787  1.00  0.00    -0.248 NA
ATOM     49  C   UNL A   1      40.817  26.558  28.096  1.00  0.00     0.031 C 
ATOM     50  C   UNL A   1      45.797  26.525  27.640  1.00  0.00     0.029 A 
ATOM     51  N   UNL A   1      44.881  28.408  28.466  1.00  0.00    -0.354 N 
ATOM     52  C   UNL A   1      40.693  28.620  29.016  1.00  0.00     0.074 A 
ATOM     53  C   UNL A   1      39.921  27.451  28.570  1.00  0.00     0.031 C 
ATOM     54  C   UNL A   1      46.807  27.403  27.877  1.00  0.00     0.029 A 
ATOM     55  C   UNL A   1      46.244  28.587  28.388  1.00  0.00     0.049 A 
ATOM     56  H   UNL A   1      44.230  29.067  28.799  1.00  0.00     0.167 HD
ATOM     57  C   UNL A   1      40.126  29.763  29.583  1.00  0.00     0.034 A 
ATOM     58  C   UNL A   1      46.973  29.713  28.735  1.00  0.00     0.034 A 
ATOM     59  C   UNL A   1      40.860  30.872  29.972  1.00  0.00     0.049 A 
ATOM     60  C   UNL A   1      46.401  30.880  29.249  1.00  0.00     0.074 A 
ATOM     61  C   UNL A   1      40.306  32.030  30.551  1.00  0.00     0.029 A 
ATOM     62  N   UNL A   1      42.220  31.061  29.870  1.00  0.00    -0.354 N 
ATOM     63  N   UNL A   1      45.113  31.100  29.515  1.00  0.00    -0.248 NA
ATOM     64  C   UNL A   1      47.160  32.090  29.590  1.00  0.00     0.031 C 
ATOM     65  C   UNL A   1      41.317  32.908  30.788  1.00  0.00     0.029 A 
ATOM     66  C   UNL A   1      42.518  32.314  30.359  1.00  0.00     0.049 A 
ATOM     67  H   UNL A   1      42.868  30.413  29.511  1.00  0.00     0.167 HD
ATOM     68  C   UNL A   1      44.951  32.328  30.014  1.00  0.00     0.074 A 
ATOM     69  C   UNL A   1      46.264  32.985  30.062  1.00  0.00     0.031 C 
ATOM     70  C   UNL A   1      43.760  32.925  30.434  1.00  0.00     0.034 A 
BRANCH  57  71
ATOM     71  C   UNL A   1      38.620  29.792  29.786  1.00  0.00     0.023 A 
ATOM     72  C   UNL A   1      37.835  30.456  28.859  1.00  0.00     0.031 A 
ATOM     73  C   UNL A   1      38.080  29.176  30.831  1.00  0.00     0.131 A 
ATOM     74  C   UNL A   1      36.500  30.663  29.282  1.00  0.00     0.055 A 
ATOM     75  C   UNL A   1      36.741  29.310  31.108  1.00  0.00     0.041 A 
ATOM     76  F   UNL A   1      38.842  28.422  31.619  1.00  0.00    -0.206 F 
ATOM     77  C   UNL A   1      35.916  30.004  30.266  1.00  0.00     0.022 A 
BRANCH  74  78
ATOM     78  S   UNL A   1      35.525  31.916  28.412  1.00  0.00     0.124 S 
ATOM     79  O   UNL A   1      36.459  32.999  27.865  1.00  0.00    -0.237 OA
ATOM     80  O   UNL A   1      34.769  31.260  27.254  1.00  0.00    -0.237 OA
ATOM     81  O   UNL A   1      34.407  32.622  29.496  1.00  0.00    -0.744 OA
ENDBRANCH  74  78
ENDBRANCH  57  71
BRANCH  58  82
ATOM     82  C   UNL A   1      48.481  29.677  28.548  1.00  0.00     0.023 A 
ATOM     83  C   UNL A   1      49.253  29.055  29.517  1.00  0.00     0.031 A 
ATOM     84  C   UNL A   1      49.037  30.230  27.477  1.00  0.00     0.131 A 
ATOM     85  C   UNL A   1      50.638  29.322  29.406  1.00  0.00     0.055 A 
ATOM     86  C   UNL A   1      50.402  30.338  27.372  1.00  0.00     0.041 A 
ATOM     87  F   UNL A   1      48.263  30.686  26.496  1.00  0.00    -0.206 F 
ATOM     88  C   UNL A   1      51.224  29.797  28.322  1.00  0.00     0.022 A 
BRANCH  85  89
ATOM     89  S   UNL A   1      51.677  28.991  30.850  1.00  0.00     0.124 S 
ATOM     90  O   UNL A   1      52.703  30.116  31.009  1.00  0.00    -0.237 OA
ATOM     91  O   UNL A   1      50.801  28.918  32.103  1.00  0.00    -0.237 OA
ATOM     92  O   UNL A   1      52.491  27.502  30.636  1.00  0.00    -0.744 OA
ENDBRANCH  85  89
ENDBRANCH  58  82
BRANCH  70  93
ATOM     93  C   UNL A   1      43.831  34.331  31.009  1.00  0.00     0.023 A 
ATOM     94  C   UNL A   1      43.850  34.502  32.383  1.00  0.00     0.031 A 
ATOM     95  C   UNL A   1      43.873  35.371  30.185  1.00  0.00     0.131 A 
ATOM     96  C   UNL A   1      43.623  35.835  32.799  1.00  0.00     0.055 A 
ATOM     97  C   UNL A   1      43.782  36.652  30.671  1.00  0.00     0.041 A 
ATOM     98  F   UNL A   1      44.004  35.170  28.877  1.00  0.00    -0.206 F 
ATOM     99  C   UNL A   1      43.738  36.892  32.016  1.00  0.00     0.022 A 
BRANCH  96 100
ATOM    100  S   UNL A   1      43.141  36.110  34.522  1.00  0.00     0.124 S 
ATOM    101  O   UNL A   1      42.877  37.601  34.745  1.00  0.00    -0.237 OA
ATOM    102  O   UNL A   1      41.870  35.315  34.828  1.00  0.00    -0.237 OA
ATOM    103  O   UNL A   1      44.400  35.593  35.555  1.00  0.00    -0.744 OA
ENDBRANCH  96 100
ENDBRANCH  70  93
ENDBRANCH  44  45
ENDBRANCH  37  39
ENDBRANCH  36  37
ENDBRANCH  35  36
ENDBRANCH  34  35
ENDBRANCH  33  34
ENDBRANCH  32  33
ENDBRANCH   1  32
TORSDOF 25
ENDMDL
MODEL 2
REMARK VINA RESULT:      -9.6      1.805      2.161
REMARK SMILES O=C(OCCOCCOCCOCCOC(=O)c1ccc(-c2c3nc(c(-c4cc(S(=O)(=O)[O-])ccc4F)c4ccc([nH]4)c(-c4cc(S(=O)(=O)[O-])ccc4F)c4nc(c(-c5cc(S(=O)(=O)[O-])ccc5F)c5ccc2[nH]5)C=C4)C=C3)cc1)C1=Cc2cc(S(F)(F)(F)(F)F)cc(Br)c2O[C@@H]1C(F)(F)F
REMARK SMILES IDX 10 1 9 2 8 3 7 4 6 5 5 6 4 7 3 8 2 9 1 10 81 11 82 12 97 13
REMARK SMILES IDX 83 14 96 15 84 16 95 17 85 18 93 19 92 20 94 21 98 22 99 23
REMARK SMILES IDX 100 24 101 25 86 26 87 27 88 28 89 29 90 30 91 31 11 32
REMARK SMILES IDX 12 33 13 34 14 35 15 36 16 37 17 38 18 39 19 40 80 41 20 42
REMARK SMILES IDX 79 43 21 44 22 45 23 46 73 47 24 48 78 49 72 50 74 51 25 52
REMARK SMILES IDX 77 53 71 54 70 55 26 57 58 58 38 59 57 60 39 61 42 62 56 63
REMARK SMILES IDX 75 64 40 65 41 66 55 68 76 69 43 70 27 71 28 72 36 73 29 74
REMARK SMILES IDX 35 75 37 76 34 77 30 78 31 79 32 80 33 81 59 82 60 83 68 84
REMARK SMILES IDX 61 85 67 86 69 87 66 88 62 89 63 90 64 91 65 92 44 93 45 94
REMARK SMILES IDX 53 95 46 96 52 97 54 98 51 99 47 100 48 101 49 102 50 103
REMARK H PARENT 74 56 42 67
REMARK Flexibility Score: inf
ROOT
ATOM      1  C   UNL A   1      38.665  23.499  26.312  1.00  0.00     0.188 C 
ENDROOT
BRANCH   1   2
ATOM      2  O   UNL A   1      37.725  23.095  25.328  1.00  0.00    -0.377 OA
BRANCH   2   3
ATOM      3  C   UNL A   1      36.461  23.676  25.614  1.00  0.00     0.188 C 
BRANCH   3   4
ATOM      4  C   UNL A   1      35.560  22.636  26.261  1.00  0.00     0.188 C 
BRANCH   4   5
ATOM      5  O   UNL A   1      34.932  23.199  27.404  1.00  0.00    -0.376 OA
BRANCH   5   6
ATOM      6  C   UNL A   1      33.793  22.423  27.747  1.00  0.00     0.202 C 
BRANCH   6   7
ATOM      7  C   UNL A   1      32.709  22.622  26.699  1.00  0.00     0.261 C 
BRANCH   7   8
ATOM      8  O   UNL A   1      32.329  23.990  26.666  1.00  0.00    -0.460 OA
BRANCH   8   9
ATOM      9  C   UNL A   1      31.251  24.407  25.840  1.00  0.00     0.338 C 
ATOM     10  O   UNL A   1      30.222  24.941  26.360  1.00  0.00    -0.246 OA
BRANCH   9  11
ATOM     11  C   UNL A   1      31.330  24.217  24.335  1.00  0.00     0.087 C 
ATOM     12  C   UNL A   1      31.314  25.299  23.510  1.00  0.00     0.027 C 
ATOM     13  C   UNL A   1      31.427  22.817  23.750  1.00  0.00     0.316 C 
ATOM     14  C   UNL A   1      31.217  26.699  24.094  1.00  0.00     0.020 A 
ATOM     15  O   UNL A   1      32.738  26.021  25.790  1.00  0.00    -0.474 OA
ATOM     16  C   UNL A   1      30.342  27.612  23.530  1.00  0.00     0.036 A 
ATOM     17  C   UNL A   1      31.972  27.023  25.137  1.00  0.00     0.142 A 
ATOM     18  C   UNL A   1      30.547  28.944  23.959  1.00  0.00     0.109 A 
ATOM     19  C   UNL A   1      32.021  28.319  25.590  1.00  0.00     0.062 A 
ATOM     20  C   UNL A   1      31.227  29.287  25.039  1.00  0.00     0.044 A 
ATOM     21  Br  UNL A   1      33.247  28.789  27.045  1.00  0.00    -0.047 Br
BRANCH  13  22
ATOM     22  C   UNL A   1      32.714  22.690  22.952  1.00  0.00     0.430 C 
ATOM     23  F   UNL A   1      32.990  21.404  22.754  1.00  0.00    -0.167 F 
ATOM     24  F   UNL A   1      32.568  23.297  21.777  1.00  0.00    -0.167 F 
ATOM     25  F   UNL A   1      33.710  23.259  23.623  1.00  0.00    -0.167 F 
ENDBRANCH  13  22
BRANCH  18  26
ATOM     26  S   UNL A   1      29.827  30.271  22.960  1.00  0.00     0.310 S 
ATOM     27  F   UNL A   1      28.420  29.544  22.896  1.00  0.00    -0.094 F 
ATOM     28  F   UNL A   1      30.223  29.470  21.662  1.00  0.00    -0.094 F 
ATOM     29  F   UNL A   1      29.210  31.411  22.102  1.00  0.00    -0.094 F 
ATOM     30  F   UNL A   1      29.315  30.990  24.270  1.00  0.00    -0.094 F 
ATOM     31  F   UNL A   1      30.350  29.068  23.843  1.00  0.00    -0.094 F 
ENDBRANCH  18  26
ENDBRANCH   9  11
ENDBRANCH   8   9
ENDBRANCH   7   8
ENDBRANCH   6   7
ENDBRANCH   5   6
ENDBRANCH   4   5
ENDBRANCH   3   4
ENDBRANCH   2   3
ENDBRANCH   1   2
BRANCH   1  32
ATOM     32  C   UNL A   1      39.563  22.325  26.667  1.00  0.00     0.188 C 
BRANCH  32  33
ATOM     33  O   UNL A   1      39.159  21.181  25.931  1.00  0.00    -0.376 OA
BRANCH  33  34
ATOM     34  C   UNL A   1      40.119  20.148  26.098  1.00  0.00     0.202 C 
BRANCH  34  35
ATOM     35  C   UNL A   1      41.424  20.744  26.599  1.00  0.00     0.261 C 
BRANCH  35  36
ATOM     36  O   UNL A   1      42.378  20.746  25.547  1.00  0.00    -0.460 OA
BRANCH  36  37
ATOM     37  C   UNL A   1      43.627  21.398  25.722  1.00  0.00     0.338 C 
ATOM     38  O   UNL A   1      44.703  20.812  25.383  1.00  0.00    -0.246 OA
BRANCH  37  39
ATOM     39  C   UNL A   1      43.679  22.797  26.313  1.00  0.00     0.060 A 
ATOM     40  C   UNL A   1      43.974  22.957  27.657  1.00  0.00     0.016 A 
ATOM     41  C   UNL A   1      43.441  23.843  25.531  1.00  0.00     0.016 A 
ATOM     42  C   UNL A   1      43.708  24.255  28.152  1.00  0.00     0.010 A 
ATOM     43  C   UNL A   1      43.328  25.104  26.065  1.00  0.00     0.010 A 
ATOM     44  C   UNL A   1      43.548  25.326  27.396  1.00  0.00    -0.014 A 
BRANCH  44  45
ATOM     45  C   UNL A   1      43.606  26.731  27.975  1.00  0.00     0.031 A 
ATOM     46  C   UNL A   1      42.404  27.339  28.341  1.00  0.00     0.074 A 
ATOM     47  C   UNL A   1      44.847  27.328  28.108  1.00  0.00     0.049 A 
ATOM     48  N   UNL A   1      42.235  28.541  28.893  1.00  0.00    -0.248 NA
ATOM     49  C   UNL A   1      41.082  26.720  28.169  1.00  0.00     0.031 C 
ATOM     50  C   UNL A   1      46.065  26.719  27.750  1.00  0.00     0.029 A 
ATOM     51  N   UNL A   1      45.133  28.586  28.594  1.00  0.00    -0.354 N 
ATOM     52  C   UNL A   1      40.939  28.769  29.116  1.00  0.00     0.074 A 
ATOM     53  C   UNL A   1      40.178  27.602  28.648  1.00  0.00     0.031 C 
ATOM     54  C   UNL A   1      47.069  27.599  28.006  1.00  0.00     0.029 A 
ATOM     55  C   UNL A   1      46.495  28.773  28.528  1.00  0.00     0.049 A 
ATOM     56  H   UNL A   1      44.476  29.237  28.931  1.00  0.00     0.167 HD
ATOM     57  C   UNL A   1      40.363  29.901  29.694  1.00  0.00     0.034 A 
ATOM     58  C   UNL A   1      47.216  29.898  28.896  1.00  0.00     0.034 A 
ATOM     59  C   UNL A   1      41.088  31.009  30.103  1.00  0.00     0.049 A 
ATOM     60  C   UNL A   1      46.634  31.055  29.421  1.00  0.00     0.074 A 
ATOM     61  C   UNL A   1      40.523  32.156  30.693  1.00  0.00     0.029 A 
ATOM     62  N   UNL A   1      42.448  31.206  30.014  1.00  0.00    -0.354 N 
ATOM     63  N   UNL A   1      45.343  31.265  29.681  1.00  0.00    -0.248 NA
ATOM     64  C   UNL A   1      47.384  32.264  29.784  1.00  0.00     0.031 C 
ATOM     65  C   UNL A   1      41.528  33.036  30.949  1.00  0.00     0.029 A 
ATOM     66  C   UNL A   1      42.736  32.454  30.521  1.00  0.00     0.049 A 
ATOM     67  H   UNL A   1      43.101  30.567  29.650  1.00  0.00     0.167 HD
ATOM     68  C   UNL A   1      45.170  32.485  30.195  1.00  0.00     0.074 A 
ATOM     69  C   UNL A   1      46.480  33.148  30.262  1.00  0.00     0.031 C 
ATOM     70  C   UNL A   1      43.974  33.070  30.613  1.00  0.00     0.034 A 
BRANCH  57  71
ATOM     71  C   UNL A   1      38.855  29.920  29.886  1.00  0.00     0.023 A 
ATOM     72  C   UNL A   1      38.083  30.692  29.033  1.00  0.00     0.031 A 
ATOM     73  C   UNL A   1      38.300  29.194  30.850  1.00  0.00     0.131 A 
ATOM     74  C   UNL A   1      36.746  30.860  29.466  1.00  0.00     0.055 A 
ATOM     75  C   UNL A   1      36.960  29.308  31.128  1.00  0.00     0.041 A 
ATOM     76  F   UNL A   1      39.050  28.350  31.553  1.00  0.00    -0.206 F 
ATOM     77  C   UNL A   1      36.148  30.100  30.364  1.00  0.00     0.022 A 
BRANCH  74  78
ATOM     78  S   UNL A   1      35.789  32.212  28.734  1.00  0.00     0.124 S 
ATOM     79  O   UNL A   1      35.273  31.784  27.357  1.00  0.00    -0.237 OA
ATOM     80  O   UNL A   1      34.604  32.547  29.642  1.00  0.00    -0.237 OA
ATOM     81  O   UNL A   1      36.786  33.590  28.565  1.00  0.00    -0.744 OA
ENDBRANCH  74  78
ENDBRANCH  57  71
BRANCH  58  82
ATOM     82  C   UNL A   1      48.726  29.872  28.720  1.00  0.00     0.023 A 
ATOM     83  C   UNL A   1      49.248  30.098  27.457  1.00  0.00     0.031 A 
ATOM     84  C   UNL A   1      49.517  29.638  29.761  1.00  0.00     0.131 A 
ATOM     85  C   UNL A   1      50.619  29.771  27.336  1.00  0.00     0.055 A 
ATOM     86  C   UNL A   1      50.868  29.462  29.587  1.00  0.00     0.041 A 
ATOM     87  F   UNL A   1      48.996  29.574  30.983  1.00  0.00    -0.206 F 
ATOM     88  C   UNL A   1      51.444  29.614  28.355  1.00  0.00     0.022 A 
BRANCH  85  89
ATOM     89  S   UNL A   1      51.288  29.552  25.669  1.00  0.00     0.124 S 
ATOM     90  O   UNL A   1      50.302  28.740  24.826  1.00  0.00    -0.237 OA
ATOM     91  O   UNL A   1      51.505  30.923  25.022  1.00  0.00    -0.237 OA
ATOM     92  O   UNL A   1      52.781  28.723  25.759  1.00  0.00    -0.744 OA
ENDBRANCH  85  89
ENDBRANCH  58  82
BRANCH  70  93
ATOM     93  C   UNL A   1      44.033  34.469  31.208  1.00  0.00     0.023 A 
ATOM     94  C   UNL A   1      43.803  35.564  30.392  1.00  0.00     0.031 A 
ATOM     95  C   UNL A   1      44.305  34.616  32.499  1.00  0.00     0.131 A 
ATOM     96  C   UNL A   1      44.167  36.800  30.975  1.00  0.00     0.055 A 
ATOM     97  C   UNL A   1      44.517  35.865  33.031  1.00  0.00     0.041 A 
ATOM     98  F   UNL A   1      44.373  33.545  33.285  1.00  0.00    -0.206 F 
ATOM     99  C   UNL A   1      44.364  36.989  32.267  1.00  0.00     0.022 A 
BRANCH  96 100
ATOM    100  S   UNL A   1      44.380  38.221  29.874  1.00  0.00     0.124 S 
ATOM    101  O   UNL A   1      44.636  39.478  30.708  1.00  0.00    -0.237 OA
ATOM    102  O   UNL A   1      45.571  37.973  28.946  1.00  0.00    -0.237 OA
ATOM    103  O   UNL A   1      42.964  38.435  28.940  1.00  0.00    -0.744 OA
ENDBRANCH  96 100
ENDBRANCH  70  93
ENDBRANCH  44  45
ENDBRANCH  37  39
ENDBRANCH  36  37
ENDBRANCH  35  36
ENDBRANCH  34  35
ENDBRANCH  33  34
ENDBRANCH  32  33
ENDBRANCH   1  32
TORSDOF 25
ENDMDL
MODEL 3
REMARK VINA RESULT:      -9.2      3.058      4.086
REMARK SMILES O=C(OCCOCCOCCOCCOC(=O)c1ccc(-c2c3nc(c(-c4cc(S(=O)(=O)[O-])ccc4F)c4ccc([nH]4)c(-c4cc(S(=O)(=O)[O-])ccc4F)c4nc(c(-c5cc(S(=O)(=O)[O-])ccc5F)c5ccc2[nH]5)C=C4)C=C3)cc1)C1=Cc2cc(S(F)(F)(F)(F)F)cc(Br)c2O[C@@H]1C(F)(F)F
REMARK SMILES IDX 10 1 9 2 8 3 7 4 6 5 5 6 4 7 3 8 2 9 1 10 81 11 82 12 97 13
REMARK SMILES IDX 83 14 96 15 84 16 95 17 85 18 93 19 92 20 94 21 98 22 99 23
REMARK SMILES IDX 100 24 101 25 86 26 87 27 88 28 89 29 90 30 91 31 11 32
REMARK SMILES IDX 12 33 13 34 14 35 15 36 16 37 17 38 18 39 19 40 80 41 20 42
REMARK SMILES IDX 79 43 21 44 22 45 23 46 73 47 24 48 78 49 72 50 74 51 25 52
REMARK SMILES IDX 77 53 71 54 70 55 26 57 58 58 38 59 57 60 39 61 42 62 56 63
REMARK SMILES IDX 75 64 40 65 41 66 55 68 76 69 43 70 27 71 28 72 36 73 29 74
REMARK SMILES IDX 35 75 37 76 34 77 30 78 31 79 32 80 33 81 59 82 60 83 68 84
REMARK SMILES IDX 61 85 67 86 69 87 66 88 62 89 63 90 64 91 65 92 44 93 45 94
REMARK SMILES IDX 53 95 46 96 52 97 54 98 51 99 47 100 48 101 49 102 50 103
REMARK H PARENT 74 56 42 67
REMARK Flexibility Score: inf
ROOT
ATOM      1  C   UNL A   1      41.139  19.253  26.082  1.00  0.00     0.188 C 
ENDROOT
BRANCH   1   2
ATOM      2  O   UNL A   1      40.105  20.217  25.949  1.00  0.00    -0.377 OA
BRANCH   2   3
ATOM      3  C   UNL A   1      38.965  19.610  25.360  1.00  0.00     0.188 C 
BRANCH   3   4
ATOM      4  C   UNL A   1      38.003  20.689  24.888  1.00  0.00     0.188 C 
BRANCH   4   5
ATOM      5  O   UNL A   1      37.567  21.455  26.001  1.00  0.00    -0.376 OA
BRANCH   5   6
ATOM      6  C   UNL A   1      37.953  22.810  25.823  1.00  0.00     0.202 C 
BRANCH   6   7
ATOM      7  C   UNL A   1      36.722  23.700  25.885  1.00  0.00     0.261 C 
BRANCH   7   8
ATOM      8  O   UNL A   1      36.304  24.022  24.567  1.00  0.00    -0.460 OA
BRANCH   8   9
ATOM      9  C   UNL A   1      35.426  23.151  23.868  1.00  0.00     0.338 C 
ATOM     10  O   UNL A   1      35.576  22.964  22.620  1.00  0.00    -0.246 OA
BRANCH   9  11
ATOM     11  C   UNL A   1      34.307  22.442  24.614  1.00  0.00     0.087 C 
ATOM     12  C   UNL A   1      33.300  23.165  25.178  1.00  0.00     0.027 C 
ATOM     13  C   UNL A   1      34.311  20.927  24.729  1.00  0.00     0.316 C 
ATOM     14  C   UNL A   1      33.296  24.680  25.062  1.00  0.00     0.020 A 
ATOM     15  O   UNL A   1      34.004  24.442  22.806  1.00  0.00    -0.474 OA
ATOM     16  C   UNL A   1      33.014  25.447  26.181  1.00  0.00     0.036 A 
ATOM     17  C   UNL A   1      33.563  25.246  23.891  1.00  0.00     0.142 A 
ATOM     18  C   UNL A   1      32.752  26.806  25.894  1.00  0.00     0.109 A 
ATOM     19  C   UNL A   1      33.417  26.601  23.718  1.00  0.00     0.062 A 
ATOM     20  C   UNL A   1      33.081  27.411  24.767  1.00  0.00     0.044 A 
ATOM     21  Br  UNL A   1      33.690  27.384  21.942  1.00  0.00    -0.047 Br
BRANCH  13  22
ATOM     22  C   UNL A   1      33.052  20.367  24.087  1.00  0.00     0.430 C 
ATOM     23  F   UNL A   1      33.272  19.115  23.696  1.00  0.00    -0.167 F 
ATOM     24  F   UNL A   1      32.058  20.387  24.971  1.00  0.00    -0.167 F 
ATOM     25  F   UNL A   1      32.723  21.110  23.035  1.00  0.00    -0.167 F 
ENDBRANCH  13  22
BRANCH  18  26
ATOM     26  S   UNL A   1      31.907  27.787  27.160  1.00  0.00     0.310 S 
ATOM     27  F   UNL A   1      31.606  28.961  26.139  1.00  0.00    -0.094 F 
ATOM     28  F   UNL A   1      33.275  28.504  27.476  1.00  0.00    -0.094 F 
ATOM     29  F   UNL A   1      31.182  28.629  28.248  1.00  0.00    -0.094 F 
ATOM     30  F   UNL A   1      30.523  27.158  26.735  1.00  0.00    -0.094 F 
ATOM     31  F   UNL A   1      32.608  27.007  25.977  1.00  0.00    -0.094 F 
ENDBRANCH  18  26
ENDBRANCH   9  11
ENDBRANCH   8   9
ENDBRANCH   7   8
ENDBRANCH   6   7
ENDBRANCH   5   6
ENDBRANCH   4   5
ENDBRANCH   3   4
ENDBRANCH   2   3
ENDBRANCH   1   2
BRANCH   1  32
ATOM     32  C   UNL A   1      42.437  19.950  26.459  1.00  0.00     0.188 C 
BRANCH  32  33
ATOM     33  O   UNL A   1      42.534  21.181  25.760  1.00  0.00    -0.376 OA
BRANCH  33  34
ATOM     34  C   UNL A   1      42.845  22.222  26.674  1.00  0.00     0.202 C 
BRANCH  34  35
ATOM     35  C   UNL A   1      44.322  22.564  26.568  1.00  0.00     0.261 C 
BRANCH  35  36
ATOM     36  O   UNL A   1      44.496  23.625  25.640  1.00  0.00    -0.460 OA
BRANCH  36  37
ATOM     37  C   UNL A   1      43.480  24.605  25.483  1.00  0.00     0.338 C 
ATOM     38  O   UNL A   1      42.536  24.415  24.653  1.00  0.00    -0.246 OA
BRANCH  37  39
ATOM     39  C   UNL A   1      43.522  25.881  26.307  1.00  0.00     0.060 A 
ATOM     40  C   UNL A   1      43.707  25.801  27.677  1.00  0.00     0.016 A 
ATOM     41  C   UNL A   1      43.380  27.053  25.699  1.00  0.00     0.016 A 
ATOM     42  C   UNL A   1      43.438  27.008  28.364  1.00  0.00     0.010 A 
ATOM     43  C   UNL A   1      43.258  28.210  26.430  1.00  0.00     0.010 A 
ATOM     44  C   UNL A   1      43.372  28.196  27.792  1.00  0.00    -0.014 A 
BRANCH  44  45
ATOM     45  C   UNL A   1      43.421  29.480  28.606  1.00  0.00     0.031 A 
ATOM     46  C   UNL A   1      42.254  29.888  29.256  1.00  0.00     0.074 A 
ATOM     47  C   UNL A   1      44.617  30.172  28.656  1.00  0.00     0.049 A 
ATOM     48  N   UNL A   1      42.091  30.954  30.040  1.00  0.00    -0.248 NA
ATOM     49  C   UNL A   1      40.973  29.173  29.176  1.00  0.00     0.031 C 
ATOM     50  C   UNL A   1      45.800  29.763  28.010  1.00  0.00     0.029 A 
ATOM     51  N   UNL A   1      44.885  31.351  29.317  1.00  0.00    -0.354 N 
ATOM     52  C   UNL A   1      40.838  31.004  30.496  1.00  0.00     0.074 A 
ATOM     53  C   UNL A   1      40.099  29.861  29.942  1.00  0.00     0.031 C 
ATOM     54  C   UNL A   1      46.763  30.686  28.269  1.00  0.00     0.029 A 
ATOM     55  C   UNL A   1      46.199  31.688  29.080  1.00  0.00     0.049 A 
ATOM     56  H   UNL A   1      44.247  31.864  29.865  1.00  0.00     0.167 HD
ATOM     57  C   UNL A   1      40.284  31.955  31.355  1.00  0.00     0.034 A 
ATOM     58  C   UNL A   1      46.885  32.803  29.536  1.00  0.00     0.034 A 
ATOM     59  C   UNL A   1      40.982  33.046  31.846  1.00  0.00     0.049 A 
ATOM     60  C   UNL A   1      46.314  33.787  30.348  1.00  0.00     0.074 A 
ATOM     61  C   UNL A   1      40.440  34.011  32.717  1.00  0.00     0.029 A 
ATOM     62  N   UNL A   1      42.288  33.397  31.589  1.00  0.00    -0.354 N 
ATOM     63  N   UNL A   1      45.073  33.813  30.836  1.00  0.00    -0.248 NA
ATOM     64  C   UNL A   1      47.021  34.987  30.810  1.00  0.00     0.031 C 
ATOM     65  C   UNL A   1      41.404  34.934  32.976  1.00  0.00     0.029 A 
ATOM     66  C   UNL A   1      42.562  34.563  32.269  1.00  0.00     0.049 A 
ATOM     67  H   UNL A   1      42.918  32.900  31.019  1.00  0.00     0.167 HD
ATOM     68  C   UNL A   1      44.898  34.903  31.587  1.00  0.00     0.074 A 
ATOM     69  C   UNL A   1      46.147  35.678  31.575  1.00  0.00     0.031 C 
ATOM     70  C   UNL A   1      43.749  35.280  32.284  1.00  0.00     0.034 A 
BRANCH  57  71
ATOM     71  C   UNL A   1      38.833  31.783  31.774  1.00  0.00     0.023 A 
ATOM     72  C   UNL A   1      37.834  32.100  30.869  1.00  0.00     0.031 A 
ATOM     73  C   UNL A   1      38.543  31.324  32.987  1.00  0.00     0.131 A 
ATOM     74  C   UNL A   1      36.542  32.173  31.442  1.00  0.00     0.055 A 
ATOM     75  C   UNL A   1      37.243  31.297  33.432  1.00  0.00     0.041 A 
ATOM     76  F   UNL A   1      39.520  30.888  33.778  1.00  0.00    -0.206 F 
ATOM     77  C   UNL A   1      36.211  31.653  32.610  1.00  0.00     0.022 A 
BRANCH  74  78
ATOM     78  S   UNL A   1      35.255  33.038  30.509  1.00  0.00     0.124 S 
ATOM     79  O   UNL A   1      34.222  33.616  31.481  1.00  0.00    -0.237 OA
ATOM     80  O   UNL A   1      35.886  34.173  29.700  1.00  0.00    -0.237 OA
ATOM     81  O   UNL A   1      34.486  31.940  29.447  1.00  0.00    -0.744 OA
ENDBRANCH  74  78
ENDBRANCH  57  71
BRANCH  58  82
ATOM     82  C   UNL A   1      48.340  32.965  29.130  1.00  0.00     0.023 A 
ATOM     83  C   UNL A   1      48.631  33.686  27.983  1.00  0.00     0.031 A 
ATOM     84  C   UNL A   1      49.305  32.426  29.867  1.00  0.00     0.131 A 
ATOM     85  C   UNL A   1      49.965  33.538  27.534  1.00  0.00     0.055 A 
ATOM     86  C   UNL A   1      50.607  32.436  29.431  1.00  0.00     0.041 A 
ATOM     87  F   UNL A   1      49.006  31.870  31.038  1.00  0.00    -0.206 F 
ATOM     88  C   UNL A   1      50.957  33.080  28.275  1.00  0.00     0.022 A 
BRANCH  85  89
ATOM     89  S   UNL A   1      50.335  34.009  25.827  1.00  0.00     0.124 S 
ATOM     90  O   UNL A   1      50.882  32.796  25.070  1.00  0.00    -0.237 OA
ATOM     91  O   UNL A   1      49.057  34.503  25.145  1.00  0.00    -0.237 OA
ATOM     92  O   UNL A   1      51.503  35.258  25.822  1.00  0.00    -0.744 OA
ENDBRANCH  85  89
ENDBRANCH  58  82
BRANCH  70  93
ATOM     93  C   UNL A   1      43.802  36.555  33.111  1.00  0.00     0.023 A 
ATOM     94  C   UNL A   1      43.500  37.767  32.511  1.00  0.00     0.031 A 
ATOM     95  C   UNL A   1      44.136  36.486  34.394  1.00  0.00     0.131 A 
ATOM     96  C   UNL A   1      43.861  38.895  33.284  1.00  0.00     0.055 A 
ATOM     97  C   UNL A   1      44.342  37.630  35.126  1.00  0.00     0.041 A 
ATOM     98  F   UNL A   1      44.274  35.298  34.976  1.00  0.00    -0.206 F 
ATOM     99  C   UNL A   1      44.120  38.863  34.579  1.00  0.00     0.022 A 
BRANCH  96 100
ATOM    100  S   UNL A   1      43.979  40.492  32.440  1.00  0.00     0.124 S 
ATOM    101  O   UNL A   1      43.155  40.449  31.151  1.00  0.00    -0.237 OA
ATOM    102  O   UNL A   1      43.438  41.593  33.355  1.00  0.00    -0.237 OA
ATOM    103  O   UNL A   1      45.613  40.817  32.060  1.00  0.00    -0.744 OA
ENDBRANCH  96 100
ENDBRANCH  70  93
ENDBRANCH  44  45
ENDBRANCH  37  39
ENDBRANCH  36  37
ENDBRANCH  35  36
ENDBRANCH  34  35
ENDBRANCH  33  34
ENDBRANCH  32  33
ENDBRANCH   1  32
TORSDOF 25
ENDMDL
