MODEL 1
REMARK VINA RESULT:      -9.7      0.000      0.000
REMARK SMILES Cc1nsc(NC(=O)[C@@H]2C=C[C@@H]([NH3+])C2)c1C(=O)OCCOCCOCCOCCOC(=O)c1ccc(-c2c3nc(c(-c4cc(S(=O)(=O)[O-])ccc4F)c4ccc([nH]4)c(-c4cc(S(=O)(=O)[O-])ccc4F)c4nc(c(-c5cc(S(=O)(=O)[O-])ccc5F)c5ccc2[nH]5)C=C4)C=C3)cc1
REMARK SMILES IDX 24 1 23 2 22 3 21 4 20 5 19 6 18 7 16 8 17 9 15 10 1 11 2 12
REMARK SMILES IDX 3 13 4 14 5 15 6 16 7 17 8 19 9 20 10 21 14 22 11 23 12 24
REMARK SMILES IDX 13 25 25 29 26 30 27 31 28 32 29 33 30 34 31 35 32 36 33 37
REMARK SMILES IDX 34 38 95 39 35 40 94 41 36 42 37 43 38 44 88 45 39 46 93 47
REMARK SMILES IDX 87 48 89 49 40 50 92 51 86 52 85 53 41 55 73 56 53 57 72 58
REMARK SMILES IDX 54 59 57 60 71 61 90 62 55 63 56 64 70 66 91 67 58 68 42 69
REMARK SMILES IDX 43 70 51 71 44 72 50 73 52 74 49 75 45 76 46 77 47 78 48 79
REMARK SMILES IDX 74 80 75 81 83 82 76 83 82 84 84 85 81 86 77 87 78 88 79 89
REMARK SMILES IDX 80 90 59 91 60 92 68 93 61 94 67 95 69 96 66 97 62 98 63 99
REMARK SMILES IDX 64 100 65 101
REMARK H PARENT 6 18 13 26 13 27 13 28 89 54 57 65
REMARK Flexibility Score: inf
ROOT
ATOM      1  O   UNL A   1      41.641  19.077  25.684  1.00  0.00    -0.377 OA
ENDROOT
BRANCH   1   2
ATOM      2  C   UNL A   1      40.727  19.687  26.577  1.00  0.00     0.188 C 
BRANCH   2   3
ATOM      3  C   UNL A   1      39.720  20.641  25.896  1.00  0.00     0.188 C 
BRANCH   3   4
ATOM      4  O   UNL A   1      39.763  22.057  26.040  1.00  0.00    -0.376 OA
BRANCH   4   5
ATOM      5  C   UNL A   1      38.596  22.859  25.995  1.00  0.00     0.202 C 
BRANCH   5   6
ATOM      6  C   UNL A   1      37.329  22.363  25.285  1.00  0.00     0.261 C 
BRANCH   6   7
ATOM      7  O   UNL A   1      36.150  23.149  25.483  1.00  0.00    -0.460 OA
BRANCH   7   8
ATOM      8  C   UNL A   1      35.385  23.365  24.382  1.00  0.00     0.343 C 
ATOM      9  O   UNL A   1      35.830  23.531  23.252  1.00  0.00    -0.246 OA
BRANCH   8  10
ATOM     10  C   UNL A   1      33.957  23.210  24.639  1.00  0.00     0.117 A 
ATOM     11  C   UNL A   1      33.677  20.574  24.665  1.00  0.00     0.069 C 
ATOM     12  C   UNL A   1      33.202  21.983  24.800  1.00  0.00     0.068 A 
ATOM     13  N   UNL A   1      31.909  22.145  25.087  1.00  0.00    -0.195 NA
ATOM     14  S   UNL A   1      31.537  23.741  25.011  1.00  0.00    -0.017 S 
ATOM     15  C   UNL A   1      33.073  24.291  24.575  1.00  0.00     0.131 A 
BRANCH  15  16
ATOM     16  N   UNL A   1      33.362  25.570  24.117  1.00  0.00    -0.315 N 
ATOM     17  C   UNL A   1      33.342  26.814  24.681  1.00  0.00     0.232 C 
ATOM     18  H   UNL A   1      33.645  25.583  23.174  1.00  0.00     0.170 HD
ATOM     19  O   UNL A   1      33.352  27.769  23.893  1.00  0.00    -0.274 OA
BRANCH  17  20
ATOM     20  C   UNL A   1      33.430  27.058  26.184  1.00  0.00     0.107 C 
ATOM     21  C   UNL A   1      32.106  27.236  26.870  1.00  0.00    -0.012 C 
ATOM     22  C   UNL A   1      34.121  28.410  26.412  1.00  0.00     0.087 C 
ATOM     23  C   UNL A   1      31.898  28.503  27.245  1.00  0.00     0.033 C 
ATOM     24  C   UNL A   1      33.004  29.395  26.793  1.00  0.00     0.205 C 
BRANCH  24  25
ATOM     25  N   UNL A   1      33.446  30.305  27.833  1.00  0.00    -0.352 N 
ATOM     26  H   UNL A   1      32.671  30.502  28.465  1.00  0.00     0.345 HD
ATOM     27  H   UNL A   1      33.769  31.175  27.409  1.00  0.00     0.345 HD
ATOM     28  H   UNL A   1      34.210  29.878  28.357  1.00  0.00     0.345 HD
ENDBRANCH  24  25
ENDBRANCH  17  20
ENDBRANCH  15  16
ENDBRANCH   8  10
ENDBRANCH   7   8
ENDBRANCH   6   7
ENDBRANCH   5   6
ENDBRANCH   4   5
ENDBRANCH   3   4
ENDBRANCH   2   3
ENDBRANCH   1   2
BRANCH   1  29
ATOM     29  C   UNL A   1      42.628  18.254  26.309  1.00  0.00     0.188 C 
BRANCH  29  30
ATOM     30  C   UNL A   1      44.117  18.473  25.923  1.00  0.00     0.188 C 
BRANCH  30  31
ATOM     31  O   UNL A   1      44.392  18.333  24.534  1.00  0.00    -0.376 OA
BRANCH  31  32
ATOM     32  C   UNL A   1      45.385  19.104  23.875  1.00  0.00     0.202 C 
BRANCH  32  33
ATOM     33  C   UNL A   1      45.704  20.473  24.470  1.00  0.00     0.261 C 
BRANCH  33  34
ATOM     34  O   UNL A   1      44.846  21.490  23.998  1.00  0.00    -0.460 OA
BRANCH  34  35
ATOM     35  C   UNL A   1      44.133  22.105  24.958  1.00  0.00     0.338 C 
ATOM     36  O   UNL A   1      43.018  21.801  25.358  1.00  0.00    -0.246 OA
BRANCH  35  37
ATOM     37  C   UNL A   1      44.887  23.280  25.393  1.00  0.00     0.060 A 
ATOM     38  C   UNL A   1      45.218  23.278  26.742  1.00  0.00     0.016 A 
ATOM     39  C   UNL A   1      44.796  24.455  24.625  1.00  0.00     0.016 A 
ATOM     40  C   UNL A   1      45.049  24.459  27.407  1.00  0.00     0.010 A 
ATOM     41  C   UNL A   1      44.625  25.633  25.292  1.00  0.00     0.010 A 
ATOM     42  C   UNL A   1      44.623  25.579  26.678  1.00  0.00    -0.014 A 
BRANCH  42  43
ATOM     43  C   UNL A   1      44.255  26.745  27.434  1.00  0.00     0.031 A 
ATOM     44  C   UNL A   1      45.296  27.775  27.316  1.00  0.00     0.074 A 
ATOM     45  C   UNL A   1      43.100  26.840  28.113  1.00  0.00     0.049 A 
ATOM     46  N   UNL A   1      46.224  28.041  28.170  1.00  0.00    -0.248 NA
ATOM     47  C   UNL A   1      45.516  28.352  25.980  1.00  0.00     0.031 C 
ATOM     48  C   UNL A   1      41.931  25.958  28.051  1.00  0.00     0.029 A 
ATOM     49  N   UNL A   1      42.697  27.823  28.958  1.00  0.00    -0.354 N 
ATOM     50  C   UNL A   1      46.967  29.048  27.574  1.00  0.00     0.074 A 
ATOM     51  C   UNL A   1      46.679  28.974  26.169  1.00  0.00     0.031 C 
ATOM     52  C   UNL A   1      40.878  26.575  28.639  1.00  0.00     0.029 A 
ATOM     53  C   UNL A   1      41.338  27.816  29.242  1.00  0.00     0.049 A 
ATOM     54  H   UNL A   1      43.318  28.487  29.336  1.00  0.00     0.167 HD
ATOM     55  C   UNL A   1      47.447  30.070  28.327  1.00  0.00     0.034 A 
ATOM     56  C   UNL A   1      40.644  28.809  29.860  1.00  0.00     0.034 A 
ATOM     57  C   UNL A   1      47.471  29.699  29.728  1.00  0.00     0.049 A 
ATOM     58  C   UNL A   1      41.641  29.602  30.626  1.00  0.00     0.074 A 
ATOM     59  C   UNL A   1      48.130  28.747  30.479  1.00  0.00     0.029 A 
ATOM     60  N   UNL A   1      46.398  30.115  30.484  1.00  0.00    -0.354 N 
ATOM     61  N   UNL A   1      42.328  29.114  31.625  1.00  0.00    -0.248 NA
ATOM     62  C   UNL A   1      42.219  30.789  30.010  1.00  0.00     0.031 C 
ATOM     63  C   UNL A   1      47.209  28.362  31.499  1.00  0.00     0.029 A 
ATOM     64  C   UNL A   1      46.049  29.132  31.376  1.00  0.00     0.049 A 
ATOM     65  H   UNL A   1      45.949  30.987  30.397  1.00  0.00     0.167 HD
ATOM     66  C   UNL A   1      43.600  29.650  31.490  1.00  0.00     0.074 A 
ATOM     67  C   UNL A   1      43.433  30.772  30.570  1.00  0.00     0.031 C 
ATOM     68  C   UNL A   1      44.702  28.957  31.907  1.00  0.00     0.034 A 
BRANCH  55  69
ATOM     69  C   UNL A   1      47.420  31.516  27.874  1.00  0.00     0.023 A 
ATOM     70  C   UNL A   1      46.195  31.997  27.380  1.00  0.00     0.031 A 
ATOM     71  C   UNL A   1      48.545  32.341  27.622  1.00  0.00     0.131 A 
ATOM     72  C   UNL A   1      46.140  33.165  26.599  1.00  0.00     0.055 A 
ATOM     73  C   UNL A   1      48.476  33.530  26.894  1.00  0.00     0.041 A 
ATOM     74  F   UNL A   1      49.793  32.020  27.979  1.00  0.00    -0.206 F 
ATOM     75  C   UNL A   1      47.274  33.933  26.349  1.00  0.00     0.022 A 
BRANCH  72  76
ATOM     76  S   UNL A   1      44.585  33.572  25.774  1.00  0.00     0.124 S 
ATOM     77  O   UNL A   1      45.050  33.966  24.448  1.00  0.00    -0.237 OA
ATOM     78  O   UNL A   1      43.865  32.304  25.857  1.00  0.00    -0.237 OA
ATOM     79  O   UNL A   1      44.042  34.652  26.593  1.00  0.00    -0.744 OA
ENDBRANCH  72  76
ENDBRANCH  55  69
BRANCH  56  80
ATOM     80  C   UNL A   1      39.312  29.330  29.436  1.00  0.00     0.023 A 
ATOM     81  C   UNL A   1      38.401  29.947  30.318  1.00  0.00     0.031 A 
ATOM     82  C   UNL A   1      39.018  29.425  28.055  1.00  0.00     0.131 A 
ATOM     83  C   UNL A   1      37.257  30.613  29.811  1.00  0.00     0.055 A 
ATOM     84  C   UNL A   1      37.888  30.080  27.560  1.00  0.00     0.041 A 
ATOM     85  F   UNL A   1      39.866  28.950  27.129  1.00  0.00    -0.206 F 
ATOM     86  C   UNL A   1      37.004  30.684  28.438  1.00  0.00     0.022 A 
BRANCH  83  87
ATOM     87  S   UNL A   1      36.094  31.456  30.934  1.00  0.00     0.124 S 
ATOM     88  O   UNL A   1      34.963  31.741  30.060  1.00  0.00    -0.237 OA
ATOM     89  O   UNL A   1      35.878  30.450  31.968  1.00  0.00    -0.237 OA
ATOM     90  O   UNL A   1      36.838  32.637  31.376  1.00  0.00    -0.744 OA
ENDBRANCH  83  87
ENDBRANCH  56  80
BRANCH  68  91
ATOM     91  C   UNL A   1      44.493  27.823  32.896  1.00  0.00     0.023 A 
ATOM     92  C   UNL A   1      44.314  27.964  34.292  1.00  0.00     0.031 A 
ATOM     93  C   UNL A   1      44.389  26.528  32.354  1.00  0.00     0.131 A 
ATOM     94  C   UNL A   1      44.047  26.827  35.084  1.00  0.00     0.055 A 
ATOM     95  C   UNL A   1      44.101  25.412  33.136  1.00  0.00     0.041 A 
ATOM     96  F   UNL A   1      44.534  26.330  31.033  1.00  0.00    -0.206 F 
ATOM     97  C   UNL A   1      43.934  25.556  34.507  1.00  0.00     0.022 A 
BRANCH  94  98
ATOM     98  S   UNL A   1      43.861  26.965  36.895  1.00  0.00     0.124 S 
ATOM     99  O   UNL A   1      42.617  26.254  37.164  1.00  0.00    -0.237 OA
ATOM    100  O   UNL A   1      45.082  26.330  37.385  1.00  0.00    -0.237 OA
ATOM    101  O   UNL A   1      43.796  28.410  37.120  1.00  0.00    -0.744 OA
ENDBRANCH  94  98
ENDBRANCH  68  91
ENDBRANCH  42  43
ENDBRANCH  35  37
ENDBRANCH  34  35
ENDBRANCH  33  34
ENDBRANCH  32  33
ENDBRANCH  31  32
ENDBRANCH  30  31
ENDBRANCH  29  30
ENDBRANCH   1  29
TORSDOF 26
ENDMDL
MODEL 2
REMARK VINA RESULT:      -9.2      1.254      2.074
REMARK SMILES Cc1nsc(NC(=O)[C@@H]2C=C[C@@H]([NH3+])C2)c1C(=O)OCCOCCOCCOCCOC(=O)c1ccc(-c2c3nc(c(-c4cc(S(=O)(=O)[O-])ccc4F)c4ccc([nH]4)c(-c4cc(S(=O)(=O)[O-])ccc4F)c4nc(c(-c5cc(S(=O)(=O)[O-])ccc5F)c5ccc2[nH]5)C=C4)C=C3)cc1
REMARK SMILES IDX 24 1 23 2 22 3 21 4 20 5 19 6 18 7 16 8 17 9 15 10 1 11 2 12
REMARK SMILES IDX 3 13 4 14 5 15 6 16 7 17 8 19 9 20 10 21 14 22 11 23 12 24
REMARK SMILES IDX 13 25 25 29 26 30 27 31 28 32 29 33 30 34 31 35 32 36 33 37
REMARK SMILES IDX 34 38 95 39 35 40 94 41 36 42 37 43 38 44 88 45 39 46 93 47
REMARK SMILES IDX 87 48 89 49 40 50 92 51 86 52 85 53 41 55 73 56 53 57 72 58
REMARK SMILES IDX 54 59 57 60 71 61 90 62 55 63 56 64 70 66 91 67 58 68 42 69
REMARK SMILES IDX 43 70 51 71 44 72 50 73 52 74 49 75 45 76 46 77 47 78 48 79
REMARK SMILES IDX 74 80 75 81 83 82 76 83 82 84 84 85 81 86 77 87 78 88 79 89
REMARK SMILES IDX 80 90 59 91 60 92 68 93 61 94 67 95 69 96 66 97 62 98 63 99
REMARK SMILES IDX 64 100 65 101
REMARK H PARENT 6 18 13 26 13 27 13 28 89 54 57 65
REMARK Flexibility Score: inf
ROOT
ATOM      1  O   UNL A   1      41.709  19.210  25.697  1.00  0.00    -0.377 OA
ENDROOT
BRANCH   1   2
ATOM      2  C   UNL A   1      40.820  19.798  26.629  1.00  0.00     0.188 C 
BRANCH   2   3
ATOM      3  C   UNL A   1      39.910  20.894  26.029  1.00  0.00     0.188 C 
BRANCH   3   4
ATOM      4  O   UNL A   1      40.120  22.287  26.239  1.00  0.00    -0.376 OA
BRANCH   4   5
ATOM      5  C   UNL A   1      39.048  23.198  26.410  1.00  0.00     0.202 C 
BRANCH   5   6
ATOM      6  C   UNL A   1      37.637  22.849  25.921  1.00  0.00     0.261 C 
BRANCH   6   7
ATOM      7  O   UNL A   1      36.593  23.739  26.330  1.00  0.00    -0.460 OA
BRANCH   7   8
ATOM      8  C   UNL A   1      35.584  23.924  25.440  1.00  0.00     0.343 C 
ATOM      9  O   UNL A   1      35.743  24.063  24.232  1.00  0.00    -0.246 OA
BRANCH   8  10
ATOM     10  C   UNL A   1      34.261  23.768  26.036  1.00  0.00     0.117 A 
ATOM     11  C   UNL A   1      34.242  21.200  26.693  1.00  0.00     0.069 C 
ATOM     12  C   UNL A   1      33.674  22.579  26.622  1.00  0.00     0.068 A 
ATOM     13  N   UNL A   1      32.460  22.745  27.148  1.00  0.00    -0.195 NA
ATOM     14  S   UNL A   1      31.931  24.261  26.813  1.00  0.00    -0.017 S 
ATOM     15  C   UNL A   1      33.285  24.764  25.937  1.00  0.00     0.131 A 
BRANCH  15  16
ATOM     16  N   UNL A   1      33.350  25.913  25.161  1.00  0.00    -0.315 N 
ATOM     17  C   UNL A   1      33.093  26.198  23.850  1.00  0.00     0.232 C 
ATOM     18  H   UNL A   1      33.648  26.701  25.671  1.00  0.00     0.170 HD
ATOM     19  O   UNL A   1      33.563  27.260  23.421  1.00  0.00    -0.274 OA
BRANCH  17  20
ATOM     20  C   UNL A   1      32.182  25.350  22.968  1.00  0.00     0.107 C 
ATOM     21  C   UNL A   1      32.825  24.112  22.409  1.00  0.00    -0.012 C 
ATOM     22  C   UNL A   1      31.841  26.161  21.710  1.00  0.00     0.087 C 
ATOM     23  C   UNL A   1      33.061  24.216  21.096  1.00  0.00     0.033 C 
ATOM     24  C   UNL A   1      32.700  25.569  20.581  1.00  0.00     0.205 C 
BRANCH  24  25
ATOM     25  N   UNL A   1      31.956  25.511  19.337  1.00  0.00    -0.352 N 
ATOM     26  H   UNL A   1      31.349  26.327  19.265  1.00  0.00     0.345 HD
ATOM     27  H   UNL A   1      31.391  24.662  19.318  1.00  0.00     0.345 HD
ATOM     28  H   UNL A   1      32.607  25.502  18.552  1.00  0.00     0.345 HD
ENDBRANCH  24  25
ENDBRANCH  17  20
ENDBRANCH  15  16
ENDBRANCH   8  10
ENDBRANCH   7   8
ENDBRANCH   6   7
ENDBRANCH   5   6
ENDBRANCH   4   5
ENDBRANCH   3   4
ENDBRANCH   2   3
ENDBRANCH   1   2
BRANCH   1  29
ATOM     29  C   UNL A   1      42.626  18.269  26.258  1.00  0.00     0.188 C 
BRANCH  29  30
ATOM     30  C   UNL A   1      44.138  18.438  25.938  1.00  0.00     0.188 C 
BRANCH  30  31
ATOM     31  O   UNL A   1      44.454  18.392  24.551  1.00  0.00    -0.376 OA
BRANCH  31  32
ATOM     32  C   UNL A   1      45.568  19.080  24.004  1.00  0.00     0.202 C 
BRANCH  32  33
ATOM     33  C   UNL A   1      46.019  20.348  24.724  1.00  0.00     0.261 C 
BRANCH  33  34
ATOM     34  O   UNL A   1      45.399  21.514  24.222  1.00  0.00    -0.460 OA
BRANCH  34  35
ATOM     35  C   UNL A   1      44.589  22.134  25.098  1.00  0.00     0.338 C 
ATOM     36  O   UNL A   1      43.424  21.859  25.348  1.00  0.00    -0.246 OA
BRANCH  35  37
ATOM     37  C   UNL A   1      45.317  23.275  25.651  1.00  0.00     0.060 A 
ATOM     38  C   UNL A   1      45.543  23.199  27.019  1.00  0.00     0.016 A 
ATOM     39  C   UNL A   1      45.295  24.490  24.941  1.00  0.00     0.016 A 
ATOM     40  C   UNL A   1      45.333  24.345  27.731  1.00  0.00     0.010 A 
ATOM     41  C   UNL A   1      45.082  25.633  25.655  1.00  0.00     0.010 A 
ATOM     42  C   UNL A   1      44.974  25.507  27.032  1.00  0.00    -0.014 A 
BRANCH  42  43
ATOM     43  C   UNL A   1      44.559  26.636  27.819  1.00  0.00     0.031 A 
ATOM     44  C   UNL A   1      45.607  27.665  27.823  1.00  0.00     0.074 A 
ATOM     45  C   UNL A   1      43.360  26.704  28.422  1.00  0.00     0.049 A 
ATOM     46  N   UNL A   1      46.476  27.882  28.749  1.00  0.00    -0.248 NA
ATOM     47  C   UNL A   1      45.919  28.306  26.534  1.00  0.00     0.031 C 
ATOM     48  C   UNL A   1      42.196  25.833  28.237  1.00  0.00     0.029 A 
ATOM     49  N   UNL A   1      42.904  27.647  29.285  1.00  0.00    -0.354 N 
ATOM     50  C   UNL A   1      47.260  28.913  28.255  1.00  0.00     0.074 A 
ATOM     51  C   UNL A   1      47.068  28.911  26.833  1.00  0.00     0.031 C 
ATOM     52  C   UNL A   1      41.107  26.426  28.783  1.00  0.00     0.029 A 
ATOM     53  C   UNL A   1      41.528  27.633  29.477  1.00  0.00     0.049 A 
ATOM     54  H   UNL A   1      43.499  28.288  29.737  1.00  0.00     0.167 HD
ATOM     55  C   UNL A   1      47.691  29.894  29.090  1.00  0.00     0.034 A 
ATOM     56  C   UNL A   1      40.796  28.599  30.095  1.00  0.00     0.034 A 
ATOM     57  C   UNL A   1      47.619  29.455  30.468  1.00  0.00     0.049 A 
ATOM     58  C   UNL A   1      41.741  29.347  30.965  1.00  0.00     0.074 A 
ATOM     59  C   UNL A   1      48.223  28.463  31.214  1.00  0.00     0.029 A 
ATOM     60  N   UNL A   1      46.498  29.839  31.170  1.00  0.00    -0.354 N 
ATOM     61  N   UNL A   1      42.357  28.807  31.982  1.00  0.00    -0.248 NA
ATOM     62  C   UNL A   1      42.362  30.559  30.449  1.00  0.00     0.031 C 
ATOM     63  C   UNL A   1      47.234  28.033  32.149  1.00  0.00     0.029 A 
ATOM     64  C   UNL A   1      46.087  28.815  31.986  1.00  0.00     0.049 A 
ATOM     65  H   UNL A   1      46.058  30.716  31.097  1.00  0.00     0.167 HD
ATOM     66  C   UNL A   1      43.637  29.341  31.961  1.00  0.00     0.074 A 
ATOM     67  C   UNL A   1      43.535  30.508  31.088  1.00  0.00     0.031 C 
ATOM     68  C   UNL A   1      44.707  28.622  32.416  1.00  0.00     0.034 A 
BRANCH  55  69
ATOM     69  C   UNL A   1      47.697  31.362  28.708  1.00  0.00     0.023 A 
ATOM     70  C   UNL A   1      46.488  31.892  28.227  1.00  0.00     0.031 A 
ATOM     71  C   UNL A   1      48.842  32.174  28.507  1.00  0.00     0.131 A 
ATOM     72  C   UNL A   1      46.465  33.097  27.505  1.00  0.00     0.055 A 
ATOM     73  C   UNL A   1      48.804  33.398  27.838  1.00  0.00     0.041 A 
ATOM     74  F   UNL A   1      50.080  31.809  28.858  1.00  0.00    -0.206 F 
ATOM     75  C   UNL A   1      47.617  33.852  27.302  1.00  0.00     0.022 A 
BRANCH  72  76
ATOM     76  S   UNL A   1      44.927  33.577  26.687  1.00  0.00     0.124 S 
ATOM     77  O   UNL A   1      44.009  32.545  27.156  1.00  0.00    -0.237 OA
ATOM     78  O   UNL A   1      44.716  34.921  27.218  1.00  0.00    -0.237 OA
ATOM     79  O   UNL A   1      45.266  33.514  25.268  1.00  0.00    -0.744 OA
ENDBRANCH  72  76
ENDBRANCH  55  69
BRANCH  56  80
ATOM     80  C   UNL A   1      39.497  29.147  29.608  1.00  0.00     0.023 A 
ATOM     81  C   UNL A   1      38.564  29.795  30.444  1.00  0.00     0.031 A 
ATOM     82  C   UNL A   1      39.266  29.237  28.214  1.00  0.00     0.131 A 
ATOM     83  C   UNL A   1      37.460  30.484  29.881  1.00  0.00     0.055 A 
ATOM     84  C   UNL A   1      38.176  29.914  27.665  1.00  0.00     0.041 A 
ATOM     85  F   UNL A   1      40.142  28.731  27.332  1.00  0.00    -0.206 F 
ATOM     86  C   UNL A   1      37.269  30.547  28.498  1.00  0.00     0.022 A 
BRANCH  83  87
ATOM     87  S   UNL A   1      36.270  31.366  30.946  1.00  0.00     0.124 S 
ATOM     88  O   UNL A   1      37.113  32.352  31.611  1.00  0.00    -0.237 OA
ATOM     89  O   UNL A   1      35.310  31.880  29.976  1.00  0.00    -0.237 OA
ATOM     90  O   UNL A   1      35.750  30.315  31.823  1.00  0.00    -0.744 OA
ENDBRANCH  83  87
ENDBRANCH  56  80
BRANCH  68  91
ATOM     91  C   UNL A   1      44.428  27.441  33.331  1.00  0.00     0.023 A 
ATOM     92  C   UNL A   1      44.128  27.516  34.711  1.00  0.00     0.031 A 
ATOM     93  C   UNL A   1      44.388  26.172  32.725  1.00  0.00     0.131 A 
ATOM     94  C   UNL A   1      43.809  26.341  35.425  1.00  0.00     0.055 A 
ATOM     95  C   UNL A   1      44.049  25.018  33.428  1.00  0.00     0.041 A 
ATOM     96  F   UNL A   1      44.649  26.036  31.413  1.00  0.00    -0.206 F 
ATOM     97  C   UNL A   1      43.763  25.098  34.784  1.00  0.00     0.022 A 
BRANCH  94  98
ATOM     98  S   UNL A   1      43.466  26.394  37.217  1.00  0.00     0.124 S 
ATOM     99  O   UNL A   1      44.298  27.495  37.690  1.00  0.00    -0.237 OA
ATOM    100  O   UNL A   1      42.024  26.618  37.255  1.00  0.00    -0.237 OA
ATOM    101  O   UNL A   1      43.887  25.071  37.683  1.00  0.00    -0.744 OA
ENDBRANCH  94  98
ENDBRANCH  68  91
ENDBRANCH  42  43
ENDBRANCH  35  37
ENDBRANCH  34  35
ENDBRANCH  33  34
ENDBRANCH  32  33
ENDBRANCH  31  32
ENDBRANCH  30  31
ENDBRANCH  29  30
ENDBRANCH   1  29
TORSDOF 26
ENDMDL
MODEL 3
REMARK VINA RESULT:      -9.0      2.903      3.950
REMARK SMILES Cc1nsc(NC(=O)[C@@H]2C=C[C@@H]([NH3+])C2)c1C(=O)OCCOCCOCCOCCOC(=O)c1ccc(-c2c3nc(c(-c4cc(S(=O)(=O)[O-])ccc4F)c4ccc([nH]4)c(-c4cc(S(=O)(=O)[O-])ccc4F)c4nc(c(-c5cc(S(=O)(=O)[O-])ccc5F)c5ccc2[nH]5)C=C4)C=C3)cc1
REMARK SMILES IDX 24 1 23 2 22 3 21 4 20 5 19 6 18 7 16 8 17 9 15 10 1 11 2 12
REMARK SMILES IDX 3 13 4 14 5 15 6 16 7 17 8 19 9 20 10 21 14 22 11 23 12 24
REMARK SMILES IDX 13 25 25 29 26 30 27 31 28 32 29 33 30 34 31 35 32 36 33 37
REMARK SMILES IDX 34 38 95 39 35 40 94 41 36 42 37 43 38 44 88 45 39 46 93 47
REMARK SMILES IDX 87 48 89 49 40 50 92 51 86 52 85 53 41 55 73 56 53 57 72 58
REMARK SMILES IDX 54 59 57 60 71 61 90 62 55 63 56 64 70 66 91 67 58 68 42 69
REMARK SMILES IDX 43 70 51 71 44 72 50 73 52 74 49 75 45 76 46 77 47 78 48 79
REMARK SMILES IDX 74 80 75 81 83 82 76 83 82 84 84 85 81 86 77 87 78 88 79 89
REMARK SMILES IDX 80 90 59 91 60 92 68 93 61 94 67 95 69 96 66 97 62 98 63 99
REMARK SMILES IDX 64 100 65 101
REMARK H PARENT 6 18 13 26 13 27 13 28 89 54 57 65
REMARK Flexibility Score: inf
ROOT
ATOM      1  O   UNL A   1      36.728  23.511  26.166  1.00  0.00    -0.377 OA
ENDROOT
BRANCH   1   2
ATOM      2  C   UNL A   1      35.793  22.773  25.400  1.00  0.00     0.188 C 
BRANCH   2   3
ATOM      3  C   UNL A   1      36.296  21.380  24.960  1.00  0.00     0.188 C 
BRANCH   3   4
ATOM      4  O   UNL A   1      35.461  20.227  24.906  1.00  0.00    -0.376 OA
BRANCH   4   5
ATOM      5  C   UNL A   1      34.069  20.288  25.165  1.00  0.00     0.202 C 
BRANCH   5   6
ATOM      6  C   UNL A   1      33.075  20.608  24.041  1.00  0.00     0.261 C 
BRANCH   6   7
ATOM      7  O   UNL A   1      31.863  21.257  24.440  1.00  0.00    -0.460 OA
BRANCH   7   8
ATOM      8  C   UNL A   1      31.730  22.555  24.064  1.00  0.00     0.343 C 
ATOM      9  O   UNL A   1      31.454  22.921  22.926  1.00  0.00    -0.246 OA
BRANCH   8  10
ATOM     10  C   UNL A   1      31.775  23.483  25.188  1.00  0.00     0.117 A 
ATOM     11  C   UNL A   1      29.908  22.506  26.796  1.00  0.00     0.069 C 
ATOM     12  C   UNL A   1      31.000  23.449  26.413  1.00  0.00     0.068 A 
ATOM     13  N   UNL A   1      31.296  24.402  27.299  1.00  0.00    -0.195 NA
ATOM     14  S   UNL A   1      32.375  25.441  26.632  1.00  0.00    -0.017 S 
ATOM     15  C   UNL A   1      32.488  24.685  25.126  1.00  0.00     0.131 A 
BRANCH  15  16
ATOM     16  N   UNL A   1      33.084  25.236  24.000  1.00  0.00    -0.315 N 
ATOM     17  C   UNL A   1      32.862  26.356  23.251  1.00  0.00     0.232 C 
ATOM     18  H   UNL A   1      33.839  24.698  23.667  1.00  0.00     0.170 HD
ATOM     19  O   UNL A   1      33.382  26.373  22.127  1.00  0.00    -0.274 OA
BRANCH  17  20
ATOM     20  C   UNL A   1      32.128  27.587  23.776  1.00  0.00     0.107 C 
ATOM     21  C   UNL A   1      30.639  27.430  23.888  1.00  0.00    -0.012 C 
ATOM     22  C   UNL A   1      32.281  28.713  22.743  1.00  0.00     0.087 C 
ATOM     23  C   UNL A   1      29.987  28.134  22.956  1.00  0.00     0.033 C 
ATOM     24  C   UNL A   1      30.931  28.801  22.014  1.00  0.00     0.205 C 
BRANCH  24  25
ATOM     25  N   UNL A   1      30.571  30.182  21.751  1.00  0.00    -0.352 N 
ATOM     26  H   UNL A   1      31.013  30.787  22.443  1.00  0.00     0.345 HD
ATOM     27  H   UNL A   1      29.558  30.286  21.804  1.00  0.00     0.345 HD
ATOM     28  H   UNL A   1      30.891  30.445  20.818  1.00  0.00     0.345 HD
ENDBRANCH  24  25
ENDBRANCH  17  20
ENDBRANCH  15  16
ENDBRANCH   8  10
ENDBRANCH   7   8
ENDBRANCH   6   7
ENDBRANCH   5   6
ENDBRANCH   4   5
ENDBRANCH   3   4
ENDBRANCH   2   3
ENDBRANCH   1   2
BRANCH   1  29
ATOM     29  C   UNL A   1      38.078  23.424  25.706  1.00  0.00     0.188 C 
BRANCH  29  30
ATOM     30  C   UNL A   1      39.177  23.021  26.729  1.00  0.00     0.188 C 
BRANCH  30  31
ATOM     31  O   UNL A   1      39.682  21.702  26.560  1.00  0.00    -0.376 OA
BRANCH  31  32
ATOM     32  C   UNL A   1      41.014  21.447  26.144  1.00  0.00     0.202 C 
BRANCH  32  33
ATOM     33  C   UNL A   1      41.930  22.657  25.979  1.00  0.00     0.261 C 
BRANCH  33  34
ATOM     34  O   UNL A   1      42.904  22.751  26.998  1.00  0.00    -0.460 OA
BRANCH  34  35
ATOM     35  C   UNL A   1      42.567  23.562  28.016  1.00  0.00     0.338 C 
ATOM     36  O   UNL A   1      42.042  23.241  29.073  1.00  0.00    -0.246 OA
BRANCH  35  37
ATOM     37  C   UNL A   1      42.854  24.937  27.607  1.00  0.00     0.060 A 
ATOM     38  C   UNL A   1      43.924  25.519  28.273  1.00  0.00     0.016 A 
ATOM     39  C   UNL A   1      41.825  25.684  27.004  1.00  0.00     0.016 A 
ATOM     40  C   UNL A   1      43.748  26.807  28.690  1.00  0.00     0.010 A 
ATOM     41  C   UNL A   1      41.649  26.969  27.425  1.00  0.00     0.010 A 
ATOM     42  C   UNL A   1      42.547  27.454  28.366  1.00  0.00    -0.014 A 
BRANCH  42  43
ATOM     43  C   UNL A   1      42.304  28.725  28.991  1.00  0.00     0.031 A 
ATOM     44  C   UNL A   1      43.328  29.695  28.584  1.00  0.00     0.074 A 
ATOM     45  C   UNL A   1      41.257  28.951  29.804  1.00  0.00     0.049 A 
ATOM     46  N   UNL A   1      44.372  30.048  29.254  1.00  0.00    -0.248 NA
ATOM     47  C   UNL A   1      43.364  30.073  27.162  1.00  0.00     0.031 C 
ATOM     48  C   UNL A   1      40.081  28.106  30.030  1.00  0.00     0.029 A 
ATOM     49  N   UNL A   1      40.990  30.054  30.547  1.00  0.00    -0.354 N 
ATOM     50  C   UNL A   1      45.034  30.938  28.424  1.00  0.00     0.074 A 
ATOM     51  C   UNL A   1      44.549  30.678  27.098  1.00  0.00     0.031 C 
ATOM     52  C   UNL A   1      39.129  28.832  30.665  1.00  0.00     0.029 A 
ATOM     53  C   UNL A   1      39.684  30.130  31.015  1.00  0.00     0.049 A 
ATOM     54  H   UNL A   1      41.666  30.745  30.737  1.00  0.00     0.167 HD
ATOM     55  C   UNL A   1      45.628  32.040  28.950  1.00  0.00     0.034 A 
ATOM     56  C   UNL A   1      39.097  31.220  31.575  1.00  0.00     0.034 A 
ATOM     57  C   UNL A   1      45.846  31.867  30.372  1.00  0.00     0.049 A 
ATOM     58  C   UNL A   1      40.201  32.081  32.075  1.00  0.00     0.074 A 
ATOM     59  C   UNL A   1      46.593  31.009  31.153  1.00  0.00     0.029 A 
ATOM     60  N   UNL A   1      44.896  32.419  31.203  1.00  0.00    -0.354 N 
ATOM     61  N   UNL A   1      41.017  31.716  33.027  1.00  0.00    -0.248 NA
ATOM     62  C   UNL A   1      40.700  33.151  31.221  1.00  0.00     0.031 C 
ATOM     63  C   UNL A   1      45.822  30.799  32.335  1.00  0.00     0.029 A 
ATOM     64  C   UNL A   1      44.665  31.581  32.265  1.00  0.00     0.049 A 
ATOM     65  H   UNL A   1      44.449  33.283  31.055  1.00  0.00     0.167 HD
ATOM     66  C   UNL A   1      42.263  32.187  32.643  1.00  0.00     0.074 A 
ATOM     67  C   UNL A   1      41.981  33.175  31.604  1.00  0.00     0.031 C 
ATOM     68  C   UNL A   1      43.406  31.524  32.998  1.00  0.00     0.034 A 
BRANCH  55  69
ATOM     69  C   UNL A   1      45.554  33.409  28.303  1.00  0.00     0.023 A 
ATOM     70  C   UNL A   1      44.416  34.180  28.594  1.00  0.00     0.031 A 
ATOM     71  C   UNL A   1      46.347  33.874  27.224  1.00  0.00     0.131 A 
ATOM     72  C   UNL A   1      44.056  35.271  27.783  1.00  0.00     0.055 A 
ATOM     73  C   UNL A   1      46.015  34.992  26.457  1.00  0.00     0.041 A 
ATOM     74  F   UNL A   1      47.438  33.241  26.779  1.00  0.00    -0.206 F 
ATOM     75  C   UNL A   1      44.847  35.680  26.712  1.00  0.00     0.022 A 
BRANCH  72  76
ATOM     76  S   UNL A   1      42.445  36.044  28.051  1.00  0.00     0.124 S 
ATOM     77  O   UNL A   1      41.632  34.900  28.448  1.00  0.00    -0.237 OA
ATOM     78  O   UNL A   1      42.753  37.014  29.097  1.00  0.00    -0.237 OA
ATOM     79  O   UNL A   1      42.125  36.616  26.746  1.00  0.00    -0.744 OA
ENDBRANCH  72  76
ENDBRANCH  55  69
BRANCH  56  80
ATOM     80  C   UNL A   1      37.724  31.719  31.270  1.00  0.00     0.023 A 
ATOM     81  C   UNL A   1      37.189  31.775  29.965  1.00  0.00     0.031 A 
ATOM     82  C   UNL A   1      36.818  31.939  32.334  1.00  0.00     0.131 A 
ATOM     83  C   UNL A   1      35.812  32.047  29.771  1.00  0.00     0.055 A 
ATOM     84  C   UNL A   1      35.463  32.210  32.137  1.00  0.00     0.041 A 
ATOM     85  F   UNL A   1      37.208  31.819  33.613  1.00  0.00    -0.206 F 
ATOM     86  C   UNL A   1      34.951  32.259  30.852  1.00  0.00     0.022 A 
BRANCH  83  87
ATOM     87  S   UNL A   1      35.095  32.078  28.094  1.00  0.00     0.124 S 
ATOM     88  O   UNL A   1      35.575  30.826  27.523  1.00  0.00    -0.237 OA
ATOM     89  O   UNL A   1      33.665  32.160  28.370  1.00  0.00    -0.237 OA
ATOM     90  O   UNL A   1      35.673  33.283  27.496  1.00  0.00    -0.744 OA
ENDBRANCH  83  87
ENDBRANCH  56  80
BRANCH  68  91
ATOM     91  C   UNL A   1      43.326  30.546  34.158  1.00  0.00     0.023 A 
ATOM     92  C   UNL A   1      42.975  29.179  34.065  1.00  0.00     0.031 A 
ATOM     93  C   UNL A   1      43.715  31.034  35.419  1.00  0.00     0.131 A 
ATOM     94  C   UNL A   1      43.019  28.363  35.215  1.00  0.00     0.055 A 
ATOM     95  C   UNL A   1      43.781  30.219  36.547  1.00  0.00     0.041 A 
ATOM     96  F   UNL A   1      44.075  32.320  35.569  1.00  0.00    -0.206 F 
ATOM     97  C   UNL A   1      43.428  28.880  36.450  1.00  0.00     0.022 A 
BRANCH  94  98
ATOM     98  S   UNL A   1      42.524  26.608  35.143  1.00  0.00     0.124 S 
ATOM     99  O   UNL A   1      41.084  26.670  34.924  1.00  0.00    -0.237 OA
ATOM    100  O   UNL A   1      43.320  26.103  34.027  1.00  0.00    -0.237 OA
ATOM    101  O   UNL A   1      42.919  26.089  36.454  1.00  0.00    -0.744 OA
ENDBRANCH  94  98
ENDBRANCH  68  91
ENDBRANCH  42  43
ENDBRANCH  35  37
ENDBRANCH  34  35
ENDBRANCH  33  34
ENDBRANCH  32  33
ENDBRANCH  31  32
ENDBRANCH  30  31
ENDBRANCH  29  30
ENDBRANCH   1  29
TORSDOF 26
ENDMDL
