MODEL 1
REMARK VINA RESULT:      -8.7      0.000      0.000
REMARK SMILES CCn1c(N2CCC(C(=O)OCCOCCOCCOCCOC(=O)c3ccc(-c4c5nc(c(-c6cc(S(=O)(=O)[O-])ccc6F)c6ccc([nH]6)c(-c6cc(S(=O)(=O)[O-])ccc6F)c6nc(c(-c7cc(S(=O)(=O)[O-])ccc7F)c7ccc4[nH]7)C=C6)C=C5)cc3)CC2)nc2cc(C)ccc21
REMARK SMILES IDX 18 1 17 2 16 3 15 4 14 5 13 6 12 7 11 8 9 9 10 10 8 11 5 12
REMARK SMILES IDX 6 13 90 14 7 15 89 16 4 17 3 18 98 19 91 20 92 21 97 22
REMARK SMILES IDX 93 23 96 24 94 25 95 26 2 27 1 28 19 29 20 30 21 31 22 32
REMARK SMILES IDX 23 33 24 34 25 35 26 36 27 37 88 38 28 39 87 40 29 41 30 42
REMARK SMILES IDX 31 43 81 44 32 45 86 46 80 47 82 48 33 49 85 50 79 51 78 52
REMARK SMILES IDX 34 54 66 55 46 56 65 57 47 58 50 59 64 60 83 61 48 62 49 63
REMARK SMILES IDX 63 65 84 66 51 67 35 68 36 69 44 70 37 71 43 72 45 73 42 74
REMARK SMILES IDX 38 75 39 76 40 77 41 78 67 79 68 80 76 81 69 82 75 83 77 84
REMARK SMILES IDX 74 85 70 86 71 87 72 88 73 89 52 90 53 91 61 92 54 93 60 94
REMARK SMILES IDX 62 95 59 96 55 97 56 98 57 99 58 100
REMARK H PARENT 82 53 50 64
REMARK Flexibility Score: inf
ROOT
ATOM      1  C   UNL A   1      44.579  20.659  25.080  1.00  0.00     0.188 C 
ENDROOT
BRANCH   1   2
ATOM      2  O   UNL A   1      44.590  21.382  23.861  1.00  0.00    -0.377 OA
BRANCH   2   3
ATOM      3  C   UNL A   1      44.171  22.723  23.827  1.00  0.00     0.188 C 
BRANCH   3   4
ATOM      4  C   UNL A   1      44.123  23.479  25.156  1.00  0.00     0.188 C 
BRANCH   4   5
ATOM      5  O   UNL A   1      45.012  24.545  25.403  1.00  0.00    -0.376 OA
BRANCH   5   6
ATOM      6  C   UNL A   1      46.330  24.363  25.907  1.00  0.00     0.202 C 
BRANCH   6   7
ATOM      7  C   UNL A   1      47.056  25.261  26.923  1.00  0.00     0.261 C 
BRANCH   7   8
ATOM      8  O   UNL A   1      46.552  25.253  28.262  1.00  0.00    -0.463 OA
BRANCH   8   9
ATOM      9  C   UNL A   1      47.364  25.830  29.170  1.00  0.00     0.309 C 
ATOM     10  O   UNL A   1      48.524  26.175  28.951  1.00  0.00    -0.252 OA
BRANCH   9  11
ATOM     11  C   UNL A   1      46.743  26.077  30.520  1.00  0.00     0.103 C 
ATOM     12  N   UNL A   1      46.103  25.852  33.302  1.00  0.00    -0.342 N 
ATOM     13  C   UNL A   1      45.035  25.844  32.306  1.00  0.00     0.120 C 
ATOM     14  C   UNL A   1      47.385  26.436  32.900  1.00  0.00     0.120 C 
ATOM     15  C   UNL A   1      45.527  25.275  30.978  1.00  0.00     0.037 C 
ATOM     16  C   UNL A   1      47.847  25.905  31.557  1.00  0.00     0.037 C 
BRANCH  12  17
ATOM     17  C   UNL A   1      46.084  24.865  34.233  1.00  0.00     0.206 A 
ATOM     18  N   UNL A   1      45.745  25.113  35.557  1.00  0.00    -0.310 N 
ATOM     19  C   UNL A   1      45.824  23.914  36.232  1.00  0.00     0.070 A 
ATOM     20  N   UNL A   1      46.237  23.583  34.014  1.00  0.00    -0.213 NA
ATOM     21  C   UNL A   1      46.130  22.986  35.236  1.00  0.00     0.091 A 
ATOM     22  C   UNL A   1      45.658  23.515  37.565  1.00  0.00     0.029 A 
ATOM     23  C   UNL A   1      46.272  21.627  35.556  1.00  0.00     0.034 A 
ATOM     24  C   UNL A   1      45.805  22.154  37.868  1.00  0.00     0.006 A 
ATOM     25  C   UNL A   1      46.106  21.209  36.884  1.00  0.00    -0.049 A 
ATOM     26  C   UNL A   1      46.271  19.759  37.230  1.00  0.00     0.044 C 
BRANCH  18  27
ATOM     27  C   UNL A   1      45.218  26.392  35.992  1.00  0.00     0.122 C 
ATOM     28  C   UNL A   1      46.161  27.448  36.533  1.00  0.00     0.028 C 
ENDBRANCH  18  27
ENDBRANCH  12  17
ENDBRANCH   9  11
ENDBRANCH   8   9
ENDBRANCH   7   8
ENDBRANCH   6   7
ENDBRANCH   5   6
ENDBRANCH   4   5
ENDBRANCH   3   4
ENDBRANCH   2   3
ENDBRANCH   1   2
BRANCH   1  29
ATOM     29  C   UNL A   1      44.096  19.203  25.074  1.00  0.00     0.188 C 
BRANCH  29  30
ATOM     30  O   UNL A   1      43.218  18.926  26.160  1.00  0.00    -0.376 OA
BRANCH  30  31
ATOM     31  C   UNL A   1      41.893  19.429  26.072  1.00  0.00     0.202 C 
BRANCH  31  32
ATOM     32  C   UNL A   1      41.437  20.379  27.190  1.00  0.00     0.261 C 
BRANCH  32  33
ATOM     33  O   UNL A   1      41.506  21.772  26.843  1.00  0.00    -0.460 OA
BRANCH  33  34
ATOM     34  C   UNL A   1      40.350  22.459  26.664  1.00  0.00     0.338 C 
ATOM     35  O   UNL A   1      39.247  21.983  26.516  1.00  0.00    -0.246 OA
BRANCH  34  36
ATOM     36  C   UNL A   1      40.659  23.865  27.055  1.00  0.00     0.060 A 
ATOM     37  C   UNL A   1      41.638  24.161  28.010  1.00  0.00     0.016 A 
ATOM     38  C   UNL A   1      39.737  24.848  26.665  1.00  0.00     0.016 A 
ATOM     39  C   UNL A   1      41.616  25.402  28.646  1.00  0.00     0.010 A 
ATOM     40  C   UNL A   1      39.708  26.083  27.318  1.00  0.00     0.010 A 
ATOM     41  C   UNL A   1      40.625  26.353  28.336  1.00  0.00    -0.014 A 
BRANCH  41  42
ATOM     42  C   UNL A   1      40.763  27.693  28.933  1.00  0.00     0.031 A 
ATOM     43  C   UNL A   1      42.003  28.387  28.481  1.00  0.00     0.074 A 
ATOM     44  C   UNL A   1      39.860  28.393  29.652  1.00  0.00     0.049 A 
ATOM     45  N   UNL A   1      43.019  28.780  29.176  1.00  0.00    -0.248 NA
ATOM     46  C   UNL A   1      42.170  28.521  27.026  1.00  0.00     0.031 C 
ATOM     47  C   UNL A   1      38.445  28.085  29.859  1.00  0.00     0.029 A 
ATOM     48  N   UNL A   1      40.005  29.609  30.275  1.00  0.00    -0.354 N 
ATOM     49  C   UNL A   1      43.889  29.372  28.258  1.00  0.00     0.074 A 
ATOM     50  C   UNL A   1      43.398  29.026  26.950  1.00  0.00     0.031 C 
ATOM     51  C   UNL A   1      37.824  29.164  30.387  1.00  0.00     0.029 A 
ATOM     52  C   UNL A   1      38.808  30.202  30.653  1.00  0.00     0.049 A 
ATOM     53  H   UNL A   1      40.884  30.024  30.438  1.00  0.00     0.167 HD
ATOM     54  C   UNL A   1      44.839  30.277  28.622  1.00  0.00     0.034 A 
ATOM     55  C   UNL A   1      38.610  31.481  31.067  1.00  0.00     0.034 A 
ATOM     56  C   UNL A   1      45.082  30.256  30.036  1.00  0.00     0.049 A 
ATOM     57  C   UNL A   1      39.905  32.074  31.462  1.00  0.00     0.074 A 
ATOM     58  C   UNL A   1      45.606  29.351  30.932  1.00  0.00     0.029 A 
ATOM     59  N   UNL A   1      44.463  31.227  30.778  1.00  0.00    -0.354 N 
ATOM     60  N   UNL A   1      40.577  31.756  32.530  1.00  0.00    -0.248 NA
ATOM     61  C   UNL A   1      40.636  32.848  30.471  1.00  0.00     0.031 C 
ATOM     62  C   UNL A   1      44.947  29.615  32.166  1.00  0.00     0.029 A 
ATOM     63  C   UNL A   1      44.065  30.679  31.968  1.00  0.00     0.049 A 
ATOM     64  H   UNL A   1      44.327  32.163  30.503  1.00  0.00     0.167 HD
ATOM     65  C   UNL A   1      41.902  31.887  32.152  1.00  0.00     0.074 A 
ATOM     66  C   UNL A   1      41.873  32.711  30.950  1.00  0.00     0.031 C 
ATOM     67  C   UNL A   1      42.863  31.075  32.678  1.00  0.00     0.034 A 
BRANCH  54  68
ATOM     68  C   UNL A   1      45.284  31.421  27.736  1.00  0.00     0.023 A 
ATOM     69  C   UNL A   1      44.542  32.610  27.595  1.00  0.00     0.031 A 
ATOM     70  C   UNL A   1      46.582  31.446  27.188  1.00  0.00     0.131 A 
ATOM     71  C   UNL A   1      45.050  33.727  26.922  1.00  0.00     0.055 A 
ATOM     72  C   UNL A   1      47.122  32.589  26.582  1.00  0.00     0.041 A 
ATOM     73  F   UNL A   1      47.392  30.380  27.280  1.00  0.00    -0.206 F 
ATOM     74  C   UNL A   1      46.353  33.738  26.441  1.00  0.00     0.022 A 
BRANCH  71  75
ATOM     75  S   UNL A   1      44.008  35.191  26.672  1.00  0.00     0.124 S 
ATOM     76  O   UNL A   1      44.985  36.184  26.242  1.00  0.00    -0.237 OA
ATOM     77  O   UNL A   1      43.083  34.723  25.643  1.00  0.00    -0.237 OA
ATOM     78  O   UNL A   1      43.408  35.411  27.985  1.00  0.00    -0.744 OA
ENDBRANCH  71  75
ENDBRANCH  54  68
BRANCH  55  79
ATOM     79  C   UNL A   1      37.443  32.351  30.779  1.00  0.00     0.023 A 
ATOM     80  C   UNL A   1      36.787  32.989  31.845  1.00  0.00     0.031 A 
ATOM     81  C   UNL A   1      36.773  32.310  29.542  1.00  0.00     0.131 A 
ATOM     82  C   UNL A   1      35.498  33.511  31.682  1.00  0.00     0.055 A 
ATOM     83  C   UNL A   1      35.489  32.846  29.376  1.00  0.00     0.041 A 
ATOM     84  F   UNL A   1      37.322  31.685  28.489  1.00  0.00    -0.206 F 
ATOM     85  C   UNL A   1      34.839  33.439  30.454  1.00  0.00     0.022 A 
BRANCH  82  86
ATOM     86  S   UNL A   1      34.622  34.219  33.102  1.00  0.00     0.124 S 
ATOM     87  O   UNL A   1      34.816  33.196  34.127  1.00  0.00    -0.237 OA
ATOM     88  O   UNL A   1      35.351  35.465  33.308  1.00  0.00    -0.237 OA
ATOM     89  O   UNL A   1      33.250  34.356  32.620  1.00  0.00    -0.744 OA
ENDBRANCH  82  86
ENDBRANCH  55  79
BRANCH  67  90
ATOM     90  C   UNL A   1      42.564  30.334  33.959  1.00  0.00     0.023 A 
ATOM     91  C   UNL A   1      42.969  30.950  35.158  1.00  0.00     0.031 A 
ATOM     92  C   UNL A   1      42.085  29.011  34.036  1.00  0.00     0.131 A 
ATOM     93  C   UNL A   1      42.930  30.248  36.366  1.00  0.00     0.055 A 
ATOM     94  C   UNL A   1      41.974  28.341  35.259  1.00  0.00     0.041 A 
ATOM     95  F   UNL A   1      41.790  28.303  32.936  1.00  0.00    -0.206 F 
ATOM     96  C   UNL A   1      42.416  28.951  36.428  1.00  0.00     0.022 A 
BRANCH  93  97
ATOM     97  S   UNL A   1      43.694  30.946  37.853  1.00  0.00     0.124 S 
ATOM     98  O   UNL A   1      42.534  31.409  38.609  1.00  0.00    -0.237 OA
ATOM     99  O   UNL A   1      44.388  29.790  38.419  1.00  0.00    -0.237 OA
ATOM    100  O   UNL A   1      44.568  31.999  37.343  1.00  0.00    -0.744 OA
ENDBRANCH  93  97
ENDBRANCH  67  90
ENDBRANCH  41  42
ENDBRANCH  34  36
ENDBRANCH  33  34
ENDBRANCH  32  33
ENDBRANCH  31  32
ENDBRANCH  30  31
ENDBRANCH  29  30
ENDBRANCH   1  29
TORSDOF 25
ENDMDL
MODEL 2
REMARK VINA RESULT:      -8.5      4.504     10.549
REMARK SMILES CCn1c(N2CCC(C(=O)OCCOCCOCCOCCOC(=O)c3ccc(-c4c5nc(c(-c6cc(S(=O)(=O)[O-])ccc6F)c6ccc([nH]6)c(-c6cc(S(=O)(=O)[O-])ccc6F)c6nc(c(-c7cc(S(=O)(=O)[O-])ccc7F)c7ccc4[nH]7)C=C6)C=C5)cc3)CC2)nc2cc(C)ccc21
REMARK SMILES IDX 18 1 17 2 16 3 15 4 14 5 13 6 12 7 11 8 9 9 10 10 8 11 5 12
REMARK SMILES IDX 6 13 90 14 7 15 89 16 4 17 3 18 98 19 91 20 92 21 97 22
REMARK SMILES IDX 93 23 96 24 94 25 95 26 2 27 1 28 19 29 20 30 21 31 22 32
REMARK SMILES IDX 23 33 24 34 25 35 26 36 27 37 88 38 28 39 87 40 29 41 30 42
REMARK SMILES IDX 31 43 81 44 32 45 86 46 80 47 82 48 33 49 85 50 79 51 78 52
REMARK SMILES IDX 34 54 66 55 46 56 65 57 47 58 50 59 64 60 83 61 48 62 49 63
REMARK SMILES IDX 63 65 84 66 51 67 35 68 36 69 44 70 37 71 43 72 45 73 42 74
REMARK SMILES IDX 38 75 39 76 40 77 41 78 67 79 68 80 76 81 69 82 75 83 77 84
REMARK SMILES IDX 74 85 70 86 71 87 72 88 73 89 52 90 53 91 61 92 54 93 60 94
REMARK SMILES IDX 62 95 59 96 55 97 56 98 57 99 58 100
REMARK H PARENT 82 53 50 64
REMARK Flexibility Score: inf
ROOT
ATOM      1  C   UNL A   1      40.927  21.432  27.182  1.00  0.00     0.188 C 
ENDROOT
BRANCH   1   2
ATOM      2  O   UNL A   1      39.711  21.942  26.663  1.00  0.00    -0.377 OA
BRANCH   2   3
ATOM      3  C   UNL A   1      38.947  21.179  25.763  1.00  0.00     0.188 C 
BRANCH   3   4
ATOM      4  C   UNL A   1      37.735  21.855  25.121  1.00  0.00     0.188 C 
BRANCH   4   5
ATOM      5  O   UNL A   1      36.670  22.319  25.920  1.00  0.00    -0.376 OA
BRANCH   5   6
ATOM      6  C   UNL A   1      35.435  21.625  26.058  1.00  0.00     0.202 C 
BRANCH   6   7
ATOM      7  C   UNL A   1      34.927  20.473  25.174  1.00  0.00     0.261 C 
BRANCH   7   8
ATOM      8  O   UNL A   1      33.948  20.807  24.185  1.00  0.00    -0.463 OA
BRANCH   8   9
ATOM      9  C   UNL A   1      32.670  20.678  24.596  1.00  0.00     0.309 C 
ATOM     10  O   UNL A   1      32.156  19.621  24.958  1.00  0.00    -0.252 OA
BRANCH   9  11
ATOM     11  C   UNL A   1      31.875  21.957  24.628  1.00  0.00     0.103 C 
ATOM     12  N   UNL A   1      31.201  24.740  24.676  1.00  0.00    -0.342 N 
ATOM     13  C   UNL A   1      30.653  23.840  25.688  1.00  0.00     0.120 C 
ATOM     14  C   UNL A   1      31.675  24.132  23.430  1.00  0.00     0.120 C 
ATOM     15  C   UNL A   1      31.597  22.669  25.950  1.00  0.00     0.037 C 
ATOM     16  C   UNL A   1      32.573  22.938  23.694  1.00  0.00     0.037 C 
BRANCH  12  17
ATOM     17  C   UNL A   1      31.775  25.886  25.118  1.00  0.00     0.206 A 
ATOM     18  N   UNL A   1      31.213  27.131  24.867  1.00  0.00    -0.310 N 
ATOM     19  C   UNL A   1      32.034  28.076  25.444  1.00  0.00     0.070 A 
ATOM     20  N   UNL A   1      32.808  25.983  25.917  1.00  0.00    -0.213 NA
ATOM     21  C   UNL A   1      33.014  27.321  26.090  1.00  0.00     0.091 A 
ATOM     22  C   UNL A   1      32.048  29.476  25.500  1.00  0.00     0.029 A 
ATOM     23  C   UNL A   1      34.033  27.958  26.816  1.00  0.00     0.034 A 
ATOM     24  C   UNL A   1      33.073  30.096  26.227  1.00  0.00     0.006 A 
ATOM     25  C   UNL A   1      34.060  29.358  26.886  1.00  0.00    -0.049 A 
ATOM     26  C   UNL A   1      35.155  30.040  27.650  1.00  0.00     0.044 C 
BRANCH  18  27
ATOM     27  C   UNL A   1      29.895  27.279  24.280  1.00  0.00     0.122 C 
ATOM     28  C   UNL A   1      29.755  27.856  22.886  1.00  0.00     0.028 C 
ENDBRANCH  18  27
ENDBRANCH  12  17
ENDBRANCH   9  11
ENDBRANCH   8   9
ENDBRANCH   7   8
ENDBRANCH   6   7
ENDBRANCH   5   6
ENDBRANCH   4   5
ENDBRANCH   3   4
ENDBRANCH   2   3
ENDBRANCH   1   2
BRANCH   1  29
ATOM     29  C   UNL A   1      41.747  20.456  26.330  1.00  0.00     0.188 C 
BRANCH  29  30
ATOM     30  O   UNL A   1      42.580  21.133  25.394  1.00  0.00    -0.376 OA
BRANCH  30  31
ATOM     31  C   UNL A   1      43.282  22.278  25.855  1.00  0.00     0.202 C 
BRANCH  31  32
ATOM     32  C   UNL A   1      43.850  23.220  24.782  1.00  0.00     0.261 C 
BRANCH  32  33
ATOM     33  O   UNL A   1      44.126  24.550  25.255  1.00  0.00    -0.460 OA
BRANCH  33  34
ATOM     34  C   UNL A   1      43.132  25.473  25.225  1.00  0.00     0.338 C 
ATOM     35  O   UNL A   1      42.243  25.545  24.407  1.00  0.00    -0.246 OA
BRANCH  34  36
ATOM     36  C   UNL A   1      43.147  26.114  26.572  1.00  0.00     0.060 A 
ATOM     37  C   UNL A   1      42.510  25.526  27.670  1.00  0.00     0.016 A 
ATOM     38  C   UNL A   1      43.551  27.457  26.629  1.00  0.00     0.016 A 
ATOM     39  C   UNL A   1      42.185  26.316  28.773  1.00  0.00     0.010 A 
ATOM     40  C   UNL A   1      43.208  28.248  27.728  1.00  0.00     0.010 A 
ATOM     41  C   UNL A   1      42.492  27.690  28.790  1.00  0.00    -0.014 A 
BRANCH  41  42
ATOM     42  C   UNL A   1      42.261  28.419  30.049  1.00  0.00     0.031 A 
ATOM     43  C   UNL A   1      41.121  29.375  29.946  1.00  0.00     0.074 A 
ATOM     44  C   UNL A   1      42.810  28.202  31.263  1.00  0.00     0.049 A 
ATOM     45  N   UNL A   1      41.120  30.663  30.060  1.00  0.00    -0.248 NA
ATOM     46  C   UNL A   1      39.838  28.800  29.515  1.00  0.00     0.031 C 
ATOM     47  C   UNL A   1      43.628  27.066  31.687  1.00  0.00     0.029 A 
ATOM     48  N   UNL A   1      42.657  28.922  32.423  1.00  0.00    -0.354 N 
ATOM     49  C   UNL A   1      39.791  31.050  29.881  1.00  0.00     0.074 A 
ATOM     50  C   UNL A   1      39.094  29.894  29.379  1.00  0.00     0.031 C 
ATOM     51  C   UNL A   1      43.739  27.071  33.035  1.00  0.00     0.029 A 
ATOM     52  C   UNL A   1      43.092  28.261  33.565  1.00  0.00     0.049 A 
ATOM     53  H   UNL A   1      42.271  29.828  32.443  1.00  0.00     0.167 HD
ATOM     54  C   UNL A   1      39.299  32.231  30.346  1.00  0.00     0.034 A 
ATOM     55  C   UNL A   1      42.863  28.605  34.859  1.00  0.00     0.034 A 
ATOM     56  C   UNL A   1      40.348  33.150  30.681  1.00  0.00     0.049 A 
ATOM     57  C   UNL A   1      42.427  30.016  34.922  1.00  0.00     0.074 A 
ATOM     58  C   UNL A   1      41.320  33.833  29.984  1.00  0.00     0.029 A 
ATOM     59  N   UNL A   1      40.682  33.243  32.007  1.00  0.00    -0.354 N 
ATOM     60  N   UNL A   1      43.195  31.044  34.709  1.00  0.00    -0.248 NA
ATOM     61  C   UNL A   1      40.999  30.292  34.934  1.00  0.00     0.031 C 
ATOM     62  C   UNL A   1      42.406  33.979  30.892  1.00  0.00     0.029 A 
ATOM     63  C   UNL A   1      42.039  33.395  32.106  1.00  0.00     0.049 A 
ATOM     64  H   UNL A   1      40.052  33.205  32.763  1.00  0.00     0.167 HD
ATOM     65  C   UNL A   1      42.360  31.977  34.121  1.00  0.00     0.074 A 
ATOM     66  C   UNL A   1      41.009  31.529  34.436  1.00  0.00     0.031 C 
ATOM     67  C   UNL A   1      42.836  32.855  33.192  1.00  0.00     0.034 A 
BRANCH  54  68
ATOM     68  C   UNL A   1      37.875  32.410  30.827  1.00  0.00     0.023 A 
ATOM     69  C   UNL A   1      36.880  33.035  30.050  1.00  0.00     0.031 A 
ATOM     70  C   UNL A   1      37.417  31.752  31.986  1.00  0.00     0.131 A 
ATOM     71  C   UNL A   1      35.532  33.032  30.426  1.00  0.00     0.055 A 
ATOM     72  C   UNL A   1      36.058  31.681  32.325  1.00  0.00     0.041 A 
ATOM     73  F   UNL A   1      38.268  31.102  32.795  1.00  0.00    -0.206 F 
ATOM     74  C   UNL A   1      35.106  32.327  31.545  1.00  0.00     0.022 A 
BRANCH  71  75
ATOM     75  S   UNL A   1      34.312  33.948  29.446  1.00  0.00     0.124 S 
ATOM     76  O   UNL A   1      33.439  34.489  30.483  1.00  0.00    -0.237 OA
ATOM     77  O   UNL A   1      35.156  34.921  28.757  1.00  0.00    -0.237 OA
ATOM     78  O   UNL A   1      33.724  32.924  28.587  1.00  0.00    -0.744 OA
ENDBRANCH  71  75
ENDBRANCH  54  68
BRANCH  55  79
ATOM     79  C   UNL A   1      42.621  27.692  36.005  1.00  0.00     0.023 A 
ATOM     80  C   UNL A   1      43.582  27.609  37.027  1.00  0.00     0.031 A 
ATOM     81  C   UNL A   1      41.643  26.681  35.956  1.00  0.00     0.131 A 
ATOM     82  C   UNL A   1      43.584  26.530  37.919  1.00  0.00     0.055 A 
ATOM     83  C   UNL A   1      41.638  25.610  36.858  1.00  0.00     0.041 A 
ATOM     84  F   UNL A   1      40.716  26.675  34.985  1.00  0.00    -0.206 F 
ATOM     85  C   UNL A   1      42.621  25.523  37.839  1.00  0.00     0.022 A 
BRANCH  82  86
ATOM     86  S   UNL A   1      44.905  26.378  39.151  1.00  0.00     0.124 S 
ATOM     87  O   UNL A   1      45.303  24.980  39.009  1.00  0.00    -0.237 OA
ATOM     88  O   UNL A   1      45.870  27.361  38.673  1.00  0.00    -0.237 OA
ATOM     89  O   UNL A   1      44.236  26.703  40.408  1.00  0.00    -0.744 OA
ENDBRANCH  82  86
ENDBRANCH  55  79
BRANCH  67  90
ATOM     90  C   UNL A   1      44.325  33.091  33.114  1.00  0.00     0.023 A 
ATOM     91  C   UNL A   1      45.107  32.045  32.588  1.00  0.00     0.031 A 
ATOM     92  C   UNL A   1      45.003  34.185  33.687  1.00  0.00     0.131 A 
ATOM     93  C   UNL A   1      46.501  32.086  32.677  1.00  0.00     0.055 A 
ATOM     94  C   UNL A   1      46.399  34.258  33.701  1.00  0.00     0.041 A 
ATOM     95  F   UNL A   1      44.345  35.169  34.318  1.00  0.00    -0.206 F 
ATOM     96  C   UNL A   1      47.155  33.198  33.212  1.00  0.00     0.022 A 
BRANCH  93  97
ATOM     97  S   UNL A   1      47.488  30.630  32.242  1.00  0.00     0.124 S 
ATOM     98  O   UNL A   1      48.812  30.994  32.737  1.00  0.00    -0.237 OA
ATOM     99  O   UNL A   1      46.813  29.565  32.982  1.00  0.00    -0.237 OA
ATOM    100  O   UNL A   1      47.367  30.541  30.788  1.00  0.00    -0.744 OA
ENDBRANCH  93  97
ENDBRANCH  67  90
ENDBRANCH  41  42
ENDBRANCH  34  36
ENDBRANCH  33  34
ENDBRANCH  32  33
ENDBRANCH  31  32
ENDBRANCH  30  31
ENDBRANCH  29  30
ENDBRANCH   1  29
TORSDOF 25
ENDMDL
MODEL 3
REMARK VINA RESULT:      -8.1      6.410     13.066
REMARK SMILES CCn1c(N2CCC(C(=O)OCCOCCOCCOCCOC(=O)c3ccc(-c4c5nc(c(-c6cc(S(=O)(=O)[O-])ccc6F)c6ccc([nH]6)c(-c6cc(S(=O)(=O)[O-])ccc6F)c6nc(c(-c7cc(S(=O)(=O)[O-])ccc7F)c7ccc4[nH]7)C=C6)C=C5)cc3)CC2)nc2cc(C)ccc21
REMARK SMILES IDX 18 1 17 2 16 3 15 4 14 5 13 6 12 7 11 8 9 9 10 10 8 11 5 12
REMARK SMILES IDX 6 13 90 14 7 15 89 16 4 17 3 18 98 19 91 20 92 21 97 22
REMARK SMILES IDX 93 23 96 24 94 25 95 26 2 27 1 28 19 29 20 30 21 31 22 32
REMARK SMILES IDX 23 33 24 34 25 35 26 36 27 37 88 38 28 39 87 40 29 41 30 42
REMARK SMILES IDX 31 43 81 44 32 45 86 46 80 47 82 48 33 49 85 50 79 51 78 52
REMARK SMILES IDX 34 54 66 55 46 56 65 57 47 58 50 59 64 60 83 61 48 62 49 63
REMARK SMILES IDX 63 65 84 66 51 67 35 68 36 69 44 70 37 71 43 72 45 73 42 74
REMARK SMILES IDX 38 75 39 76 40 77 41 78 67 79 68 80 76 81 69 82 75 83 77 84
REMARK SMILES IDX 74 85 70 86 71 87 72 88 73 89 52 90 53 91 61 92 54 93 60 94
REMARK SMILES IDX 62 95 59 96 55 97 56 98 57 99 58 100
REMARK H PARENT 82 53 50 64
REMARK Flexibility Score: inf
ROOT
ATOM      1  C   UNL A   1      37.576  32.487  34.298  1.00  0.00     0.188 C 
ENDROOT
BRANCH   1   2
ATOM      2  O   UNL A   1      38.885  32.920  34.622  1.00  0.00    -0.377 OA
BRANCH   2   3
ATOM      3  C   UNL A   1      39.729  32.109  35.401  1.00  0.00     0.188 C 
BRANCH   3   4
ATOM      4  C   UNL A   1      39.844  32.442  36.890  1.00  0.00     0.188 C 
BRANCH   4   5
ATOM      5  O   UNL A   1      39.540  33.736  37.358  1.00  0.00    -0.376 OA
BRANCH   5   6
ATOM      6  C   UNL A   1      38.457  34.016  38.237  1.00  0.00     0.202 C 
BRANCH   6   7
ATOM      7  C   UNL A   1      38.339  33.593  39.711  1.00  0.00     0.261 C 
BRANCH   7   8
ATOM      8  O   UNL A   1      37.128  32.934  40.095  1.00  0.00    -0.463 OA
BRANCH   8   9
ATOM      9  C   UNL A   1      37.276  32.013  41.069  1.00  0.00     0.309 C 
ATOM     10  O   UNL A   1      37.932  30.979  40.958  1.00  0.00    -0.252 OA
BRANCH   9  11
ATOM     11  C   UNL A   1      36.598  32.345  42.373  1.00  0.00     0.103 C 
ATOM     12  N   UNL A   1      34.580  32.738  44.366  1.00  0.00    -0.342 N 
ATOM     13  C   UNL A   1      35.518  33.814  44.057  1.00  0.00     0.120 C 
ATOM     14  C   UNL A   1      34.984  31.377  44.006  1.00  0.00     0.120 C 
ATOM     15  C   UNL A   1      35.995  33.727  42.610  1.00  0.00     0.037 C 
ATOM     16  C   UNL A   1      35.504  31.304  42.583  1.00  0.00     0.037 C 
BRANCH  12  17
ATOM     17  C   UNL A   1      33.262  33.058  44.385  1.00  0.00     0.206 A 
ATOM     18  N   UNL A   1      32.581  33.290  45.574  1.00  0.00    -0.310 N 
ATOM     19  C   UNL A   1      31.275  33.585  45.247  1.00  0.00     0.070 A 
ATOM     20  N   UNL A   1      32.507  33.318  43.347  1.00  0.00    -0.213 NA
ATOM     21  C   UNL A   1      31.271  33.595  43.852  1.00  0.00     0.091 A 
ATOM     22  C   UNL A   1      30.109  33.856  45.975  1.00  0.00     0.029 A 
ATOM     23  C   UNL A   1      30.089  33.885  43.151  1.00  0.00     0.034 A 
ATOM     24  C   UNL A   1      28.937  34.141  45.261  1.00  0.00     0.006 A 
ATOM     25  C   UNL A   1      28.913  34.161  43.863  1.00  0.00    -0.049 A 
ATOM     26  C   UNL A   1      27.647  34.457  43.116  1.00  0.00     0.044 C 
BRANCH  18  27
ATOM     27  C   UNL A   1      33.265  33.384  46.849  1.00  0.00     0.122 C 
ATOM     28  C   UNL A   1      33.562  32.124  47.636  1.00  0.00     0.028 C 
ENDBRANCH  18  27
ENDBRANCH  12  17
ENDBRANCH   9  11
ENDBRANCH   8   9
ENDBRANCH   7   8
ENDBRANCH   6   7
ENDBRANCH   5   6
ENDBRANCH   4   5
ENDBRANCH   3   4
ENDBRANCH   2   3
ENDBRANCH   1   2
BRANCH   1  29
ATOM     29  C   UNL A   1      37.401  31.239  33.425  1.00  0.00     0.188 C 
BRANCH  29  30
ATOM     30  O   UNL A   1      36.273  31.343  32.561  1.00  0.00    -0.376 OA
BRANCH  30  31
ATOM     31  C   UNL A   1      35.537  32.557  32.593  1.00  0.00     0.202 C 
BRANCH  31  32
ATOM     32  C   UNL A   1      34.783  32.944  31.312  1.00  0.00     0.261 C 
BRANCH  32  33
ATOM     33  O   UNL A   1      35.000  32.048  30.209  1.00  0.00    -0.460 OA
BRANCH  33  34
ATOM     34  C   UNL A   1      35.513  32.544  29.056  1.00  0.00     0.338 C 
ATOM     35  O   UNL A   1      35.148  33.544  28.479  1.00  0.00    -0.246 OA
BRANCH  34  36
ATOM     36  C   UNL A   1      36.815  31.841  28.866  1.00  0.00     0.060 A 
ATOM     37  C   UNL A   1      36.881  30.560  28.307  1.00  0.00     0.016 A 
ATOM     38  C   UNL A   1      37.926  32.372  29.540  1.00  0.00     0.016 A 
ATOM     39  C   UNL A   1      38.018  29.781  28.521  1.00  0.00     0.010 A 
ATOM     40  C   UNL A   1      39.054  31.581  29.767  1.00  0.00     0.010 A 
ATOM     41  C   UNL A   1      39.092  30.270  29.289  1.00  0.00    -0.014 A 
BRANCH  41  42
ATOM     42  C   UNL A   1      40.316  29.452  29.338  1.00  0.00     0.031 A 
ATOM     43  C   UNL A   1      40.665  29.040  30.727  1.00  0.00     0.074 A 
ATOM     44  C   UNL A   1      41.012  28.913  28.314  1.00  0.00     0.049 A 
ATOM     45  N   UNL A   1      41.713  29.327  31.427  1.00  0.00    -0.248 NA
ATOM     46  C   UNL A   1      39.615  28.325  31.468  1.00  0.00     0.031 C 
ATOM     47  C   UNL A   1      40.621  28.838  26.906  1.00  0.00     0.029 A 
ATOM     48  N   UNL A   1      42.193  28.213  28.344  1.00  0.00    -0.354 N 
ATOM     49  C   UNL A   1      41.531  28.681  32.651  1.00  0.00     0.074 A 
ATOM     50  C   UNL A   1      40.162  28.237  32.677  1.00  0.00     0.031 C 
ATOM     51  C   UNL A   1      41.441  27.978  26.258  1.00  0.00     0.029 A 
ATOM     52  C   UNL A   1      42.476  27.521  27.173  1.00  0.00     0.049 A 
ATOM     53  H   UNL A   1      42.788  28.202  29.129  1.00  0.00     0.167 HD
ATOM     54  C   UNL A   1      42.565  28.369  33.480  1.00  0.00     0.034 A 
ATOM     55  C   UNL A   1      43.428  26.572  26.980  1.00  0.00     0.034 A 
ATOM     56  C   UNL A   1      43.757  29.094  33.142  1.00  0.00     0.049 A 
ATOM     57  C   UNL A   1      44.418  26.641  28.075  1.00  0.00     0.074 A 
ATOM     58  C   UNL A   1      44.144  30.415  33.161  1.00  0.00     0.029 A 
ATOM     59  N   UNL A   1      44.692  28.423  32.400  1.00  0.00    -0.354 N 
ATOM     60  N   UNL A   1      45.294  27.590  28.229  1.00  0.00    -0.248 NA
ATOM     61  C   UNL A   1      44.235  25.766  29.222  1.00  0.00     0.031 C 
ATOM     62  C   UNL A   1      45.090  30.548  32.105  1.00  0.00     0.029 A 
ATOM     63  C   UNL A   1      45.248  29.297  31.504  1.00  0.00     0.049 A 
ATOM     64  H   UNL A   1      44.927  27.472  32.494  1.00  0.00     0.167 HD
ATOM     65  C   UNL A   1      45.429  27.710  29.602  1.00  0.00     0.074 A 
ATOM     66  C   UNL A   1      44.891  26.469  30.145  1.00  0.00     0.031 C 
ATOM     67  C   UNL A   1      45.692  28.919  30.175  1.00  0.00     0.034 A 
BRANCH  54  68
ATOM     68  C   UNL A   1      42.582  27.144  34.368  1.00  0.00     0.023 A 
ATOM     69  C   UNL A   1      43.321  25.986  34.059  1.00  0.00     0.031 A 
ATOM     70  C   UNL A   1      42.040  27.189  35.669  1.00  0.00     0.131 A 
ATOM     71  C   UNL A   1      43.474  24.936  34.971  1.00  0.00     0.055 A 
ATOM     72  C   UNL A   1      42.257  26.174  36.611  1.00  0.00     0.041 A 
ATOM     73  F   UNL A   1      41.333  28.251  36.088  1.00  0.00    -0.206 F 
ATOM     74  C   UNL A   1      42.974  25.036  36.263  1.00  0.00     0.022 A 
BRANCH  71  75
ATOM     75  S   UNL A   1      44.342  23.422  34.478  1.00  0.00     0.124 S 
ATOM     76  O   UNL A   1      45.627  23.945  34.029  1.00  0.00    -0.237 OA
ATOM     77  O   UNL A   1      44.365  22.673  35.732  1.00  0.00    -0.237 OA
ATOM     78  O   UNL A   1      43.484  22.858  33.440  1.00  0.00    -0.744 OA
ENDBRANCH  71  75
ENDBRANCH  54  68
BRANCH  55  79
ATOM     79  C   UNL A   1      43.331  25.357  26.131  1.00  0.00     0.023 A 
ATOM     80  C   UNL A   1      42.437  24.337  26.498  1.00  0.00     0.031 A 
ATOM     81  C   UNL A   1      44.310  25.043  25.170  1.00  0.00     0.131 A 
ATOM     82  C   UNL A   1      42.562  23.051  25.960  1.00  0.00     0.055 A 
ATOM     83  C   UNL A   1      44.425  23.758  24.622  1.00  0.00     0.041 A 
ATOM     84  F   UNL A   1      45.220  25.956  24.799  1.00  0.00    -0.206 F 
ATOM     85  C   UNL A   1      43.555  22.750  25.028  1.00  0.00     0.022 A 
BRANCH  82  86
ATOM     86  S   UNL A   1      41.477  21.719  26.540  1.00  0.00     0.124 S 
ATOM     87  O   UNL A   1      40.148  22.281  26.313  1.00  0.00    -0.237 OA
ATOM     88  O   UNL A   1      41.858  20.622  25.657  1.00  0.00    -0.237 OA
ATOM     89  O   UNL A   1      41.849  21.565  27.943  1.00  0.00    -0.744 OA
ENDBRANCH  82  86
ENDBRANCH  55  79
BRANCH  67  90
ATOM     90  C   UNL A   1      46.245  30.027  29.311  1.00  0.00     0.023 A 
ATOM     91  C   UNL A   1      45.315  30.767  28.556  1.00  0.00     0.031 A 
ATOM     92  C   UNL A   1      47.613  30.255  29.065  1.00  0.00     0.131 A 
ATOM     93  C   UNL A   1      45.749  31.660  27.573  1.00  0.00     0.055 A 
ATOM     94  C   UNL A   1      48.042  31.208  28.135  1.00  0.00     0.041 A 
ATOM     95  F   UNL A   1      48.567  29.515  29.648  1.00  0.00    -0.206 F 
ATOM     96  C   UNL A   1      47.110  31.902  27.370  1.00  0.00     0.022 A 
BRANCH  93  97
ATOM     97  S   UNL A   1      44.560  32.408  26.429  1.00  0.00     0.124 S 
ATOM     98  O   UNL A   1      45.426  32.913  25.368  1.00  0.00    -0.237 OA
ATOM     99  O   UNL A   1      43.720  31.269  26.064  1.00  0.00    -0.237 OA
ATOM    100  O   UNL A   1      43.894  33.432  27.231  1.00  0.00    -0.744 OA
ENDBRANCH  93  97
ENDBRANCH  67  90
ENDBRANCH  41  42
ENDBRANCH  34  36
ENDBRANCH  33  34
ENDBRANCH  32  33
ENDBRANCH  31  32
ENDBRANCH  30  31
ENDBRANCH  29  30
ENDBRANCH   1  29
TORSDOF 25
ENDMDL
