MODEL 1
REMARK VINA RESULT:      -9.0      0.000      0.000
REMARK SMILES CC(C)[C@H](NC(=O)[C@H](Cc1ccccc1)n1c(=O)[nH]c2ccccc2c1=O)C(=O)OCCOCCOCCOCCOC(=O)c1ccc(-c2c3nc(c(-c4cc(S(=O)(=O)[O-])ccc4F)c4ccc([nH]4)c(-c4cc(S(=O)(=O)[O-])ccc4F)c4nc(c(-c5cc(S(=O)(=O)[O-])ccc5F)c5ccc2[nH]5)C=C4)C=C3)cc1
REMARK SMILES IDX 35 1 34 2 33 3 32 4 31 5 30 6 28 7 29 8 4 9 2 10 1 11 3 12
REMARK SMILES IDX 5 13 6 14 7 16 8 17 16 18 17 19 26 20 18 21 19 22 25 23
REMARK SMILES IDX 27 24 20 25 24 27 21 28 23 29 22 30 9 31 10 32 11 33 15 34
REMARK SMILES IDX 12 35 14 36 13 37 36 38 37 39 38 40 39 41 40 42 41 43 42 44
REMARK SMILES IDX 43 45 44 46 45 47 46 48 107 49 47 50 106 51 48 52 49 53
REMARK SMILES IDX 50 54 100 55 51 56 105 57 99 58 101 59 52 60 104 61 98 62
REMARK SMILES IDX 97 63 53 65 85 66 65 67 84 68 66 69 69 70 83 71 102 72 67 73
REMARK SMILES IDX 68 74 82 76 103 77 70 78 54 79 55 80 63 81 56 82 62 83 64 84
REMARK SMILES IDX 61 85 57 86 58 87 59 88 60 89 86 90 87 91 95 92 88 93 94 94
REMARK SMILES IDX 96 95 93 96 89 97 90 98 91 99 92 100 71 101 72 102 80 103
REMARK SMILES IDX 73 104 79 105 81 106 78 107 74 108 75 109 76 110 77 111
REMARK H PARENT 5 15 19 26 101 64 69 75
REMARK Flexibility Score: inf
ROOT
ATOM      1  C   UNL A   1      33.789  24.502  25.612  1.00  0.00     0.188 C 
ENDROOT
BRANCH   1   2
ATOM      2  C   UNL A   1      35.315  24.503  25.470  1.00  0.00     0.188 C 
BRANCH   2   3
ATOM      3  O   UNL A   1      36.125  23.529  26.107  1.00  0.00    -0.376 OA
BRANCH   3   4
ATOM      4  C   UNL A   1      37.535  23.485  25.926  1.00  0.00     0.202 C 
BRANCH   4   5
ATOM      5  C   UNL A   1      38.545  24.064  26.939  1.00  0.00     0.261 C 
BRANCH   5   6
ATOM      6  O   UNL A   1      39.769  24.584  26.399  1.00  0.00    -0.462 OA
BRANCH   6   7
ATOM      7  C   UNL A   1      40.861  23.786  26.524  1.00  0.00     0.328 C 
ATOM      8  O   UNL A   1      40.870  22.602  26.207  1.00  0.00    -0.250 OA
BRANCH   7   9
ATOM      9  C   UNL A   1      42.147  24.601  26.857  1.00  0.00     0.194 C 
BRANCH   9  10
ATOM     10  C   UNL A   1      43.476  23.903  26.548  1.00  0.00     0.017 C 
ATOM     11  C   UNL A   1      43.492  22.413  26.901  1.00  0.00     0.010 C 
ATOM     12  C   UNL A   1      43.879  24.071  25.081  1.00  0.00     0.010 C 
ENDBRANCH   9  10
BRANCH   9  13
ATOM     13  N   UNL A   1      42.141  25.414  28.090  1.00  0.00    -0.341 N 
ATOM     14  C   UNL A   1      42.556  26.607  28.549  1.00  0.00     0.244 C 
ATOM     15  H   UNL A   1      41.684  24.922  28.810  1.00  0.00     0.164 HD
ATOM     16  O   UNL A   1      42.653  26.615  29.787  1.00  0.00    -0.273 OA
BRANCH  14  17
ATOM     17  C   UNL A   1      43.051  27.796  27.712  1.00  0.00     0.189 C 
BRANCH  17  18
ATOM     18  N   UNL A   1      44.190  27.543  26.802  1.00  0.00    -0.247 N 
ATOM     19  C   UNL A   1      43.998  27.631  25.437  1.00  0.00     0.329 A 
ATOM     20  C   UNL A   1      45.414  27.153  27.341  1.00  0.00     0.264 A 
ATOM     21  O   UNL A   1      42.921  27.502  24.864  1.00  0.00    -0.248 OA
ATOM     22  N   UNL A   1      45.114  27.729  24.656  1.00  0.00    -0.307 N 
ATOM     23  C   UNL A   1      46.468  26.769  26.371  1.00  0.00     0.064 A 
ATOM     24  O   UNL A   1      45.636  27.014  28.541  1.00  0.00    -0.268 OA
ATOM     25  C   UNL A   1      46.332  27.200  25.059  1.00  0.00     0.055 A 
ATOM     26  H   UNL A   1      45.053  28.185  23.786  1.00  0.00     0.171 HD
ATOM     27  C   UNL A   1      47.503  25.894  26.707  1.00  0.00     0.016 A 
ATOM     28  C   UNL A   1      47.306  26.911  24.105  1.00  0.00     0.027 A 
ATOM     29  C   UNL A   1      48.427  25.512  25.730  1.00  0.00     0.001 A 
ATOM     30  C   UNL A   1      48.352  26.054  24.444  1.00  0.00     0.002 A 
ENDBRANCH  17  18
BRANCH  17  31
ATOM     31  C   UNL A   1      41.857  28.560  27.039  1.00  0.00     0.071 C 
BRANCH  31  32
ATOM     32  C   UNL A   1      40.805  29.268  27.882  1.00  0.00    -0.045 A 
ATOM     33  C   UNL A   1      41.118  30.036  29.013  1.00  0.00     0.004 A 
ATOM     34  C   UNL A   1      39.454  29.193  27.512  1.00  0.00     0.004 A 
ATOM     35  C   UNL A   1      40.122  30.569  29.836  1.00  0.00     0.000 A 
ATOM     36  C   UNL A   1      38.455  29.764  28.310  1.00  0.00     0.000 A 
ATOM     37  C   UNL A   1      38.787  30.422  29.491  1.00  0.00     0.000 A 
ENDBRANCH  31  32
ENDBRANCH  17  31
ENDBRANCH  14  17
ENDBRANCH   9  13
ENDBRANCH   7   9
ENDBRANCH   6   7
ENDBRANCH   5   6
ENDBRANCH   4   5
ENDBRANCH   3   4
ENDBRANCH   2   3
ENDBRANCH   1   2
BRANCH   1  38
ATOM     38  O   UNL A   1      33.250  25.703  26.107  1.00  0.00    -0.377 OA
BRANCH  38  39
ATOM     39  C   UNL A   1      31.847  25.883  25.962  1.00  0.00     0.188 C 
BRANCH  39  40
ATOM     40  C   UNL A   1      31.261  27.274  26.287  1.00  0.00     0.188 C 
BRANCH  40  41
ATOM     41  O   UNL A   1      32.226  28.250  26.663  1.00  0.00    -0.376 OA
BRANCH  41  42
ATOM     42  C   UNL A   1      31.787  29.448  27.290  1.00  0.00     0.202 C 
BRANCH  42  43
ATOM     43  C   UNL A   1      32.291  30.800  26.750  1.00  0.00     0.261 C 
BRANCH  43  44
ATOM     44  O   UNL A   1      33.407  31.398  27.424  1.00  0.00    -0.460 OA
BRANCH  44  45
ATOM     45  C   UNL A   1      33.262  32.649  27.905  1.00  0.00     0.338 C 
ATOM     46  O   UNL A   1      32.365  33.433  27.636  1.00  0.00    -0.246 OA
BRANCH  45  47
ATOM     47  C   UNL A   1      34.251  32.836  28.988  1.00  0.00     0.060 A 
ATOM     48  C   UNL A   1      34.427  34.118  29.529  1.00  0.00     0.016 A 
ATOM     49  C   UNL A   1      34.998  31.759  29.472  1.00  0.00     0.016 A 
ATOM     50  C   UNL A   1      35.384  34.336  30.519  1.00  0.00     0.010 A 
ATOM     51  C   UNL A   1      35.978  31.984  30.444  1.00  0.00     0.010 A 
ATOM     52  C   UNL A   1      36.203  33.281  30.941  1.00  0.00    -0.014 A 
BRANCH  52  53
ATOM     53  C   UNL A   1      37.441  33.583  31.702  1.00  0.00     0.031 A 
ATOM     54  C   UNL A   1      38.668  33.970  30.919  1.00  0.00     0.074 A 
ATOM     55  C   UNL A   1      37.472  33.562  33.046  1.00  0.00     0.049 A 
ATOM     56  N   UNL A   1      39.880  34.226  31.339  1.00  0.00    -0.248 NA
ATOM     57  C   UNL A   1      38.501  34.077  29.461  1.00  0.00     0.031 C 
ATOM     58  C   UNL A   1      36.333  33.269  33.914  1.00  0.00     0.029 A 
ATOM     59  N   UNL A   1      38.510  33.788  33.917  1.00  0.00    -0.354 N 
ATOM     60  C   UNL A   1      40.621  34.517  30.197  1.00  0.00     0.074 A 
ATOM     61  C   UNL A   1      39.730  34.367  29.067  1.00  0.00     0.031 C 
ATOM     62  C   UNL A   1      36.737  33.322  35.195  1.00  0.00     0.029 A 
ATOM     63  C   UNL A   1      38.172  33.608  35.239  1.00  0.00     0.049 A 
ATOM     64  H   UNL A   1      39.410  34.054  33.624  1.00  0.00     0.167 HD
ATOM     65  C   UNL A   1      41.922  34.884  30.101  1.00  0.00     0.034 A 
ATOM     66  C   UNL A   1      38.941  33.639  36.348  1.00  0.00     0.034 A 
ATOM     67  C   UNL A   1      42.799  35.013  31.238  1.00  0.00     0.049 A 
ATOM     68  C   UNL A   1      40.416  33.942  36.208  1.00  0.00     0.074 A 
ATOM     69  C   UNL A   1      44.132  35.381  31.257  1.00  0.00     0.029 A 
ATOM     70  N   UNL A   1      42.437  34.765  32.555  1.00  0.00    -0.354 N 
ATOM     71  N   UNL A   1      41.108  34.214  35.123  1.00  0.00    -0.248 NA
ATOM     72  C   UNL A   1      41.213  33.947  37.441  1.00  0.00     0.031 C 
ATOM     73  C   UNL A   1      44.597  35.272  32.572  1.00  0.00     0.029 A 
ATOM     74  C   UNL A   1      43.531  34.933  33.389  1.00  0.00     0.049 A 
ATOM     75  H   UNL A   1      41.535  34.507  32.854  1.00  0.00     0.167 HD
ATOM     76  C   UNL A   1      42.411  34.460  35.554  1.00  0.00     0.074 A 
ATOM     77  C   UNL A   1      42.404  34.317  36.995  1.00  0.00     0.031 C 
ATOM     78  C   UNL A   1      43.513  34.782  34.827  1.00  0.00     0.034 A 
BRANCH  65  79
ATOM     79  C   UNL A   1      42.480  35.106  28.717  1.00  0.00     0.023 A 
ATOM     80  C   UNL A   1      43.206  34.111  28.038  1.00  0.00     0.031 A 
ATOM     81  C   UNL A   1      42.309  36.345  28.075  1.00  0.00     0.131 A 
ATOM     82  C   UNL A   1      43.791  34.395  26.796  1.00  0.00     0.055 A 
ATOM     83  C   UNL A   1      42.820  36.594  26.801  1.00  0.00     0.041 A 
ATOM     84  F   UNL A   1      41.648  37.344  28.684  1.00  0.00    -0.206 F 
ATOM     85  C   UNL A   1      43.580  35.621  26.159  1.00  0.00     0.022 A 
BRANCH  82  86
ATOM     86  S   UNL A   1      44.956  33.198  26.091  1.00  0.00     0.124 S 
ATOM     87  O   UNL A   1      45.929  34.076  25.445  1.00  0.00    -0.237 OA
ATOM     88  O   UNL A   1      45.426  32.482  27.271  1.00  0.00    -0.237 OA
ATOM     89  O   UNL A   1      44.131  32.415  25.173  1.00  0.00    -0.744 OA
ENDBRANCH  82  86
ENDBRANCH  65  79
BRANCH  66  90
ATOM     90  C   UNL A   1      38.357  33.331  37.687  1.00  0.00     0.023 A 
ATOM     91  C   UNL A   1      38.407  34.263  38.737  1.00  0.00     0.031 A 
ATOM     92  C   UNL A   1      37.807  32.064  37.961  1.00  0.00     0.131 A 
ATOM     93  C   UNL A   1      37.969  33.898  40.020  1.00  0.00     0.055 A 
ATOM     94  C   UNL A   1      37.314  31.729  39.222  1.00  0.00     0.041 A 
ATOM     95  F   UNL A   1      37.743  31.130  36.999  1.00  0.00    -0.206 F 
ATOM     96  C   UNL A   1      37.407  32.643  40.266  1.00  0.00     0.022 A 
BRANCH  93  97
ATOM     97  S   UNL A   1      38.245  35.051  41.394  1.00  0.00     0.124 S 
ATOM     98  O   UNL A   1      36.969  34.982  42.098  1.00  0.00    -0.237 OA
ATOM     99  O   UNL A   1      39.386  34.446  42.072  1.00  0.00    -0.237 OA
ATOM    100  O   UNL A   1      38.521  36.319  40.723  1.00  0.00    -0.744 OA
ENDBRANCH  93  97
ENDBRANCH  66  90
BRANCH  78 101
ATOM    101  C   UNL A   1      44.789  35.062  35.586  1.00  0.00     0.023 A 
ATOM    102  C   UNL A   1      45.700  34.044  35.919  1.00  0.00     0.031 A 
ATOM    103  C   UNL A   1      45.099  36.378  35.981  1.00  0.00     0.131 A 
ATOM    104  C   UNL A   1      46.842  34.347  36.675  1.00  0.00     0.055 A 
ATOM    105  C   UNL A   1      46.273  36.683  36.670  1.00  0.00     0.041 A 
ATOM    106  F   UNL A   1      44.267  37.391  35.695  1.00  0.00    -0.206 F 
ATOM    107  C   UNL A   1      47.145  35.662  37.034  1.00  0.00     0.022 A 
BRANCH 104 108
ATOM    108  S   UNL A   1      47.879  32.984  37.274  1.00  0.00     0.124 S 
ATOM    109  O   UNL A   1      47.131  32.524  38.439  1.00  0.00    -0.237 OA
ATOM    110  O   UNL A   1      47.896  32.078  36.129  1.00  0.00    -0.237 OA
ATOM    111  O   UNL A   1      49.156  33.628  37.571  1.00  0.00    -0.744 OA
ENDBRANCH 104 108
ENDBRANCH  78 101
ENDBRANCH  52  53
ENDBRANCH  45  47
ENDBRANCH  44  45
ENDBRANCH  43  44
ENDBRANCH  42  43
ENDBRANCH  41  42
ENDBRANCH  40  41
ENDBRANCH  39  40
ENDBRANCH  38  39
ENDBRANCH   1  38
TORSDOF 29
ENDMDL
MODEL 2
REMARK VINA RESULT:      -8.7      2.074      4.054
REMARK SMILES CC(C)[C@H](NC(=O)[C@H](Cc1ccccc1)n1c(=O)[nH]c2ccccc2c1=O)C(=O)OCCOCCOCCOCCOC(=O)c1ccc(-c2c3nc(c(-c4cc(S(=O)(=O)[O-])ccc4F)c4ccc([nH]4)c(-c4cc(S(=O)(=O)[O-])ccc4F)c4nc(c(-c5cc(S(=O)(=O)[O-])ccc5F)c5ccc2[nH]5)C=C4)C=C3)cc1
REMARK SMILES IDX 35 1 34 2 33 3 32 4 31 5 30 6 28 7 29 8 4 9 2 10 1 11 3 12
REMARK SMILES IDX 5 13 6 14 7 16 8 17 16 18 17 19 26 20 18 21 19 22 25 23
REMARK SMILES IDX 27 24 20 25 24 27 21 28 23 29 22 30 9 31 10 32 11 33 15 34
REMARK SMILES IDX 12 35 14 36 13 37 36 38 37 39 38 40 39 41 40 42 41 43 42 44
REMARK SMILES IDX 43 45 44 46 45 47 46 48 107 49 47 50 106 51 48 52 49 53
REMARK SMILES IDX 50 54 100 55 51 56 105 57 99 58 101 59 52 60 104 61 98 62
REMARK SMILES IDX 97 63 53 65 85 66 65 67 84 68 66 69 69 70 83 71 102 72 67 73
REMARK SMILES IDX 68 74 82 76 103 77 70 78 54 79 55 80 63 81 56 82 62 83 64 84
REMARK SMILES IDX 61 85 57 86 58 87 59 88 60 89 86 90 87 91 95 92 88 93 94 94
REMARK SMILES IDX 96 95 93 96 89 97 90 98 91 99 92 100 71 101 72 102 80 103
REMARK SMILES IDX 73 104 79 105 81 106 78 107 74 108 75 109 76 110 77 111
REMARK H PARENT 5 15 19 26 101 64 69 75
REMARK Flexibility Score: inf
ROOT
ATOM      1  C   UNL A   1      34.058  24.742  24.577  1.00  0.00     0.188 C 
ENDROOT
BRANCH   1   2
ATOM      2  C   UNL A   1      35.234  24.120  25.339  1.00  0.00     0.188 C 
BRANCH   2   3
ATOM      3  O   UNL A   1      36.249  23.386  24.674  1.00  0.00    -0.376 OA
BRANCH   3   4
ATOM      4  C   UNL A   1      37.627  23.561  24.977  1.00  0.00     0.202 C 
BRANCH   4   5
ATOM      5  C   UNL A   1      38.342  22.852  26.147  1.00  0.00     0.261 C 
BRANCH   5   6
ATOM      6  O   UNL A   1      39.566  23.445  26.605  1.00  0.00    -0.462 OA
BRANCH   6   7
ATOM      7  C   UNL A   1      39.438  24.557  27.373  1.00  0.00     0.328 C 
ATOM      8  O   UNL A   1      38.477  24.761  28.107  1.00  0.00    -0.250 OA
BRANCH   7   9
ATOM      9  C   UNL A   1      40.751  25.395  27.415  1.00  0.00     0.194 C 
BRANCH   9  10
ATOM     10  C   UNL A   1      40.650  26.756  28.110  1.00  0.00     0.017 C 
ATOM     11  C   UNL A   1      41.786  27.036  29.099  1.00  0.00     0.010 C 
ATOM     12  C   UNL A   1      40.573  27.906  27.102  1.00  0.00     0.010 C 
ENDBRANCH   9  10
BRANCH   9  13
ATOM     13  N   UNL A   1      41.618  25.367  26.220  1.00  0.00    -0.341 N 
ATOM     14  C   UNL A   1      42.756  24.805  25.775  1.00  0.00     0.244 C 
ATOM     15  H   UNL A   1      41.239  25.948  25.521  1.00  0.00     0.164 HD
ATOM     16  O   UNL A   1      43.251  25.451  24.838  1.00  0.00    -0.273 OA
BRANCH  14  17
ATOM     17  C   UNL A   1      43.513  23.630  26.411  1.00  0.00     0.189 C 
BRANCH  17  18
ATOM     18  N   UNL A   1      43.709  23.676  27.876  1.00  0.00    -0.247 N 
ATOM     19  C   UNL A   1      42.979  22.826  28.683  1.00  0.00     0.329 A 
ATOM     20  C   UNL A   1      44.575  24.626  28.415  1.00  0.00     0.264 A 
ATOM     21  O   UNL A   1      41.905  22.315  28.384  1.00  0.00    -0.248 OA
ATOM     22  N   UNL A   1      43.417  22.654  29.966  1.00  0.00    -0.307 N 
ATOM     23  C   UNL A   1      44.610  24.720  29.895  1.00  0.00     0.064 A 
ATOM     24  O   UNL A   1      45.218  25.438  27.755  1.00  0.00    -0.268 OA
ATOM     25  C   UNL A   1      44.135  23.642  30.626  1.00  0.00     0.055 A 
ATOM     26  H   UNL A   1      43.218  21.811  30.433  1.00  0.00     0.171 HD
ATOM     27  C   UNL A   1      44.978  25.895  30.555  1.00  0.00     0.016 A 
ATOM     28  C   UNL A   1      44.177  23.645  32.019  1.00  0.00     0.027 A 
ATOM     29  C   UNL A   1      44.923  25.946  31.951  1.00  0.00     0.001 A 
ATOM     30  C   UNL A   1      44.565  24.810  32.681  1.00  0.00     0.002 A 
ENDBRANCH  17  18
BRANCH  17  31
ATOM     31  C   UNL A   1      42.980  22.251  25.883  1.00  0.00     0.071 C 
BRANCH  31  32
ATOM     32  C   UNL A   1      43.941  21.131  25.509  1.00  0.00    -0.045 A 
ATOM     33  C   UNL A   1      45.318  21.329  25.334  1.00  0.00     0.004 A 
ATOM     34  C   UNL A   1      43.457  19.824  25.356  1.00  0.00     0.004 A 
ATOM     35  C   UNL A   1      46.153  20.307  24.869  1.00  0.00     0.000 A 
ATOM     36  C   UNL A   1      44.297  18.788  24.934  1.00  0.00     0.000 A 
ATOM     37  C   UNL A   1      45.638  19.038  24.656  1.00  0.00     0.000 A 
ENDBRANCH  31  32
ENDBRANCH  17  31
ENDBRANCH  14  17
ENDBRANCH   9  13
ENDBRANCH   7   9
ENDBRANCH   6   7
ENDBRANCH   5   6
ENDBRANCH   4   5
ENDBRANCH   3   4
ENDBRANCH   2   3
ENDBRANCH   1   2
BRANCH   1  38
ATOM     38  O   UNL A   1      33.699  26.031  25.012  1.00  0.00    -0.377 OA
BRANCH  38  39
ATOM     39  C   UNL A   1      32.521  26.593  24.446  1.00  0.00     0.188 C 
BRANCH  39  40
ATOM     40  C   UNL A   1      32.122  28.019  24.883  1.00  0.00     0.188 C 
BRANCH  40  41
ATOM     41  O   UNL A   1      32.551  28.380  26.191  1.00  0.00    -0.376 OA
BRANCH  41  42
ATOM     42  C   UNL A   1      31.966  29.513  26.820  1.00  0.00     0.202 C 
BRANCH  42  43
ATOM     43  C   UNL A   1      32.709  30.861  26.770  1.00  0.00     0.261 C 
BRANCH  43  44
ATOM     44  O   UNL A   1      33.276  31.342  27.997  1.00  0.00    -0.460 OA
BRANCH  44  45
ATOM     45  C   UNL A   1      33.458  32.671  28.134  1.00  0.00     0.338 C 
ATOM     46  O   UNL A   1      32.792  33.553  27.617  1.00  0.00    -0.246 OA
BRANCH  45  47
ATOM     47  C   UNL A   1      34.464  32.883  29.197  1.00  0.00     0.060 A 
ATOM     48  C   UNL A   1      34.610  34.167  29.742  1.00  0.00     0.016 A 
ATOM     49  C   UNL A   1      35.255  31.829  29.658  1.00  0.00     0.016 A 
ATOM     50  C   UNL A   1      35.580  34.410  30.713  1.00  0.00     0.010 A 
ATOM     51  C   UNL A   1      36.248  32.080  30.610  1.00  0.00     0.010 A 
ATOM     52  C   UNL A   1      36.441  33.380  31.111  1.00  0.00    -0.014 A 
BRANCH  52  53
ATOM     53  C   UNL A   1      37.685  33.718  31.847  1.00  0.00     0.031 A 
ATOM     54  C   UNL A   1      38.903  34.081  31.038  1.00  0.00     0.074 A 
ATOM     55  C   UNL A   1      37.729  33.749  33.191  1.00  0.00     0.049 A 
ATOM     56  N   UNL A   1      40.117  34.359  31.435  1.00  0.00    -0.248 NA
ATOM     57  C   UNL A   1      38.720  34.131  29.578  1.00  0.00     0.031 C 
ATOM     58  C   UNL A   1      36.601  33.484  34.080  1.00  0.00     0.029 A 
ATOM     59  N   UNL A   1      38.774  34.013  34.042  1.00  0.00    -0.354 N 
ATOM     60  C   UNL A   1      40.845  34.610  30.276  1.00  0.00     0.074 A 
ATOM     61  C   UNL A   1      39.944  34.412  29.161  1.00  0.00     0.031 C 
ATOM     62  C   UNL A   1      37.017  33.588  35.354  1.00  0.00     0.029 A 
ATOM     63  C   UNL A   1      38.450  33.883  35.373  1.00  0.00     0.049 A 
ATOM     64  H   UNL A   1      39.670  34.273  33.729  1.00  0.00     0.167 HD
ATOM     65  C   UNL A   1      42.143  34.979  30.153  1.00  0.00     0.034 A 
ATOM     66  C   UNL A   1      39.229  33.961  36.472  1.00  0.00     0.034 A 
ATOM     67  C   UNL A   1      43.030  35.157  31.275  1.00  0.00     0.049 A 
ATOM     68  C   UNL A   1      40.702  34.266  36.306  1.00  0.00     0.074 A 
ATOM     69  C   UNL A   1      44.362  35.532  31.267  1.00  0.00     0.029 A 
ATOM     70  N   UNL A   1      42.682  34.958  32.605  1.00  0.00    -0.354 N 
ATOM     71  N   UNL A   1      41.381  34.499  35.205  1.00  0.00    -0.248 NA
ATOM     72  C   UNL A   1      41.511  34.322  37.530  1.00  0.00     0.031 C 
ATOM     73  C   UNL A   1      44.840  35.477  32.581  1.00  0.00     0.029 A 
ATOM     74  C   UNL A   1      43.783  35.164  33.421  1.00  0.00     0.049 A 
ATOM     75  H   UNL A   1      41.784  34.707  32.922  1.00  0.00     0.167 HD
ATOM     76  C   UNL A   1      42.688  34.769  35.613  1.00  0.00     0.074 A 
ATOM     77  C   UNL A   1      42.695  34.681  37.058  1.00  0.00     0.031 C 
ATOM     78  C   UNL A   1      43.780  35.068  34.863  1.00  0.00     0.034 A 
BRANCH  65  79
ATOM     79  C   UNL A   1      42.686  35.151  28.755  1.00  0.00     0.023 A 
ATOM     80  C   UNL A   1      43.257  34.081  28.042  1.00  0.00     0.031 A 
ATOM     81  C   UNL A   1      42.661  36.413  28.136  1.00  0.00     0.131 A 
ATOM     82  C   UNL A   1      43.838  34.309  26.786  1.00  0.00     0.055 A 
ATOM     83  C   UNL A   1      43.164  36.615  26.851  1.00  0.00     0.041 A 
ATOM     84  F   UNL A   1      42.154  37.479  28.778  1.00  0.00    -0.206 F 
ATOM     85  C   UNL A   1      43.772  35.563  26.173  1.00  0.00     0.022 A 
BRANCH  82  86
ATOM     86  S   UNL A   1      44.817  32.982  26.030  1.00  0.00     0.124 S 
ATOM     87  O   UNL A   1      43.927  31.834  26.185  1.00  0.00    -0.237 OA
ATOM     88  O   UNL A   1      45.005  33.465  24.668  1.00  0.00    -0.237 OA
ATOM     89  O   UNL A   1      46.026  32.937  26.849  1.00  0.00    -0.744 OA
ENDBRANCH  82  86
ENDBRANCH  65  79
BRANCH  66  90
ATOM     90  C   UNL A   1      38.660  33.701  37.828  1.00  0.00     0.023 A 
ATOM     91  C   UNL A   1      38.722  34.671  38.842  1.00  0.00     0.031 A 
ATOM     92  C   UNL A   1      38.115  32.445  38.154  1.00  0.00     0.131 A 
ATOM     93  C   UNL A   1      38.297  34.352  40.142  1.00  0.00     0.055 A 
ATOM     94  C   UNL A   1      37.635  32.156  39.432  1.00  0.00     0.041 A 
ATOM     95  F   UNL A   1      38.041  31.476  37.227  1.00  0.00    -0.206 F 
ATOM     96  C   UNL A   1      37.739  33.107  40.440  1.00  0.00     0.022 A 
BRANCH  93  97
ATOM     97  S   UNL A   1      38.588  35.555  41.470  1.00  0.00     0.124 S 
ATOM     98  O   UNL A   1      37.467  35.284  42.364  1.00  0.00    -0.237 OA
ATOM     99  O   UNL A   1      39.906  35.160  41.954  1.00  0.00    -0.237 OA
ATOM    100  O   UNL A   1      38.538  36.842  40.781  1.00  0.00    -0.744 OA
ENDBRANCH  93  97
ENDBRANCH  66  90
BRANCH  78 101
ATOM    101  C   UNL A   1      45.062  35.384  35.598  1.00  0.00     0.023 A 
ATOM    102  C   UNL A   1      45.375  36.685  36.030  1.00  0.00     0.031 A 
ATOM    103  C   UNL A   1      45.988  34.359  35.871  1.00  0.00     0.131 A 
ATOM    104  C   UNL A   1      46.605  36.937  36.658  1.00  0.00     0.055 A 
ATOM    105  C   UNL A   1      47.177  34.604  36.558  1.00  0.00     0.041 A 
ATOM    106  F   UNL A   1      45.747  33.098  35.479  1.00  0.00    -0.206 F 
ATOM    107  C   UNL A   1      47.498  35.902  36.943  1.00  0.00     0.022 A 
BRANCH 104 108
ATOM    108  S   UNL A   1      47.071  38.656  37.005  1.00  0.00     0.124 S 
ATOM    109  O   UNL A   1      47.760  39.037  35.777  1.00  0.00    -0.237 OA
ATOM    110  O   UNL A   1      45.777  39.290  37.232  1.00  0.00    -0.237 OA
ATOM    111  O   UNL A   1      47.924  38.548  38.187  1.00  0.00    -0.744 OA
ENDBRANCH 104 108
ENDBRANCH  78 101
ENDBRANCH  52  53
ENDBRANCH  45  47
ENDBRANCH  44  45
ENDBRANCH  43  44
ENDBRANCH  42  43
ENDBRANCH  41  42
ENDBRANCH  40  41
ENDBRANCH  39  40
ENDBRANCH  38  39
ENDBRANCH   1  38
TORSDOF 29
ENDMDL
MODEL 3
REMARK VINA RESULT:      -8.4      4.768      6.965
REMARK SMILES CC(C)[C@H](NC(=O)[C@H](Cc1ccccc1)n1c(=O)[nH]c2ccccc2c1=O)C(=O)OCCOCCOCCOCCOC(=O)c1ccc(-c2c3nc(c(-c4cc(S(=O)(=O)[O-])ccc4F)c4ccc([nH]4)c(-c4cc(S(=O)(=O)[O-])ccc4F)c4nc(c(-c5cc(S(=O)(=O)[O-])ccc5F)c5ccc2[nH]5)C=C4)C=C3)cc1
REMARK SMILES IDX 35 1 34 2 33 3 32 4 31 5 30 6 28 7 29 8 4 9 2 10 1 11 3 12
REMARK SMILES IDX 5 13 6 14 7 16 8 17 16 18 17 19 26 20 18 21 19 22 25 23
REMARK SMILES IDX 27 24 20 25 24 27 21 28 23 29 22 30 9 31 10 32 11 33 15 34
REMARK SMILES IDX 12 35 14 36 13 37 36 38 37 39 38 40 39 41 40 42 41 43 42 44
REMARK SMILES IDX 43 45 44 46 45 47 46 48 107 49 47 50 106 51 48 52 49 53
REMARK SMILES IDX 50 54 100 55 51 56 105 57 99 58 101 59 52 60 104 61 98 62
REMARK SMILES IDX 97 63 53 65 85 66 65 67 84 68 66 69 69 70 83 71 102 72 67 73
REMARK SMILES IDX 68 74 82 76 103 77 70 78 54 79 55 80 63 81 56 82 62 83 64 84
REMARK SMILES IDX 61 85 57 86 58 87 59 88 60 89 86 90 87 91 95 92 88 93 94 94
REMARK SMILES IDX 96 95 93 96 89 97 90 98 91 99 92 100 71 101 72 102 80 103
REMARK SMILES IDX 73 104 79 105 81 106 78 107 74 108 75 109 76 110 77 111
REMARK H PARENT 5 15 19 26 101 64 69 75
REMARK Flexibility Score: inf
ROOT
ATOM      1  C   UNL A   1      32.706  25.212  24.717  1.00  0.00     0.188 C 
ENDROOT
BRANCH   1   2
ATOM      2  C   UNL A   1      33.192  23.907  25.358  1.00  0.00     0.188 C 
BRANCH   2   3
ATOM      3  O   UNL A   1      34.434  23.825  26.036  1.00  0.00    -0.376 OA
BRANCH   3   4
ATOM      4  C   UNL A   1      35.675  23.949  25.354  1.00  0.00     0.202 C 
BRANCH   4   5
ATOM      5  C   UNL A   1      37.014  23.425  25.913  1.00  0.00     0.261 C 
BRANCH   5   6
ATOM      6  O   UNL A   1      38.109  24.354  25.935  1.00  0.00    -0.462 OA
BRANCH   6   7
ATOM      7  C   UNL A   1      39.176  23.998  26.697  1.00  0.00     0.328 C 
ATOM      8  O   UNL A   1      39.458  22.834  26.957  1.00  0.00    -0.250 OA
BRANCH   7   9
ATOM      9  C   UNL A   1      40.128  25.201  26.969  1.00  0.00     0.194 C 
BRANCH   9  10
ATOM     10  C   UNL A   1      39.495  26.403  27.676  1.00  0.00     0.017 C 
ATOM     11  C   UNL A   1      39.249  26.186  29.173  1.00  0.00     0.010 C 
ATOM     12  C   UNL A   1      40.325  27.676  27.488  1.00  0.00     0.010 C 
ENDBRANCH   9  10
BRANCH   9  13
ATOM     13  N   UNL A   1      41.116  25.539  25.925  1.00  0.00    -0.341 N 
ATOM     14  C   UNL A   1      42.435  25.451  25.676  1.00  0.00     0.244 C 
ATOM     15  H   UNL A   1      40.663  25.968  25.164  1.00  0.00     0.164 HD
ATOM     16  O   UNL A   1      42.795  26.269  24.815  1.00  0.00    -0.273 OA
BRANCH  14  17
ATOM     17  C   UNL A   1      43.464  24.611  26.445  1.00  0.00     0.189 C 
BRANCH  17  18
ATOM     18  N   UNL A   1      43.161  23.173  26.614  1.00  0.00    -0.247 N 
ATOM     19  C   UNL A   1      42.764  22.706  27.851  1.00  0.00     0.329 A 
ATOM     20  C   UNL A   1      43.350  22.309  25.536  1.00  0.00     0.264 A 
ATOM     21  O   UNL A   1      43.010  23.248  28.924  1.00  0.00    -0.248 OA
ATOM     22  N   UNL A   1      42.176  21.474  27.894  1.00  0.00    -0.307 N 
ATOM     23  C   UNL A   1      43.175  20.863  25.814  1.00  0.00     0.064 A 
ATOM     24  O   UNL A   1      43.743  22.655  24.426  1.00  0.00    -0.268 OA
ATOM     25  C   UNL A   1      42.460  20.500  26.946  1.00  0.00     0.055 A 
ATOM     26  H   UNL A   1      41.536  21.271  28.613  1.00  0.00     0.171 HD
ATOM     27  C   UNL A   1      43.810  19.879  25.052  1.00  0.00     0.016 A 
ATOM     28  C   UNL A   1      42.222  19.160  27.244  1.00  0.00     0.027 A 
ATOM     29  C   UNL A   1      43.664  18.534  25.405  1.00  0.00     0.001 A 
ATOM     30  C   UNL A   1      42.837  18.175  26.472  1.00  0.00     0.002 A 
ENDBRANCH  17  18
BRANCH  17  31
ATOM     31  C   UNL A   1      44.926  24.899  25.950  1.00  0.00     0.071 C 
BRANCH  31  32
ATOM     32  C   UNL A   1      45.963  25.512  26.880  1.00  0.00    -0.045 A 
ATOM     33  C   UNL A   1      46.525  26.780  26.672  1.00  0.00     0.004 A 
ATOM     34  C   UNL A   1      46.368  24.811  28.026  1.00  0.00     0.004 A 
ATOM     35  C   UNL A   1      47.564  27.262  27.474  1.00  0.00     0.000 A 
ATOM     36  C   UNL A   1      47.377  25.310  28.857  1.00  0.00     0.000 A 
ATOM     37  C   UNL A   1      48.000  26.519  28.561  1.00  0.00     0.000 A 
ENDBRANCH  31  32
ENDBRANCH  17  31
ENDBRANCH  14  17
ENDBRANCH   9  13
ENDBRANCH   7   9
ENDBRANCH   6   7
ENDBRANCH   5   6
ENDBRANCH   4   5
ENDBRANCH   3   4
ENDBRANCH   2   3
ENDBRANCH   1   2
BRANCH   1  38
ATOM     38  O   UNL A   1      33.547  26.318  24.940  1.00  0.00    -0.377 OA
BRANCH  38  39
ATOM     39  C   UNL A   1      33.186  27.191  26.004  1.00  0.00     0.188 C 
BRANCH  39  40
ATOM     40  C   UNL A   1      33.418  28.705  25.803  1.00  0.00     0.188 C 
BRANCH  40  41
ATOM     41  O   UNL A   1      33.544  29.450  27.009  1.00  0.00    -0.376 OA
BRANCH  41  42
ATOM     42  C   UNL A   1      34.803  30.024  27.337  1.00  0.00     0.202 C 
BRANCH  42  43
ATOM     43  C   UNL A   1      35.083  30.423  28.798  1.00  0.00     0.261 C 
BRANCH  43  44
ATOM     44  O   UNL A   1      34.806  31.780  29.170  1.00  0.00    -0.460 OA
BRANCH  44  45
ATOM     45  C   UNL A   1      35.187  32.192  30.396  1.00  0.00     0.338 C 
ATOM     46  O   UNL A   1      34.511  32.179  31.412  1.00  0.00    -0.246 OA
BRANCH  45  47
ATOM     47  C   UNL A   1      36.642  32.457  30.353  1.00  0.00     0.060 A 
ATOM     48  C   UNL A   1      37.323  32.289  29.139  1.00  0.00     0.016 A 
ATOM     49  C   UNL A   1      37.331  32.870  31.496  1.00  0.00     0.016 A 
ATOM     50  C   UNL A   1      38.702  32.486  29.076  1.00  0.00     0.010 A 
ATOM     51  C   UNL A   1      38.718  33.039  31.438  1.00  0.00     0.010 A 
ATOM     52  C   UNL A   1      39.414  32.808  30.238  1.00  0.00    -0.014 A 
BRANCH  52  53
ATOM     53  C   UNL A   1      40.890  32.653  30.251  1.00  0.00     0.031 A 
ATOM     54  C   UNL A   1      41.723  33.840  29.843  1.00  0.00     0.074 A 
ATOM     55  C   UNL A   1      41.482  31.515  30.653  1.00  0.00     0.049 A 
ATOM     56  N   UNL A   1      43.021  33.946  29.716  1.00  0.00    -0.248 NA
ATOM     57  C   UNL A   1      40.985  35.075  29.532  1.00  0.00     0.031 C 
ATOM     58  C   UNL A   1      40.785  30.324  31.134  1.00  0.00     0.029 A 
ATOM     59  N   UNL A   1      42.812  31.175  30.715  1.00  0.00    -0.354 N 
ATOM     60  C   UNL A   1      43.253  35.255  29.303  1.00  0.00     0.074 A 
ATOM     61  C   UNL A   1      41.961  35.889  29.165  1.00  0.00     0.031 C 
ATOM     62  C   UNL A   1      41.694  29.379  31.431  1.00  0.00     0.029 A 
ATOM     63  C   UNL A   1      43.033  29.880  31.121  1.00  0.00     0.049 A 
ATOM     64  H   UNL A   1      43.538  31.801  30.491  1.00  0.00     0.167 HD
ATOM     65  C   UNL A   1      44.437  35.872  29.070  1.00  0.00     0.034 A 
ATOM     66  C   UNL A   1      44.182  29.174  31.199  1.00  0.00     0.034 A 
ATOM     67  C   UNL A   1      45.715  35.219  29.198  1.00  0.00     0.049 A 
ATOM     68  C   UNL A   1      45.483  29.850  30.827  1.00  0.00     0.074 A 
ATOM     69  C   UNL A   1      46.976  35.748  28.990  1.00  0.00     0.029 A 
ATOM     70  N   UNL A   1      45.898  33.888  29.554  1.00  0.00    -0.354 N 
ATOM     71  N   UNL A   1      45.693  31.088  30.436  1.00  0.00    -0.248 NA
ATOM     72  C   UNL A   1      46.702  29.036  30.911  1.00  0.00     0.031 C 
ATOM     73  C   UNL A   1      47.913  34.719  29.136  1.00  0.00     0.029 A 
ATOM     74  C   UNL A   1      47.246  33.570  29.532  1.00  0.00     0.049 A 
ATOM     75  H   UNL A   1      45.174  33.262  29.787  1.00  0.00     0.167 HD
ATOM     76  C   UNL A   1      47.072  31.206  30.268  1.00  0.00     0.074 A 
ATOM     77  C   UNL A   1      47.642  29.920  30.612  1.00  0.00     0.031 C 
ATOM     78  C   UNL A   1      47.803  32.281  29.872  1.00  0.00     0.034 A 
BRANCH  65  79
ATOM     79  C   UNL A   1      44.391  37.303  28.593  1.00  0.00     0.023 A 
ATOM     80  C   UNL A   1      44.514  38.388  29.479  1.00  0.00     0.031 A 
ATOM     81  C   UNL A   1      44.191  37.588  27.230  1.00  0.00     0.131 A 
ATOM     82  C   UNL A   1      44.366  39.700  29.005  1.00  0.00     0.055 A 
ATOM     83  C   UNL A   1      44.131  38.898  26.752  1.00  0.00     0.041 A 
ATOM     84  F   UNL A   1      44.038  36.595  26.339  1.00  0.00    -0.206 F 
ATOM     85  C   UNL A   1      44.203  39.963  27.643  1.00  0.00     0.022 A 
BRANCH  82  86
ATOM     86  S   UNL A   1      44.239  41.049  30.211  1.00  0.00     0.124 S 
ATOM     87  O   UNL A   1      42.929  40.791  30.805  1.00  0.00    -0.237 OA
ATOM     88  O   UNL A   1      45.389  40.811  31.074  1.00  0.00    -0.237 OA
ATOM     89  O   UNL A   1      44.314  42.253  29.387  1.00  0.00    -0.744 OA
ENDBRANCH  82  86
ENDBRANCH  65  79
BRANCH  66  90
ATOM     90  C   UNL A   1      44.165  27.735  31.598  1.00  0.00     0.023 A 
ATOM     91  C   UNL A   1      44.179  27.353  32.949  1.00  0.00     0.031 A 
ATOM     92  C   UNL A   1      44.215  26.717  30.628  1.00  0.00     0.131 A 
ATOM     93  C   UNL A   1      44.295  25.996  33.292  1.00  0.00     0.055 A 
ATOM     94  C   UNL A   1      44.265  25.366  30.974  1.00  0.00     0.041 A 
ATOM     95  F   UNL A   1      44.215  27.024  29.320  1.00  0.00    -0.206 F 
ATOM     96  C   UNL A   1      44.322  24.999  32.314  1.00  0.00     0.022 A 
BRANCH  93  97
ATOM     97  S   UNL A   1      44.523  25.558  35.038  1.00  0.00     0.124 S 
ATOM     98  O   UNL A   1      44.635  24.105  34.966  1.00  0.00    -0.237 OA
ATOM     99  O   UNL A   1      45.744  26.280  35.375  1.00  0.00    -0.237 OA
ATOM    100  O   UNL A   1      43.308  26.059  35.676  1.00  0.00    -0.744 OA
ENDBRANCH  93  97
ENDBRANCH  66  90
BRANCH  78 101
ATOM    101  C   UNL A   1      49.306  32.129  29.850  1.00  0.00     0.023 A 
ATOM    102  C   UNL A   1      50.108  32.457  30.958  1.00  0.00     0.031 A 
ATOM    103  C   UNL A   1      49.947  31.643  28.694  1.00  0.00     0.131 A 
ATOM    104  C   UNL A   1      51.504  32.353  30.866  1.00  0.00     0.055 A 
ATOM    105  C   UNL A   1      51.331  31.474  28.635  1.00  0.00     0.041 A 
ATOM    106  F   UNL A   1      49.236  31.317  27.604  1.00  0.00    -0.206 F 
ATOM    107  C   UNL A   1      52.119  31.844  29.720  1.00  0.00     0.022 A 
BRANCH 104 108
ATOM    108  S   UNL A   1      52.518  32.989  32.230  1.00  0.00     0.124 S 
ATOM    109  O   UNL A   1      53.600  33.658  31.517  1.00  0.00    -0.237 OA
ATOM    110  O   UNL A   1      51.582  33.863  32.932  1.00  0.00    -0.237 OA
ATOM    111  O   UNL A   1      52.907  31.785  32.960  1.00  0.00    -0.744 OA
ENDBRANCH 104 108
ENDBRANCH  78 101
ENDBRANCH  52  53
ENDBRANCH  45  47
ENDBRANCH  44  45
ENDBRANCH  43  44
ENDBRANCH  42  43
ENDBRANCH  41  42
ENDBRANCH  40  41
ENDBRANCH  39  40
ENDBRANCH  38  39
ENDBRANCH   1  38
TORSDOF 29
ENDMDL
