MODEL 1
REMARK VINA RESULT:      -9.7      0.000      0.000
REMARK SMILES CS(=O)(=O)c1ccc(-n2nc(C(F)(F)F)cc2-c2ccc(CC(=O)OCCOCCOCCOCCOC(=O)c3ccc(-c4c5nc(c(-c6cc(S(=O)(=O)[O-])ccc6F)c6ccc([nH]6)c(-c6cc(S(=O)(=O)[O-])ccc6F)c6nc(c(-c7cc(S(=O)(=O)[O-])ccc7F)c7ccc4[nH]7)C=C6)C=C5)cc3)cc2)cc1
REMARK SMILES IDX 30 1 29 2 28 3 27 4 26 5 25 6 23 7 24 8 22 9 21 10 18 11
REMARK SMILES IDX 19 12 104 13 20 14 103 15 17 16 9 17 10 18 11 19 16 20 8 21
REMARK SMILES IDX 5 22 6 23 106 24 7 25 105 26 2 27 1 28 3 29 4 30 12 31 13 32
REMARK SMILES IDX 14 33 15 34 31 35 32 36 33 37 34 38 35 39 36 40 37 41 38 42
REMARK SMILES IDX 39 43 40 44 41 45 102 46 42 47 101 48 43 49 44 50 45 51
REMARK SMILES IDX 95 52 46 53 100 54 94 55 96 56 47 57 99 58 93 59 92 60 48 62
REMARK SMILES IDX 80 63 60 64 79 65 61 66 64 67 78 68 97 69 62 70 63 71 77 73
REMARK SMILES IDX 98 74 65 75 49 76 50 77 58 78 51 79 57 80 59 81 56 82 52 83
REMARK SMILES IDX 53 84 54 85 55 86 81 87 82 88 90 89 83 90 89 91 91 92 88 93
REMARK SMILES IDX 84 94 85 95 86 96 87 97 66 98 67 99 75 100 68 101 74 102
REMARK SMILES IDX 76 103 73 104 69 105 70 106 71 107 72 108
REMARK H PARENT 96 61 64 72
REMARK Flexibility Score: inf
ROOT
ATOM      1  C   UNL A   1      38.275  22.448  25.939  1.00  0.00     0.188 C 
ENDROOT
BRANCH   1   2
ATOM      2  C   UNL A   1      37.103  23.151  25.261  1.00  0.00     0.188 C 
BRANCH   2   3
ATOM      3  O   UNL A   1      36.016  22.298  24.973  1.00  0.00    -0.376 OA
BRANCH   3   4
ATOM      4  C   UNL A   1      35.544  21.474  26.031  1.00  0.00     0.202 C 
BRANCH   4   5
ATOM      5  C   UNL A   1      34.211  20.698  25.883  1.00  0.00     0.261 C 
BRANCH   5   6
ATOM      6  O   UNL A   1      32.977  21.461  25.835  1.00  0.00    -0.463 OA
BRANCH   6   7
ATOM      7  C   UNL A   1      32.296  21.514  24.676  1.00  0.00     0.310 C 
ATOM      8  O   UNL A   1      32.622  20.862  23.686  1.00  0.00    -0.252 OA
BRANCH   7   9
ATOM      9  C   UNL A   1      31.052  22.398  24.664  1.00  0.00     0.158 C 
BRANCH   9  10
ATOM     10  C   UNL A   1      31.053  23.921  24.493  1.00  0.00    -0.037 A 
ATOM     11  C   UNL A   1      30.623  26.757  24.076  1.00  0.00     0.000 A 
ATOM     12  C   UNL A   1      30.395  26.162  25.321  1.00  0.00     0.010 A 
ATOM     13  C   UNL A   1      31.091  25.910  23.052  1.00  0.00     0.010 A 
ATOM     14  C   UNL A   1      30.593  24.772  25.521  1.00  0.00     0.005 A 
ATOM     15  C   UNL A   1      31.317  24.525  23.258  1.00  0.00     0.005 A 
BRANCH  11  16
ATOM     16  C   UNL A   1      30.252  28.172  23.793  1.00  0.00     0.075 A 
ATOM     17  N   UNL A   1      30.706  29.363  24.403  1.00  0.00    -0.233 N 
ATOM     18  N   UNL A   1      29.954  30.429  24.035  1.00  0.00    -0.163 NA
ATOM     19  C   UNL A   1      29.215  30.014  23.000  1.00  0.00     0.167 A 
ATOM     20  C   UNL A   1      29.318  28.610  22.861  1.00  0.00     0.064 A 
BRANCH  17  21
ATOM     21  C   UNL A   1      31.851  29.624  25.204  1.00  0.00     0.065 A 
ATOM     22  C   UNL A   1      34.116  30.100  26.904  1.00  0.00     0.067 A 
ATOM     23  C   UNL A   1      32.893  30.732  27.025  1.00  0.00     0.022 A 
ATOM     24  C   UNL A   1      34.165  29.132  25.915  1.00  0.00     0.022 A 
ATOM     25  C   UNL A   1      31.784  30.570  26.190  1.00  0.00     0.030 A 
ATOM     26  C   UNL A   1      33.032  28.857  25.110  1.00  0.00     0.030 A 
BRANCH  22  27
ATOM     27  S   UNL A   1      35.635  30.425  27.851  1.00  0.00     0.175 S 
ATOM     28  C   UNL A   1      37.140  29.603  27.423  1.00  0.00     0.163 C 
ATOM     29  O   UNL A   1      35.313  29.833  29.165  1.00  0.00    -0.224 OA
ATOM     30  O   UNL A   1      35.892  31.809  27.696  1.00  0.00    -0.224 OA
ENDBRANCH  22  27
ENDBRANCH  17  21
BRANCH  19  31
ATOM     31  C   UNL A   1      28.403  30.958  22.152  1.00  0.00     0.435 C 
ATOM     32  F   UNL A   1      27.316  31.469  22.783  1.00  0.00    -0.164 F 
ATOM     33  F   UNL A   1      29.153  32.011  21.725  1.00  0.00    -0.164 F 
ATOM     34  F   UNL A   1      27.944  30.341  21.027  1.00  0.00    -0.164 F 
ENDBRANCH  19  31
ENDBRANCH  11  16
ENDBRANCH   9  10
ENDBRANCH   7   9
ENDBRANCH   6   7
ENDBRANCH   5   6
ENDBRANCH   4   5
ENDBRANCH   3   4
ENDBRANCH   2   3
ENDBRANCH   1   2
BRANCH   1  35
ATOM     35  O   UNL A   1      39.075  23.153  26.886  1.00  0.00    -0.377 OA
BRANCH  35  36
ATOM     36  C   UNL A   1      40.368  22.673  27.249  1.00  0.00     0.188 C 
BRANCH  36  37
ATOM     37  C   UNL A   1      41.222  21.965  26.197  1.00  0.00     0.188 C 
BRANCH  37  38
ATOM     38  O   UNL A   1      42.372  22.702  25.843  1.00  0.00    -0.376 OA
BRANCH  38  39
ATOM     39  C   UNL A   1      42.506  23.877  26.617  1.00  0.00     0.202 C 
BRANCH  39  40
ATOM     40  C   UNL A   1      42.724  25.231  25.887  1.00  0.00     0.261 C 
BRANCH  40  41
ATOM     41  O   UNL A   1      43.925  25.491  25.030  1.00  0.00    -0.460 OA
BRANCH  41  42
ATOM     42  C   UNL A   1      44.874  26.517  25.148  1.00  0.00     0.338 C 
ATOM     43  O   UNL A   1      46.036  26.361  24.790  1.00  0.00    -0.246 OA
BRANCH  42  44
ATOM     44  C   UNL A   1      44.593  27.652  26.127  1.00  0.00     0.060 A 
ATOM     45  C   UNL A   1      45.470  27.912  27.178  1.00  0.00     0.016 A 
ATOM     46  C   UNL A   1      43.412  28.404  26.096  1.00  0.00     0.016 A 
ATOM     47  C   UNL A   1      45.005  28.544  28.349  1.00  0.00     0.010 A 
ATOM     48  C   UNL A   1      42.927  29.005  27.286  1.00  0.00     0.010 A 
ATOM     49  C   UNL A   1      43.677  28.993  28.472  1.00  0.00    -0.014 A 
BRANCH  49  50
ATOM     50  C   UNL A   1      43.348  29.900  29.618  1.00  0.00     0.031 A 
ATOM     51  C   UNL A   1      43.019  29.008  30.749  1.00  0.00     0.074 A 
ATOM     52  C   UNL A   1      43.379  31.239  29.857  1.00  0.00     0.049 A 
ATOM     53  N   UNL A   1      41.839  28.606  31.099  1.00  0.00    -0.248 NA
ATOM     54  C   UNL A   1      44.126  28.188  31.276  1.00  0.00     0.031 C 
ATOM     55  C   UNL A   1      43.883  32.296  28.990  1.00  0.00     0.029 A 
ATOM     56  N   UNL A   1      43.008  31.958  30.987  1.00  0.00    -0.354 N 
ATOM     57  C   UNL A   1      42.104  27.681  32.094  1.00  0.00     0.074 A 
ATOM     58  C   UNL A   1      43.427  27.203  31.836  1.00  0.00     0.031 C 
ATOM     59  C   UNL A   1      43.997  33.462  29.673  1.00  0.00     0.029 A 
ATOM     60  C   UNL A   1      43.442  33.294  31.008  1.00  0.00     0.049 A 
ATOM     61  H   UNL A   1      42.482  31.561  31.717  1.00  0.00     0.167 HD
ATOM     62  C   UNL A   1      41.462  27.773  33.287  1.00  0.00     0.034 A 
ATOM     63  C   UNL A   1      43.350  34.216  32.017  1.00  0.00     0.034 A 
ATOM     64  C   UNL A   1      40.236  28.534  33.145  1.00  0.00     0.049 A 
ATOM     65  C   UNL A   1      42.246  33.800  32.907  1.00  0.00     0.074 A 
ATOM     66  C   UNL A   1      39.017  28.348  32.528  1.00  0.00     0.029 A 
ATOM     67  N   UNL A   1      40.359  29.880  33.388  1.00  0.00    -0.354 N 
ATOM     68  N   UNL A   1      40.993  33.834  32.557  1.00  0.00    -0.248 NA
ATOM     69  C   UNL A   1      42.539  33.040  34.116  1.00  0.00     0.031 C 
ATOM     70  C   UNL A   1      38.470  29.644  32.300  1.00  0.00     0.029 A 
ATOM     71  C   UNL A   1      39.339  30.601  32.814  1.00  0.00     0.049 A 
ATOM     72  H   UNL A   1      41.091  30.280  33.911  1.00  0.00     0.167 HD
ATOM     73  C   UNL A   1      40.421  32.780  33.233  1.00  0.00     0.074 A 
ATOM     74  C   UNL A   1      41.360  32.438  34.290  1.00  0.00     0.031 C 
ATOM     75  C   UNL A   1      39.429  32.045  32.656  1.00  0.00     0.034 A 
BRANCH  62  76
ATOM     76  C   UNL A   1      42.182  27.642  34.627  1.00  0.00     0.023 A 
ATOM     77  C   UNL A   1      42.386  28.833  35.341  1.00  0.00     0.031 A 
ATOM     78  C   UNL A   1      42.892  26.515  35.127  1.00  0.00     0.131 A 
ATOM     79  C   UNL A   1      43.308  28.894  36.401  1.00  0.00     0.055 A 
ATOM     80  C   UNL A   1      43.790  26.578  36.192  1.00  0.00     0.041 A 
ATOM     81  F   UNL A   1      42.821  25.287  34.607  1.00  0.00    -0.206 F 
ATOM     82  C   UNL A   1      44.025  27.779  36.821  1.00  0.00     0.022 A 
BRANCH  79  83
ATOM     83  S   UNL A   1      43.633  30.498  37.163  1.00  0.00     0.124 S 
ATOM     84  O   UNL A   1      44.419  30.113  38.330  1.00  0.00    -0.237 OA
ATOM     85  O   UNL A   1      44.348  31.191  36.097  1.00  0.00    -0.237 OA
ATOM     86  O   UNL A   1      42.295  31.010  37.448  1.00  0.00    -0.744 OA
ENDBRANCH  79  83
ENDBRANCH  62  76
BRANCH  63  87
ATOM     87  C   UNL A   1      44.221  35.387  32.374  1.00  0.00     0.023 A 
ATOM     88  C   UNL A   1      43.725  36.714  32.511  1.00  0.00     0.031 A 
ATOM     89  C   UNL A   1      45.520  35.159  32.870  1.00  0.00     0.131 A 
ATOM     90  C   UNL A   1      44.505  37.721  33.138  1.00  0.00     0.055 A 
ATOM     91  C   UNL A   1      46.285  36.156  33.487  1.00  0.00     0.041 A 
ATOM     92  F   UNL A   1      46.058  33.931  32.857  1.00  0.00    -0.206 F 
ATOM     93  C   UNL A   1      45.776  37.437  33.637  1.00  0.00     0.022 A 
BRANCH  90  94
ATOM     94  S   UNL A   1      43.836  39.399  33.430  1.00  0.00     0.124 S 
ATOM     95  O   UNL A   1      42.575  39.121  34.108  1.00  0.00    -0.237 OA
ATOM     96  O   UNL A   1      44.882  40.024  34.230  1.00  0.00    -0.237 OA
ATOM     97  O   UNL A   1      43.695  39.950  32.080  1.00  0.00    -0.744 OA
ENDBRANCH  90  94
ENDBRANCH  63  87
BRANCH  75  98
ATOM     98  C   UNL A   1      38.454  32.765  31.753  1.00  0.00     0.023 A 
ATOM     99  C   UNL A   1      37.177  33.246  32.116  1.00  0.00     0.031 A 
ATOM    100  C   UNL A   1      38.869  32.967  30.423  1.00  0.00     0.131 A 
ATOM    101  C   UNL A   1      36.375  33.904  31.159  1.00  0.00     0.055 A 
ATOM    102  C   UNL A   1      38.085  33.638  29.487  1.00  0.00     0.041 A 
ATOM    103  F   UNL A   1      40.065  32.518  30.005  1.00  0.00    -0.206 F 
ATOM    104  C   UNL A   1      36.831  34.106  29.852  1.00  0.00     0.022 A 
BRANCH 101 105
ATOM    105  S   UNL A   1      34.698  34.483  31.580  1.00  0.00     0.124 S 
ATOM    106  O   UNL A   1      34.937  35.576  32.513  1.00  0.00    -0.237 OA
ATOM    107  O   UNL A   1      34.161  34.854  30.275  1.00  0.00    -0.237 OA
ATOM    108  O   UNL A   1      34.071  33.300  32.176  1.00  0.00    -0.744 OA
ENDBRANCH 101 105
ENDBRANCH  75  98
ENDBRANCH  49  50
ENDBRANCH  42  44
ENDBRANCH  41  42
ENDBRANCH  40  41
ENDBRANCH  39  40
ENDBRANCH  38  39
ENDBRANCH  37  38
ENDBRANCH  36  37
ENDBRANCH  35  36
ENDBRANCH   1  35
TORSDOF 28
ENDMDL
MODEL 2
REMARK VINA RESULT:      -9.1      3.721      5.223
REMARK SMILES CS(=O)(=O)c1ccc(-n2nc(C(F)(F)F)cc2-c2ccc(CC(=O)OCCOCCOCCOCCOC(=O)c3ccc(-c4c5nc(c(-c6cc(S(=O)(=O)[O-])ccc6F)c6ccc([nH]6)c(-c6cc(S(=O)(=O)[O-])ccc6F)c6nc(c(-c7cc(S(=O)(=O)[O-])ccc7F)c7ccc4[nH]7)C=C6)C=C5)cc3)cc2)cc1
REMARK SMILES IDX 30 1 29 2 28 3 27 4 26 5 25 6 23 7 24 8 22 9 21 10 18 11
REMARK SMILES IDX 19 12 104 13 20 14 103 15 17 16 9 17 10 18 11 19 16 20 8 21
REMARK SMILES IDX 5 22 6 23 106 24 7 25 105 26 2 27 1 28 3 29 4 30 12 31 13 32
REMARK SMILES IDX 14 33 15 34 31 35 32 36 33 37 34 38 35 39 36 40 37 41 38 42
REMARK SMILES IDX 39 43 40 44 41 45 102 46 42 47 101 48 43 49 44 50 45 51
REMARK SMILES IDX 95 52 46 53 100 54 94 55 96 56 47 57 99 58 93 59 92 60 48 62
REMARK SMILES IDX 80 63 60 64 79 65 61 66 64 67 78 68 97 69 62 70 63 71 77 73
REMARK SMILES IDX 98 74 65 75 49 76 50 77 58 78 51 79 57 80 59 81 56 82 52 83
REMARK SMILES IDX 53 84 54 85 55 86 81 87 82 88 90 89 83 90 89 91 91 92 88 93
REMARK SMILES IDX 84 94 85 95 86 96 87 97 66 98 67 99 75 100 68 101 74 102
REMARK SMILES IDX 76 103 73 104 69 105 70 106 71 107 72 108
REMARK H PARENT 96 61 64 72
REMARK Flexibility Score: inf
ROOT
ATOM      1  C   UNL A   1      38.104  22.633  26.040  1.00  0.00     0.188 C 
ENDROOT
BRANCH   1   2
ATOM      2  C   UNL A   1      36.826  23.369  25.649  1.00  0.00     0.188 C 
BRANCH   2   3
ATOM      3  O   UNL A   1      35.755  22.512  25.315  1.00  0.00    -0.376 OA
BRANCH   3   4
ATOM      4  C   UNL A   1      35.287  21.636  26.333  1.00  0.00     0.202 C 
BRANCH   4   5
ATOM      5  C   UNL A   1      33.962  20.856  26.145  1.00  0.00     0.261 C 
BRANCH   5   6
ATOM      6  O   UNL A   1      32.748  21.616  25.912  1.00  0.00    -0.463 OA
BRANCH   6   7
ATOM      7  C   UNL A   1      32.351  21.824  24.642  1.00  0.00     0.310 C 
ATOM      8  O   UNL A   1      32.935  21.333  23.678  1.00  0.00    -0.252 OA
BRANCH   7   9
ATOM      9  C   UNL A   1      31.096  22.672  24.457  1.00  0.00     0.158 C 
BRANCH   9  10
ATOM     10  C   UNL A   1      31.071  24.200  24.347  1.00  0.00    -0.037 A 
ATOM     11  C   UNL A   1      30.594  27.042  24.041  1.00  0.00     0.000 A 
ATOM     12  C   UNL A   1      30.373  26.395  25.261  1.00  0.00     0.010 A 
ATOM     13  C   UNL A   1      31.078  26.245  22.986  1.00  0.00     0.010 A 
ATOM     14  C   UNL A   1      30.594  25.002  25.406  1.00  0.00     0.005 A 
ATOM     15  C   UNL A   1      31.327  24.857  23.137  1.00  0.00     0.005 A 
BRANCH  11  16
ATOM     16  C   UNL A   1      30.199  28.461  23.813  1.00  0.00     0.075 A 
ATOM     17  N   UNL A   1      30.632  29.635  24.469  1.00  0.00    -0.233 N 
ATOM     18  N   UNL A   1      29.863  30.702  24.142  1.00  0.00    -0.163 NA
ATOM     19  C   UNL A   1      29.132  30.315  23.090  1.00  0.00     0.167 A 
ATOM     20  C   UNL A   1      29.259  28.919  22.897  1.00  0.00     0.064 A 
BRANCH  17  21
ATOM     21  C   UNL A   1      31.772  29.883  25.281  1.00  0.00     0.065 A 
ATOM     22  C   UNL A   1      34.027  30.332  27.003  1.00  0.00     0.067 A 
ATOM     23  C   UNL A   1      32.793  30.939  27.145  1.00  0.00     0.022 A 
ATOM     24  C   UNL A   1      34.092  29.403  25.978  1.00  0.00     0.022 A 
ATOM     25  C   UNL A   1      31.688  30.790  26.302  1.00  0.00     0.030 A 
ATOM     26  C   UNL A   1      32.966  29.140  25.161  1.00  0.00     0.030 A 
BRANCH  22  27
ATOM     27  S   UNL A   1      35.539  30.645  27.964  1.00  0.00     0.175 S 
ATOM     28  C   UNL A   1      36.272  32.254  27.967  1.00  0.00     0.163 C 
ATOM     29  O   UNL A   1      36.542  29.843  27.233  1.00  0.00    -0.224 OA
ATOM     30  O   UNL A   1      35.199  30.372  29.310  1.00  0.00    -0.224 OA
ENDBRANCH  22  27
ENDBRANCH  17  21
BRANCH  19  31
ATOM     31  C   UNL A   1      28.305  31.277  22.278  1.00  0.00     0.435 C 
ATOM     32  F   UNL A   1      29.020  32.295  21.735  1.00  0.00    -0.164 F 
ATOM     33  F   UNL A   1      27.666  30.644  21.257  1.00  0.00    -0.164 F 
ATOM     34  F   UNL A   1      27.329  31.851  23.036  1.00  0.00    -0.164 F 
ENDBRANCH  19  31
ENDBRANCH  11  16
ENDBRANCH   9  10
ENDBRANCH   7   9
ENDBRANCH   6   7
ENDBRANCH   5   6
ENDBRANCH   4   5
ENDBRANCH   3   4
ENDBRANCH   2   3
ENDBRANCH   1   2
BRANCH   1  35
ATOM     35  O   UNL A   1      39.126  23.317  26.761  1.00  0.00    -0.377 OA
BRANCH  35  36
ATOM     36  C   UNL A   1      40.238  22.606  27.304  1.00  0.00     0.188 C 
BRANCH  36  37
ATOM     37  C   UNL A   1      40.682  21.302  26.641  1.00  0.00     0.188 C 
BRANCH  37  38
ATOM     38  O   UNL A   1      41.892  21.439  25.927  1.00  0.00    -0.376 OA
BRANCH  38  39
ATOM     39  C   UNL A   1      42.385  22.762  25.971  1.00  0.00     0.202 C 
BRANCH  39  40
ATOM     40  C   UNL A   1      43.283  23.264  24.806  1.00  0.00     0.261 C 
BRANCH  40  41
ATOM     41  O   UNL A   1      44.434  22.461  24.285  1.00  0.00    -0.460 OA
BRANCH  41  42
ATOM     42  C   UNL A   1      45.805  22.648  24.519  1.00  0.00     0.338 C 
ATOM     43  O   UNL A   1      46.597  21.714  24.478  1.00  0.00    -0.246 OA
BRANCH  42  44
ATOM     44  C   UNL A   1      46.245  23.902  25.267  1.00  0.00     0.060 A 
ATOM     45  C   UNL A   1      46.915  23.800  26.485  1.00  0.00     0.016 A 
ATOM     46  C   UNL A   1      45.909  25.194  24.843  1.00  0.00     0.016 A 
ATOM     47  C   UNL A   1      46.855  24.856  27.417  1.00  0.00     0.010 A 
ATOM     48  C   UNL A   1      45.811  26.245  25.792  1.00  0.00     0.010 A 
ATOM     49  C   UNL A   1      46.186  26.061  27.131  1.00  0.00    -0.014 A 
BRANCH  49  50
ATOM     50  C   UNL A   1      46.414  27.223  28.049  1.00  0.00     0.031 A 
ATOM     51  C   UNL A   1      45.565  26.969  29.230  1.00  0.00     0.074 A 
ATOM     52  C   UNL A   1      47.231  28.311  28.079  1.00  0.00     0.049 A 
ATOM     53  N   UNL A   1      44.365  27.412  29.430  1.00  0.00    -0.248 NA
ATOM     54  C   UNL A   1      45.933  25.807  30.061  1.00  0.00     0.031 C 
ATOM     55  C   UNL A   1      48.307  28.654  27.159  1.00  0.00     0.029 A 
ATOM     56  N   UNL A   1      47.314  29.345  29.003  1.00  0.00    -0.354 N 
ATOM     57  C   UNL A   1      43.976  26.759  30.587  1.00  0.00     0.074 A 
ATOM     58  C   UNL A   1      44.758  25.563  30.638  1.00  0.00     0.031 C 
ATOM     59  C   UNL A   1      49.066  29.658  27.662  1.00  0.00     0.029 A 
ATOM     60  C   UNL A   1      48.460  30.150  28.891  1.00  0.00     0.049 A 
ATOM     61  H   UNL A   1      46.621  29.502  29.684  1.00  0.00     0.167 HD
ATOM     62  C   UNL A   1      43.463  27.472  31.622  1.00  0.00     0.034 A 
ATOM     63  C   UNL A   1      48.893  31.155  29.714  1.00  0.00     0.034 A 
ATOM     64  C   UNL A   1      42.946  28.743  31.155  1.00  0.00     0.049 A 
ATOM     65  C   UNL A   1      47.721  31.666  30.455  1.00  0.00     0.074 A 
ATOM     66  C   UNL A   1      41.889  29.160  30.374  1.00  0.00     0.029 A 
ATOM     67  N   UNL A   1      43.841  29.785  31.204  1.00  0.00    -0.354 N 
ATOM     68  N   UNL A   1      46.756  32.336  29.892  1.00  0.00    -0.248 NA
ATOM     69  C   UNL A   1      47.443  31.175  31.799  1.00  0.00     0.031 C 
ATOM     70  C   UNL A   1      42.240  30.441  29.857  1.00  0.00     0.029 A 
ATOM     71  C   UNL A   1      43.484  30.809  30.359  1.00  0.00     0.049 A 
ATOM     72  H   UNL A   1      44.641  29.796  31.777  1.00  0.00     0.167 HD
ATOM     73  C   UNL A   1      45.635  31.991  30.615  1.00  0.00     0.074 A 
ATOM     74  C   UNL A   1      46.132  31.422  31.858  1.00  0.00     0.031 C 
ATOM     75  C   UNL A   1      44.429  31.854  29.996  1.00  0.00     0.034 A 
BRANCH  62  76
ATOM     76  C   UNL A   1      43.898  27.258  33.070  1.00  0.00     0.023 A 
ATOM     77  C   UNL A   1      42.876  26.971  33.989  1.00  0.00     0.031 A 
ATOM     78  C   UNL A   1      45.161  27.556  33.653  1.00  0.00     0.131 A 
ATOM     79  C   UNL A   1      43.094  27.081  35.374  1.00  0.00     0.055 A 
ATOM     80  C   UNL A   1      45.376  27.644  35.028  1.00  0.00     0.041 A 
ATOM     81  F   UNL A   1      46.266  27.835  32.957  1.00  0.00    -0.206 F 
ATOM     82  C   UNL A   1      44.332  27.433  35.901  1.00  0.00     0.022 A 
BRANCH  79  83
ATOM     83  S   UNL A   1      41.690  26.854  36.484  1.00  0.00     0.124 S 
ATOM     84  O   UNL A   1      41.059  28.167  36.431  1.00  0.00    -0.237 OA
ATOM     85  O   UNL A   1      40.973  25.762  35.832  1.00  0.00    -0.237 OA
ATOM     86  O   UNL A   1      42.320  26.510  37.756  1.00  0.00    -0.744 OA
ENDBRANCH  79  83
ENDBRANCH  62  76
BRANCH  63  87
ATOM     87  C   UNL A   1      50.275  31.654  30.030  1.00  0.00     0.023 A 
ATOM     88  C   UNL A   1      51.191  30.942  30.853  1.00  0.00     0.031 A 
ATOM     89  C   UNL A   1      50.815  32.718  29.281  1.00  0.00     0.131 A 
ATOM     90  C   UNL A   1      52.567  31.289  30.878  1.00  0.00     0.055 A 
ATOM     91  C   UNL A   1      52.174  33.056  29.310  1.00  0.00     0.041 A 
ATOM     92  F   UNL A   1      50.058  33.411  28.418  1.00  0.00    -0.206 F 
ATOM     93  C   UNL A   1      53.058  32.334  30.097  1.00  0.00     0.022 A 
BRANCH  90  94
ATOM     94  S   UNL A   1      53.778  30.309  31.839  1.00  0.00     0.124 S 
ATOM     95  O   UNL A   1      53.062  30.058  33.084  1.00  0.00    -0.237 OA
ATOM     96  O   UNL A   1      54.010  29.156  30.977  1.00  0.00    -0.237 OA
ATOM     97  O   UNL A   1      54.925  31.212  31.966  1.00  0.00    -0.744 OA
ENDBRANCH  90  94
ENDBRANCH  63  87
BRANCH  75  98
ATOM     98  C   UNL A   1      44.123  32.776  28.839  1.00  0.00     0.023 A 
ATOM     99  C   UNL A   1      43.539  34.059  28.924  1.00  0.00     0.031 A 
ATOM    100  C   UNL A   1      44.454  32.298  27.557  1.00  0.00     0.131 A 
ATOM    101  C   UNL A   1      43.314  34.809  27.749  1.00  0.00     0.055 A 
ATOM    102  C   UNL A   1      44.253  33.049  26.402  1.00  0.00     0.041 A 
ATOM    103  F   UNL A   1      44.995  31.077  27.402  1.00  0.00    -0.206 F 
ATOM    104  C   UNL A   1      43.677  34.308  26.494  1.00  0.00     0.022 A 
BRANCH 101 105
ATOM    105  S   UNL A   1      42.507  36.442  27.819  1.00  0.00     0.124 S 
ATOM    106  O   UNL A   1      43.306  37.177  28.791  1.00  0.00    -0.237 OA
ATOM    107  O   UNL A   1      42.600  36.894  26.435  1.00  0.00    -0.237 OA
ATOM    108  O   UNL A   1      41.147  36.129  28.262  1.00  0.00    -0.744 OA
ENDBRANCH 101 105
ENDBRANCH  75  98
ENDBRANCH  49  50
ENDBRANCH  42  44
ENDBRANCH  41  42
ENDBRANCH  40  41
ENDBRANCH  39  40
ENDBRANCH  38  39
ENDBRANCH  37  38
ENDBRANCH  36  37
ENDBRANCH  35  36
ENDBRANCH   1  35
TORSDOF 28
ENDMDL
MODEL 3
REMARK VINA RESULT:      -8.7      4.437      6.510
REMARK SMILES CS(=O)(=O)c1ccc(-n2nc(C(F)(F)F)cc2-c2ccc(CC(=O)OCCOCCOCCOCCOC(=O)c3ccc(-c4c5nc(c(-c6cc(S(=O)(=O)[O-])ccc6F)c6ccc([nH]6)c(-c6cc(S(=O)(=O)[O-])ccc6F)c6nc(c(-c7cc(S(=O)(=O)[O-])ccc7F)c7ccc4[nH]7)C=C6)C=C5)cc3)cc2)cc1
REMARK SMILES IDX 30 1 29 2 28 3 27 4 26 5 25 6 23 7 24 8 22 9 21 10 18 11
REMARK SMILES IDX 19 12 104 13 20 14 103 15 17 16 9 17 10 18 11 19 16 20 8 21
REMARK SMILES IDX 5 22 6 23 106 24 7 25 105 26 2 27 1 28 3 29 4 30 12 31 13 32
REMARK SMILES IDX 14 33 15 34 31 35 32 36 33 37 34 38 35 39 36 40 37 41 38 42
REMARK SMILES IDX 39 43 40 44 41 45 102 46 42 47 101 48 43 49 44 50 45 51
REMARK SMILES IDX 95 52 46 53 100 54 94 55 96 56 47 57 99 58 93 59 92 60 48 62
REMARK SMILES IDX 80 63 60 64 79 65 61 66 64 67 78 68 97 69 62 70 63 71 77 73
REMARK SMILES IDX 98 74 65 75 49 76 50 77 58 78 51 79 57 80 59 81 56 82 52 83
REMARK SMILES IDX 53 84 54 85 55 86 81 87 82 88 90 89 83 90 89 91 91 92 88 93
REMARK SMILES IDX 84 94 85 95 86 96 87 97 66 98 67 99 75 100 68 101 74 102
REMARK SMILES IDX 76 103 73 104 69 105 70 106 71 107 72 108
REMARK H PARENT 96 61 64 72
REMARK Flexibility Score: inf
ROOT
ATOM      1  C   UNL A   1      37.947  22.783  25.923  1.00  0.00     0.188 C 
ENDROOT
BRANCH   1   2
ATOM      2  C   UNL A   1      36.585  23.463  26.020  1.00  0.00     0.188 C 
BRANCH   2   3
ATOM      3  O   UNL A   1      35.541  22.739  25.404  1.00  0.00    -0.376 OA
BRANCH   3   4
ATOM      4  C   UNL A   1      35.015  21.630  26.121  1.00  0.00     0.202 C 
BRANCH   4   5
ATOM      5  C   UNL A   1      33.738  20.910  25.620  1.00  0.00     0.261 C 
BRANCH   5   6
ATOM      6  O   UNL A   1      32.580  21.721  25.290  1.00  0.00    -0.463 OA
BRANCH   6   7
ATOM      7  C   UNL A   1      32.443  22.167  24.028  1.00  0.00     0.310 C 
ATOM      8  O   UNL A   1      33.231  21.869  23.131  1.00  0.00    -0.252 OA
BRANCH   7   9
ATOM      9  C   UNL A   1      31.219  23.033  23.746  1.00  0.00     0.158 C 
BRANCH   9  10
ATOM     10  C   UNL A   1      31.180  24.562  23.836  1.00  0.00    -0.037 A 
ATOM     11  C   UNL A   1      30.683  27.417  23.878  1.00  0.00     0.000 A 
ATOM     12  C   UNL A   1      30.401  26.613  24.987  1.00  0.00     0.010 A 
ATOM     13  C   UNL A   1      31.238  26.769  22.757  1.00  0.00     0.010 A 
ATOM     14  C   UNL A   1      30.632  25.215  24.961  1.00  0.00     0.005 A 
ATOM     15  C   UNL A   1      31.497  25.374  22.740  1.00  0.00     0.005 A 
BRANCH  11  16
ATOM     16  C   UNL A   1      30.283  28.851  23.815  1.00  0.00     0.075 A 
ATOM     17  N   UNL A   1      30.678  29.935  24.632  1.00  0.00    -0.233 N 
ATOM     18  N   UNL A   1      29.911  31.030  24.412  1.00  0.00    -0.163 NA
ATOM     19  C   UNL A   1      29.225  30.776  23.290  1.00  0.00     0.167 A 
ATOM     20  C   UNL A   1      29.374  29.416  22.928  1.00  0.00     0.064 A 
BRANCH  17  21
ATOM     21  C   UNL A   1      31.783  30.084  25.513  1.00  0.00     0.065 A 
ATOM     22  C   UNL A   1      34.069  30.433  27.215  1.00  0.00     0.067 A 
ATOM     23  C   UNL A   1      34.000  29.542  26.161  1.00  0.00     0.022 A 
ATOM     24  C   UNL A   1      32.947  31.230  27.366  1.00  0.00     0.022 A 
ATOM     25  C   UNL A   1      32.893  29.304  25.341  1.00  0.00     0.030 A 
ATOM     26  C   UNL A   1      31.838  31.097  26.494  1.00  0.00     0.030 A 
BRANCH  22  27
ATOM     27  S   UNL A   1      35.421  30.634  28.416  1.00  0.00     0.175 S 
ATOM     28  C   UNL A   1      35.208  31.679  29.825  1.00  0.00     0.163 C 
ATOM     29  O   UNL A   1      36.430  31.370  27.626  1.00  0.00    -0.224 OA
ATOM     30  O   UNL A   1      35.671  29.338  28.928  1.00  0.00    -0.224 OA
ENDBRANCH  22  27
ENDBRANCH  17  21
BRANCH  19  31
ATOM     31  C   UNL A   1      28.421  31.829  22.574  1.00  0.00     0.435 C 
ATOM     32  F   UNL A   1      28.934  33.081  22.681  1.00  0.00    -0.164 F 
ATOM     33  F   UNL A   1      28.310  31.551  21.247  1.00  0.00    -0.164 F 
ATOM     34  F   UNL A   1      27.148  31.890  23.055  1.00  0.00    -0.164 F 
ENDBRANCH  19  31
ENDBRANCH  11  16
ENDBRANCH   9  10
ENDBRANCH   7   9
ENDBRANCH   6   7
ENDBRANCH   5   6
ENDBRANCH   4   5
ENDBRANCH   3   4
ENDBRANCH   2   3
ENDBRANCH   1   2
BRANCH   1  35
ATOM     35  O   UNL A   1      39.098  23.415  26.477  1.00  0.00    -0.377 OA
BRANCH  35  36
ATOM     36  C   UNL A   1      40.044  22.670  27.242  1.00  0.00     0.188 C 
BRANCH  36  37
ATOM     37  C   UNL A   1      40.461  21.280  26.760  1.00  0.00     0.188 C 
BRANCH  37  38
ATOM     38  O   UNL A   1      41.615  21.309  25.948  1.00  0.00    -0.376 OA
BRANCH  38  39
ATOM     39  C   UNL A   1      42.132  22.616  25.810  1.00  0.00     0.202 C 
BRANCH  39  40
ATOM     40  C   UNL A   1      43.182  22.891  24.698  1.00  0.00     0.261 C 
BRANCH  40  41
ATOM     41  O   UNL A   1      44.128  21.835  24.217  1.00  0.00    -0.460 OA
BRANCH  41  42
ATOM     42  C   UNL A   1      45.520  21.770  24.385  1.00  0.00     0.338 C 
ATOM     43  O   UNL A   1      46.128  20.709  24.298  1.00  0.00    -0.246 OA
BRANCH  42  44
ATOM     44  C   UNL A   1      46.213  22.911  25.122  1.00  0.00     0.060 A 
ATOM     45  C   UNL A   1      46.027  23.085  26.492  1.00  0.00     0.016 A 
ATOM     46  C   UNL A   1      46.965  23.892  24.463  1.00  0.00     0.016 A 
ATOM     47  C   UNL A   1      46.189  24.359  27.073  1.00  0.00     0.010 A 
ATOM     48  C   UNL A   1      47.091  25.185  25.033  1.00  0.00     0.010 A 
ATOM     49  C   UNL A   1      46.607  25.470  26.318  1.00  0.00    -0.014 A 
BRANCH  49  50
ATOM     50  C   UNL A   1      47.028  26.702  27.060  1.00  0.00     0.031 A 
ATOM     51  C   UNL A   1      48.073  26.260  28.006  1.00  0.00     0.074 A 
ATOM     52  C   UNL A   1      46.759  28.034  26.992  1.00  0.00     0.049 A 
ATOM     53  N   UNL A   1      47.902  25.919  29.242  1.00  0.00    -0.248 NA
ATOM     54  C   UNL A   1      49.333  25.779  27.407  1.00  0.00     0.031 C 
ATOM     55  C   UNL A   1      45.952  28.741  26.006  1.00  0.00     0.029 A 
ATOM     56  N   UNL A   1      47.213  29.083  27.783  1.00  0.00    -0.354 N 
ATOM     57  C   UNL A   1      49.148  25.443  29.614  1.00  0.00     0.074 A 
ATOM     58  C   UNL A   1      49.774  25.012  28.402  1.00  0.00     0.031 C 
ATOM     59  C   UNL A   1      46.137  30.080  26.106  1.00  0.00     0.029 A 
ATOM     60  C   UNL A   1      46.975  30.366  27.262  1.00  0.00     0.049 A 
ATOM     61  H   UNL A   1      47.668  28.937  28.644  1.00  0.00     0.167 HD
ATOM     62  C   UNL A   1      49.738  25.911  30.744  1.00  0.00     0.034 A 
ATOM     63  C   UNL A   1      47.401  31.581  27.729  1.00  0.00     0.034 A 
ATOM     64  C   UNL A   1      48.744  26.466  31.641  1.00  0.00     0.049 A 
ATOM     65  C   UNL A   1      47.700  31.429  29.168  1.00  0.00     0.074 A 
ATOM     66  C   UNL A   1      47.712  25.971  32.411  1.00  0.00     0.029 A 
ATOM     67  N   UNL A   1      48.522  27.814  31.495  1.00  0.00    -0.354 N 
ATOM     68  N   UNL A   1      46.785  31.232  30.072  1.00  0.00    -0.248 NA
ATOM     69  C   UNL A   1      49.071  31.187  29.601  1.00  0.00     0.031 C 
ATOM     70  C   UNL A   1      46.801  27.047  32.617  1.00  0.00     0.029 A 
ATOM     71  C   UNL A   1      47.304  28.193  32.007  1.00  0.00     0.049 A 
ATOM     72  H   UNL A   1      49.160  28.434  31.074  1.00  0.00     0.167 HD
ATOM     73  C   UNL A   1      47.406  30.454  31.024  1.00  0.00     0.074 A 
ATOM     74  C   UNL A   1      48.832  30.597  30.775  1.00  0.00     0.031 C 
ATOM     75  C   UNL A   1      46.713  29.482  31.681  1.00  0.00     0.034 A 
BRANCH  62  76
ATOM     76  C   UNL A   1      51.204  26.334  30.798  1.00  0.00     0.023 A 
ATOM     77  C   UNL A   1      51.563  27.428  29.994  1.00  0.00     0.031 A 
ATOM     78  C   UNL A   1      52.297  25.617  31.357  1.00  0.00     0.131 A 
ATOM     79  C   UNL A   1      52.912  27.701  29.702  1.00  0.00     0.055 A 
ATOM     80  C   UNL A   1      53.633  25.906  31.079  1.00  0.00     0.041 A 
ATOM     81  F   UNL A   1      52.172  24.560  32.164  1.00  0.00    -0.206 F 
ATOM     82  C   UNL A   1      53.950  26.937  30.225  1.00  0.00     0.022 A 
BRANCH  79  83
ATOM     83  S   UNL A   1      53.286  29.024  28.533  1.00  0.00     0.124 S 
ATOM     84  O   UNL A   1      53.186  30.204  29.384  1.00  0.00    -0.237 OA
ATOM     85  O   UNL A   1      54.626  28.654  28.089  1.00  0.00    -0.237 OA
ATOM     86  O   UNL A   1      52.238  28.886  27.525  1.00  0.00    -0.744 OA
ENDBRANCH  79  83
ENDBRANCH  62  76
BRANCH  63  87
ATOM     87  C   UNL A   1      47.705  32.867  27.016  1.00  0.00     0.023 A 
ATOM     88  C   UNL A   1      46.859  34.010  27.075  1.00  0.00     0.031 A 
ATOM     89  C   UNL A   1      48.995  33.081  26.491  1.00  0.00     0.131 A 
ATOM     90  C   UNL A   1      47.324  35.282  26.649  1.00  0.00     0.055 A 
ATOM     91  C   UNL A   1      49.447  34.337  26.070  1.00  0.00     0.041 A 
ATOM     92  F   UNL A   1      49.898  32.090  26.454  1.00  0.00    -0.206 F 
ATOM     93  C   UNL A   1      48.620  35.445  26.161  1.00  0.00     0.022 A 
BRANCH  90  94
ATOM     94  S   UNL A   1      46.291  36.782  26.830  1.00  0.00     0.124 S 
ATOM     95  O   UNL A   1      46.543  37.171  28.213  1.00  0.00    -0.237 OA
ATOM     96  O   UNL A   1      46.826  37.662  25.798  1.00  0.00    -0.237 OA
ATOM     97  O   UNL A   1      44.934  36.297  26.570  1.00  0.00    -0.744 OA
ENDBRANCH  90  94
ENDBRANCH  63  87
BRANCH  75  98
ATOM     98  C   UNL A   1      45.258  29.743  31.992  1.00  0.00     0.023 A 
ATOM     99  C   UNL A   1      44.150  29.335  31.216  1.00  0.00     0.031 A 
ATOM    100  C   UNL A   1      44.992  30.466  33.171  1.00  0.00     0.131 A 
ATOM    101  C   UNL A   1      42.841  29.652  31.638  1.00  0.00     0.055 A 
ATOM    102  C   UNL A   1      43.698  30.756  33.597  1.00  0.00     0.041 A 
ATOM    103  F   UNL A   1      46.000  30.902  33.946  1.00  0.00    -0.206 F 
ATOM    104  C   UNL A   1      42.616  30.353  32.827  1.00  0.00     0.022 A 
BRANCH 101 105
ATOM    105  S   UNL A   1      41.394  29.192  30.628  1.00  0.00     0.124 S 
ATOM    106  O   UNL A   1      40.730  30.466  30.383  1.00  0.00    -0.237 OA
ATOM    107  O   UNL A   1      42.012  28.554  29.471  1.00  0.00    -0.237 OA
ATOM    108  O   UNL A   1      40.651  28.277  31.498  1.00  0.00    -0.744 OA
ENDBRANCH 101 105
ENDBRANCH  75  98
ENDBRANCH  49  50
ENDBRANCH  42  44
ENDBRANCH  41  42
ENDBRANCH  40  41
ENDBRANCH  39  40
ENDBRANCH  38  39
ENDBRANCH  37  38
ENDBRANCH  36  37
ENDBRANCH  35  36
ENDBRANCH   1  35
TORSDOF 28
ENDMDL
