MODEL 1
REMARK VINA RESULT:      -8.7      0.000      0.000
REMARK SMILES C[C@@H](CC(=O)OCCOCCOCCOCCOC(=O)c1ccc(-c2c3nc(c(-c4cc(S(=O)(=O)[O-])ccc4F)c4ccc([nH]4)c(-c4cc(S(=O)(=O)[O-])ccc4F)c4nc(c(-c5cc(S(=O)(=O)[O-])ccc5F)c5ccc2[nH]5)C=C4)C=C3)cc1)NC(=O)CCCN1C(=O)CN(C)C1=O
REMARK SMILES IDX 10 1 9 2 8 3 7 4 6 5 4 6 5 7 3 8 2 9 1 10 84 11 85 12 86 14
REMARK SMILES IDX 87 15 88 16 89 17 90 18 91 19 96 20 92 21 93 22 94 23 97 24
REMARK SMILES IDX 95 25 11 26 12 27 13 28 14 29 15 30 16 31 17 32 18 33 19 34
REMARK SMILES IDX 20 35 21 36 22 37 83 38 23 39 82 40 24 41 25 42 26 43 76 44
REMARK SMILES IDX 27 45 81 46 75 47 77 48 28 49 80 50 74 51 73 52 29 54 61 55
REMARK SMILES IDX 41 56 60 57 42 58 45 59 59 60 78 61 43 62 44 63 58 65 79 66
REMARK SMILES IDX 46 67 30 68 31 69 39 70 32 71 38 72 40 73 37 74 33 75 34 76
REMARK SMILES IDX 35 77 36 78 62 79 63 80 71 81 64 82 70 83 72 84 69 85 65 86
REMARK SMILES IDX 66 87 67 88 68 89 47 90 48 91 56 92 49 93 55 94 57 95 54 96
REMARK SMILES IDX 50 97 51 98 52 99 53 100
REMARK H PARENT 84 13 77 53 45 64
REMARK Flexibility Score: inf
ROOT
ATOM      1  C   UNL A   1      35.890  21.975  25.032  1.00  0.00     0.188 C 
ENDROOT
BRANCH   1   2
ATOM      2  O   UNL A   1      35.232  21.332  26.108  1.00  0.00    -0.376 OA
BRANCH   2   3
ATOM      3  C   UNL A   1      34.118  20.478  25.850  1.00  0.00     0.202 C 
BRANCH   3   4
ATOM      4  C   UNL A   1      33.190  20.747  24.653  1.00  0.00     0.261 C 
BRANCH   4   5
ATOM      5  O   UNL A   1      32.159  21.717  24.941  1.00  0.00    -0.463 OA
BRANCH   5   6
ATOM      6  C   UNL A   1      31.765  22.526  23.942  1.00  0.00     0.307 C 
ATOM      7  O   UNL A   1      30.777  23.256  23.997  1.00  0.00    -0.252 OA
BRANCH   6   8
ATOM      8  C   UNL A   1      32.667  22.562  22.721  1.00  0.00     0.147 C 
BRANCH   8   9
ATOM      9  C   UNL A   1      33.290  23.826  22.105  1.00  0.00     0.090 C 
ATOM     10  C   UNL A   1      34.375  24.547  22.886  1.00  0.00     0.031 C 
BRANCH   9  11
ATOM     11  N   UNL A   1      32.350  24.791  21.535  1.00  0.00    -0.353 N 
ATOM     12  C   UNL A   1      31.965  26.026  21.966  1.00  0.00     0.220 C 
ATOM     13  H   UNL A   1      31.922  24.499  20.699  1.00  0.00     0.163 HD
ATOM     14  O   UNL A   1      31.133  26.654  21.308  1.00  0.00    -0.275 OA
BRANCH  12  15
ATOM     15  C   UNL A   1      32.575  26.638  23.211  1.00  0.00     0.102 C 
BRANCH  15  16
ATOM     16  C   UNL A   1      32.000  26.130  24.538  1.00  0.00     0.032 C 
BRANCH  16  17
ATOM     17  C   UNL A   1      30.853  26.937  25.167  1.00  0.00     0.131 C 
BRANCH  17  18
ATOM     18  N   UNL A   1      30.311  28.026  24.363  1.00  0.00    -0.263 N 
ATOM     19  C   UNL A   1      30.868  29.277  24.301  1.00  0.00     0.250 C 
ATOM     20  C   UNL A   1      29.162  27.991  23.622  1.00  0.00     0.326 C 
ATOM     21  O   UNL A   1      31.871  29.660  24.885  1.00  0.00    -0.272 OA
ATOM     22  C   UNL A   1      30.073  30.133  23.334  1.00  0.00     0.221 C 
ATOM     23  N   UNL A   1      29.036  29.205  22.969  1.00  0.00    -0.318 N 
ATOM     24  O   UNL A   1      28.383  27.058  23.520  1.00  0.00    -0.248 OA
ATOM     25  C   UNL A   1      27.981  29.554  22.053  1.00  0.00     0.149 C 
ENDBRANCH  17  18
ENDBRANCH  16  17
ENDBRANCH  15  16
ENDBRANCH  12  15
ENDBRANCH   9  11
ENDBRANCH   8   9
ENDBRANCH   6   8
ENDBRANCH   5   6
ENDBRANCH   4   5
ENDBRANCH   3   4
ENDBRANCH   2   3
ENDBRANCH   1   2
BRANCH   1  26
ATOM     26  C   UNL A   1      37.302  21.540  24.636  1.00  0.00     0.188 C 
BRANCH  26  27
ATOM     27  O   UNL A   1      38.141  21.097  25.684  1.00  0.00    -0.377 OA
BRANCH  27  28
ATOM     28  C   UNL A   1      39.253  21.881  26.105  1.00  0.00     0.188 C 
BRANCH  28  29
ATOM     29  C   UNL A   1      40.422  21.187  26.807  1.00  0.00     0.188 C 
BRANCH  29  30
ATOM     30  O   UNL A   1      41.202  20.396  25.936  1.00  0.00    -0.376 OA
BRANCH  30  31
ATOM     31  C   UNL A   1      41.993  19.313  26.391  1.00  0.00     0.202 C 
BRANCH  31  32
ATOM     32  C   UNL A   1      43.160  18.679  25.614  1.00  0.00     0.261 C 
BRANCH  32  33
ATOM     33  O   UNL A   1      44.390  19.396  25.482  1.00  0.00    -0.460 OA
BRANCH  33  34
ATOM     34  C   UNL A   1      44.518  20.289  24.486  1.00  0.00     0.338 C 
ATOM     35  O   UNL A   1      44.521  20.062  23.288  1.00  0.00    -0.246 OA
BRANCH  34  36
ATOM     36  C   UNL A   1      44.488  21.624  25.120  1.00  0.00     0.060 A 
ATOM     37  C   UNL A   1      44.226  22.760  24.344  1.00  0.00     0.016 A 
ATOM     38  C   UNL A   1      44.722  21.742  26.492  1.00  0.00     0.016 A 
ATOM     39  C   UNL A   1      44.250  24.028  24.932  1.00  0.00     0.010 A 
ATOM     40  C   UNL A   1      44.764  23.008  27.074  1.00  0.00     0.010 A 
ATOM     41  C   UNL A   1      44.569  24.159  26.290  1.00  0.00    -0.014 A 
BRANCH  41  42
ATOM     42  C   UNL A   1      44.936  25.476  26.865  1.00  0.00     0.031 A 
ATOM     43  C   UNL A   1      43.835  26.301  27.472  1.00  0.00     0.074 A 
ATOM     44  C   UNL A   1      46.192  25.952  26.806  1.00  0.00     0.049 A 
ATOM     45  N   UNL A   1      43.840  27.553  27.846  1.00  0.00    -0.248 NA
ATOM     46  C   UNL A   1      42.546  25.617  27.665  1.00  0.00     0.031 C 
ATOM     47  C   UNL A   1      47.352  25.216  26.307  1.00  0.00     0.029 A 
ATOM     48  N   UNL A   1      46.693  27.184  27.147  1.00  0.00    -0.354 N 
ATOM     49  C   UNL A   1      42.549  27.815  28.294  1.00  0.00     0.074 A 
ATOM     50  C   UNL A   1      41.785  26.599  28.120  1.00  0.00     0.031 C 
ATOM     51  C   UNL A   1      48.426  26.024  26.345  1.00  0.00     0.029 A 
ATOM     52  C   UNL A   1      48.019  27.348  26.815  1.00  0.00     0.049 A 
ATOM     53  H   UNL A   1      46.156  27.883  27.585  1.00  0.00     0.167 HD
ATOM     54  C   UNL A   1      42.050  28.967  28.802  1.00  0.00     0.034 A 
ATOM     55  C   UNL A   1      48.793  28.453  26.843  1.00  0.00     0.034 A 
ATOM     56  C   UNL A   1      42.829  30.171  28.952  1.00  0.00     0.049 A 
ATOM     57  C   UNL A   1      48.190  29.761  27.309  1.00  0.00     0.074 A 
ATOM     58  C   UNL A   1      42.432  31.395  29.460  1.00  0.00     0.029 A 
ATOM     59  N   UNL A   1      44.160  30.307  28.579  1.00  0.00    -0.354 N 
ATOM     60  N   UNL A   1      46.964  30.008  27.716  1.00  0.00    -0.248 NA
ATOM     61  C   UNL A   1      49.069  30.939  27.318  1.00  0.00     0.031 C 
ATOM     62  C   UNL A   1      43.495  32.291  29.315  1.00  0.00     0.029 A 
ATOM     63  C   UNL A   1      44.588  31.603  28.813  1.00  0.00     0.049 A 
ATOM     64  H   UNL A   1      44.718  29.588  28.203  1.00  0.00     0.167 HD
ATOM     65  C   UNL A   1      46.945  31.356  28.073  1.00  0.00     0.074 A 
ATOM     66  C   UNL A   1      48.276  31.870  27.829  1.00  0.00     0.031 C 
ATOM     67  C   UNL A   1      45.924  32.097  28.573  1.00  0.00     0.034 A 
BRANCH  54  68
ATOM     68  C   UNL A   1      40.586  28.993  29.167  1.00  0.00     0.023 A 
ATOM     69  C   UNL A   1      40.154  28.959  30.504  1.00  0.00     0.031 A 
ATOM     70  C   UNL A   1      39.606  29.021  28.160  1.00  0.00     0.131 A 
ATOM     71  C   UNL A   1      38.785  28.879  30.794  1.00  0.00     0.055 A 
ATOM     72  C   UNL A   1      38.242  29.030  28.458  1.00  0.00     0.041 A 
ATOM     73  F   UNL A   1      39.957  29.025  26.864  1.00  0.00    -0.206 F 
ATOM     74  C   UNL A   1      37.824  28.943  29.782  1.00  0.00     0.022 A 
BRANCH  71  75
ATOM     75  S   UNL A   1      38.282  28.533  32.502  1.00  0.00     0.124 S 
ATOM     76  O   UNL A   1      37.012  29.249  32.586  1.00  0.00    -0.237 OA
ATOM     77  O   UNL A   1      38.196  27.077  32.517  1.00  0.00    -0.237 OA
ATOM     78  O   UNL A   1      39.364  29.103  33.301  1.00  0.00    -0.744 OA
ENDBRANCH  71  75
ENDBRANCH  54  68
BRANCH  55  79
ATOM     79  C   UNL A   1      50.206  28.400  26.367  1.00  0.00     0.023 A 
ATOM     80  C   UNL A   1      50.548  28.806  25.067  1.00  0.00     0.031 A 
ATOM     81  C   UNL A   1      51.231  27.887  27.184  1.00  0.00     0.131 A 
ATOM     82  C   UNL A   1      51.864  28.644  24.605  1.00  0.00     0.055 A 
ATOM     83  C   UNL A   1      52.550  27.787  26.741  1.00  0.00     0.041 A 
ATOM     84  F   UNL A   1      50.962  27.476  28.433  1.00  0.00    -0.206 F 
ATOM     85  C   UNL A   1      52.871  28.154  25.438  1.00  0.00     0.022 A 
BRANCH  82  86
ATOM     86  S   UNL A   1      52.217  28.987  22.858  1.00  0.00     0.124 S 
ATOM     87  O   UNL A   1      52.868  27.750  22.442  1.00  0.00    -0.237 OA
ATOM     88  O   UNL A   1      50.882  29.223  22.320  1.00  0.00    -0.237 OA
ATOM     89  O   UNL A   1      53.084  30.162  22.912  1.00  0.00    -0.744 OA
ENDBRANCH  82  86
ENDBRANCH  55  79
BRANCH  67  90
ATOM     90  C   UNL A   1      46.216  33.523  28.975  1.00  0.00     0.023 A 
ATOM     91  C   UNL A   1      46.084  34.599  28.082  1.00  0.00     0.031 A 
ATOM     92  C   UNL A   1      46.585  33.807  30.304  1.00  0.00     0.131 A 
ATOM     93  C   UNL A   1      46.344  35.907  28.522  1.00  0.00     0.055 A 
ATOM     94  C   UNL A   1      46.784  35.112  30.750  1.00  0.00     0.041 A 
ATOM     95  F   UNL A   1      46.729  32.815  31.198  1.00  0.00    -0.206 F 
ATOM     96  C   UNL A   1      46.670  36.171  29.856  1.00  0.00     0.022 A 
BRANCH  93  97
ATOM     97  S   UNL A   1      46.306  37.262  27.318  1.00  0.00     0.124 S 
ATOM     98  O   UNL A   1      44.903  37.660  27.353  1.00  0.00    -0.237 OA
ATOM     99  O   UNL A   1      47.254  38.215  27.887  1.00  0.00    -0.237 OA
ATOM    100  O   UNL A   1      46.739  36.628  26.073  1.00  0.00    -0.744 OA
ENDBRANCH  93  97
ENDBRANCH  67  90
ENDBRANCH  41  42
ENDBRANCH  34  36
ENDBRANCH  33  34
ENDBRANCH  32  33
ENDBRANCH  31  32
ENDBRANCH  30  31
ENDBRANCH  29  30
ENDBRANCH  28  29
ENDBRANCH  27  28
ENDBRANCH  26  27
ENDBRANCH   1  26
TORSDOF 29
ENDMDL
MODEL 2
REMARK VINA RESULT:      -8.7      1.490      2.223
REMARK SMILES C[C@@H](CC(=O)OCCOCCOCCOCCOC(=O)c1ccc(-c2c3nc(c(-c4cc(S(=O)(=O)[O-])ccc4F)c4ccc([nH]4)c(-c4cc(S(=O)(=O)[O-])ccc4F)c4nc(c(-c5cc(S(=O)(=O)[O-])ccc5F)c5ccc2[nH]5)C=C4)C=C3)cc1)NC(=O)CCCN1C(=O)CN(C)C1=O
REMARK SMILES IDX 10 1 9 2 8 3 7 4 6 5 4 6 5 7 3 8 2 9 1 10 84 11 85 12 86 14
REMARK SMILES IDX 87 15 88 16 89 17 90 18 91 19 96 20 92 21 93 22 94 23 97 24
REMARK SMILES IDX 95 25 11 26 12 27 13 28 14 29 15 30 16 31 17 32 18 33 19 34
REMARK SMILES IDX 20 35 21 36 22 37 83 38 23 39 82 40 24 41 25 42 26 43 76 44
REMARK SMILES IDX 27 45 81 46 75 47 77 48 28 49 80 50 74 51 73 52 29 54 61 55
REMARK SMILES IDX 41 56 60 57 42 58 45 59 59 60 78 61 43 62 44 63 58 65 79 66
REMARK SMILES IDX 46 67 30 68 31 69 39 70 32 71 38 72 40 73 37 74 33 75 34 76
REMARK SMILES IDX 35 77 36 78 62 79 63 80 71 81 64 82 70 83 72 84 69 85 65 86
REMARK SMILES IDX 66 87 67 88 68 89 47 90 48 91 56 92 49 93 55 94 57 95 54 96
REMARK SMILES IDX 50 97 51 98 52 99 53 100
REMARK H PARENT 84 13 77 53 45 64
REMARK Flexibility Score: inf
ROOT
ATOM      1  C   UNL A   1      36.007  21.886  25.100  1.00  0.00     0.188 C 
ENDROOT
BRANCH   1   2
ATOM      2  O   UNL A   1      35.326  20.667  25.335  1.00  0.00    -0.376 OA
BRANCH   2   3
ATOM      3  C   UNL A   1      34.067  20.423  24.707  1.00  0.00     0.202 C 
BRANCH   3   4
ATOM      4  C   UNL A   1      33.268  21.583  24.087  1.00  0.00     0.261 C 
BRANCH   4   5
ATOM      5  O   UNL A   1      32.374  22.221  25.026  1.00  0.00    -0.463 OA
BRANCH   5   6
ATOM      6  C   UNL A   1      32.084  23.519  24.830  1.00  0.00     0.307 C 
ATOM      7  O   UNL A   1      32.257  24.397  25.673  1.00  0.00    -0.252 OA
BRANCH   6   8
ATOM      8  C   UNL A   1      31.587  23.888  23.444  1.00  0.00     0.147 C 
BRANCH   8   9
ATOM      9  C   UNL A   1      31.917  25.186  22.690  1.00  0.00     0.090 C 
ATOM     10  C   UNL A   1      33.376  25.502  22.405  1.00  0.00     0.031 C 
BRANCH   9  11
ATOM     11  N   UNL A   1      31.219  26.387  23.147  1.00  0.00    -0.353 N 
ATOM     12  C   UNL A   1      31.678  27.498  23.791  1.00  0.00     0.220 C 
ATOM     13  H   UNL A   1      30.253  26.395  22.958  1.00  0.00     0.163 HD
ATOM     14  O   UNL A   1      30.877  28.388  24.088  1.00  0.00    -0.275 OA
BRANCH  12  15
ATOM     15  C   UNL A   1      33.152  27.660  24.104  1.00  0.00     0.102 C 
BRANCH  15  16
ATOM     16  C   UNL A   1      33.529  27.485  25.580  1.00  0.00     0.032 C 
BRANCH  16  17
ATOM     17  C   UNL A   1      32.719  28.281  26.616  1.00  0.00     0.131 C 
BRANCH  17  18
ATOM     18  N   UNL A   1      33.246  29.590  26.983  1.00  0.00    -0.263 N 
ATOM     19  C   UNL A   1      32.531  30.755  26.876  1.00  0.00     0.250 C 
ATOM     20  C   UNL A   1      34.515  29.861  27.412  1.00  0.00     0.326 C 
ATOM     21  O   UNL A   1      31.382  30.874  26.476  1.00  0.00    -0.272 OA
ATOM     22  C   UNL A   1      33.371  31.908  27.390  1.00  0.00     0.221 C 
ATOM     23  N   UNL A   1      34.590  31.211  27.706  1.00  0.00    -0.318 N 
ATOM     24  O   UNL A   1      35.431  29.065  27.543  1.00  0.00    -0.248 OA
ATOM     25  C   UNL A   1      35.748  31.889  28.230  1.00  0.00     0.149 C 
ENDBRANCH  17  18
ENDBRANCH  16  17
ENDBRANCH  15  16
ENDBRANCH  12  15
ENDBRANCH   9  11
ENDBRANCH   8   9
ENDBRANCH   6   8
ENDBRANCH   5   6
ENDBRANCH   4   5
ENDBRANCH   3   4
ENDBRANCH   2   3
ENDBRANCH   1   2
BRANCH   1  26
ATOM     26  C   UNL A   1      37.470  21.865  24.657  1.00  0.00     0.188 C 
BRANCH  26  27
ATOM     27  O   UNL A   1      38.364  21.137  25.474  1.00  0.00    -0.377 OA
BRANCH  27  28
ATOM     28  C   UNL A   1      39.424  21.797  26.159  1.00  0.00     0.188 C 
BRANCH  28  29
ATOM     29  C   UNL A   1      40.501  20.952  26.842  1.00  0.00     0.188 C 
BRANCH  29  30
ATOM     30  O   UNL A   1      41.275  20.197  25.934  1.00  0.00    -0.376 OA
BRANCH  30  31
ATOM     31  C   UNL A   1      42.162  19.176  26.352  1.00  0.00     0.202 C 
BRANCH  31  32
ATOM     32  C   UNL A   1      43.317  18.605  25.509  1.00  0.00     0.261 C 
BRANCH  32  33
ATOM     33  O   UNL A   1      44.519  19.362  25.356  1.00  0.00    -0.460 OA
BRANCH  33  34
ATOM     34  C   UNL A   1      44.613  20.235  24.338  1.00  0.00     0.338 C 
ATOM     35  O   UNL A   1      44.560  19.985  23.147  1.00  0.00    -0.246 OA
BRANCH  34  36
ATOM     36  C   UNL A   1      44.629  21.582  24.947  1.00  0.00     0.060 A 
ATOM     37  C   UNL A   1      44.491  22.716  24.137  1.00  0.00     0.016 A 
ATOM     38  C   UNL A   1      44.780  21.713  26.330  1.00  0.00     0.016 A 
ATOM     39  C   UNL A   1      44.559  23.992  24.704  1.00  0.00     0.010 A 
ATOM     40  C   UNL A   1      44.865  22.986  26.892  1.00  0.00     0.010 A 
ATOM     41  C   UNL A   1      44.796  24.130  26.078  1.00  0.00    -0.014 A 
BRANCH  41  42
ATOM     42  C   UNL A   1      45.209  25.433  26.654  1.00  0.00     0.031 A 
ATOM     43  C   UNL A   1      44.133  26.311  27.230  1.00  0.00     0.074 A 
ATOM     44  C   UNL A   1      46.487  25.851  26.623  1.00  0.00     0.049 A 
ATOM     45  N   UNL A   1      44.185  27.564  27.596  1.00  0.00    -0.248 NA
ATOM     46  C   UNL A   1      42.809  25.688  27.395  1.00  0.00     0.031 C 
ATOM     47  C   UNL A   1      47.623  25.060  26.156  1.00  0.00     0.029 A 
ATOM     48  N   UNL A   1      47.035  27.061  26.969  1.00  0.00    -0.354 N 
ATOM     49  C   UNL A   1      42.898  27.888  28.011  1.00  0.00     0.074 A 
ATOM     50  C   UNL A   1      42.084  26.707  27.825  1.00  0.00     0.031 C 
ATOM     51  C   UNL A   1      48.732  25.819  26.216  1.00  0.00     0.029 A 
ATOM     52  C   UNL A   1      48.374  27.163  26.668  1.00  0.00     0.049 A 
ATOM     53  H   UNL A   1      46.520  27.787  27.389  1.00  0.00     0.167 HD
ATOM     54  C   UNL A   1      42.440  29.065  28.500  1.00  0.00     0.034 A 
ATOM     55  C   UNL A   1      49.197  28.232  26.708  1.00  0.00     0.034 A 
ATOM     56  C   UNL A   1      43.269  30.233  28.662  1.00  0.00     0.049 A 
ATOM     57  C   UNL A   1      48.643  29.568  27.152  1.00  0.00     0.074 A 
ATOM     58  C   UNL A   1      42.916  31.478  29.154  1.00  0.00     0.029 A 
ATOM     59  N   UNL A   1      44.614  30.306  28.321  1.00  0.00    -0.354 N 
ATOM     60  N   UNL A   1      47.421  29.874  27.527  1.00  0.00    -0.248 NA
ATOM     61  C   UNL A   1      49.575  30.706  27.176  1.00  0.00     0.031 C 
ATOM     62  C   UNL A   1      44.022  32.323  29.029  1.00  0.00     0.029 A 
ATOM     63  C   UNL A   1      45.094  31.583  28.557  1.00  0.00     0.049 A 
ATOM     64  H   UNL A   1      45.147  29.559  27.962  1.00  0.00     0.167 HD
ATOM     65  C   UNL A   1      47.455  31.224  27.877  1.00  0.00     0.074 A 
ATOM     66  C   UNL A   1      48.813  31.675  27.662  1.00  0.00     0.031 C 
ATOM     67  C   UNL A   1      46.457  32.013  28.347  1.00  0.00     0.034 A 
BRANCH  54  68
ATOM     68  C   UNL A   1      40.970  29.160  28.830  1.00  0.00     0.023 A 
ATOM     69  C   UNL A   1      40.502  29.113  30.154  1.00  0.00     0.031 A 
ATOM     70  C   UNL A   1      40.019  29.268  27.799  1.00  0.00     0.131 A 
ATOM     71  C   UNL A   1      39.123  29.099  30.408  1.00  0.00     0.055 A 
ATOM     72  C   UNL A   1      38.651  29.343  28.064  1.00  0.00     0.041 A 
ATOM     73  F   UNL A   1      40.404  29.288  26.513  1.00  0.00    -0.206 F 
ATOM     74  C   UNL A   1      38.194  29.242  29.375  1.00  0.00     0.022 A 
BRANCH  71  75
ATOM     75  S   UNL A   1      38.558  28.734  32.092  1.00  0.00     0.124 S 
ATOM     76  O   UNL A   1      39.320  29.705  32.874  1.00  0.00    -0.237 OA
ATOM     77  O   UNL A   1      37.123  28.973  32.001  1.00  0.00    -0.237 OA
ATOM     78  O   UNL A   1      38.948  27.340  32.291  1.00  0.00    -0.744 OA
ENDBRANCH  71  75
ENDBRANCH  54  68
BRANCH  55  79
ATOM     79  C   UNL A   1      50.618  28.111  26.267  1.00  0.00     0.023 A 
ATOM     80  C   UNL A   1      50.966  28.223  24.912  1.00  0.00     0.031 A 
ATOM     81  C   UNL A   1      51.644  27.822  27.186  1.00  0.00     0.131 A 
ATOM     82  C   UNL A   1      52.292  27.998  24.508  1.00  0.00     0.055 A 
ATOM     83  C   UNL A   1      52.971  27.661  26.787  1.00  0.00     0.041 A 
ATOM     84  F   UNL A   1      51.368  27.695  28.494  1.00  0.00    -0.206 F 
ATOM     85  C   UNL A   1      53.300  27.735  25.437  1.00  0.00     0.022 A 
BRANCH  82  86
ATOM     86  S   UNL A   1      52.661  27.950  22.731  1.00  0.00     0.124 S 
ATOM     87  O   UNL A   1      53.710  28.956  22.622  1.00  0.00    -0.237 OA
ATOM     88  O   UNL A   1      53.077  26.564  22.546  1.00  0.00    -0.237 OA
ATOM     89  O   UNL A   1      51.387  28.305  22.111  1.00  0.00    -0.744 OA
ENDBRANCH  82  86
ENDBRANCH  55  79
BRANCH  67  90
ATOM     90  C   UNL A   1      46.804  33.427  28.747  1.00  0.00     0.023 A 
ATOM     91  C   UNL A   1      46.735  34.504  27.848  1.00  0.00     0.031 A 
ATOM     92  C   UNL A   1      47.162  33.702  30.082  1.00  0.00     0.131 A 
ATOM     93  C   UNL A   1      47.044  35.801  28.287  1.00  0.00     0.055 A 
ATOM     94  C   UNL A   1      47.410  34.999  30.526  1.00  0.00     0.041 A 
ATOM     95  F   UNL A   1      47.247  32.709  30.983  1.00  0.00    -0.206 F 
ATOM     96  C   UNL A   1      47.358  36.058  29.625  1.00  0.00     0.022 A 
BRANCH  93  97
ATOM     97  S   UNL A   1      47.086  37.150  27.076  1.00  0.00     0.124 S 
ATOM     98  O   UNL A   1      48.490  37.544  27.108  1.00  0.00    -0.237 OA
ATOM     99  O   UNL A   1      46.636  36.490  25.854  1.00  0.00    -0.237 OA
ATOM    100  O   UNL A   1      46.154  38.135  27.625  1.00  0.00    -0.744 OA
ENDBRANCH  93  97
ENDBRANCH  67  90
ENDBRANCH  41  42
ENDBRANCH  34  36
ENDBRANCH  33  34
ENDBRANCH  32  33
ENDBRANCH  31  32
ENDBRANCH  30  31
ENDBRANCH  29  30
ENDBRANCH  28  29
ENDBRANCH  27  28
ENDBRANCH  26  27
ENDBRANCH   1  26
TORSDOF 29
ENDMDL
MODEL 3
REMARK VINA RESULT:      -8.3      4.293      9.118
REMARK SMILES C[C@@H](CC(=O)OCCOCCOCCOCCOC(=O)c1ccc(-c2c3nc(c(-c4cc(S(=O)(=O)[O-])ccc4F)c4ccc([nH]4)c(-c4cc(S(=O)(=O)[O-])ccc4F)c4nc(c(-c5cc(S(=O)(=O)[O-])ccc5F)c5ccc2[nH]5)C=C4)C=C3)cc1)NC(=O)CCCN1C(=O)CN(C)C1=O
REMARK SMILES IDX 10 1 9 2 8 3 7 4 6 5 4 6 5 7 3 8 2 9 1 10 84 11 85 12 86 14
REMARK SMILES IDX 87 15 88 16 89 17 90 18 91 19 96 20 92 21 93 22 94 23 97 24
REMARK SMILES IDX 95 25 11 26 12 27 13 28 14 29 15 30 16 31 17 32 18 33 19 34
REMARK SMILES IDX 20 35 21 36 22 37 83 38 23 39 82 40 24 41 25 42 26 43 76 44
REMARK SMILES IDX 27 45 81 46 75 47 77 48 28 49 80 50 74 51 73 52 29 54 61 55
REMARK SMILES IDX 41 56 60 57 42 58 45 59 59 60 78 61 43 62 44 63 58 65 79 66
REMARK SMILES IDX 46 67 30 68 31 69 39 70 32 71 38 72 40 73 37 74 33 75 34 76
REMARK SMILES IDX 35 77 36 78 62 79 63 80 71 81 64 82 70 83 72 84 69 85 65 86
REMARK SMILES IDX 66 87 67 88 68 89 47 90 48 91 56 92 49 93 55 94 57 95 54 96
REMARK SMILES IDX 50 97 51 98 52 99 53 100
REMARK H PARENT 84 13 77 53 45 64
REMARK Flexibility Score: inf
ROOT
ATOM      1  C   UNL A   1      35.689  22.685  24.831  1.00  0.00     0.188 C 
ENDROOT
BRANCH   1   2
ATOM      2  O   UNL A   1      34.552  21.851  24.715  1.00  0.00    -0.376 OA
BRANCH   2   3
ATOM      3  C   UNL A   1      33.739  21.594  25.860  1.00  0.00     0.202 C 
BRANCH   3   4
ATOM      4  C   UNL A   1      32.214  21.788  25.792  1.00  0.00     0.261 C 
BRANCH   4   5
ATOM      5  O   UNL A   1      31.671  22.432  26.966  1.00  0.00    -0.463 OA
BRANCH   5   6
ATOM      6  C   UNL A   1      31.026  23.599  26.797  1.00  0.00     0.307 C 
ATOM      7  O   UNL A   1      29.895  23.828  27.222  1.00  0.00    -0.252 OA
BRANCH   6   8
ATOM      8  C   UNL A   1      31.809  24.697  26.098  1.00  0.00     0.147 C 
BRANCH   8   9
ATOM      9  C   UNL A   1      31.714  25.054  24.606  1.00  0.00     0.090 C 
ATOM     10  C   UNL A   1      30.338  25.098  23.963  1.00  0.00     0.031 C 
BRANCH   9  11
ATOM     11  N   UNL A   1      32.664  24.378  23.724  1.00  0.00    -0.353 N 
ATOM     12  C   UNL A   1      33.240  24.779  22.555  1.00  0.00     0.220 C 
ATOM     13  H   UNL A   1      32.932  23.480  24.024  1.00  0.00     0.163 HD
ATOM     14  O   UNL A   1      34.014  24.011  21.978  1.00  0.00    -0.275 OA
BRANCH  12  15
ATOM     15  C   UNL A   1      32.969  26.158  21.989  1.00  0.00     0.102 C 
BRANCH  15  16
ATOM     16  C   UNL A   1      34.061  27.200  22.258  1.00  0.00     0.032 C 
BRANCH  16  17
ATOM     17  C   UNL A   1      33.630  28.674  22.324  1.00  0.00     0.131 C 
BRANCH  17  18
ATOM     18  N   UNL A   1      32.436  28.966  23.109  1.00  0.00    -0.263 N 
ATOM     19  C   UNL A   1      32.387  28.886  24.477  1.00  0.00     0.250 C 
ATOM     20  C   UNL A   1      31.202  29.287  22.617  1.00  0.00     0.326 C 
ATOM     21  O   UNL A   1      33.303  28.575  25.224  1.00  0.00    -0.272 OA
ATOM     22  C   UNL A   1      31.010  29.303  24.954  1.00  0.00     0.221 C 
ATOM     23  N   UNL A   1      30.365  29.540  23.690  1.00  0.00    -0.318 N 
ATOM     24  O   UNL A   1      30.878  29.366  21.443  1.00  0.00    -0.248 OA
ATOM     25  C   UNL A   1      28.989  29.955  23.595  1.00  0.00     0.149 C 
ENDBRANCH  17  18
ENDBRANCH  16  17
ENDBRANCH  15  16
ENDBRANCH  12  15
ENDBRANCH   9  11
ENDBRANCH   8   9
ENDBRANCH   6   8
ENDBRANCH   5   6
ENDBRANCH   4   5
ENDBRANCH   3   4
ENDBRANCH   2   3
ENDBRANCH   1   2
BRANCH   1  26
ATOM     26  C   UNL A   1      36.943  22.380  24.011  1.00  0.00     0.188 C 
BRANCH  26  27
ATOM     27  O   UNL A   1      37.429  21.054  24.075  1.00  0.00    -0.377 OA
BRANCH  27  28
ATOM     28  C   UNL A   1      37.615  20.409  25.331  1.00  0.00     0.188 C 
BRANCH  28  29
ATOM     29  C   UNL A   1      38.946  19.708  25.611  1.00  0.00     0.188 C 
BRANCH  29  30
ATOM     30  O   UNL A   1      40.044  20.596  25.654  1.00  0.00    -0.376 OA
BRANCH  30  31
ATOM     31  C   UNL A   1      40.663  20.986  26.866  1.00  0.00     0.202 C 
BRANCH  31  32
ATOM     32  C   UNL A   1      41.527  22.246  27.055  1.00  0.00     0.261 C 
BRANCH  32  33
ATOM     33  O   UNL A   1      41.051  23.504  26.574  1.00  0.00    -0.460 OA
BRANCH  33  34
ATOM     34  C   UNL A   1      39.766  23.838  26.784  1.00  0.00     0.338 C 
ATOM     35  O   UNL A   1      38.793  23.109  26.700  1.00  0.00    -0.246 OA
BRANCH  34  36
ATOM     36  C   UNL A   1      39.776  25.223  27.300  1.00  0.00     0.060 A 
ATOM     37  C   UNL A   1      40.292  26.258  26.509  1.00  0.00     0.016 A 
ATOM     38  C   UNL A   1      39.270  25.489  28.574  1.00  0.00     0.016 A 
ATOM     39  C   UNL A   1      40.352  27.560  27.015  1.00  0.00     0.010 A 
ATOM     40  C   UNL A   1      39.346  26.785  29.085  1.00  0.00     0.010 A 
ATOM     41  C   UNL A   1      39.924  27.817  28.324  1.00  0.00    -0.014 A 
BRANCH  41  42
ATOM     42  C   UNL A   1      40.279  29.084  29.009  1.00  0.00     0.031 A 
ATOM     43  C   UNL A   1      41.735  29.342  29.283  1.00  0.00     0.074 A 
ATOM     44  C   UNL A   1      39.342  29.954  29.425  1.00  0.00     0.049 A 
ATOM     45  N   UNL A   1      42.294  30.249  30.039  1.00  0.00    -0.248 NA
ATOM     46  C   UNL A   1      42.688  28.436  28.620  1.00  0.00     0.031 C 
ATOM     47  C   UNL A   1      37.910  29.845  29.157  1.00  0.00     0.029 A 
ATOM     48  N   UNL A   1      39.460  31.089  30.188  1.00  0.00    -0.354 N 
ATOM     49  C   UNL A   1      43.662  30.007  29.966  1.00  0.00     0.074 A 
ATOM     50  C   UNL A   1      43.843  28.854  29.112  1.00  0.00     0.031 C 
ATOM     51  C   UNL A   1      37.276  30.858  29.774  1.00  0.00     0.029 A 
ATOM     52  C   UNL A   1      38.249  31.650  30.527  1.00  0.00     0.049 A 
ATOM     53  H   UNL A   1      40.325  31.465  30.468  1.00  0.00     0.167 HD
ATOM     54  C   UNL A   1      44.672  30.687  30.560  1.00  0.00     0.034 A 
ATOM     55  C   UNL A   1      37.962  32.653  31.383  1.00  0.00     0.034 A 
ATOM     56  C   UNL A   1      44.465  31.826  31.419  1.00  0.00     0.049 A 
ATOM     57  C   UNL A   1      39.094  33.331  32.125  1.00  0.00     0.074 A 
ATOM     58  C   UNL A   1      45.411  32.597  32.069  1.00  0.00     0.029 A 
ATOM     59  N   UNL A   1      43.223  32.347  31.760  1.00  0.00    -0.354 N 
ATOM     60  N   UNL A   1      40.385  33.088  32.065  1.00  0.00    -0.248 NA
ATOM     61  C   UNL A   1      38.735  34.415  33.051  1.00  0.00     0.031 C 
ATOM     62  C   UNL A   1      44.740  33.527  32.868  1.00  0.00     0.029 A 
ATOM     63  C   UNL A   1      43.379  33.406  32.639  1.00  0.00     0.049 A 
ATOM     64  H   UNL A   1      42.359  32.013  31.426  1.00  0.00     0.167 HD
ATOM     65  C   UNL A   1      40.989  34.021  32.907  1.00  0.00     0.074 A 
ATOM     66  C   UNL A   1      39.924  34.826  33.467  1.00  0.00     0.031 C 
ATOM     67  C   UNL A   1      42.305  34.206  33.180  1.00  0.00     0.034 A 
BRANCH  54  68
ATOM     68  C   UNL A   1      46.076  30.175  30.350  1.00  0.00     0.023 A 
ATOM     69  C   UNL A   1      46.838  30.538  29.227  1.00  0.00     0.031 A 
ATOM     70  C   UNL A   1      46.650  29.284  31.274  1.00  0.00     0.131 A 
ATOM     71  C   UNL A   1      48.098  29.957  29.019  1.00  0.00     0.055 A 
ATOM     72  C   UNL A   1      47.939  28.777  31.107  1.00  0.00     0.041 A 
ATOM     73  F   UNL A   1      45.959  28.877  32.352  1.00  0.00    -0.206 F 
ATOM     74  C   UNL A   1      48.666  29.101  29.965  1.00  0.00     0.022 A 
BRANCH  71  75
ATOM     75  S   UNL A   1      48.915  30.215  27.421  1.00  0.00     0.124 S 
ATOM     76  O   UNL A   1      49.849  31.292  27.738  1.00  0.00    -0.237 OA
ATOM     77  O   UNL A   1      49.511  28.910  27.158  1.00  0.00    -0.237 OA
ATOM     78  O   UNL A   1      47.819  30.592  26.531  1.00  0.00    -0.744 OA
ENDBRANCH  71  75
ENDBRANCH  54  68
BRANCH  55  79
ATOM     79  C   UNL A   1      36.547  33.050  31.639  1.00  0.00     0.023 A 
ATOM     80  C   UNL A   1      35.820  33.789  30.693  1.00  0.00     0.031 A 
ATOM     81  C   UNL A   1      35.916  32.749  32.861  1.00  0.00     0.131 A 
ATOM     82  C   UNL A   1      34.528  34.245  31.001  1.00  0.00     0.055 A 
ATOM     83  C   UNL A   1      34.608  33.150  33.138  1.00  0.00     0.041 A 
ATOM     84  F   UNL A   1      36.565  32.052  33.808  1.00  0.00    -0.206 F 
ATOM     85  C   UNL A   1      33.911  33.916  32.209  1.00  0.00     0.022 A 
BRANCH  82  86
ATOM     86  S   UNL A   1      33.704  35.367  29.837  1.00  0.00     0.124 S 
ATOM     87  O   UNL A   1      34.734  35.542  28.819  1.00  0.00    -0.237 OA
ATOM     88  O   UNL A   1      32.536  34.588  29.441  1.00  0.00    -0.237 OA
ATOM     89  O   UNL A   1      33.420  36.548  30.648  1.00  0.00    -0.744 OA
ENDBRANCH  82  86
ENDBRANCH  55  79
BRANCH  67  90
ATOM     90  C   UNL A   1      42.687  35.373  34.058  1.00  0.00     0.023 A 
ATOM     91  C   UNL A   1      42.684  35.295  35.460  1.00  0.00     0.031 A 
ATOM     92  C   UNL A   1      43.117  36.576  33.463  1.00  0.00     0.131 A 
ATOM     93  C   UNL A   1      43.077  36.407  36.222  1.00  0.00     0.055 A 
ATOM     94  C   UNL A   1      43.561  37.656  34.224  1.00  0.00     0.041 A 
ATOM     95  F   UNL A   1      43.136  36.707  32.126  1.00  0.00    -0.206 F 
ATOM     96  C   UNL A   1      43.537  37.578  35.612  1.00  0.00     0.022 A 
BRANCH  93  97
ATOM     97  S   UNL A   1      42.928  36.329  38.028  1.00  0.00     0.124 S 
ATOM     98  O   UNL A   1      44.147  37.003  38.462  1.00  0.00    -0.237 OA
ATOM     99  O   UNL A   1      41.681  37.047  38.272  1.00  0.00    -0.237 OA
ATOM    100  O   UNL A   1      42.880  34.895  38.308  1.00  0.00    -0.744 OA
ENDBRANCH  93  97
ENDBRANCH  67  90
ENDBRANCH  41  42
ENDBRANCH  34  36
ENDBRANCH  33  34
ENDBRANCH  32  33
ENDBRANCH  31  32
ENDBRANCH  30  31
ENDBRANCH  29  30
ENDBRANCH  28  29
ENDBRANCH  27  28
ENDBRANCH  26  27
ENDBRANCH   1  26
TORSDOF 29
ENDMDL
