MODEL 1
REMARK VINA RESULT:      -6.8      0.000      0.000
REMARK SMILES C[NH2+]C[C@H](C)C(=O)N1CCc2cc(C(=O)OCCOCCOCCOCCOC(=O)c3ccc(-c4c5nc(c(-c6cc(S(=O)(=O)[O-])ccc6F)c6ccc([nH]6)c(-c6cc(S(=O)(=O)[O-])ccc6F)c6nc(c(-c7cc(S(=O)(=O)[O-])ccc7F)c7ccc4[nH]7)C=C6)C=C5)cc3)ccc21
REMARK SMILES IDX 21 1 20 2 19 3 18 4 17 5 16 6 14 7 15 8 13 9 8 10 9 11 96 12
REMARK SMILES IDX 10 13 11 14 95 15 12 16 94 17 6 18 7 19 4 20 5 21 3 22 2 23
REMARK SMILES IDX 1 24 22 27 23 28 24 29 25 30 26 31 27 32 28 33 29 34 30 35
REMARK SMILES IDX 31 36 32 37 93 38 33 39 92 40 34 41 35 42 36 43 86 44 37 45
REMARK SMILES IDX 91 46 85 47 87 48 38 49 90 50 84 51 83 52 39 54 71 55 51 56
REMARK SMILES IDX 70 57 52 58 55 59 69 60 88 61 53 62 54 63 68 65 89 66 56 67
REMARK SMILES IDX 40 68 41 69 49 70 42 71 48 72 50 73 47 74 43 75 44 76 45 77
REMARK SMILES IDX 46 78 72 79 73 80 81 81 74 82 80 83 82 84 79 85 75 86 76 87
REMARK SMILES IDX 77 88 78 89 57 90 58 91 66 92 59 93 65 94 67 95 64 96 60 97
REMARK SMILES IDX 61 98 62 99 63 100
REMARK H PARENT 2 25 2 26 87 53 55 64
REMARK Flexibility Score: inf
ROOT
ATOM      1  C   UNL A   1      39.786  33.664  32.493  1.00  0.00     0.188 C 
ENDROOT
BRANCH   1   2
ATOM      2  C   UNL A   1      38.435  33.028  32.872  1.00  0.00     0.188 C 
BRANCH   2   3
ATOM      3  O   UNL A   1      38.237  32.875  34.264  1.00  0.00    -0.376 OA
BRANCH   3   4
ATOM      4  C   UNL A   1      39.293  32.529  35.142  1.00  0.00     0.202 C 
BRANCH   4   5
ATOM      5  C   UNL A   1      39.610  31.099  35.613  1.00  0.00     0.261 C 
BRANCH   5   6
ATOM      6  O   UNL A   1      40.756  30.467  35.050  1.00  0.00    -0.460 OA
BRANCH   6   7
ATOM      7  C   UNL A   1      41.096  29.245  35.503  1.00  0.00     0.338 C 
ATOM      8  O   UNL A   1      40.660  28.673  36.484  1.00  0.00    -0.246 OA
BRANCH   7   9
ATOM      9  C   UNL A   1      41.948  28.617  34.462  1.00  0.00     0.060 A 
ATOM     10  N   UNL A   1      44.420  26.646  31.751  1.00  0.00    -0.311 N 
ATOM     11  C   UNL A   1      44.652  25.376  32.465  1.00  0.00     0.130 C 
ATOM     12  C   UNL A   1      43.511  27.402  32.501  1.00  0.00     0.047 A 
ATOM     13  C   UNL A   1      43.675  25.317  33.639  1.00  0.00     0.059 C 
ATOM     14  C   UNL A   1      43.201  26.734  33.689  1.00  0.00    -0.022 A 
ATOM     15  C   UNL A   1      42.875  28.588  32.213  1.00  0.00     0.027 A 
ATOM     16  C   UNL A   1      42.447  27.331  34.691  1.00  0.00     0.021 A 
ATOM     17  C   UNL A   1      42.121  29.220  33.204  1.00  0.00     0.018 A 
BRANCH  10  18
ATOM     18  C   UNL A   1      45.239  26.939  30.683  1.00  0.00     0.235 C 
ATOM     19  O   UNL A   1      44.831  26.703  29.533  1.00  0.00    -0.274 OA
BRANCH  18  20
ATOM     20  C   UNL A   1      46.728  27.300  30.830  1.00  0.00     0.131 C 
ATOM     21  C   UNL A   1      47.412  28.120  29.749  1.00  0.00     0.024 C 
BRANCH  20  22
ATOM     22  C   UNL A   1      47.027  27.848  32.240  1.00  0.00     0.273 C 
BRANCH  22  23
ATOM     23  N   UNL A   1      48.381  27.540  32.729  1.00  0.00    -0.348 N 
ATOM     24  C   UNL A   1      48.665  28.187  34.006  1.00  0.00     0.330 C 
ATOM     25  H   UNL A   1      48.467  26.531  32.846  1.00  0.00     0.346 HD
ATOM     26  H   UNL A   1      49.049  27.893  32.044  1.00  0.00     0.346 HD
ENDBRANCH  22  23
ENDBRANCH  20  22
ENDBRANCH  18  20
ENDBRANCH  10  18
ENDBRANCH   7   9
ENDBRANCH   6   7
ENDBRANCH   5   6
ENDBRANCH   4   5
ENDBRANCH   3   4
ENDBRANCH   2   3
ENDBRANCH   1   2
BRANCH   1  27
ATOM     27  O   UNL A   1      39.729  34.549  31.388  1.00  0.00    -0.377 OA
BRANCH  27  28
ATOM     28  C   UNL A   1      40.954  34.994  30.800  1.00  0.00     0.188 C 
BRANCH  28  29
ATOM     29  C   UNL A   1      41.045  35.523  29.345  1.00  0.00     0.188 C 
BRANCH  29  30
ATOM     30  O   UNL A   1      42.338  35.952  28.944  1.00  0.00    -0.376 OA
BRANCH  30  31
ATOM     31  C   UNL A   1      42.565  37.338  28.768  1.00  0.00     0.202 C 
BRANCH  31  32
ATOM     32  C   UNL A   1      43.902  37.878  29.293  1.00  0.00     0.261 C 
BRANCH  32  33
ATOM     33  O   UNL A   1      45.059  37.534  28.520  1.00  0.00    -0.460 OA
BRANCH  33  34
ATOM     34  C   UNL A   1      46.006  36.793  29.137  1.00  0.00     0.338 C 
ATOM     35  O   UNL A   1      46.889  37.202  29.874  1.00  0.00    -0.246 OA
BRANCH  34  36
ATOM     36  C   UNL A   1      45.668  35.371  28.928  1.00  0.00     0.060 A 
ATOM     37  C   UNL A   1      45.269  34.945  27.655  1.00  0.00     0.016 A 
ATOM     38  C   UNL A   1      45.764  34.462  29.984  1.00  0.00     0.016 A 
ATOM     39  C   UNL A   1      44.927  33.609  27.444  1.00  0.00     0.010 A 
ATOM     40  C   UNL A   1      45.405  33.128  29.774  1.00  0.00     0.010 A 
ATOM     41  C   UNL A   1      44.953  32.703  28.512  1.00  0.00    -0.014 A 
BRANCH  41  42
ATOM     42  C   UNL A   1      44.324  31.368  28.358  1.00  0.00     0.031 A 
ATOM     43  C   UNL A   1      45.058  30.322  27.563  1.00  0.00     0.074 A 
ATOM     44  C   UNL A   1      43.140  31.081  28.925  1.00  0.00     0.049 A 
ATOM     45  N   UNL A   1      44.695  29.107  27.248  1.00  0.00    -0.248 NA
ATOM     46  C   UNL A   1      46.377  30.714  27.045  1.00  0.00     0.031 C 
ATOM     47  C   UNL A   1      42.357  31.997  29.751  1.00  0.00     0.029 A 
ATOM     48  N   UNL A   1      42.385  29.935  28.882  1.00  0.00    -0.354 N 
ATOM     49  C   UNL A   1      45.737  28.589  26.485  1.00  0.00     0.074 A 
ATOM     50  C   UNL A   1      46.722  29.642  26.350  1.00  0.00     0.031 C 
ATOM     51  C   UNL A   1      41.223  31.381  30.127  1.00  0.00     0.029 A 
ATOM     52  C   UNL A   1      41.181  30.044  29.534  1.00  0.00     0.049 A 
ATOM     53  H   UNL A   1      42.680  29.114  28.427  1.00  0.00     0.167 HD
ATOM     54  C   UNL A   1      45.862  27.348  25.952  1.00  0.00     0.034 A 
ATOM     55  C   UNL A   1      40.150  29.178  29.617  1.00  0.00     0.034 A 
ATOM     56  C   UNL A   1      44.858  26.319  26.083  1.00  0.00     0.049 A 
ATOM     57  C   UNL A   1      40.267  27.832  28.943  1.00  0.00     0.074 A 
ATOM     58  C   UNL A   1      44.890  25.020  25.611  1.00  0.00     0.029 A 
ATOM     59  N   UNL A   1      43.628  26.480  26.712  1.00  0.00    -0.354 N 
ATOM     60  N   UNL A   1      41.265  27.340  28.244  1.00  0.00    -0.248 NA
ATOM     61  C   UNL A   1      39.124  26.922  29.079  1.00  0.00     0.031 C 
ATOM     62  C   UNL A   1      43.648  24.428  25.869  1.00  0.00     0.029 A 
ATOM     63  C   UNL A   1      42.875  25.321  26.594  1.00  0.00     0.049 A 
ATOM     64  H   UNL A   1      43.335  27.299  27.173  1.00  0.00     0.167 HD
ATOM     65  C   UNL A   1      40.878  26.053  27.879  1.00  0.00     0.074 A 
ATOM     66  C   UNL A   1      39.562  25.841  28.448  1.00  0.00     0.031 C 
ATOM     67  C   UNL A   1      41.552  25.126  27.147  1.00  0.00     0.034 A 
BRANCH  54  68
ATOM     68  C   UNL A   1      47.097  27.073  25.125  1.00  0.00     0.023 A 
ATOM     69  C   UNL A   1      47.323  27.708  23.890  1.00  0.00     0.031 A 
ATOM     70  C   UNL A   1      48.032  26.112  25.548  1.00  0.00     0.131 A 
ATOM     71  C   UNL A   1      48.396  27.304  23.081  1.00  0.00     0.055 A 
ATOM     72  C   UNL A   1      49.154  25.786  24.781  1.00  0.00     0.041 A 
ATOM     73  F   UNL A   1      47.860  25.452  26.703  1.00  0.00    -0.206 F 
ATOM     74  C   UNL A   1      49.330  26.368  23.529  1.00  0.00     0.022 A 
BRANCH  71  75
ATOM     75  S   UNL A   1      48.444  27.878  21.359  1.00  0.00     0.124 S 
ATOM     76  O   UNL A   1      47.023  27.909  21.020  1.00  0.00    -0.237 OA
ATOM     77  O   UNL A   1      49.102  29.173  21.477  1.00  0.00    -0.237 OA
ATOM     78  O   UNL A   1      49.217  26.843  20.675  1.00  0.00    -0.744 OA
ENDBRANCH  71  75
ENDBRANCH  54  68
BRANCH  55  79
ATOM     79  C   UNL A   1      38.897  29.574  30.324  1.00  0.00     0.023 A 
ATOM     80  C   UNL A   1      37.996  30.492  29.764  1.00  0.00     0.031 A 
ATOM     81  C   UNL A   1      38.598  29.047  31.594  1.00  0.00     0.131 A 
ATOM     82  C   UNL A   1      36.852  30.876  30.483  1.00  0.00     0.055 A 
ATOM     83  C   UNL A   1      37.433  29.392  32.282  1.00  0.00     0.041 A 
ATOM     84  F   UNL A   1      39.430  28.169  32.179  1.00  0.00    -0.206 F 
ATOM     85  C   UNL A   1      36.556  30.318  31.730  1.00  0.00     0.022 A 
BRANCH  82  86
ATOM     86  S   UNL A   1      35.779  32.165  29.792  1.00  0.00     0.124 S 
ATOM     87  O   UNL A   1      35.185  32.733  30.997  1.00  0.00    -0.237 OA
ATOM     88  O   UNL A   1      36.735  33.011  29.086  1.00  0.00    -0.237 OA
ATOM     89  O   UNL A   1      34.859  31.418  28.934  1.00  0.00    -0.744 OA
ENDBRANCH  82  86
ENDBRANCH  55  79
BRANCH  67  90
ATOM     90  C   UNL A   1      40.891  23.779  26.955  1.00  0.00     0.023 A 
ATOM     91  C   UNL A   1      39.743  23.618  26.161  1.00  0.00     0.031 A 
ATOM     92  C   UNL A   1      41.420  22.637  27.585  1.00  0.00     0.131 A 
ATOM     93  C   UNL A   1      39.125  22.360  26.067  1.00  0.00     0.055 A 
ATOM     94  C   UNL A   1      40.844  21.375  27.428  1.00  0.00     0.041 A 
ATOM     95  F   UNL A   1      42.512  22.726  28.361  1.00  0.00    -0.206 F 
ATOM     96  C   UNL A   1      39.682  21.234  26.678  1.00  0.00     0.022 A 
BRANCH  93  97
ATOM     97  S   UNL A   1      37.521  22.236  25.229  1.00  0.00     0.124 S 
ATOM     98  O   UNL A   1      36.598  22.141  26.356  1.00  0.00    -0.237 OA
ATOM     99  O   UNL A   1      37.470  23.477  24.465  1.00  0.00    -0.237 OA
ATOM    100  O   UNL A   1      37.646  21.019  24.428  1.00  0.00    -0.744 OA
ENDBRANCH  93  97
ENDBRANCH  67  90
ENDBRANCH  41  42
ENDBRANCH  34  36
ENDBRANCH  33  34
ENDBRANCH  32  33
ENDBRANCH  31  32
ENDBRANCH  30  31
ENDBRANCH  29  30
ENDBRANCH  28  29
ENDBRANCH  27  28
ENDBRANCH   1  27
TORSDOF 27
ENDMDL
MODEL 2
REMARK VINA RESULT:      -6.2      3.092      4.821
REMARK SMILES C[NH2+]C[C@H](C)C(=O)N1CCc2cc(C(=O)OCCOCCOCCOCCOC(=O)c3ccc(-c4c5nc(c(-c6cc(S(=O)(=O)[O-])ccc6F)c6ccc([nH]6)c(-c6cc(S(=O)(=O)[O-])ccc6F)c6nc(c(-c7cc(S(=O)(=O)[O-])ccc7F)c7ccc4[nH]7)C=C6)C=C5)cc3)ccc21
REMARK SMILES IDX 21 1 20 2 19 3 18 4 17 5 16 6 14 7 15 8 13 9 8 10 9 11 96 12
REMARK SMILES IDX 10 13 11 14 95 15 12 16 94 17 6 18 7 19 4 20 5 21 3 22 2 23
REMARK SMILES IDX 1 24 22 27 23 28 24 29 25 30 26 31 27 32 28 33 29 34 30 35
REMARK SMILES IDX 31 36 32 37 93 38 33 39 92 40 34 41 35 42 36 43 86 44 37 45
REMARK SMILES IDX 91 46 85 47 87 48 38 49 90 50 84 51 83 52 39 54 71 55 51 56
REMARK SMILES IDX 70 57 52 58 55 59 69 60 88 61 53 62 54 63 68 65 89 66 56 67
REMARK SMILES IDX 40 68 41 69 49 70 42 71 48 72 50 73 47 74 43 75 44 76 45 77
REMARK SMILES IDX 46 78 72 79 73 80 81 81 74 82 80 83 82 84 79 85 75 86 76 87
REMARK SMILES IDX 77 88 78 89 57 90 58 91 66 92 59 93 65 94 67 95 64 96 60 97
REMARK SMILES IDX 61 98 62 99 63 100
REMARK H PARENT 2 25 2 26 87 53 55 64
REMARK Flexibility Score: inf
ROOT
ATOM      1  C   UNL A   1      39.570  33.499  32.407  1.00  0.00     0.188 C 
ENDROOT
BRANCH   1   2
ATOM      2  C   UNL A   1      38.211  32.858  32.748  1.00  0.00     0.188 C 
BRANCH   2   3
ATOM      3  O   UNL A   1      37.768  33.106  34.068  1.00  0.00    -0.376 OA
BRANCH   3   4
ATOM      4  C   UNL A   1      38.359  34.100  34.886  1.00  0.00     0.202 C 
BRANCH   4   5
ATOM      5  C   UNL A   1      38.967  33.845  36.276  1.00  0.00     0.261 C 
BRANCH   5   6
ATOM      6  O   UNL A   1      40.235  34.433  36.551  1.00  0.00    -0.460 OA
BRANCH   6   7
ATOM      7  C   UNL A   1      40.312  35.775  36.621  1.00  0.00     0.338 C 
ATOM      8  O   UNL A   1      39.549  36.530  37.194  1.00  0.00    -0.246 OA
BRANCH   7   9
ATOM      9  C   UNL A   1      41.628  36.165  36.054  1.00  0.00     0.060 A 
ATOM     10  N   UNL A   1      45.248  37.092  34.215  1.00  0.00    -0.311 N 
ATOM     11  C   UNL A   1      44.972  36.655  32.832  1.00  0.00     0.130 C 
ATOM     12  C   UNL A   1      44.072  36.933  34.959  1.00  0.00     0.047 A 
ATOM     13  C   UNL A   1      43.474  36.376  32.722  1.00  0.00     0.059 C 
ATOM     14  C   UNL A   1      43.079  36.351  34.164  1.00  0.00    -0.022 A 
ATOM     15  C   UNL A   1      43.765  37.311  36.246  1.00  0.00     0.027 A 
ATOM     16  C   UNL A   1      41.866  35.936  34.695  1.00  0.00     0.021 A 
ATOM     17  C   UNL A   1      42.557  36.898  36.812  1.00  0.00     0.018 A 
BRANCH  10  18
ATOM     18  C   UNL A   1      46.558  37.341  34.559  1.00  0.00     0.235 C 
ATOM     19  O   UNL A   1      47.343  36.382  34.656  1.00  0.00    -0.274 OA
BRANCH  18  20
ATOM     20  C   UNL A   1      47.054  38.699  35.083  1.00  0.00     0.131 C 
ATOM     21  C   UNL A   1      46.338  39.973  34.668  1.00  0.00     0.024 C 
BRANCH  20  22
ATOM     22  C   UNL A   1      47.294  38.649  36.606  1.00  0.00     0.273 C 
BRANCH  22  23
ATOM     23  N   UNL A   1      48.483  37.875  37.001  1.00  0.00    -0.348 N 
ATOM     24  C   UNL A   1      49.714  38.442  36.460  1.00  0.00     0.330 C 
ATOM     25  H   UNL A   1      48.546  37.866  38.019  1.00  0.00     0.346 HD
ATOM     26  H   UNL A   1      48.381  36.932  36.627  1.00  0.00     0.346 HD
ENDBRANCH  22  23
ENDBRANCH  20  22
ENDBRANCH  18  20
ENDBRANCH  10  18
ENDBRANCH   7   9
ENDBRANCH   6   7
ENDBRANCH   5   6
ENDBRANCH   4   5
ENDBRANCH   3   4
ENDBRANCH   2   3
ENDBRANCH   1   2
BRANCH   1  27
ATOM     27  O   UNL A   1      39.563  34.304  31.241  1.00  0.00    -0.377 OA
BRANCH  27  28
ATOM     28  C   UNL A   1      40.812  34.758  30.712  1.00  0.00     0.188 C 
BRANCH  28  29
ATOM     29  C   UNL A   1      40.975  35.253  29.251  1.00  0.00     0.188 C 
BRANCH  29  30
ATOM     30  O   UNL A   1      42.292  35.653  28.899  1.00  0.00    -0.376 OA
BRANCH  30  31
ATOM     31  C   UNL A   1      42.545  37.029  28.684  1.00  0.00     0.202 C 
BRANCH  31  32
ATOM     32  C   UNL A   1      43.867  37.571  29.243  1.00  0.00     0.261 C 
BRANCH  32  33
ATOM     33  O   UNL A   1      45.048  37.204  28.517  1.00  0.00    -0.460 OA
BRANCH  33  34
ATOM     34  C   UNL A   1      45.973  36.480  29.184  1.00  0.00     0.338 C 
ATOM     35  O   UNL A   1      46.827  36.909  29.945  1.00  0.00    -0.246 OA
BRANCH  34  36
ATOM     36  C   UNL A   1      45.649  35.053  28.992  1.00  0.00     0.060 A 
ATOM     37  C   UNL A   1      45.307  34.597  27.713  1.00  0.00     0.016 A 
ATOM     38  C   UNL A   1      45.701  34.167  30.071  1.00  0.00     0.016 A 
ATOM     39  C   UNL A   1      44.979  33.256  27.516  1.00  0.00     0.010 A 
ATOM     40  C   UNL A   1      45.356  32.828  29.875  1.00  0.00     0.010 A 
ATOM     41  C   UNL A   1      44.961  32.374  28.604  1.00  0.00    -0.014 A 
BRANCH  41  42
ATOM     42  C   UNL A   1      44.343  31.033  28.453  1.00  0.00     0.031 A 
ATOM     43  C   UNL A   1      45.141  29.954  27.772  1.00  0.00     0.074 A 
ATOM     44  C   UNL A   1      43.112  30.771  28.923  1.00  0.00     0.049 A 
ATOM     45  N   UNL A   1      44.803  28.726  27.480  1.00  0.00    -0.248 NA
ATOM     46  C   UNL A   1      46.503  30.323  27.358  1.00  0.00     0.031 C 
ATOM     47  C   UNL A   1      42.262  31.722  29.635  1.00  0.00     0.029 A 
ATOM     48  N   UNL A   1      42.360  29.624  28.862  1.00  0.00    -0.354 N 
ATOM     49  C   UNL A   1      45.907  28.175  26.836  1.00  0.00     0.074 A 
ATOM     50  C   UNL A   1      46.904  29.221  26.744  1.00  0.00     0.031 C 
ATOM     51  C   UNL A   1      41.096  31.123  29.934  1.00  0.00     0.029 A 
ATOM     52  C   UNL A   1      41.102  29.761  29.399  1.00  0.00     0.049 A 
ATOM     53  H   UNL A   1      42.690  28.784  28.472  1.00  0.00     0.167 HD
ATOM     54  C   UNL A   1      46.075  26.912  26.371  1.00  0.00     0.034 A 
ATOM     55  C   UNL A   1      40.064  28.900  29.426  1.00  0.00     0.034 A 
ATOM     56  C   UNL A   1      45.059  25.889  26.455  1.00  0.00     0.049 A 
ATOM     57  C   UNL A   1      40.237  27.525  28.825  1.00  0.00     0.074 A 
ATOM     58  C   UNL A   1      45.128  24.571  26.045  1.00  0.00     0.029 A 
ATOM     59  N   UNL A   1      43.779  26.078  26.964  1.00  0.00    -0.354 N 
ATOM     60  N   UNL A   1      41.291  27.004  28.239  1.00  0.00    -0.248 NA
ATOM     61  C   UNL A   1      39.082  26.622  28.896  1.00  0.00     0.031 C 
ATOM     62  C   UNL A   1      43.866  23.991  26.216  1.00  0.00     0.029 A 
ATOM     63  C   UNL A   1      43.034  24.915  26.830  1.00  0.00     0.049 A 
ATOM     64  H   UNL A   1      43.448  26.916  27.361  1.00  0.00     0.167 HD
ATOM     65  C   UNL A   1      40.933  25.701  27.897  1.00  0.00     0.074 A 
ATOM     66  C   UNL A   1      39.571  25.515  28.356  1.00  0.00     0.031 C 
ATOM     67  C   UNL A   1      41.667  24.744  27.270  1.00  0.00     0.034 A 
BRANCH  54  68
ATOM     68  C   UNL A   1      47.377  26.602  25.670  1.00  0.00     0.023 A 
ATOM     69  C   UNL A   1      48.444  25.963  26.328  1.00  0.00     0.031 A 
ATOM     70  C   UNL A   1      47.580  27.011  24.339  1.00  0.00     0.131 A 
ATOM     71  C   UNL A   1      49.688  25.842  25.690  1.00  0.00     0.055 A 
ATOM     72  C   UNL A   1      48.790  26.797  23.677  1.00  0.00     0.041 A 
ATOM     73  F   UNL A   1      46.610  27.649  23.665  1.00  0.00    -0.206 F 
ATOM     74  C   UNL A   1      49.862  26.228  24.360  1.00  0.00     0.022 A 
BRANCH  71  75
ATOM     75  S   UNL A   1      51.125  25.349  26.685  1.00  0.00     0.124 S 
ATOM     76  O   UNL A   1      50.515  24.440  27.653  1.00  0.00    -0.237 OA
ATOM     77  O   UNL A   1      52.000  24.736  25.694  1.00  0.00    -0.237 OA
ATOM     78  O   UNL A   1      51.602  26.613  27.245  1.00  0.00    -0.744 OA
ENDBRANCH  71  75
ENDBRANCH  54  68
BRANCH  55  79
ATOM     79  C   UNL A   1      38.755  29.326  30.000  1.00  0.00     0.023 A 
ATOM     80  C   UNL A   1      37.865  30.136  29.279  1.00  0.00     0.031 A 
ATOM     81  C   UNL A   1      38.388  28.940  31.303  1.00  0.00     0.131 A 
ATOM     82  C   UNL A   1      36.664  30.556  29.873  1.00  0.00     0.055 A 
ATOM     83  C   UNL A   1      37.169  29.316  31.870  1.00  0.00     0.041 A 
ATOM     84  F   UNL A   1      39.206  28.170  32.039  1.00  0.00    -0.206 F 
ATOM     85  C   UNL A   1      36.302  30.136  31.157  1.00  0.00     0.022 A 
BRANCH  82  86
ATOM     86  S   UNL A   1      35.599  31.712  28.967  1.00  0.00     0.124 S 
ATOM     87  O   UNL A   1      36.579  32.605  28.360  1.00  0.00    -0.237 OA
ATOM     88  O   UNL A   1      34.890  30.820  28.055  1.00  0.00    -0.237 OA
ATOM     89  O   UNL A   1      34.775  32.309  30.017  1.00  0.00    -0.744 OA
ENDBRANCH  82  86
ENDBRANCH  55  79
BRANCH  67  90
ATOM     90  C   UNL A   1      41.020  23.390  27.078  1.00  0.00     0.023 A 
ATOM     91  C   UNL A   1      39.899  23.209  26.250  1.00  0.00     0.031 A 
ATOM     92  C   UNL A   1      41.536  22.261  27.743  1.00  0.00     0.131 A 
ATOM     93  C   UNL A   1      39.292  21.946  26.157  1.00  0.00     0.055 A 
ATOM     94  C   UNL A   1      40.973  20.993  27.587  1.00  0.00     0.041 A 
ATOM     95  F   UNL A   1      42.602  22.370  28.551  1.00  0.00    -0.206 F 
ATOM     96  C   UNL A   1      39.836  20.833  26.802  1.00  0.00     0.022 A 
BRANCH  93  97
ATOM     97  S   UNL A   1      37.717  21.798  25.270  1.00  0.00     0.124 S 
ATOM     98  O   UNL A   1      37.749  22.970  24.401  1.00  0.00    -0.237 OA
ATOM     99  O   UNL A   1      37.852  20.506  24.605  1.00  0.00    -0.237 OA
ATOM    100  O   UNL A   1      36.718  21.845  26.335  1.00  0.00    -0.744 OA
ENDBRANCH  93  97
ENDBRANCH  67  90
ENDBRANCH  41  42
ENDBRANCH  34  36
ENDBRANCH  33  34
ENDBRANCH  32  33
ENDBRANCH  31  32
ENDBRANCH  30  31
ENDBRANCH  29  30
ENDBRANCH  28  29
ENDBRANCH  27  28
ENDBRANCH   1  27
TORSDOF 27
ENDMDL
MODEL 3
REMARK VINA RESULT:      -6.1      8.530     15.785
REMARK SMILES C[NH2+]C[C@H](C)C(=O)N1CCc2cc(C(=O)OCCOCCOCCOCCOC(=O)c3ccc(-c4c5nc(c(-c6cc(S(=O)(=O)[O-])ccc6F)c6ccc([nH]6)c(-c6cc(S(=O)(=O)[O-])ccc6F)c6nc(c(-c7cc(S(=O)(=O)[O-])ccc7F)c7ccc4[nH]7)C=C6)C=C5)cc3)ccc21
REMARK SMILES IDX 21 1 20 2 19 3 18 4 17 5 16 6 14 7 15 8 13 9 8 10 9 11 96 12
REMARK SMILES IDX 10 13 11 14 95 15 12 16 94 17 6 18 7 19 4 20 5 21 3 22 2 23
REMARK SMILES IDX 1 24 22 27 23 28 24 29 25 30 26 31 27 32 28 33 29 34 30 35
REMARK SMILES IDX 31 36 32 37 93 38 33 39 92 40 34 41 35 42 36 43 86 44 37 45
REMARK SMILES IDX 91 46 85 47 87 48 38 49 90 50 84 51 83 52 39 54 71 55 51 56
REMARK SMILES IDX 70 57 52 58 55 59 69 60 88 61 53 62 54 63 68 65 89 66 56 67
REMARK SMILES IDX 40 68 41 69 49 70 42 71 48 72 50 73 47 74 43 75 44 76 45 77
REMARK SMILES IDX 46 78 72 79 73 80 81 81 74 82 80 83 82 84 79 85 75 86 76 87
REMARK SMILES IDX 77 88 78 89 57 90 58 91 66 92 59 93 65 94 67 95 64 96 60 97
REMARK SMILES IDX 61 98 62 99 63 100
REMARK H PARENT 2 25 2 26 87 53 55 64
REMARK Flexibility Score: inf
ROOT
ATOM      1  C   UNL A   1      46.746  37.864  25.746  1.00  0.00     0.188 C 
ENDROOT
BRANCH   1   2
ATOM      2  C   UNL A   1      45.665  38.778  26.354  1.00  0.00     0.188 C 
BRANCH   2   3
ATOM      3  O   UNL A   1      45.330  39.893  25.550  1.00  0.00    -0.376 OA
BRANCH   3   4
ATOM      4  C   UNL A   1      44.292  40.791  25.900  1.00  0.00     0.202 C 
BRANCH   4   5
ATOM      5  C   UNL A   1      44.328  42.310  25.663  1.00  0.00     0.261 C 
BRANCH   5   6
ATOM      6  O   UNL A   1      44.130  42.766  24.328  1.00  0.00    -0.460 OA
BRANCH   6   7
ATOM      7  C   UNL A   1      45.215  43.009  23.570  1.00  0.00     0.338 C 
ATOM      8  O   UNL A   1      46.372  42.728  23.824  1.00  0.00    -0.246 OA
BRANCH   7   9
ATOM      9  C   UNL A   1      44.727  43.492  22.253  1.00  0.00     0.060 A 
ATOM     10  N   UNL A   1      43.152  44.619  18.567  1.00  0.00    -0.311 N 
ATOM     11  C   UNL A   1      41.890  43.853  18.563  1.00  0.00     0.130 C 
ATOM     12  C   UNL A   1      43.771  44.421  19.808  1.00  0.00     0.047 A 
ATOM     13  C   UNL A   1      41.677  43.300  19.971  1.00  0.00     0.059 C 
ATOM     14  C   UNL A   1      43.028  43.518  20.573  1.00  0.00    -0.022 A 
ATOM     15  C   UNL A   1      44.888  45.008  20.358  1.00  0.00     0.027 A 
ATOM     16  C   UNL A   1      43.498  43.020  21.781  1.00  0.00     0.021 A 
ATOM     17  C   UNL A   1      45.392  44.522  21.566  1.00  0.00     0.018 A 
BRANCH  10  18
ATOM     18  C   UNL A   1      43.576  45.162  17.375  1.00  0.00     0.235 C 
ATOM     19  O   UNL A   1      44.349  44.502  16.659  1.00  0.00    -0.274 OA
BRANCH  18  20
ATOM     20  C   UNL A   1      43.362  46.636  16.989  1.00  0.00     0.131 C 
ATOM     21  C   UNL A   1      42.449  47.509  17.833  1.00  0.00     0.024 C 
BRANCH  20  22
ATOM     22  C   UNL A   1      44.708  47.330  16.696  1.00  0.00     0.273 C 
BRANCH  22  23
ATOM     23  N   UNL A   1      45.791  46.955  17.619  1.00  0.00    -0.348 N 
ATOM     24  C   UNL A   1      46.217  48.075  18.453  1.00  0.00     0.330 C 
ATOM     25  H   UNL A   1      45.462  46.202  18.224  1.00  0.00     0.346 HD
ATOM     26  H   UNL A   1      46.591  46.659  17.060  1.00  0.00     0.346 HD
ENDBRANCH  22  23
ENDBRANCH  20  22
ENDBRANCH  18  20
ENDBRANCH  10  18
ENDBRANCH   7   9
ENDBRANCH   6   7
ENDBRANCH   5   6
ENDBRANCH   4   5
ENDBRANCH   3   4
ENDBRANCH   2   3
ENDBRANCH   1   2
BRANCH   1  27
ATOM     27  O   UNL A   1      46.713  36.527  26.213  1.00  0.00    -0.377 OA
BRANCH  27  28
ATOM     28  C   UNL A   1      47.687  36.111  27.174  1.00  0.00     0.188 C 
BRANCH  28  29
ATOM     29  C   UNL A   1      49.072  36.793  27.318  1.00  0.00     0.188 C 
BRANCH  29  30
ATOM     30  O   UNL A   1      49.398  37.214  28.635  1.00  0.00    -0.376 OA
BRANCH  30  31
ATOM     31  C   UNL A   1      48.402  37.128  29.636  1.00  0.00     0.202 C 
BRANCH  31  32
ATOM     32  C   UNL A   1      47.681  38.435  29.991  1.00  0.00     0.261 C 
BRANCH  32  33
ATOM     33  O   UNL A   1      47.089  38.486  31.295  1.00  0.00    -0.460 OA
BRANCH  33  34
ATOM     34  C   UNL A   1      45.969  39.232  31.428  1.00  0.00     0.338 C 
ATOM     35  O   UNL A   1      45.552  40.070  30.644  1.00  0.00    -0.246 OA
BRANCH  34  36
ATOM     36  C   UNL A   1      45.224  38.717  32.594  1.00  0.00     0.060 A 
ATOM     37  C   UNL A   1      45.770  37.667  33.343  1.00  0.00     0.016 A 
ATOM     38  C   UNL A   1      43.999  39.284  32.952  1.00  0.00     0.016 A 
ATOM     39  C   UNL A   1      45.071  37.156  34.436  1.00  0.00     0.010 A 
ATOM     40  C   UNL A   1      43.292  38.758  34.037  1.00  0.00     0.010 A 
ATOM     41  C   UNL A   1      43.809  37.670  34.763  1.00  0.00    -0.014 A 
BRANCH  41  42
ATOM     42  C   UNL A   1      42.949  36.947  35.732  1.00  0.00     0.031 A 
ATOM     43  C   UNL A   1      42.034  35.873  35.210  1.00  0.00     0.074 A 
ATOM     44  C   UNL A   1      42.990  37.223  37.046  1.00  0.00     0.049 A 
ATOM     45  N   UNL A   1      41.159  35.141  35.846  1.00  0.00    -0.248 NA
ATOM     46  C   UNL A   1      42.117  35.601  33.767  1.00  0.00     0.031 C 
ATOM     47  C   UNL A   1      43.863  38.212  37.674  1.00  0.00     0.029 A 
ATOM     48  N   UNL A   1      42.268  36.699  38.090  1.00  0.00    -0.354 N 
ATOM     49  C   UNL A   1      40.576  34.325  34.881  1.00  0.00     0.074 A 
ATOM     50  C   UNL A   1      41.170  34.690  33.611  1.00  0.00     0.031 C 
ATOM     51  C   UNL A   1      43.617  38.232  38.995  1.00  0.00     0.029 A 
ATOM     52  C   UNL A   1      42.540  37.290  39.300  1.00  0.00     0.049 A 
ATOM     53  H   UNL A   1      41.618  35.968  37.981  1.00  0.00     0.167 HD
ATOM     54  C   UNL A   1      39.638  33.359  35.040  1.00  0.00     0.034 A 
ATOM     55  C   UNL A   1      41.965  37.115  40.508  1.00  0.00     0.034 A 
ATOM     56  C   UNL A   1      39.045  33.026  36.314  1.00  0.00     0.049 A 
ATOM     57  C   UNL A   1      40.860  36.096  40.653  1.00  0.00     0.074 A 
ATOM     58  C   UNL A   1      38.109  32.049  36.599  1.00  0.00     0.029 A 
ATOM     59  N   UNL A   1      39.312  33.679  37.512  1.00  0.00    -0.354 N 
ATOM     60  N   UNL A   1      40.331  35.313  39.741  1.00  0.00    -0.248 NA
ATOM     61  C   UNL A   1      40.281  35.934  41.992  1.00  0.00     0.031 C 
ATOM     62  C   UNL A   1      37.741  32.172  37.943  1.00  0.00     0.029 A 
ATOM     63  C   UNL A   1      38.520  33.159  38.527  1.00  0.00     0.049 A 
ATOM     64  H   UNL A   1      39.967  34.405  37.625  1.00  0.00     0.167 HD
ATOM     65  C   UNL A   1      39.375  34.546  40.403  1.00  0.00     0.074 A 
ATOM     66  C   UNL A   1      39.412  34.953  41.794  1.00  0.00     0.031 C 
ATOM     67  C   UNL A   1      38.548  33.586  39.909  1.00  0.00     0.034 A 
BRANCH  54  68
ATOM     68  C   UNL A   1      39.154  32.654  33.794  1.00  0.00     0.023 A 
ATOM     69  C   UNL A   1      38.103  33.163  33.010  1.00  0.00     0.031 A 
ATOM     70  C   UNL A   1      39.711  31.418  33.419  1.00  0.00     0.131 A 
ATOM     71  C   UNL A   1      37.579  32.397  31.958  1.00  0.00     0.055 A 
ATOM     72  C   UNL A   1      39.250  30.707  32.310  1.00  0.00     0.041 A 
ATOM     73  F   UNL A   1      40.699  30.866  34.141  1.00  0.00    -0.206 F 
ATOM     74  C   UNL A   1      38.163  31.185  31.584  1.00  0.00     0.022 A 
BRANCH  71  75
ATOM     75  S   UNL A   1      36.008  32.915  31.211  1.00  0.00     0.124 S 
ATOM     76  O   UNL A   1      35.051  32.071  31.924  1.00  0.00    -0.237 OA
ATOM     77  O   UNL A   1      35.964  34.337  31.524  1.00  0.00    -0.237 OA
ATOM     78  O   UNL A   1      36.178  32.589  29.796  1.00  0.00    -0.744 OA
ENDBRANCH  71  75
ENDBRANCH  54  68
BRANCH  55  79
ATOM     79  C   UNL A   1      42.390  37.955  41.665  1.00  0.00     0.023 A 
ATOM     80  C   UNL A   1      41.807  39.205  41.919  1.00  0.00     0.031 A 
ATOM     81  C   UNL A   1      43.413  37.516  42.528  1.00  0.00     0.131 A 
ATOM     82  C   UNL A   1      42.269  39.987  42.991  1.00  0.00     0.055 A 
ATOM     83  C   UNL A   1      43.832  38.274  43.623  1.00  0.00     0.041 A 
ATOM     84  F   UNL A   1      44.008  36.329  42.327  1.00  0.00    -0.206 F 
ATOM     85  C   UNL A   1      43.264  39.522  43.855  1.00  0.00     0.022 A 
BRANCH  82  86
ATOM     86  S   UNL A   1      41.590  41.655  43.210  1.00  0.00     0.124 S 
ATOM     87  O   UNL A   1      41.574  42.152  41.839  1.00  0.00    -0.237 OA
ATOM     88  O   UNL A   1      40.289  41.378  43.808  1.00  0.00    -0.237 OA
ATOM     89  O   UNL A   1      42.556  42.301  44.098  1.00  0.00    -0.744 OA
ENDBRANCH  82  86
ENDBRANCH  55  79
BRANCH  67  90
ATOM     90  C   UNL A   1      37.641  32.880  40.892  1.00  0.00     0.023 A 
ATOM     91  C   UNL A   1      36.302  33.265  41.082  1.00  0.00     0.031 A 
ATOM     92  C   UNL A   1      38.130  31.803  41.655  1.00  0.00     0.131 A 
ATOM     93  C   UNL A   1      35.519  32.623  42.054  1.00  0.00     0.055 A 
ATOM     94  C   UNL A   1      37.323  31.120  42.568  1.00  0.00     0.041 A 
ATOM     95  F   UNL A   1      39.400  31.391  41.523  1.00  0.00    -0.206 F 
ATOM     96  C   UNL A   1      36.015  31.538  42.782  1.00  0.00     0.022 A 
BRANCH  93  97
ATOM     97  S   UNL A   1      33.878  33.295  42.436  1.00  0.00     0.124 S 
ATOM     98  O   UNL A   1      33.351  33.579  41.105  1.00  0.00    -0.237 OA
ATOM     99  O   UNL A   1      33.246  32.191  43.151  1.00  0.00    -0.237 OA
ATOM    100  O   UNL A   1      34.171  34.473  43.250  1.00  0.00    -0.744 OA
ENDBRANCH  93  97
ENDBRANCH  67  90
ENDBRANCH  41  42
ENDBRANCH  34  36
ENDBRANCH  33  34
ENDBRANCH  32  33
ENDBRANCH  31  32
ENDBRANCH  30  31
ENDBRANCH  29  30
ENDBRANCH  28  29
ENDBRANCH  27  28
ENDBRANCH   1  27
TORSDOF 27
ENDMDL
