MODEL 1
REMARK VINA RESULT:     -13.0      0.000      0.000
REMARK SMILES Cc1ccc([C@@H]2[C@H](C(=O)OCCOCCOCCOCCOC(=O)c3ccc(-c4c5nc(c(-c6cc(S(=O)(=O)[O-])ccc6F)c6ccc([nH]6)c(-c6cc(S(=O)(=O)[O-])ccc6F)c6nc(c(-c7cc(S(=O)(=O)[O-])ccc7F)c7ccc4[nH]7)C=C6)C=C5)cc3)c3ccccc3C(=O)N2c2ccccc2)cc1
REMARK SMILES IDX 17 1 16 2 15 3 14 4 13 5 12 6 11 7 10 8 8 9 9 10 7 11 6 12
REMARK SMILES IDX 96 13 88 14 94 15 89 16 93 17 95 18 90 19 92 20 91 21 5 22
REMARK SMILES IDX 1 23 2 24 3 25 104 26 4 27 103 28 97 29 98 30 102 31 99 32
REMARK SMILES IDX 101 33 100 34 18 35 19 36 20 37 21 38 22 39 23 40 24 41
REMARK SMILES IDX 25 42 26 43 87 44 27 45 86 46 28 47 29 48 30 49 80 50 31 51
REMARK SMILES IDX 85 52 79 53 81 54 32 55 84 56 78 57 77 58 33 60 65 61 45 62
REMARK SMILES IDX 64 63 46 64 49 65 63 66 82 67 47 68 48 69 62 71 83 72 50 73
REMARK SMILES IDX 34 74 35 75 43 76 36 77 42 78 44 79 41 80 37 81 38 82 39 83
REMARK SMILES IDX 40 84 66 85 67 86 75 87 68 88 74 89 76 90 73 91 69 92 70 93
REMARK SMILES IDX 71 94 72 95 51 96 52 97 60 98 53 99 59 100 61 101 58 102
REMARK SMILES IDX 54 103 55 104 56 105 57 106
REMARK H PARENT 81 59 49 70
REMARK Flexibility Score: inf
ROOT
ATOM      1  C   UNL A   1      33.845  31.873  28.044  1.00  0.00     0.188 C 
ENDROOT
BRANCH   1   2
ATOM      2  O   UNL A   1      33.523  31.142  26.877  1.00  0.00    -0.377 OA
BRANCH   2   3
ATOM      3  C   UNL A   1      32.851  29.890  26.763  1.00  0.00     0.188 C 
BRANCH   3   4
ATOM      4  C   UNL A   1      31.715  29.234  25.714  1.00  0.00     0.188 C 
BRANCH   4   5
ATOM      5  O   UNL A   1      31.710  28.068  24.316  1.00  0.00    -0.376 OA
BRANCH   5   6
ATOM      6  C   UNL A   1      32.520  27.930  22.767  1.00  0.00     0.202 C 
BRANCH   6   7
ATOM      7  C   UNL A   1      33.914  26.797  22.249  1.00  0.00     0.261 C 
BRANCH   7   8
ATOM      8  O   UNL A   1      33.826  25.035  21.896  1.00  0.00    -0.463 OA
BRANCH   8   9
ATOM      9  C   UNL A   1      33.257  23.741  22.142  1.00  0.00     0.316 C 
ATOM     10  O   UNL A   1      33.512  22.753  21.448  1.00  0.00    -0.251 OA
BRANCH   9  11
ATOM     11  C   UNL A   1      32.131  23.377  23.329  1.00  0.00     0.157 C 
ATOM     12  C   UNL A   1      32.668  22.272  24.341  1.00  0.00     0.140 C 
ATOM     13  N   UNL A   1      33.351  22.857  25.522  1.00  0.00    -0.300 N 
ATOM     14  C   UNL A   1      31.231  24.273  24.286  1.00  0.00    -0.019 A 
ATOM     15  C   UNL A   1      32.477  23.541  26.377  1.00  0.00     0.259 C 
ATOM     16  C   UNL A   1      30.025  24.865  23.844  1.00  0.00     0.005 A 
ATOM     17  C   UNL A   1      31.452  24.366  25.682  1.00  0.00     0.044 A 
ATOM     18  O   UNL A   1      32.506  23.513  27.606  1.00  0.00    -0.269 OA
ATOM     19  C   UNL A   1      29.295  25.763  24.643  1.00  0.00     0.000 A 
ATOM     20  C   UNL A   1      30.670  25.205  26.507  1.00  0.00     0.014 A 
ATOM     21  C   UNL A   1      29.632  25.953  25.972  1.00  0.00     0.001 A 
BRANCH  12  22
ATOM     22  C   UNL A   1      32.946  20.874  23.779  1.00  0.00    -0.024 A 
ATOM     23  C   UNL A   1      32.900  16.604  23.778  1.00  0.00     0.044 C 
ATOM     24  C   UNL A   1      33.070  18.077  23.583  1.00  0.00    -0.051 A 
ATOM     25  C   UNL A   1      32.154  18.799  22.825  1.00  0.00     0.004 A 
ATOM     26  C   UNL A   1      34.080  18.763  24.251  1.00  0.00     0.004 A 
ATOM     27  C   UNL A   1      32.156  20.192  22.860  1.00  0.00     0.006 A 
ATOM     28  C   UNL A   1      34.009  20.148  24.361  1.00  0.00     0.006 A 
ENDBRANCH  12  22
BRANCH  13  29
ATOM     29  C   UNL A   1      34.762  23.021  25.733  1.00  0.00     0.045 A 
ATOM     30  C   UNL A   1      35.381  24.289  25.660  1.00  0.00     0.026 A 
ATOM     31  C   UNL A   1      35.622  21.946  25.882  1.00  0.00     0.026 A 
ATOM     32  C   UNL A   1      36.771  24.459  25.727  1.00  0.00     0.002 A 
ATOM     33  C   UNL A   1      36.990  22.122  26.127  1.00  0.00     0.002 A 
ATOM     34  C   UNL A   1      37.580  23.368  25.983  1.00  0.00     0.000 A 
ENDBRANCH  13  29
ENDBRANCH   9  11
ENDBRANCH   8   9
ENDBRANCH   7   8
ENDBRANCH   6   7
ENDBRANCH   5   6
ENDBRANCH   4   5
ENDBRANCH   3   4
ENDBRANCH   2   3
ENDBRANCH   1   2
BRANCH   1  35
ATOM     35  C   UNL A   1      33.535  33.342  28.087  1.00  0.00     0.188 C 
BRANCH  35  36
ATOM     36  O   UNL A   1      34.699  34.068  27.721  1.00  0.00    -0.376 OA
BRANCH  36  37
ATOM     37  C   UNL A   1      35.899  33.409  28.070  1.00  0.00     0.202 C 
BRANCH  37  38
ATOM     38  C   UNL A   1      36.368  33.802  29.474  1.00  0.00     0.261 C 
BRANCH  38  39
ATOM     39  O   UNL A   1      37.118  32.716  30.064  1.00  0.00    -0.460 OA
BRANCH  39  40
ATOM     40  C   UNL A   1      36.381  31.619  30.451  1.00  0.00     0.338 C 
ATOM     41  O   UNL A   1      35.512  31.624  31.288  1.00  0.00    -0.246 OA
BRANCH  40  42
ATOM     42  C   UNL A   1      36.948  30.414  29.778  1.00  0.00     0.060 A 
ATOM     43  C   UNL A   1      37.620  29.378  30.418  1.00  0.00     0.016 A 
ATOM     44  C   UNL A   1      36.993  30.394  28.427  1.00  0.00     0.016 A 
ATOM     45  C   UNL A   1      38.667  28.638  29.751  1.00  0.00     0.010 A 
ATOM     46  C   UNL A   1      38.009  29.645  27.841  1.00  0.00     0.010 A 
ATOM     47  C   UNL A   1      39.156  28.985  28.488  1.00  0.00    -0.014 A 
BRANCH  47  48
ATOM     48  C   UNL A   1      40.920  28.735  27.870  1.00  0.00     0.031 A 
ATOM     49  C   UNL A   1      41.558  27.099  26.880  1.00  0.00     0.074 A 
ATOM     50  C   UNL A   1      41.672  29.823  28.391  1.00  0.00     0.049 A 
ATOM     51  N   UNL A   1      42.638  26.324  27.174  1.00  0.00    -0.248 NA
ATOM     52  C   UNL A   1      40.750  25.813  26.194  1.00  0.00     0.031 C 
ATOM     53  C   UNL A   1      43.050  30.276  28.255  1.00  0.00     0.029 A 
ATOM     54  N   UNL A   1      41.353  30.692  29.456  1.00  0.00    -0.354 N 
ATOM     55  C   UNL A   1      42.692  24.964  26.922  1.00  0.00     0.074 A 
ATOM     56  C   UNL A   1      41.428  24.686  26.377  1.00  0.00     0.031 C 
ATOM     57  C   UNL A   1      43.582  30.888  29.303  1.00  0.00     0.029 A 
ATOM     58  C   UNL A   1      42.517  30.964  30.196  1.00  0.00     0.049 A 
ATOM     59  H   UNL A   1      40.457  31.052  29.650  1.00  0.00     0.167 HD
ATOM     60  C   UNL A   1      43.733  24.122  27.250  1.00  0.00     0.034 A 
ATOM     61  C   UNL A   1      42.689  30.909  31.521  1.00  0.00     0.034 A 
ATOM     62  C   UNL A   1      44.763  24.742  28.115  1.00  0.00     0.049 A 
ATOM     63  C   UNL A   1      43.651  29.738  31.866  1.00  0.00     0.074 A 
ATOM     64  C   UNL A   1      46.003  25.312  27.870  1.00  0.00     0.029 A 
ATOM     65  N   UNL A   1      44.536  25.015  29.474  1.00  0.00    -0.354 N 
ATOM     66  N   UNL A   1      44.068  28.765  31.053  1.00  0.00    -0.248 NA
ATOM     67  C   UNL A   1      44.316  29.660  33.157  1.00  0.00     0.031 C 
ATOM     68  C   UNL A   1      46.290  26.230  28.938  1.00  0.00     0.029 A 
ATOM     69  C   UNL A   1      45.333  26.094  29.940  1.00  0.00     0.049 A 
ATOM     70  H   UNL A   1      43.900  24.518  30.036  1.00  0.00     0.167 HD
ATOM     71  C   UNL A   1      44.876  27.857  31.733  1.00  0.00     0.074 A 
ATOM     72  C   UNL A   1      45.094  28.576  32.995  1.00  0.00     0.031 C 
ATOM     73  C   UNL A   1      45.298  26.577  31.351  1.00  0.00     0.034 A 
BRANCH  60  74
ATOM     74  C   UNL A   1      43.928  22.817  26.419  1.00  0.00     0.023 A 
ATOM     75  C   UNL A   1      43.083  21.701  26.629  1.00  0.00     0.031 A 
ATOM     76  C   UNL A   1      44.999  22.561  25.525  1.00  0.00     0.131 A 
ATOM     77  C   UNL A   1      43.404  20.418  26.113  1.00  0.00     0.055 A 
ATOM     78  C   UNL A   1      45.366  21.276  25.083  1.00  0.00     0.041 A 
ATOM     79  F   UNL A   1      45.702  23.554  24.963  1.00  0.00    -0.206 F 
ATOM     80  C   UNL A   1      44.574  20.190  25.391  1.00  0.00     0.022 A 
BRANCH  77  81
ATOM     81  S   UNL A   1      42.285  18.999  26.317  1.00  0.00     0.124 S 
ATOM     82  O   UNL A   1      42.476  18.667  27.725  1.00  0.00    -0.237 OA
ATOM     83  O   UNL A   1      40.982  19.540  25.952  1.00  0.00    -0.237 OA
ATOM     84  O   UNL A   1      42.826  18.017  25.376  1.00  0.00    -0.744 OA
ENDBRANCH  77  81
ENDBRANCH  60  74
BRANCH  61  85
ATOM     85  C   UNL A   1      41.557  31.703  32.103  1.00  0.00     0.023 A 
ATOM     86  C   UNL A   1      40.830  31.012  33.144  1.00  0.00     0.031 A 
ATOM     87  C   UNL A   1      41.573  33.095  32.174  1.00  0.00     0.131 A 
ATOM     88  C   UNL A   1      40.432  31.677  34.318  1.00  0.00     0.055 A 
ATOM     89  C   UNL A   1      41.035  33.769  33.291  1.00  0.00     0.041 A 
ATOM     90  F   UNL A   1      42.275  33.808  31.284  1.00  0.00    -0.206 F 
ATOM     91  C   UNL A   1      40.523  33.062  34.390  1.00  0.00     0.022 A 
BRANCH  88  92
ATOM     92  S   UNL A   1      40.219  30.721  35.877  1.00  0.00     0.124 S 
ATOM     93  O   UNL A   1      40.371  29.345  35.420  1.00  0.00    -0.237 OA
ATOM     94  O   UNL A   1      41.288  31.234  36.728  1.00  0.00    -0.237 OA
ATOM     95  O   UNL A   1      38.878  31.102  36.319  1.00  0.00    -0.744 OA
ENDBRANCH  88  92
ENDBRANCH  61  85
BRANCH  73  96
ATOM     96  C   UNL A   1      45.858  25.578  32.380  1.00  0.00     0.023 A 
ATOM     97  C   UNL A   1      45.090  24.537  32.913  1.00  0.00     0.031 A 
ATOM     98  C   UNL A   1      47.213  25.587  32.806  1.00  0.00     0.131 A 
ATOM     99  C   UNL A   1      45.575  23.712  33.939  1.00  0.00     0.055 A 
ATOM    100  C   UNL A   1      47.741  24.661  33.714  1.00  0.00     0.041 A 
ATOM    101  F   UNL A   1      48.102  26.485  32.359  1.00  0.00    -0.206 F 
ATOM    102  C   UNL A   1      46.909  23.738  34.321  1.00  0.00     0.022 A 
BRANCH  99 103
ATOM    103  S   UNL A   1      44.362  22.736  34.857  1.00  0.00     0.124 S 
ATOM    104  O   UNL A   1      45.195  21.659  35.388  1.00  0.00    -0.237 OA
ATOM    105  O   UNL A   1      43.866  23.693  35.840  1.00  0.00    -0.237 OA
ATOM    106  O   UNL A   1      43.401  22.332  33.833  1.00  0.00    -0.744 OA
ENDBRANCH  99 103
ENDBRANCH  73  96
ENDBRANCH  47  48
ENDBRANCH  40  42
ENDBRANCH  39  40
ENDBRANCH  38  39
ENDBRANCH  37  38
ENDBRANCH  36  37
ENDBRANCH  35  36
ENDBRANCH   1  35
TORSDOF 25
ENDMDL
MODEL 2
REMARK VINA RESULT:     -12.9      1.748      2.032
REMARK SMILES Cc1ccc([C@@H]2[C@H](C(=O)OCCOCCOCCOCCOC(=O)c3ccc(-c4c5nc(c(-c6cc(S(=O)(=O)[O-])ccc6F)c6ccc([nH]6)c(-c6cc(S(=O)(=O)[O-])ccc6F)c6nc(c(-c7cc(S(=O)(=O)[O-])ccc7F)c7ccc4[nH]7)C=C6)C=C5)cc3)c3ccccc3C(=O)N2c2ccccc2)cc1
REMARK SMILES IDX 17 1 16 2 15 3 14 4 13 5 12 6 11 7 10 8 8 9 9 10 7 11 6 12
REMARK SMILES IDX 96 13 88 14 94 15 89 16 93 17 95 18 90 19 92 20 91 21 5 22
REMARK SMILES IDX 1 23 2 24 3 25 104 26 4 27 103 28 97 29 98 30 102 31 99 32
REMARK SMILES IDX 101 33 100 34 18 35 19 36 20 37 21 38 22 39 23 40 24 41
REMARK SMILES IDX 25 42 26 43 87 44 27 45 86 46 28 47 29 48 30 49 80 50 31 51
REMARK SMILES IDX 85 52 79 53 81 54 32 55 84 56 78 57 77 58 33 60 65 61 45 62
REMARK SMILES IDX 64 63 46 64 49 65 63 66 82 67 47 68 48 69 62 71 83 72 50 73
REMARK SMILES IDX 34 74 35 75 43 76 36 77 42 78 44 79 41 80 37 81 38 82 39 83
REMARK SMILES IDX 40 84 66 85 67 86 75 87 68 88 74 89 76 90 73 91 69 92 70 93
REMARK SMILES IDX 71 94 72 95 51 96 52 97 60 98 53 99 59 100 61 101 58 102
REMARK SMILES IDX 54 103 55 104 56 105 57 106
REMARK H PARENT 81 59 49 70
REMARK Flexibility Score: inf
ROOT
ATOM      1  C   UNL A   1      34.231  31.489  27.981  1.00  0.00     0.188 C 
ENDROOT
BRANCH   1   2
ATOM      2  O   UNL A   1      33.870  30.765  26.822  1.00  0.00    -0.377 OA
BRANCH   2   3
ATOM      3  C   UNL A   1      33.105  29.567  26.718  1.00  0.00     0.188 C 
BRANCH   3   4
ATOM      4  C   UNL A   1      31.899  29.002  25.694  1.00  0.00     0.188 C 
BRANCH   4   5
ATOM      5  O   UNL A   1      31.785  27.896  24.252  1.00  0.00    -0.376 OA
BRANCH   5   6
ATOM      6  C   UNL A   1      32.567  27.751  22.690  1.00  0.00     0.202 C 
BRANCH   6   7
ATOM      7  C   UNL A   1      33.935  26.601  22.143  1.00  0.00     0.261 C 
BRANCH   7   8
ATOM      8  O   UNL A   1      33.831  24.827  21.858  1.00  0.00    -0.463 OA
BRANCH   8   9
ATOM      9  C   UNL A   1      33.177  23.567  22.066  1.00  0.00     0.316 C 
ATOM     10  O   UNL A   1      33.328  22.600  21.313  1.00  0.00    -0.251 OA
BRANCH   9  11
ATOM     11  C   UNL A   1      32.077  23.224  23.283  1.00  0.00     0.157 C 
ATOM     12  C   UNL A   1      32.637  22.139  24.304  1.00  0.00     0.140 C 
ATOM     13  N   UNL A   1      33.343  22.748  25.459  1.00  0.00    -0.300 N 
ATOM     14  C   UNL A   1      31.196  24.137  24.242  1.00  0.00    -0.019 A 
ATOM     15  C   UNL A   1      32.487  23.446  26.319  1.00  0.00     0.259 C 
ATOM     16  C   UNL A   1      29.979  24.719  23.814  1.00  0.00     0.005 A 
ATOM     17  C   UNL A   1      31.445  24.257  25.630  1.00  0.00     0.044 A 
ATOM     18  O   UNL A   1      32.541  23.442  27.547  1.00  0.00    -0.269 OA
ATOM     19  C   UNL A   1      29.265  25.632  24.610  1.00  0.00     0.000 A 
ATOM     20  C   UNL A   1      30.679  25.111  26.455  1.00  0.00     0.014 A 
ATOM     21  C   UNL A   1      29.630  25.847  25.929  1.00  0.00     0.001 A 
BRANCH  12  22
ATOM     22  C   UNL A   1      32.905  20.731  23.763  1.00  0.00    -0.024 A 
ATOM     23  C   UNL A   1      32.872  16.462  23.848  1.00  0.00     0.044 C 
ATOM     24  C   UNL A   1      33.033  17.931  23.619  1.00  0.00    -0.051 A 
ATOM     25  C   UNL A   1      32.095  18.636  22.871  1.00  0.00     0.004 A 
ATOM     26  C   UNL A   1      34.057  18.633  24.248  1.00  0.00     0.004 A 
ATOM     27  C   UNL A   1      32.094  20.029  22.878  1.00  0.00     0.006 A 
ATOM     28  C   UNL A   1      33.984  20.020  24.333  1.00  0.00     0.006 A 
ENDBRANCH  12  22
BRANCH  13  29
ATOM     29  C   UNL A   1      34.758  22.917  25.638  1.00  0.00     0.045 A 
ATOM     30  C   UNL A   1      35.358  24.196  25.642  1.00  0.00     0.026 A 
ATOM     31  C   UNL A   1      35.637  21.847  25.677  1.00  0.00     0.026 A 
ATOM     32  C   UNL A   1      36.747  24.382  25.677  1.00  0.00     0.002 A 
ATOM     33  C   UNL A   1      37.010  22.026  25.891  1.00  0.00     0.002 A 
ATOM     34  C   UNL A   1      37.578  23.288  25.824  1.00  0.00     0.000 A 
ENDBRANCH  13  29
ENDBRANCH   9  11
ENDBRANCH   8   9
ENDBRANCH   7   8
ENDBRANCH   6   7
ENDBRANCH   5   6
ENDBRANCH   4   5
ENDBRANCH   3   4
ENDBRANCH   2   3
ENDBRANCH   1   2
BRANCH   1  35
ATOM     35  C   UNL A   1      33.878  32.947  28.064  1.00  0.00     0.188 C 
BRANCH  35  36
ATOM     36  O   UNL A   1      35.012  33.716  27.690  1.00  0.00    -0.376 OA
BRANCH  36  37
ATOM     37  C   UNL A   1      36.207  33.282  28.307  1.00  0.00     0.202 C 
BRANCH  37  38
ATOM     38  C   UNL A   1      36.328  33.816  29.737  1.00  0.00     0.261 C 
BRANCH  38  39
ATOM     39  O   UNL A   1      36.952  32.824  30.582  1.00  0.00    -0.460 OA
BRANCH  39  40
ATOM     40  C   UNL A   1      36.107  31.880  31.123  1.00  0.00     0.338 C 
ATOM     41  O   UNL A   1      35.154  32.120  31.823  1.00  0.00    -0.246 OA
BRANCH  40  42
ATOM     42  C   UNL A   1      36.666  30.529  30.827  1.00  0.00     0.060 A 
ATOM     43  C   UNL A   1      37.599  29.856  31.609  1.00  0.00     0.016 A 
ATOM     44  C   UNL A   1      36.406  29.976  29.621  1.00  0.00     0.016 A 
ATOM     45  C   UNL A   1      38.559  28.951  31.018  1.00  0.00     0.010 A 
ATOM     46  C   UNL A   1      37.355  29.094  29.114  1.00  0.00     0.010 A 
ATOM     47  C   UNL A   1      38.698  28.786  29.637  1.00  0.00    -0.014 A 
BRANCH  47  48
ATOM     48  C   UNL A   1      40.293  28.376  28.720  1.00  0.00     0.031 A 
ATOM     49  C   UNL A   1      40.681  26.598  27.851  1.00  0.00     0.074 A 
ATOM     50  C   UNL A   1      41.159  29.483  28.931  1.00  0.00     0.049 A 
ATOM     51  N   UNL A   1      41.782  25.816  28.025  1.00  0.00    -0.248 NA
ATOM     52  C   UNL A   1      39.724  25.276  27.518  1.00  0.00     0.031 C 
ATOM     53  C   UNL A   1      42.490  29.848  28.465  1.00  0.00     0.029 A 
ATOM     54  N   UNL A   1      41.082  30.494  29.912  1.00  0.00    -0.354 N 
ATOM     55  C   UNL A   1      41.754  24.434  27.952  1.00  0.00     0.074 A 
ATOM     56  C   UNL A   1      40.400  24.150  27.711  1.00  0.00     0.031 C 
ATOM     57  C   UNL A   1      43.237  30.561  29.294  1.00  0.00     0.029 A 
ATOM     58  C   UNL A   1      42.378  30.801  30.363  1.00  0.00     0.049 A 
ATOM     59  H   UNL A   1      40.252  30.918  30.231  1.00  0.00     0.167 HD
ATOM     60  C   UNL A   1      42.821  23.590  28.176  1.00  0.00     0.034 A 
ATOM     61  C   UNL A   1      42.814  30.906  31.622  1.00  0.00     0.034 A 
ATOM     62  C   UNL A   1      44.019  24.265  28.728  1.00  0.00     0.049 A 
ATOM     63  C   UNL A   1      43.801  29.743  31.923  1.00  0.00     0.074 A 
ATOM     64  C   UNL A   1      45.195  24.739  28.168  1.00  0.00     0.029 A 
ATOM     65  N   UNL A   1      44.079  24.719  30.056  1.00  0.00    -0.354 N 
ATOM     66  N   UNL A   1      44.023  28.656  31.181  1.00  0.00    -0.248 NA
ATOM     67  C   UNL A   1      44.713  29.797  33.054  1.00  0.00     0.031 C 
ATOM     68  C   UNL A   1      45.713  25.770  29.025  1.00  0.00     0.029 A 
ATOM     69  C   UNL A   1      44.977  25.808  30.206  1.00  0.00     0.049 A 
ATOM     70  H   UNL A   1      43.560  24.328  30.795  1.00  0.00     0.167 HD
ATOM     71  C   UNL A   1      44.933  27.804  31.802  1.00  0.00     0.074 A 
ATOM     72  C   UNL A   1      45.418  28.665  32.888  1.00  0.00     0.031 C 
ATOM     73  C   UNL A   1      45.240  26.467  31.518  1.00  0.00     0.034 A 
BRANCH  60  74
ATOM     74  C   UNL A   1      42.815  22.183  27.505  1.00  0.00     0.023 A 
ATOM     75  C   UNL A   1      43.824  21.828  26.578  1.00  0.00     0.031 A 
ATOM     76  C   UNL A   1      41.781  21.219  27.621  1.00  0.00     0.131 A 
ATOM     77  C   UNL A   1      43.694  20.689  25.739  1.00  0.00     0.055 A 
ATOM     78  C   UNL A   1      41.607  20.140  26.734  1.00  0.00     0.041 A 
ATOM     79  F   UNL A   1      40.925  21.222  28.652  1.00  0.00    -0.206 F 
ATOM     80  C   UNL A   1      42.561  19.879  25.773  1.00  0.00     0.022 A 
BRANCH  77  81
ATOM     81  S   UNL A   1      45.020  20.186  24.601  1.00  0.00     0.124 S 
ATOM     82  O   UNL A   1      44.578  20.782  23.344  1.00  0.00    -0.237 OA
ATOM     83  O   UNL A   1      46.218  20.759  25.201  1.00  0.00    -0.237 OA
ATOM     84  O   UNL A   1      44.952  18.724  24.643  1.00  0.00    -0.744 OA
ENDBRANCH  77  81
ENDBRANCH  60  74
BRANCH  61  85
ATOM     85  C   UNL A   1      41.841  31.821  32.307  1.00  0.00     0.023 A 
ATOM     86  C   UNL A   1      40.824  31.132  33.069  1.00  0.00     0.031 A 
ATOM     87  C   UNL A   1      42.191  33.097  32.746  1.00  0.00     0.131 A 
ATOM     88  C   UNL A   1      40.438  31.586  34.343  1.00  0.00     0.055 A 
ATOM     89  C   UNL A   1      41.681  33.610  33.958  1.00  0.00     0.041 A 
ATOM     90  F   UNL A   1      43.168  33.778  32.133  1.00  0.00    -0.206 F 
ATOM     91  C   UNL A   1      40.858  32.834  34.787  1.00  0.00     0.022 A 
BRANCH  88  92
ATOM     92  S   UNL A   1      39.773  30.386  35.572  1.00  0.00     0.124 S 
ATOM     93  O   UNL A   1      38.547  29.930  34.928  1.00  0.00    -0.237 OA
ATOM     94  O   UNL A   1      40.842  29.398  35.681  1.00  0.00    -0.237 OA
ATOM     95  O   UNL A   1      39.599  31.203  36.771  1.00  0.00    -0.744 OA
ENDBRANCH  88  92
ENDBRANCH  61  85
BRANCH  73  96
ATOM     96  C   UNL A   1      45.976  25.580  32.540  1.00  0.00     0.023 A 
ATOM     97  C   UNL A   1      47.364  25.628  32.715  1.00  0.00     0.031 A 
ATOM     98  C   UNL A   1      45.300  24.710  33.434  1.00  0.00     0.131 A 
ATOM     99  C   UNL A   1      48.032  24.729  33.559  1.00  0.00     0.055 A 
ATOM    100  C   UNL A   1      45.957  23.927  34.391  1.00  0.00     0.041 A 
ATOM    101  F   UNL A   1      43.966  24.577  33.439  1.00  0.00    -0.206 F 
ATOM    102  C   UNL A   1      47.339  23.901  34.431  1.00  0.00     0.022 A 
BRANCH  99 103
ATOM    103  S   UNL A   1      49.821  24.573  33.350  1.00  0.00     0.124 S 
ATOM    104  O   UNL A   1      50.306  24.990  34.663  1.00  0.00    -0.237 OA
ATOM    105  O   UNL A   1      49.979  23.156  33.040  1.00  0.00    -0.237 OA
ATOM    106  O   UNL A   1      50.119  25.492  32.254  1.00  0.00    -0.744 OA
ENDBRANCH  99 103
ENDBRANCH  73  96
ENDBRANCH  47  48
ENDBRANCH  40  42
ENDBRANCH  39  40
ENDBRANCH  38  39
ENDBRANCH  37  38
ENDBRANCH  36  37
ENDBRANCH  35  36
ENDBRANCH   1  35
TORSDOF 25
ENDMDL
MODEL 3
REMARK VINA RESULT:     -12.4      3.645     11.621
REMARK SMILES Cc1ccc([C@@H]2[C@H](C(=O)OCCOCCOCCOCCOC(=O)c3ccc(-c4c5nc(c(-c6cc(S(=O)(=O)[O-])ccc6F)c6ccc([nH]6)c(-c6cc(S(=O)(=O)[O-])ccc6F)c6nc(c(-c7cc(S(=O)(=O)[O-])ccc7F)c7ccc4[nH]7)C=C6)C=C5)cc3)c3ccccc3C(=O)N2c2ccccc2)cc1
REMARK SMILES IDX 17 1 16 2 15 3 14 4 13 5 12 6 11 7 10 8 8 9 9 10 7 11 6 12
REMARK SMILES IDX 96 13 88 14 94 15 89 16 93 17 95 18 90 19 92 20 91 21 5 22
REMARK SMILES IDX 1 23 2 24 3 25 104 26 4 27 103 28 97 29 98 30 102 31 99 32
REMARK SMILES IDX 101 33 100 34 18 35 19 36 20 37 21 38 22 39 23 40 24 41
REMARK SMILES IDX 25 42 26 43 87 44 27 45 86 46 28 47 29 48 30 49 80 50 31 51
REMARK SMILES IDX 85 52 79 53 81 54 32 55 84 56 78 57 77 58 33 60 65 61 45 62
REMARK SMILES IDX 64 63 46 64 49 65 63 66 82 67 47 68 48 69 62 71 83 72 50 73
REMARK SMILES IDX 34 74 35 75 43 76 36 77 42 78 44 79 41 80 37 81 38 82 39 83
REMARK SMILES IDX 40 84 66 85 67 86 75 87 68 88 74 89 76 90 73 91 69 92 70 93
REMARK SMILES IDX 71 94 72 95 51 96 52 97 60 98 53 99 59 100 61 101 58 102
REMARK SMILES IDX 54 103 55 104 56 105 57 106
REMARK H PARENT 81 59 49 70
REMARK Flexibility Score: inf
ROOT
ATOM      1  C   UNL A   1      34.376  24.805  23.638  1.00  0.00     0.188 C 
ENDROOT
BRANCH   1   2
ATOM      2  O   UNL A   1      33.704  25.956  24.111  1.00  0.00    -0.377 OA
BRANCH   2   3
ATOM      3  C   UNL A   1      33.621  26.459  25.442  1.00  0.00     0.188 C 
BRANCH   3   4
ATOM      4  C   UNL A   1      33.571  27.984  26.144  1.00  0.00     0.188 C 
BRANCH   4   5
ATOM      5  O   UNL A   1      34.771  29.204  26.767  1.00  0.00    -0.376 OA
BRANCH   5   6
ATOM      6  C   UNL A   1      35.977  29.273  28.036  1.00  0.00     0.202 C 
BRANCH   6   7
ATOM      7  C   UNL A   1      36.090  30.413  29.513  1.00  0.00     0.261 C 
BRANCH   7   8
ATOM      8  O   UNL A   1      36.296  29.957  31.241  1.00  0.00    -0.463 OA
BRANCH   8   9
ATOM      9  C   UNL A   1      37.144  29.700  32.370  1.00  0.00     0.316 C 
ATOM     10  O   UNL A   1      37.213  28.597  32.920  1.00  0.00    -0.251 OA
BRANCH   9  11
ATOM     11  C   UNL A   1      38.100  30.832  33.153  1.00  0.00     0.157 C 
ATOM     12  C   UNL A   1      38.552  32.007  32.179  1.00  0.00     0.140 C 
ATOM     13  N   UNL A   1      37.616  33.159  32.196  1.00  0.00    -0.300 N 
ATOM     14  C   UNL A   1      37.961  31.603  34.537  1.00  0.00    -0.019 A 
ATOM     15  C   UNL A   1      37.625  33.856  33.411  1.00  0.00     0.259 C 
ATOM     16  C   UNL A   1      38.310  31.001  35.769  1.00  0.00     0.005 A 
ATOM     17  C   UNL A   1      37.689  32.990  34.620  1.00  0.00     0.044 A 
ATOM     18  O   UNL A   1      37.577  35.078  33.539  1.00  0.00    -0.269 OA
ATOM     19  C   UNL A   1      38.065  31.627  37.004  1.00  0.00     0.000 A 
ATOM     20  C   UNL A   1      37.523  33.645  35.860  1.00  0.00     0.014 A 
ATOM     21  C   UNL A   1      37.648  32.947  37.051  1.00  0.00     0.001 A 
BRANCH  12  22
ATOM     22  C   UNL A   1      39.460  31.640  31.001  1.00  0.00    -0.024 A 
ATOM     23  C   UNL A   1      42.932  30.003  29.131  1.00  0.00     0.044 C 
ATOM     24  C   UNL A   1      41.667  30.674  29.561  1.00  0.00    -0.051 A 
ATOM     25  C   UNL A   1      40.463  29.975  29.564  1.00  0.00     0.004 A 
ATOM     26  C   UNL A   1      41.695  31.968  30.074  1.00  0.00     0.004 A 
ATOM     27  C   UNL A   1      39.346  30.504  30.208  1.00  0.00     0.006 A 
ATOM     28  C   UNL A   1      40.606  32.439  30.801  1.00  0.00     0.006 A 
ENDBRANCH  12  22
BRANCH  13  29
ATOM     29  C   UNL A   1      36.569  33.458  31.259  1.00  0.00     0.045 A 
ATOM     30  C   UNL A   1      35.207  33.270  31.583  1.00  0.00     0.026 A 
ATOM     31  C   UNL A   1      36.825  33.812  29.945  1.00  0.00     0.026 A 
ATOM     32  C   UNL A   1      34.176  33.424  30.645  1.00  0.00     0.002 A 
ATOM     33  C   UNL A   1      35.795  34.139  29.053  1.00  0.00     0.002 A 
ATOM     34  C   UNL A   1      34.472  33.882  29.376  1.00  0.00     0.000 A 
ENDBRANCH  13  29
ENDBRANCH   9  11
ENDBRANCH   8   9
ENDBRANCH   7   8
ENDBRANCH   6   7
ENDBRANCH   5   6
ENDBRANCH   4   5
ENDBRANCH   3   4
ENDBRANCH   2   3
ENDBRANCH   1   2
BRANCH   1  35
ATOM     35  C   UNL A   1      34.636  23.675  24.593  1.00  0.00     0.188 C 
BRANCH  35  36
ATOM     36  O   UNL A   1      36.035  23.585  24.827  1.00  0.00    -0.376 OA
BRANCH  36  37
ATOM     37  C   UNL A   1      36.432  22.332  25.347  1.00  0.00     0.202 C 
BRANCH  37  38
ATOM     38  C   UNL A   1      37.939  22.286  25.614  1.00  0.00     0.261 C 
BRANCH  38  39
ATOM     39  O   UNL A   1      38.325  23.404  26.444  1.00  0.00    -0.460 OA
BRANCH  39  40
ATOM     40  C   UNL A   1      39.546  23.293  27.070  1.00  0.00     0.338 C 
ATOM     41  O   UNL A   1      40.089  22.254  27.357  1.00  0.00    -0.246 OA
BRANCH  40  42
ATOM     42  C   UNL A   1      39.994  24.659  27.469  1.00  0.00     0.060 A 
ATOM     43  C   UNL A   1      41.131  25.303  26.992  1.00  0.00     0.016 A 
ATOM     44  C   UNL A   1      39.373  25.261  28.508  1.00  0.00     0.016 A 
ATOM     45  C   UNL A   1      41.863  26.239  27.815  1.00  0.00     0.010 A 
ATOM     46  C   UNL A   1      40.122  26.170  29.248  1.00  0.00     0.010 A 
ATOM     47  C   UNL A   1      41.563  26.464  29.161  1.00  0.00    -0.014 A 
BRANCH  47  48
ATOM     48  C   UNL A   1      42.792  26.923  30.514  1.00  0.00     0.031 A 
ATOM     49  C   UNL A   1      42.312  27.927  32.196  1.00  0.00     0.074 A 
ATOM     50  C   UNL A   1      44.074  26.570  30.012  1.00  0.00     0.049 A 
ATOM     51  N   UNL A   1      42.911  29.046  32.689  1.00  0.00    -0.248 NA
ATOM     52  C   UNL A   1      40.851  28.336  32.883  1.00  0.00     0.031 C 
ATOM     53  C   UNL A   1      45.428  26.590  30.548  1.00  0.00     0.029 A 
ATOM     54  N   UNL A   1      44.466  26.318  28.680  1.00  0.00    -0.354 N 
ATOM     55  C   UNL A   1      42.235  30.017  33.409  1.00  0.00     0.074 A 
ATOM     56  C   UNL A   1      40.912  29.548  33.423  1.00  0.00     0.031 C 
ATOM     57  C   UNL A   1      46.408  26.812  29.685  1.00  0.00     0.029 A 
ATOM     58  C   UNL A   1      45.744  26.860  28.462  1.00  0.00     0.049 A 
ATOM     59  H   UNL A   1      43.928  25.839  28.008  1.00  0.00     0.167 HD
ATOM     60  C   UNL A   1      42.775  31.195  33.881  1.00  0.00     0.034 A 
ATOM     61  C   UNL A   1      46.156  27.636  27.454  1.00  0.00     0.034 A 
ATOM     62  C   UNL A   1      44.139  31.479  33.379  1.00  0.00     0.049 A 
ATOM     63  C   UNL A   1      46.472  29.058  27.997  1.00  0.00     0.074 A 
ATOM     64  C   UNL A   1      45.409  31.306  33.905  1.00  0.00     0.029 A 
ATOM     65  N   UNL A   1      44.382  31.882  32.055  1.00  0.00    -0.354 N 
ATOM     66  N   UNL A   1      46.169  29.553  29.199  1.00  0.00    -0.248 NA
ATOM     67  C   UNL A   1      47.281  29.997  27.235  1.00  0.00     0.031 C 
ATOM     68  C   UNL A   1      46.337  31.215  32.811  1.00  0.00     0.029 A 
ATOM     69  C   UNL A   1      45.684  31.523  31.620  1.00  0.00     0.049 A 
ATOM     70  H   UNL A   1      43.726  32.357  31.495  1.00  0.00     0.167 HD
ATOM     71  C   UNL A   1      46.557  30.887  29.303  1.00  0.00     0.074 A 
ATOM     72  C   UNL A   1      47.371  31.030  28.090  1.00  0.00     0.031 C 
ATOM     73  C   UNL A   1      46.203  31.847  30.259  1.00  0.00     0.034 A 
BRANCH  60  74
ATOM     74  C   UNL A   1      42.118  31.872  35.123  1.00  0.00     0.023 A 
ATOM     75  C   UNL A   1      41.731  33.232  35.075  1.00  0.00     0.031 A 
ATOM     76  C   UNL A   1      41.981  31.284  36.407  1.00  0.00     0.131 A 
ATOM     77  C   UNL A   1      41.405  33.954  36.254  1.00  0.00     0.055 A 
ATOM     78  C   UNL A   1      41.743  32.014  37.586  1.00  0.00     0.041 A 
ATOM     79  F   UNL A   1      41.991  29.955  36.579  1.00  0.00    -0.206 F 
ATOM     80  C   UNL A   1      41.469  33.364  37.515  1.00  0.00     0.022 A 
BRANCH  77  81
ATOM     81  S   UNL A   1      40.836  35.680  36.191  1.00  0.00     0.124 S 
ATOM     82  O   UNL A   1      40.380  35.794  34.809  1.00  0.00    -0.237 OA
ATOM     83  O   UNL A   1      39.805  35.734  37.219  1.00  0.00    -0.237 OA
ATOM     84  O   UNL A   1      42.050  36.437  36.501  1.00  0.00    -0.744 OA
ENDBRANCH  77  81
ENDBRANCH  60  74
BRANCH  61  85
ATOM     85  C   UNL A   1      45.717  26.932  26.204  1.00  0.00     0.023 A 
ATOM     86  C   UNL A   1      46.119  25.546  26.138  1.00  0.00     0.031 A 
ATOM     87  C   UNL A   1      44.554  27.276  25.517  1.00  0.00     0.131 A 
ATOM     88  C   UNL A   1      45.236  24.553  25.677  1.00  0.00     0.055 A 
ATOM     89  C   UNL A   1      43.743  26.285  24.924  1.00  0.00     0.041 A 
ATOM     90  F   UNL A   1      44.078  28.528  25.578  1.00  0.00    -0.206 F 
ATOM     91  C   UNL A   1      44.047  24.922  25.057  1.00  0.00     0.022 A 
BRANCH  88  92
ATOM     92  S   UNL A   1      45.424  22.821  26.273  1.00  0.00     0.124 S 
ATOM     93  O   UNL A   1      46.582  22.357  25.518  1.00  0.00    -0.237 OA
ATOM     94  O   UNL A   1      45.622  22.986  27.710  1.00  0.00    -0.237 OA
ATOM     95  O   UNL A   1      44.144  22.209  25.919  1.00  0.00    -0.744 OA
ENDBRANCH  88  92
ENDBRANCH  61  85
BRANCH  73  96
ATOM     96  C   UNL A   1      46.415  33.350  30.001  1.00  0.00     0.023 A 
ATOM     97  C   UNL A   1      45.622  34.079  29.108  1.00  0.00     0.031 A 
ATOM     98  C   UNL A   1      47.375  34.126  30.703  1.00  0.00     0.131 A 
ATOM     99  C   UNL A   1      45.905  35.416  28.791  1.00  0.00     0.055 A 
ATOM    100  C   UNL A   1      47.552  35.500  30.501  1.00  0.00     0.041 A 
ATOM    101  F   UNL A   1      48.187  33.599  31.630  1.00  0.00    -0.206 F 
ATOM    102  C   UNL A   1      46.841  36.149  29.507  1.00  0.00     0.022 A 
BRANCH  99 103
ATOM    103  S   UNL A   1      45.125  36.097  27.309  1.00  0.00     0.124 S 
ATOM    104  O   UNL A   1      46.182  35.919  26.316  1.00  0.00    -0.237 OA
ATOM    105  O   UNL A   1      43.957  35.239  27.146  1.00  0.00    -0.237 OA
ATOM    106  O   UNL A   1      44.842  37.482  27.676  1.00  0.00    -0.744 OA
ENDBRANCH  99 103
ENDBRANCH  73  96
ENDBRANCH  47  48
ENDBRANCH  40  42
ENDBRANCH  39  40
ENDBRANCH  38  39
ENDBRANCH  37  38
ENDBRANCH  36  37
ENDBRANCH  35  36
ENDBRANCH   1  35
TORSDOF 25
ENDMDL
