MODEL 1
REMARK VINA RESULT:      -9.6      0.000      0.000
REMARK SMILES O=C(OCCOCCOCCOCCOC(=O)[C@H]1C[C@](O)(c2ccc(Cl)cc2)[C@@H](c2ccc(Cl)cc2)O1)c1ccc(-c2c3nc(c(-c4cc(S(=O)(=O)[O-])ccc4F)c4ccc([nH]4)c(-c4cc(S(=O)(=O)[O-])ccc4F)c4nc(c(-c5cc(S(=O)(=O)[O-])ccc5F)c5ccc2[nH]5)C=C4)C=C3)cc1
REMARK SMILES IDX 8 1 7 2 6 3 5 4 4 5 3 6 2 7 1 8 38 9 39 10 100 11 40 12
REMARK SMILES IDX 99 13 41 14 42 15 43 16 93 17 44 18 98 19 92 20 94 21 45 22
REMARK SMILES IDX 97 23 91 24 90 25 46 27 78 28 58 29 77 30 59 31 62 32 76 33
REMARK SMILES IDX 95 34 60 35 61 36 75 38 96 39 63 40 47 41 48 42 56 43 49 44
REMARK SMILES IDX 55 45 57 46 54 47 50 48 51 49 52 50 53 51 79 52 80 53 88 54
REMARK SMILES IDX 81 55 87 56 89 57 86 58 82 59 83 60 84 61 85 62 64 63 65 64
REMARK SMILES IDX 73 65 66 66 72 67 74 68 71 69 67 70 68 71 69 72 70 73 9 74
REMARK SMILES IDX 10 75 11 76 12 77 13 78 14 79 15 80 16 81 17 82 18 83 19 84
REMARK SMILES IDX 37 85 20 86 29 87 22 88 23 89 28 90 24 91 27 92 25 93 26 94
REMARK SMILES IDX 21 95 30 97 31 98 36 99 32 100 35 101 33 102 34 103
REMARK H PARENT 94 26 62 37 21 96
REMARK Flexibility Score: inf
ROOT
ATOM      1  C   UNL A   1      43.731  19.647  25.540  1.00  0.00     0.188 C 
ENDROOT
BRANCH   1   2
ATOM      2  C   UNL A   1      44.703  19.419  24.414  1.00  0.00     0.188 C 
BRANCH   2   3
ATOM      3  O   UNL A   1      45.954  20.080  24.565  1.00  0.00    -0.376 OA
BRANCH   3   4
ATOM      4  C   UNL A   1      46.054  21.498  24.451  1.00  0.00     0.202 C 
BRANCH   4   5
ATOM      5  C   UNL A   1      46.041  22.362  25.734  1.00  0.00     0.261 C 
BRANCH   5   6
ATOM      6  O   UNL A   1      45.038  23.406  25.830  1.00  0.00    -0.460 OA
BRANCH   6   7
ATOM      7  C   UNL A   1      45.193  24.733  25.527  1.00  0.00     0.338 C 
ATOM      8  O   UNL A   1      46.015  25.075  24.682  1.00  0.00    -0.246 OA
BRANCH   7   9
ATOM      9  C   UNL A   1      44.625  25.765  26.452  1.00  0.00     0.060 A 
ATOM     10  C   UNL A   1      45.454  26.566  27.210  1.00  0.00     0.016 A 
ATOM     11  C   UNL A   1      43.247  26.013  26.542  1.00  0.00     0.016 A 
ATOM     12  C   UNL A   1      45.035  27.701  27.854  1.00  0.00     0.010 A 
ATOM     13  C   UNL A   1      42.767  27.080  27.331  1.00  0.00     0.010 A 
ATOM     14  C   UNL A   1      43.679  27.935  27.971  1.00  0.00    -0.014 A 
BRANCH  14  15
ATOM     15  C   UNL A   1      43.375  28.827  29.100  1.00  0.00     0.031 A 
ATOM     16  C   UNL A   1      43.444  28.192  30.462  1.00  0.00     0.074 A 
ATOM     17  C   UNL A   1      43.439  30.161  28.934  1.00  0.00     0.049 A 
ATOM     18  N   UNL A   1      43.283  28.720  31.641  1.00  0.00    -0.248 NA
ATOM     19  C   UNL A   1      43.800  26.759  30.492  1.00  0.00     0.031 C 
ATOM     20  C   UNL A   1      43.723  30.838  27.662  1.00  0.00     0.029 A 
ATOM     21  N   UNL A   1      43.345  31.183  29.835  1.00  0.00    -0.354 N 
ATOM     22  C   UNL A   1      43.469  27.676  32.543  1.00  0.00     0.074 A 
ATOM     23  C   UNL A   1      43.784  26.493  31.783  1.00  0.00     0.031 C 
ATOM     24  C   UNL A   1      43.768  32.166  27.870  1.00  0.00     0.029 A 
ATOM     25  C   UNL A   1      43.445  32.434  29.265  1.00  0.00     0.049 A 
ATOM     26  H   UNL A   1      43.219  31.041  30.801  1.00  0.00     0.167 HD
ATOM     27  C   UNL A   1      43.343  27.713  33.889  1.00  0.00     0.034 A 
ATOM     28  C   UNL A   1      43.238  33.641  29.825  1.00  0.00     0.034 A 
ATOM     29  C   UNL A   1      42.982  28.924  34.573  1.00  0.00     0.049 A 
ATOM     30  C   UNL A   1      42.883  33.638  31.296  1.00  0.00     0.074 A 
ATOM     31  C   UNL A   1      42.641  29.116  35.895  1.00  0.00     0.029 A 
ATOM     32  N   UNL A   1      42.902  30.169  33.948  1.00  0.00    -0.354 N 
ATOM     33  N   UNL A   1      42.868  32.626  32.138  1.00  0.00    -0.248 NA
ATOM     34  C   UNL A   1      42.498  34.921  31.886  1.00  0.00     0.031 C 
ATOM     35  C   UNL A   1      42.275  30.459  36.049  1.00  0.00     0.029 A 
ATOM     36  C   UNL A   1      42.483  31.128  34.848  1.00  0.00     0.049 A 
ATOM     37  H   UNL A   1      43.115  30.339  33.002  1.00  0.00     0.167 HD
ATOM     38  C   UNL A   1      42.501  33.156  33.369  1.00  0.00     0.074 A 
ATOM     39  C   UNL A   1      42.322  34.582  33.155  1.00  0.00     0.031 C 
ATOM     40  C   UNL A   1      42.324  32.538  34.567  1.00  0.00     0.034 A 
BRANCH  27  41
ATOM     41  C   UNL A   1      43.400  26.383  34.600  1.00  0.00     0.023 A 
ATOM     42  C   UNL A   1      44.600  25.664  34.759  1.00  0.00     0.031 A 
ATOM     43  C   UNL A   1      42.197  25.739  34.945  1.00  0.00     0.131 A 
ATOM     44  C   UNL A   1      44.556  24.312  35.138  1.00  0.00     0.055 A 
ATOM     45  C   UNL A   1      42.171  24.425  35.414  1.00  0.00     0.041 A 
ATOM     46  F   UNL A   1      41.018  26.355  34.769  1.00  0.00    -0.206 F 
ATOM     47  C   UNL A   1      43.353  23.695  35.491  1.00  0.00     0.022 A 
BRANCH  44  48
ATOM     48  S   UNL A   1      46.059  23.306  34.953  1.00  0.00     0.124 S 
ATOM     49  O   UNL A   1      47.039  24.315  34.553  1.00  0.00    -0.237 OA
ATOM     50  O   UNL A   1      46.231  22.744  36.288  1.00  0.00    -0.237 OA
ATOM     51  O   UNL A   1      45.704  22.345  33.912  1.00  0.00    -0.744 OA
ENDBRANCH  44  48
ENDBRANCH  27  41
BRANCH  28  52
ATOM     52  C   UNL A   1      43.244  34.902  29.019  1.00  0.00     0.023 A 
ATOM     53  C   UNL A   1      44.436  35.585  28.725  1.00  0.00     0.031 A 
ATOM     54  C   UNL A   1      42.038  35.501  28.602  1.00  0.00     0.131 A 
ATOM     55  C   UNL A   1      44.396  36.839  28.086  1.00  0.00     0.055 A 
ATOM     56  C   UNL A   1      42.006  36.719  27.917  1.00  0.00     0.041 A 
ATOM     57  F   UNL A   1      40.859  34.916  28.864  1.00  0.00    -0.206 F 
ATOM     58  C   UNL A   1      43.190  37.404  27.670  1.00  0.00     0.022 A 
BRANCH  55  59
ATOM     59  S   UNL A   1      45.939  37.778  27.900  1.00  0.00     0.124 S 
ATOM     60  O   UNL A   1      45.511  38.887  27.056  1.00  0.00    -0.237 OA
ATOM     61  O   UNL A   1      46.261  38.108  29.283  1.00  0.00    -0.237 OA
ATOM     62  O   UNL A   1      46.844  36.823  27.262  1.00  0.00    -0.744 OA
ENDBRANCH  55  59
ENDBRANCH  28  52
BRANCH  40  63
ATOM     63  C   UNL A   1      41.979  33.425  35.731  1.00  0.00     0.023 A 
ATOM     64  C   UNL A   1      42.971  34.030  36.517  1.00  0.00     0.031 A 
ATOM     65  C   UNL A   1      40.630  33.670  36.044  1.00  0.00     0.131 A 
ATOM     66  C   UNL A   1      42.598  34.800  37.625  1.00  0.00     0.055 A 
ATOM     67  C   UNL A   1      40.267  34.502  37.099  1.00  0.00     0.041 A 
ATOM     68  F   UNL A   1      39.647  33.111  35.319  1.00  0.00    -0.206 F 
ATOM     69  C   UNL A   1      41.253  35.060  37.907  1.00  0.00     0.022 A 
BRANCH  66  70
ATOM     70  S   UNL A   1      43.893  35.363  38.758  1.00  0.00     0.124 S 
ATOM     71  O   UNL A   1      44.560  36.392  37.967  1.00  0.00    -0.237 OA
ATOM     72  O   UNL A   1      43.124  35.839  39.903  1.00  0.00    -0.237 OA
ATOM     73  O   UNL A   1      44.683  34.157  39.000  1.00  0.00    -0.744 OA
ENDBRANCH  66  70
ENDBRANCH  40  63
ENDBRANCH  14  15
ENDBRANCH   7   9
ENDBRANCH   6   7
ENDBRANCH   5   6
ENDBRANCH   4   5
ENDBRANCH   3   4
ENDBRANCH   2   3
ENDBRANCH   1   2
BRANCH   1  74
ATOM     74  O   UNL A   1      42.600  18.823  25.423  1.00  0.00    -0.377 OA
BRANCH  74  75
ATOM     75  C   UNL A   1      41.398  19.192  26.070  1.00  0.00     0.188 C 
BRANCH  75  76
ATOM     76  C   UNL A   1      41.090  20.482  26.822  1.00  0.00     0.188 C 
BRANCH  76  77
ATOM     77  O   UNL A   1      40.490  21.537  26.097  1.00  0.00    -0.376 OA
BRANCH  77  78
ATOM     78  C   UNL A   1      39.280  22.135  26.537  1.00  0.00     0.202 C 
BRANCH  78  79
ATOM     79  C   UNL A   1      39.143  23.669  26.535  1.00  0.00     0.261 C 
BRANCH  79  80
ATOM     80  O   UNL A   1      37.909  24.110  25.901  1.00  0.00    -0.461 OA
BRANCH  80  81
ATOM     81  C   UNL A   1      37.104  23.209  25.267  1.00  0.00     0.335 C 
ATOM     82  O   UNL A   1      37.511  22.235  24.663  1.00  0.00    -0.249 OA
BRANCH  81  83
ATOM     83  C   UNL A   1      35.579  23.500  25.496  1.00  0.00     0.232 C 
ATOM     84  C   UNL A   1      34.920  24.220  24.323  1.00  0.00     0.087 C 
ATOM     85  O   UNL A   1      34.721  22.441  25.892  1.00  0.00    -0.355 OA
ATOM     86  C   UNL A   1      33.672  23.416  23.908  1.00  0.00     0.123 C 
ATOM     87  C   UNL A   1      33.600  22.275  24.979  1.00  0.00     0.186 C 
BRANCH  86  88
ATOM     88  C   UNL A   1      32.552  24.456  23.735  1.00  0.00    -0.013 A 
ATOM     89  C   UNL A   1      31.589  24.579  24.779  1.00  0.00     0.008 A 
ATOM     90  C   UNL A   1      32.380  25.257  22.607  1.00  0.00     0.008 A 
ATOM     91  C   UNL A   1      30.522  25.475  24.709  1.00  0.00     0.021 A 
ATOM     92  C   UNL A   1      31.305  26.157  22.533  1.00  0.00     0.021 A 
ATOM     93  C   UNL A   1      30.388  26.265  23.579  1.00  0.00     0.041 A 
ATOM     94  Cl  UNL A   1      29.079  27.378  23.468  1.00  0.00    -0.084 Cl
ENDBRANCH  86  88
BRANCH  86  95
ATOM     95  O   UNL A   1      33.712  22.888  22.587  1.00  0.00    -0.382 OA
ATOM     96  H   UNL A   1      34.626  22.898  22.263  1.00  0.00     0.212 HD
ENDBRANCH  86  95
BRANCH  87  97
ATOM     97  C   UNL A   1      33.625  20.797  24.561  1.00  0.00    -0.016 A 
ATOM     98  C   UNL A   1      34.750  19.992  24.798  1.00  0.00     0.008 A 
ATOM     99  C   UNL A   1      32.499  20.150  24.036  1.00  0.00     0.008 A 
ATOM    100  C   UNL A   1      34.774  18.615  24.560  1.00  0.00     0.021 A 
ATOM    101  C   UNL A   1      32.510  18.761  23.789  1.00  0.00     0.021 A 
ATOM    102  C   UNL A   1      33.645  18.000  24.055  1.00  0.00     0.041 A 
ATOM    103  Cl  UNL A   1      33.659  16.304  23.776  1.00  0.00    -0.084 Cl
ENDBRANCH  87  97
ENDBRANCH  81  83
ENDBRANCH  80  81
ENDBRANCH  79  80
ENDBRANCH  78  79
ENDBRANCH  77  78
ENDBRANCH  76  77
ENDBRANCH  75  76
ENDBRANCH  74  75
ENDBRANCH   1  74
TORSDOF 26
ENDMDL
MODEL 2
REMARK VINA RESULT:      -9.6      5.779     12.907
REMARK SMILES O=C(OCCOCCOCCOCCOC(=O)[C@H]1C[C@](O)(c2ccc(Cl)cc2)[C@@H](c2ccc(Cl)cc2)O1)c1ccc(-c2c3nc(c(-c4cc(S(=O)(=O)[O-])ccc4F)c4ccc([nH]4)c(-c4cc(S(=O)(=O)[O-])ccc4F)c4nc(c(-c5cc(S(=O)(=O)[O-])ccc5F)c5ccc2[nH]5)C=C4)C=C3)cc1
REMARK SMILES IDX 8 1 7 2 6 3 5 4 4 5 3 6 2 7 1 8 38 9 39 10 100 11 40 12
REMARK SMILES IDX 99 13 41 14 42 15 43 16 93 17 44 18 98 19 92 20 94 21 45 22
REMARK SMILES IDX 97 23 91 24 90 25 46 27 78 28 58 29 77 30 59 31 62 32 76 33
REMARK SMILES IDX 95 34 60 35 61 36 75 38 96 39 63 40 47 41 48 42 56 43 49 44
REMARK SMILES IDX 55 45 57 46 54 47 50 48 51 49 52 50 53 51 79 52 80 53 88 54
REMARK SMILES IDX 81 55 87 56 89 57 86 58 82 59 83 60 84 61 85 62 64 63 65 64
REMARK SMILES IDX 73 65 66 66 72 67 74 68 71 69 67 70 68 71 69 72 70 73 9 74
REMARK SMILES IDX 10 75 11 76 12 77 13 78 14 79 15 80 16 81 17 82 18 83 19 84
REMARK SMILES IDX 37 85 20 86 29 87 22 88 23 89 28 90 24 91 27 92 25 93 26 94
REMARK SMILES IDX 21 95 30 97 31 98 36 99 32 100 35 101 33 102 34 103
REMARK H PARENT 94 26 62 37 21 96
REMARK Flexibility Score: inf
ROOT
ATOM      1  C   UNL A   1      34.502  33.910  31.991  1.00  0.00     0.188 C 
ENDROOT
BRANCH   1   2
ATOM      2  C   UNL A   1      33.975  35.292  31.714  1.00  0.00     0.188 C 
BRANCH   2   3
ATOM      3  O   UNL A   1      32.821  35.333  30.883  1.00  0.00    -0.376 OA
BRANCH   3   4
ATOM      4  C   UNL A   1      32.901  35.793  29.536  1.00  0.00     0.202 C 
BRANCH   4   5
ATOM      5  C   UNL A   1      34.197  35.545  28.729  1.00  0.00     0.261 C 
BRANCH   5   6
ATOM      6  O   UNL A   1      34.211  34.422  27.810  1.00  0.00    -0.460 OA
BRANCH   6   7
ATOM      7  C   UNL A   1      34.365  33.098  28.125  1.00  0.00     0.338 C 
ATOM      8  O   UNL A   1      33.378  32.376  28.234  1.00  0.00    -0.246 OA
BRANCH   7   9
ATOM      9  C   UNL A   1      35.679  32.622  28.665  1.00  0.00     0.060 A 
ATOM     10  C   UNL A   1      36.852  33.272  28.340  1.00  0.00     0.016 A 
ATOM     11  C   UNL A   1      35.775  31.551  29.566  1.00  0.00     0.016 A 
ATOM     12  C   UNL A   1      38.037  33.079  29.002  1.00  0.00     0.010 A 
ATOM     13  C   UNL A   1      37.019  31.220  30.146  1.00  0.00     0.010 A 
ATOM     14  C   UNL A   1      38.146  32.010  29.868  1.00  0.00    -0.014 A 
BRANCH  14  15
ATOM     15  C   UNL A   1      39.547  31.607  30.064  1.00  0.00     0.031 A 
ATOM     16  C   UNL A   1      40.260  32.283  31.203  1.00  0.00     0.074 A 
ATOM     17  C   UNL A   1      39.991  30.454  29.531  1.00  0.00     0.049 A 
ATOM     18  N   UNL A   1      41.467  32.106  31.658  1.00  0.00    -0.248 NA
ATOM     19  C   UNL A   1      39.469  33.265  31.972  1.00  0.00     0.031 C 
ATOM     20  C   UNL A   1      39.198  29.560  28.677  1.00  0.00     0.029 A 
ATOM     21  N   UNL A   1      41.179  29.795  29.681  1.00  0.00    -0.354 N 
ATOM     22  C   UNL A   1      41.592  32.987  32.729  1.00  0.00     0.074 A 
ATOM     23  C   UNL A   1      40.336  33.675  32.877  1.00  0.00     0.031 C 
ATOM     24  C   UNL A   1      39.933  28.476  28.372  1.00  0.00     0.029 A 
ATOM     25  C   UNL A   1      41.262  28.633  28.945  1.00  0.00     0.049 A 
ATOM     26  H   UNL A   1      41.906  30.118  30.260  1.00  0.00     0.167 HD
ATOM     27  C   UNL A   1      42.688  33.217  33.487  1.00  0.00     0.034 A 
ATOM     28  C   UNL A   1      42.328  27.836  28.734  1.00  0.00     0.034 A 
ATOM     29  C   UNL A   1      43.922  32.521  33.248  1.00  0.00     0.049 A 
ATOM     30  C   UNL A   1      43.609  28.244  29.429  1.00  0.00     0.074 A 
ATOM     31  C   UNL A   1      45.171  32.740  33.789  1.00  0.00     0.029 A 
ATOM     32  N   UNL A   1      44.047  31.456  32.356  1.00  0.00    -0.354 N 
ATOM     33  N   UNL A   1      43.799  29.202  30.312  1.00  0.00    -0.248 NA
ATOM     34  C   UNL A   1      44.816  27.489  29.089  1.00  0.00     0.031 C 
ATOM     35  C   UNL A   1      46.066  31.863  33.162  1.00  0.00     0.029 A 
ATOM     36  C   UNL A   1      45.359  31.029  32.304  1.00  0.00     0.049 A 
ATOM     37  H   UNL A   1      43.307  31.064  31.839  1.00  0.00     0.167 HD
ATOM     38  C   UNL A   1      45.143  29.145  30.658  1.00  0.00     0.074 A 
ATOM     39  C   UNL A   1      45.708  28.044  29.897  1.00  0.00     0.031 C 
ATOM     40  C   UNL A   1      45.856  29.920  31.519  1.00  0.00     0.034 A 
BRANCH  27  41
ATOM     41  C   UNL A   1      42.601  34.377  34.448  1.00  0.00     0.023 A 
ATOM     42  C   UNL A   1      42.941  35.692  34.075  1.00  0.00     0.031 A 
ATOM     43  C   UNL A   1      42.366  34.122  35.812  1.00  0.00     0.131 A 
ATOM     44  C   UNL A   1      43.146  36.666  35.066  1.00  0.00     0.055 A 
ATOM     45  C   UNL A   1      42.478  35.120  36.781  1.00  0.00     0.041 A 
ATOM     46  F   UNL A   1      42.087  32.878  36.235  1.00  0.00    -0.206 F 
ATOM     47  C   UNL A   1      42.892  36.396  36.413  1.00  0.00     0.022 A 
BRANCH  44  48
ATOM     48  S   UNL A   1      43.959  38.224  34.602  1.00  0.00     0.124 S 
ATOM     49  O   UNL A   1      45.175  37.737  33.953  1.00  0.00    -0.237 OA
ATOM     50  O   UNL A   1      42.974  38.847  33.726  1.00  0.00    -0.237 OA
ATOM     51  O   UNL A   1      44.171  38.897  35.881  1.00  0.00    -0.744 OA
ENDBRANCH  44  48
ENDBRANCH  27  41
BRANCH  28  52
ATOM     52  C   UNL A   1      42.282  26.685  27.779  1.00  0.00     0.023 A 
ATOM     53  C   UNL A   1      42.135  25.360  28.227  1.00  0.00     0.031 A 
ATOM     54  C   UNL A   1      42.478  26.881  26.398  1.00  0.00     0.131 A 
ATOM     55  C   UNL A   1      42.236  24.291  27.318  1.00  0.00     0.055 A 
ATOM     56  C   UNL A   1      42.520  25.818  25.490  1.00  0.00     0.041 A 
ATOM     57  F   UNL A   1      42.644  28.116  25.900  1.00  0.00    -0.206 F 
ATOM     58  C   UNL A   1      42.416  24.512  25.951  1.00  0.00     0.022 A 
BRANCH  55  59
ATOM     59  S   UNL A   1      42.237  22.592  27.960  1.00  0.00     0.124 S 
ATOM     60  O   UNL A   1      42.810  22.778  29.288  1.00  0.00    -0.237 OA
ATOM     61  O   UNL A   1      40.820  22.250  27.913  1.00  0.00    -0.237 OA
ATOM     62  O   UNL A   1      43.082  21.869  27.011  1.00  0.00    -0.744 OA
ENDBRANCH  55  59
ENDBRANCH  28  52
BRANCH  40  63
ATOM     63  C   UNL A   1      47.300  29.549  31.711  1.00  0.00     0.023 A 
ATOM     64  C   UNL A   1      47.708  28.677  32.731  1.00  0.00     0.031 A 
ATOM     65  C   UNL A   1      48.276  30.076  30.847  1.00  0.00     0.131 A 
ATOM     66  C   UNL A   1      49.071  28.408  32.904  1.00  0.00     0.055 A 
ATOM     67  C   UNL A   1      49.621  29.741  30.975  1.00  0.00     0.041 A 
ATOM     68  F   UNL A   1      47.931  30.916  29.856  1.00  0.00    -0.206 F 
ATOM     69  C   UNL A   1      50.027  28.914  32.018  1.00  0.00     0.022 A 
BRANCH  66  70
ATOM     70  S   UNL A   1      49.586  27.479  34.371  1.00  0.00     0.124 S 
ATOM     71  O   UNL A   1      50.824  28.160  34.739  1.00  0.00    -0.237 OA
ATOM     72  O   UNL A   1      48.459  27.674  35.277  1.00  0.00    -0.237 OA
ATOM     73  O   UNL A   1      49.753  26.116  33.871  1.00  0.00    -0.744 OA
ENDBRANCH  66  70
ENDBRANCH  40  63
ENDBRANCH  14  15
ENDBRANCH   7   9
ENDBRANCH   6   7
ENDBRANCH   5   6
ENDBRANCH   4   5
ENDBRANCH   3   4
ENDBRANCH   2   3
ENDBRANCH   1   2
BRANCH   1  74
ATOM     74  O   UNL A   1      35.859  33.936  32.352  1.00  0.00    -0.377 OA
BRANCH  74  75
ATOM     75  C   UNL A   1      36.219  34.191  33.695  1.00  0.00     0.188 C 
BRANCH  75  76
ATOM     76  C   UNL A   1      36.446  33.184  34.818  1.00  0.00     0.188 C 
BRANCH  76  77
ATOM     77  O   UNL A   1      37.755  32.680  34.993  1.00  0.00    -0.376 OA
BRANCH  77  78
ATOM     78  C   UNL A   1      37.984  31.299  35.229  1.00  0.00     0.202 C 
BRANCH  78  79
ATOM     79  C   UNL A   1      39.427  30.774  35.340  1.00  0.00     0.261 C 
BRANCH  79  80
ATOM     80  O   UNL A   1      39.883  30.153  34.105  1.00  0.00    -0.461 OA
BRANCH  80  81
ATOM     81  C   UNL A   1      40.716  29.071  34.148  1.00  0.00     0.335 C 
ATOM     82  O   UNL A   1      40.339  27.917  34.088  1.00  0.00    -0.249 OA
BRANCH  81  83
ATOM     83  C   UNL A   1      42.230  29.480  34.169  1.00  0.00     0.232 C 
ATOM     84  C   UNL A   1      42.704  29.968  35.536  1.00  0.00     0.087 C 
ATOM     85  O   UNL A   1      43.202  28.572  33.671  1.00  0.00    -0.355 OA
ATOM     86  C   UNL A   1      43.956  29.157  35.924  1.00  0.00     0.123 C 
ATOM     87  C   UNL A   1      44.227  28.274  34.660  1.00  0.00     0.186 C 
BRANCH  86  88
ATOM     88  C   UNL A   1      44.971  30.192  36.440  1.00  0.00    -0.013 A 
ATOM     89  C   UNL A   1      46.352  29.840  36.418  1.00  0.00     0.008 A 
ATOM     90  C   UNL A   1      44.635  31.435  36.975  1.00  0.00     0.008 A 
ATOM     91  C   UNL A   1      47.349  30.697  36.884  1.00  0.00     0.021 A 
ATOM     92  C   UNL A   1      45.637  32.298  37.448  1.00  0.00     0.021 A 
ATOM     93  C   UNL A   1      46.983  31.930  37.397  1.00  0.00     0.041 A 
ATOM     94  Cl  UNL A   1      48.193  33.005  37.980  1.00  0.00    -0.084 Cl
ENDBRANCH  86  88
BRANCH  86  95
ATOM     95  O   UNL A   1      43.814  28.361  37.096  1.00  0.00    -0.382 OA
ATOM     96  H   UNL A   1      44.381  27.577  37.024  1.00  0.00     0.212 HD
ENDBRANCH  86  95
BRANCH  87  97
ATOM     97  C   UNL A   1      44.266  26.741  34.761  1.00  0.00    -0.016 A 
ATOM     98  C   UNL A   1      43.091  25.977  34.704  1.00  0.00     0.008 A 
ATOM     99  C   UNL A   1      45.470  26.025  34.796  1.00  0.00     0.008 A 
ATOM    100  C   UNL A   1      43.083  24.580  34.657  1.00  0.00     0.021 A 
ATOM    101  C   UNL A   1      45.477  24.615  34.752  1.00  0.00     0.021 A 
ATOM    102  C   UNL A   1      44.285  23.900  34.678  1.00  0.00     0.041 A 
ATOM    103  Cl  UNL A   1      44.286  22.183  34.604  1.00  0.00    -0.084 Cl
ENDBRANCH  87  97
ENDBRANCH  81  83
ENDBRANCH  80  81
ENDBRANCH  79  80
ENDBRANCH  78  79
ENDBRANCH  77  78
ENDBRANCH  76  77
ENDBRANCH  75  76
ENDBRANCH  74  75
ENDBRANCH   1  74
TORSDOF 26
ENDMDL
MODEL 3
REMARK VINA RESULT:      -9.5      6.637     11.074
REMARK SMILES O=C(OCCOCCOCCOCCOC(=O)[C@H]1C[C@](O)(c2ccc(Cl)cc2)[C@@H](c2ccc(Cl)cc2)O1)c1ccc(-c2c3nc(c(-c4cc(S(=O)(=O)[O-])ccc4F)c4ccc([nH]4)c(-c4cc(S(=O)(=O)[O-])ccc4F)c4nc(c(-c5cc(S(=O)(=O)[O-])ccc5F)c5ccc2[nH]5)C=C4)C=C3)cc1
REMARK SMILES IDX 8 1 7 2 6 3 5 4 4 5 3 6 2 7 1 8 38 9 39 10 100 11 40 12
REMARK SMILES IDX 99 13 41 14 42 15 43 16 93 17 44 18 98 19 92 20 94 21 45 22
REMARK SMILES IDX 97 23 91 24 90 25 46 27 78 28 58 29 77 30 59 31 62 32 76 33
REMARK SMILES IDX 95 34 60 35 61 36 75 38 96 39 63 40 47 41 48 42 56 43 49 44
REMARK SMILES IDX 55 45 57 46 54 47 50 48 51 49 52 50 53 51 79 52 80 53 88 54
REMARK SMILES IDX 81 55 87 56 89 57 86 58 82 59 83 60 84 61 85 62 64 63 65 64
REMARK SMILES IDX 73 65 66 66 72 67 74 68 71 69 67 70 68 71 69 72 70 73 9 74
REMARK SMILES IDX 10 75 11 76 12 77 13 78 14 79 15 80 16 81 17 82 18 83 19 84
REMARK SMILES IDX 37 85 20 86 29 87 22 88 23 89 28 90 24 91 27 92 25 93 26 94
REMARK SMILES IDX 21 95 30 97 31 98 36 99 32 100 35 101 33 102 34 103
REMARK H PARENT 94 26 62 37 21 96
REMARK Flexibility Score: inf
ROOT
ATOM      1  C   UNL A   1      43.979  18.797  24.699  1.00  0.00     0.188 C 
ENDROOT
BRANCH   1   2
ATOM      2  C   UNL A   1      43.246  18.502  25.979  1.00  0.00     0.188 C 
BRANCH   2   3
ATOM      3  O   UNL A   1      41.877  18.890  25.983  1.00  0.00    -0.376 OA
BRANCH   3   4
ATOM      4  C   UNL A   1      41.502  20.264  26.060  1.00  0.00     0.202 C 
BRANCH   4   5
ATOM      5  C   UNL A   1      41.138  20.871  27.435  1.00  0.00     0.261 C 
BRANCH   5   6
ATOM      6  O   UNL A   1      41.432  22.276  27.648  1.00  0.00    -0.460 OA
BRANCH   6   7
ATOM      7  C   UNL A   1      42.530  22.806  28.271  1.00  0.00     0.338 C 
ATOM      8  O   UNL A   1      43.147  22.139  29.096  1.00  0.00    -0.246 OA
BRANCH   7   9
ATOM      9  C   UNL A   1      42.765  24.284  28.206  1.00  0.00     0.060 A 
ATOM     10  C   UNL A   1      43.299  24.962  29.284  1.00  0.00     0.016 A 
ATOM     11  C   UNL A   1      42.523  25.031  27.043  1.00  0.00     0.016 A 
ATOM     12  C   UNL A   1      43.798  26.236  29.209  1.00  0.00     0.010 A 
ATOM     13  C   UNL A   1      42.879  26.396  26.989  1.00  0.00     0.010 A 
ATOM     14  C   UNL A   1      43.538  26.985  28.080  1.00  0.00    -0.014 A 
BRANCH  14  15
ATOM     15  C   UNL A   1      43.635  28.429  28.348  1.00  0.00     0.031 A 
ATOM     16  C   UNL A   1      42.396  29.065  28.914  1.00  0.00     0.074 A 
ATOM     17  C   UNL A   1      44.845  29.008  28.456  1.00  0.00     0.049 A 
ATOM     18  N   UNL A   1      42.185  30.290  29.301  1.00  0.00    -0.248 NA
ATOM     19  C   UNL A   1      41.242  28.166  29.122  1.00  0.00     0.031 C 
ATOM     20  C   UNL A   1      46.128  28.323  28.251  1.00  0.00     0.029 A 
ATOM     21  N   UNL A   1      45.205  30.271  28.833  1.00  0.00    -0.354 N 
ATOM     22  C   UNL A   1      40.867  30.317  29.748  1.00  0.00     0.074 A 
ATOM     23  C   UNL A   1      40.334  28.985  29.615  1.00  0.00     0.031 C 
ATOM     24  C   UNL A   1      47.131  29.185  28.495  1.00  0.00     0.029 A 
ATOM     25  C   UNL A   1      46.564  30.491  28.800  1.00  0.00     0.049 A 
ATOM     26  H   UNL A   1      44.554  30.959  29.104  1.00  0.00     0.167 HD
ATOM     27  C   UNL A   1      40.165  31.384  30.191  1.00  0.00     0.034 A 
ATOM     28  C   UNL A   1      47.241  31.646  28.951  1.00  0.00     0.034 A 
ATOM     29  C   UNL A   1      40.755  32.694  30.253  1.00  0.00     0.049 A 
ATOM     30  C   UNL A   1      46.403  32.874  29.234  1.00  0.00     0.074 A 
ATOM     31  C   UNL A   1      40.160  33.912  30.505  1.00  0.00     0.029 A 
ATOM     32  N   UNL A   1      42.110  32.941  30.034  1.00  0.00    -0.354 N 
ATOM     33  N   UNL A   1      45.111  32.953  29.477  1.00  0.00    -0.248 NA
ATOM     34  C   UNL A   1      47.099  34.162  29.242  1.00  0.00     0.031 C 
ATOM     35  C   UNL A   1      41.140  34.902  30.355  1.00  0.00     0.029 A 
ATOM     36  C   UNL A   1      42.366  34.295  30.109  1.00  0.00     0.049 A 
ATOM     37  H   UNL A   1      42.787  32.249  29.853  1.00  0.00     0.167 HD
ATOM     38  C   UNL A   1      44.843  34.297  29.698  1.00  0.00     0.074 A 
ATOM     39  C   UNL A   1      46.116  34.987  29.575  1.00  0.00     0.031 C 
ATOM     40  C   UNL A   1      43.665  34.918  29.976  1.00  0.00     0.034 A 
BRANCH  27  41
ATOM     41  C   UNL A   1      38.690  31.164  30.417  1.00  0.00     0.023 A 
ATOM     42  C   UNL A   1      37.714  31.600  29.500  1.00  0.00     0.031 A 
ATOM     43  C   UNL A   1      38.251  30.688  31.666  1.00  0.00     0.131 A 
ATOM     44  C   UNL A   1      36.366  31.657  29.892  1.00  0.00     0.055 A 
ATOM     45  C   UNL A   1      36.899  30.657  32.012  1.00  0.00     0.041 A 
ATOM     46  F   UNL A   1      39.137  30.305  32.600  1.00  0.00    -0.206 F 
ATOM     47  C   UNL A   1      35.949  31.165  31.132  1.00  0.00     0.022 A 
BRANCH  44  48
ATOM     48  S   UNL A   1      35.195  32.582  28.855  1.00  0.00     0.124 S 
ATOM     49  O   UNL A   1      35.067  31.698  27.698  1.00  0.00    -0.237 OA
ATOM     50  O   UNL A   1      34.021  32.682  29.714  1.00  0.00    -0.237 OA
ATOM     51  O   UNL A   1      35.886  33.842  28.595  1.00  0.00    -0.744 OA
ENDBRANCH  44  48
ENDBRANCH  27  41
BRANCH  28  52
ATOM     52  C   UNL A   1      48.720  31.734  28.737  1.00  0.00     0.023 A 
ATOM     53  C   UNL A   1      49.264  32.199  27.527  1.00  0.00     0.031 A 
ATOM     54  C   UNL A   1      49.623  31.265  29.711  1.00  0.00     0.131 A 
ATOM     55  C   UNL A   1      50.652  32.138  27.305  1.00  0.00     0.055 A 
ATOM     56  C   UNL A   1      51.006  31.260  29.509  1.00  0.00     0.041 A 
ATOM     57  F   UNL A   1      49.175  30.789  30.884  1.00  0.00    -0.206 F 
ATOM     58  C   UNL A   1      51.527  31.683  28.292  1.00  0.00     0.022 A 
BRANCH  55  59
ATOM     59  S   UNL A   1      51.296  32.563  25.661  1.00  0.00     0.124 S 
ATOM     60  O   UNL A   1      51.420  31.249  25.042  1.00  0.00    -0.237 OA
ATOM     61  O   UNL A   1      50.242  33.425  25.137  1.00  0.00    -0.237 OA
ATOM     62  O   UNL A   1      52.560  33.237  25.954  1.00  0.00    -0.744 OA
ENDBRANCH  55  59
ENDBRANCH  28  52
BRANCH  40  63
ATOM     63  C   UNL A   1      43.733  36.400  30.220  1.00  0.00     0.023 A 
ATOM     64  C   UNL A   1      43.536  37.328  29.186  1.00  0.00     0.031 A 
ATOM     65  C   UNL A   1      43.988  36.881  31.516  1.00  0.00     0.131 A 
ATOM     66  C   UNL A   1      43.665  38.695  29.454  1.00  0.00     0.055 A 
ATOM     67  C   UNL A   1      44.036  38.245  31.791  1.00  0.00     0.041 A 
ATOM     68  F   UNL A   1      44.184  36.029  32.537  1.00  0.00    -0.206 F 
ATOM     69  C   UNL A   1      43.890  39.161  30.753  1.00  0.00     0.022 A 
BRANCH  66  70
ATOM     70  S   UNL A   1      43.649  39.851  28.060  1.00  0.00     0.124 S 
ATOM     71  O   UNL A   1      42.464  40.653  28.347  1.00  0.00    -0.237 OA
ATOM     72  O   UNL A   1      44.930  40.534  28.204  1.00  0.00    -0.237 OA
ATOM     73  O   UNL A   1      43.539  38.977  26.893  1.00  0.00    -0.744 OA
ENDBRANCH  66  70
ENDBRANCH  40  63
ENDBRANCH  14  15
ENDBRANCH   7   9
ENDBRANCH   6   7
ENDBRANCH   5   6
ENDBRANCH   4   5
ENDBRANCH   3   4
ENDBRANCH   2   3
ENDBRANCH   1   2
BRANCH   1  74
ATOM     74  O   UNL A   1      45.371  18.803  24.888  1.00  0.00    -0.377 OA
BRANCH  74  75
ATOM     75  C   UNL A   1      46.039  20.029  25.113  1.00  0.00     0.188 C 
BRANCH  75  76
ATOM     76  C   UNL A   1      45.472  21.442  25.024  1.00  0.00     0.188 C 
BRANCH  76  77
ATOM     77  O   UNL A   1      46.170  22.472  25.694  1.00  0.00    -0.376 OA
BRANCH  77  78
ATOM     78  C   UNL A   1      46.539  23.667  25.022  1.00  0.00     0.202 C 
BRANCH  78  79
ATOM     79  C   UNL A   1      45.605  24.889  25.070  1.00  0.00     0.261 C 
BRANCH  79  80
ATOM     80  O   UNL A   1      46.287  26.085  25.542  1.00  0.00    -0.461 OA
BRANCH  80  81
ATOM     81  C   UNL A   1      46.867  26.941  24.650  1.00  0.00     0.335 C 
ATOM     82  O   UNL A   1      46.470  28.069  24.428  1.00  0.00    -0.249 OA
BRANCH  81  83
ATOM     83  C   UNL A   1      48.178  26.353  24.020  1.00  0.00     0.232 C 
ATOM     84  C   UNL A   1      48.923  27.351  23.138  1.00  0.00     0.087 C 
ATOM     85  O   UNL A   1      49.132  25.723  24.863  1.00  0.00    -0.355 OA
ATOM     86  C   UNL A   1      50.385  27.419  23.622  1.00  0.00     0.123 C 
ATOM     87  C   UNL A   1      50.450  26.326  24.742  1.00  0.00     0.186 C 
BRANCH  86  88
ATOM     88  C   UNL A   1      51.243  27.345  22.347  1.00  0.00    -0.013 A 
ATOM     89  C   UNL A   1      52.644  27.135  22.498  1.00  0.00     0.008 A 
ATOM     90  C   UNL A   1      50.756  27.518  21.051  1.00  0.00     0.008 A 
ATOM     91  C   UNL A   1      53.512  27.076  21.407  1.00  0.00     0.021 A 
ATOM     92  C   UNL A   1      51.629  27.462  19.953  1.00  0.00     0.021 A 
ATOM     93  C   UNL A   1      52.994  27.239  20.133  1.00  0.00     0.041 A 
ATOM     94  Cl  UNL A   1      54.044  27.172  18.771  1.00  0.00    -0.084 Cl
ENDBRANCH  86  88
BRANCH  86  95
ATOM     95  O   UNL A   1      50.796  28.691  24.111  1.00  0.00    -0.382 OA
ATOM     96  H   UNL A   1      51.610  28.591  24.628  1.00  0.00     0.212 HD
ENDBRANCH  86  95
BRANCH  87  97
ATOM     97  C   UNL A   1      50.870  26.688  26.175  1.00  0.00    -0.016 A 
ATOM     98  C   UNL A   1      52.051  26.181  26.738  1.00  0.00     0.008 A 
ATOM     99  C   UNL A   1      50.169  27.625  26.945  1.00  0.00     0.008 A 
ATOM    100  C   UNL A   1      52.544  26.583  27.982  1.00  0.00     0.021 A 
ATOM    101  C   UNL A   1      50.654  28.039  28.203  1.00  0.00     0.021 A 
ATOM    102  C   UNL A   1      51.840  27.520  28.714  1.00  0.00     0.041 A 
ATOM    103  Cl  UNL A   1      52.448  28.034  30.237  1.00  0.00    -0.084 Cl
ENDBRANCH  87  97
ENDBRANCH  81  83
ENDBRANCH  80  81
ENDBRANCH  79  80
ENDBRANCH  78  79
ENDBRANCH  77  78
ENDBRANCH  76  77
ENDBRANCH  75  76
ENDBRANCH  74  75
ENDBRANCH   1  74
TORSDOF 26
ENDMDL
