MODEL 1
REMARK VINA RESULT:      -9.8      0.000      0.000
REMARK SMILES CC[N@@H+]1CCO[C@H](c2nc(C)c(C(=O)OCCOCCOCCOCCOC(=O)c3ccc(-c4c5nc(c(-c6cc(S(=O)(=O)[O-])ccc6F)c6ccc([nH]6)c(-c6cc(S(=O)(=O)[O-])ccc6F)c6nc(c(-c7cc(S(=O)(=O)[O-])ccc7F)c7ccc4[nH]7)C=C6)C=C5)cc3)s2)C1
REMARK SMILES IDX 22 1 21 2 20 3 19 4 18 5 17 6 16 7 15 8 13 9 14 10 12 11
REMARK SMILES IDX 8 12 9 13 93 14 10 15 11 16 7 17 3 18 4 19 94 20 5 22 6 23
REMARK SMILES IDX 2 24 1 25 23 26 24 27 25 28 26 29 27 30 28 31 29 32 30 33
REMARK SMILES IDX 31 34 92 35 32 36 91 37 33 38 34 39 35 40 85 41 36 42 90 43
REMARK SMILES IDX 84 44 86 45 37 46 89 47 83 48 82 49 38 51 70 52 50 53 69 54
REMARK SMILES IDX 51 55 54 56 68 57 87 58 52 59 53 60 67 62 88 63 55 64 39 65
REMARK SMILES IDX 40 66 48 67 41 68 47 69 49 70 46 71 42 72 43 73 44 74 45 75
REMARK SMILES IDX 71 76 72 77 80 78 73 79 79 80 81 81 78 82 74 83 75 84 76 85
REMARK SMILES IDX 77 86 56 87 57 88 65 89 58 90 64 91 66 92 63 93 59 94 60 95
REMARK SMILES IDX 61 96 62 97
REMARK H PARENT 3 21 86 50 54 61
REMARK Flexibility Score: inf
ROOT
ATOM      1  C   UNL A   1      33.840  22.571  27.051  1.00  0.00     0.188 C 
ENDROOT
BRANCH   1   2
ATOM      2  O   UNL A   1      33.134  23.476  26.207  1.00  0.00    -0.377 OA
BRANCH   2   3
ATOM      3  C   UNL A   1      32.351  24.459  26.865  1.00  0.00     0.188 C 
BRANCH   3   4
ATOM      4  C   UNL A   1      32.252  25.751  26.037  1.00  0.00     0.188 C 
BRANCH   4   5
ATOM      5  O   UNL A   1      32.436  26.924  26.823  1.00  0.00    -0.376 OA
BRANCH   5   6
ATOM      6  C   UNL A   1      31.408  27.910  26.782  1.00  0.00     0.202 C 
BRANCH   6   7
ATOM      7  C   UNL A   1      31.777  29.371  26.453  1.00  0.00     0.261 C 
BRANCH   7   8
ATOM      8  O   UNL A   1      31.872  29.690  25.058  1.00  0.00    -0.459 OA
BRANCH   8   9
ATOM      9  C   UNL A   1      30.796  29.453  24.269  1.00  0.00     0.350 C 
ATOM     10  O   UNL A   1      29.895  30.249  24.079  1.00  0.00    -0.245 OA
BRANCH   9  11
ATOM     11  C   UNL A   1      31.006  28.203  23.566  1.00  0.00     0.135 A 
ATOM     12  C   UNL A   1      32.085  26.368  22.364  1.00  0.00     0.128 A 
ATOM     13  N   UNL A   1      30.871  26.020  22.745  1.00  0.00    -0.243 NA
ATOM     14  S   UNL A   1      32.534  27.950  22.843  1.00  0.00    -0.108 S 
ATOM     15  C   UNL A   1      30.235  27.061  23.417  1.00  0.00     0.063 A 
ATOM     16  C   UNL A   1      28.839  26.816  23.874  1.00  0.00     0.068 C 
BRANCH  12  17
ATOM     17  C   UNL A   1      32.983  25.478  21.525  1.00  0.00     0.232 C 
ATOM     18  N   UNL A   1      32.928  22.966  22.227  1.00  0.00    -0.331 N 
ATOM     19  C   UNL A   1      34.160  23.270  22.963  1.00  0.00     0.291 C 
ATOM     20  C   UNL A   1      32.528  24.016  21.271  1.00  0.00     0.302 C 
ATOM     21  H   UNL A   1      33.179  22.192  21.611  1.00  0.00     0.348 HD
ATOM     22  C   UNL A   1      34.456  24.750  23.233  1.00  0.00     0.222 C 
ATOM     23  O   UNL A   1      34.322  25.538  22.052  1.00  0.00    -0.359 OA
BRANCH  18  24
ATOM     24  C   UNL A   1      31.869  22.336  23.005  1.00  0.00     0.258 C 
ATOM     25  C   UNL A   1      32.275  20.957  23.517  1.00  0.00     0.071 C 
ENDBRANCH  18  24
ENDBRANCH  12  17
ENDBRANCH   9  11
ENDBRANCH   8   9
ENDBRANCH   7   8
ENDBRANCH   6   7
ENDBRANCH   5   6
ENDBRANCH   4   5
ENDBRANCH   3   4
ENDBRANCH   2   3
ENDBRANCH   1   2
BRANCH   1  26
ATOM     26  C   UNL A   1      34.408  21.272  26.443  1.00  0.00     0.188 C 
BRANCH  26  27
ATOM     27  O   UNL A   1      35.741  21.421  25.940  1.00  0.00    -0.376 OA
BRANCH  27  28
ATOM     28  C   UNL A   1      36.162  20.433  25.001  1.00  0.00     0.202 C 
BRANCH  28  29
ATOM     29  C   UNL A   1      37.673  20.157  25.025  1.00  0.00     0.261 C 
BRANCH  29  30
ATOM     30  O   UNL A   1      38.495  21.298  25.317  1.00  0.00    -0.460 OA
BRANCH  30  31
ATOM     31  C   UNL A   1      39.560  21.095  26.124  1.00  0.00     0.338 C 
ATOM     32  O   UNL A   1      40.252  20.095  26.178  1.00  0.00    -0.246 OA
BRANCH  31  33
ATOM     33  C   UNL A   1      39.877  22.369  26.801  1.00  0.00     0.060 A 
ATOM     34  C   UNL A   1      39.108  23.498  26.494  1.00  0.00     0.016 A 
ATOM     35  C   UNL A   1      40.937  22.457  27.708  1.00  0.00     0.016 A 
ATOM     36  C   UNL A   1      39.435  24.735  27.050  1.00  0.00     0.010 A 
ATOM     37  C   UNL A   1      41.274  23.699  28.251  1.00  0.00     0.010 A 
ATOM     38  C   UNL A   1      40.551  24.850  27.890  1.00  0.00    -0.014 A 
BRANCH  38  39
ATOM     39  C   UNL A   1      41.111  26.190  28.188  1.00  0.00     0.031 A 
ATOM     40  C   UNL A   1      42.526  26.471  27.760  1.00  0.00     0.074 A 
ATOM     41  C   UNL A   1      40.385  27.137  28.809  1.00  0.00     0.049 A 
ATOM     42  N   UNL A   1      43.256  27.540  27.940  1.00  0.00    -0.248 NA
ATOM     43  C   UNL A   1      43.211  25.389  27.031  1.00  0.00     0.031 C 
ATOM     44  C   UNL A   1      38.993  26.995  29.232  1.00  0.00     0.029 A 
ATOM     45  N   UNL A   1      40.728  28.409  29.195  1.00  0.00    -0.354 N 
ATOM     46  C   UNL A   1      44.480  27.266  27.338  1.00  0.00     0.074 A 
ATOM     47  C   UNL A   1      44.408  25.914  26.828  1.00  0.00     0.031 C 
ATOM     48  C   UNL A   1      38.605  28.134  29.834  1.00  0.00     0.029 A 
ATOM     49  C   UNL A   1      39.726  29.072  29.863  1.00  0.00     0.049 A 
ATOM     50  H   UNL A   1      41.609  28.807  29.010  1.00  0.00     0.167 HD
ATOM     51  C   UNL A   1      45.564  28.070  27.212  1.00  0.00     0.034 A 
ATOM     52  C   UNL A   1      39.729  30.287  30.448  1.00  0.00     0.034 A 
ATOM     53  C   UNL A   1      45.637  29.402  27.756  1.00  0.00     0.049 A 
ATOM     54  C   UNL A   1      40.982  31.130  30.382  1.00  0.00     0.074 A 
ATOM     55  C   UNL A   1      46.693  30.298  27.711  1.00  0.00     0.029 A 
ATOM     56  N   UNL A   1      44.616  30.028  28.457  1.00  0.00    -0.354 N 
ATOM     57  N   UNL A   1      42.133  30.861  29.809  1.00  0.00    -0.248 NA
ATOM     58  C   UNL A   1      40.932  32.445  31.037  1.00  0.00     0.031 C 
ATOM     59  C   UNL A   1      46.329  31.440  28.432  1.00  0.00     0.029 A 
ATOM     60  C   UNL A   1      45.023  31.287  28.869  1.00  0.00     0.049 A 
ATOM     61  H   UNL A   1      43.731  29.635  28.636  1.00  0.00     0.167 HD
ATOM     62  C   UNL A   1      42.927  31.989  30.001  1.00  0.00     0.074 A 
ATOM     63  C   UNL A   1      42.123  32.942  30.737  1.00  0.00     0.031 C 
ATOM     64  C   UNL A   1      44.204  32.223  29.601  1.00  0.00     0.034 A 
BRANCH  51  65
ATOM     65  C   UNL A   1      46.763  27.496  26.502  1.00  0.00     0.023 A 
ATOM     66  C   UNL A   1      47.064  27.844  25.174  1.00  0.00     0.031 A 
ATOM     67  C   UNL A   1      47.584  26.553  27.141  1.00  0.00     0.131 A 
ATOM     68  C   UNL A   1      48.116  27.201  24.504  1.00  0.00     0.055 A 
ATOM     69  C   UNL A   1      48.676  25.971  26.493  1.00  0.00     0.041 A 
ATOM     70  F   UNL A   1      47.327  26.163  28.400  1.00  0.00    -0.206 F 
ATOM     71  C   UNL A   1      48.938  26.283  25.163  1.00  0.00     0.022 A 
BRANCH  68  72
ATOM     72  S   UNL A   1      48.310  27.479  22.723  1.00  0.00     0.124 S 
ATOM     73  O   UNL A   1      49.599  28.165  22.671  1.00  0.00    -0.237 OA
ATOM     74  O   UNL A   1      48.285  26.124  22.186  1.00  0.00    -0.237 OA
ATOM     75  O   UNL A   1      47.156  28.308  22.378  1.00  0.00    -0.744 OA
ENDBRANCH  68  72
ENDBRANCH  51  65
BRANCH  52  76
ATOM     76  C   UNL A   1      38.530  30.782  31.185  1.00  0.00     0.023 A 
ATOM     77  C   UNL A   1      37.461  31.391  30.508  1.00  0.00     0.031 A 
ATOM     78  C   UNL A   1      38.473  30.724  32.589  1.00  0.00     0.131 A 
ATOM     79  C   UNL A   1      36.408  31.966  31.235  1.00  0.00     0.055 A 
ATOM     80  C   UNL A   1      37.398  31.253  33.306  1.00  0.00     0.041 A 
ATOM     81  F   UNL A   1      39.469  30.155  33.287  1.00  0.00    -0.206 F 
ATOM     82  C   UNL A   1      36.364  31.892  32.629  1.00  0.00     0.022 A 
BRANCH  79  83
ATOM     83  S   UNL A   1      35.139  32.900  30.336  1.00  0.00     0.124 S 
ATOM     84  O   UNL A   1      34.969  32.090  29.135  1.00  0.00    -0.237 OA
ATOM     85  O   UNL A   1      34.028  32.887  31.282  1.00  0.00    -0.237 OA
ATOM     86  O   UNL A   1      35.762  34.205  30.126  1.00  0.00    -0.744 OA
ENDBRANCH  79  83
ENDBRANCH  52  76
BRANCH  64  87
ATOM     87  C   UNL A   1      44.779  33.585  29.897  1.00  0.00     0.023 A 
ATOM     88  C   UNL A   1      44.670  34.652  28.988  1.00  0.00     0.031 A 
ATOM     89  C   UNL A   1      45.450  33.814  31.112  1.00  0.00     0.131 A 
ATOM     90  C   UNL A   1      45.267  35.887  29.288  1.00  0.00     0.055 A 
ATOM     91  C   UNL A   1      45.996  35.058  31.427  1.00  0.00     0.041 A 
ATOM     92  F   UNL A   1      45.581  32.828  32.015  1.00  0.00    -0.206 F 
ATOM     93  C   UNL A   1      45.916  36.100  30.507  1.00  0.00     0.022 A 
BRANCH  90  94
ATOM     94  S   UNL A   1      45.251  37.192  28.028  1.00  0.00     0.124 S 
ATOM     95  O   UNL A   1      44.939  36.442  26.816  1.00  0.00    -0.237 OA
ATOM     96  O   UNL A   1      44.203  38.082  28.515  1.00  0.00    -0.237 OA
ATOM     97  O   UNL A   1      46.605  37.741  28.087  1.00  0.00    -0.744 OA
ENDBRANCH  90  94
ENDBRANCH  64  87
ENDBRANCH  38  39
ENDBRANCH  31  33
ENDBRANCH  30  31
ENDBRANCH  29  30
ENDBRANCH  28  29
ENDBRANCH  27  28
ENDBRANCH  26  27
ENDBRANCH   1  26
TORSDOF 25
ENDMDL
MODEL 2
REMARK VINA RESULT:      -9.1      5.418      8.552
REMARK SMILES CC[N@@H+]1CCO[C@H](c2nc(C)c(C(=O)OCCOCCOCCOCCOC(=O)c3ccc(-c4c5nc(c(-c6cc(S(=O)(=O)[O-])ccc6F)c6ccc([nH]6)c(-c6cc(S(=O)(=O)[O-])ccc6F)c6nc(c(-c7cc(S(=O)(=O)[O-])ccc7F)c7ccc4[nH]7)C=C6)C=C5)cc3)s2)C1
REMARK SMILES IDX 22 1 21 2 20 3 19 4 18 5 17 6 16 7 15 8 13 9 14 10 12 11
REMARK SMILES IDX 8 12 9 13 93 14 10 15 11 16 7 17 3 18 4 19 94 20 5 22 6 23
REMARK SMILES IDX 2 24 1 25 23 26 24 27 25 28 26 29 27 30 28 31 29 32 30 33
REMARK SMILES IDX 31 34 92 35 32 36 91 37 33 38 34 39 35 40 85 41 36 42 90 43
REMARK SMILES IDX 84 44 86 45 37 46 89 47 83 48 82 49 38 51 70 52 50 53 69 54
REMARK SMILES IDX 51 55 54 56 68 57 87 58 52 59 53 60 67 62 88 63 55 64 39 65
REMARK SMILES IDX 40 66 48 67 41 68 47 69 49 70 46 71 42 72 43 73 44 74 45 75
REMARK SMILES IDX 71 76 72 77 80 78 73 79 79 80 81 81 78 82 74 83 75 84 76 85
REMARK SMILES IDX 77 86 56 87 57 88 65 89 58 90 64 91 66 92 63 93 59 94 60 95
REMARK SMILES IDX 61 96 62 97
REMARK H PARENT 3 21 86 50 54 61
REMARK Flexibility Score: inf
ROOT
ATOM      1  C   UNL A   1      34.100  30.675  27.951  1.00  0.00     0.188 C 
ENDROOT
BRANCH   1   2
ATOM      2  O   UNL A   1      34.317  29.368  27.427  1.00  0.00    -0.377 OA
BRANCH   2   3
ATOM      3  C   UNL A   1      33.151  28.608  27.147  1.00  0.00     0.188 C 
BRANCH   3   4
ATOM      4  C   UNL A   1      31.958  29.512  26.796  1.00  0.00     0.188 C 
BRANCH   4   5
ATOM      5  O   UNL A   1      31.886  29.813  25.406  1.00  0.00    -0.376 OA
BRANCH   5   6
ATOM      6  C   UNL A   1      31.187  28.893  24.571  1.00  0.00     0.202 C 
BRANCH   6   7
ATOM      7  C   UNL A   1      31.302  29.029  23.040  1.00  0.00     0.261 C 
BRANCH   7   8
ATOM      8  O   UNL A   1      32.054  28.001  22.379  1.00  0.00    -0.459 OA
BRANCH   8   9
ATOM      9  C   UNL A   1      33.208  27.579  22.951  1.00  0.00     0.350 C 
ATOM     10  O   UNL A   1      33.996  28.308  23.526  1.00  0.00    -0.245 OA
BRANCH   9  11
ATOM     11  C   UNL A   1      33.232  26.131  22.926  1.00  0.00     0.135 A 
ATOM     12  C   UNL A   1      33.300  23.796  23.649  1.00  0.00     0.128 A 
ATOM     13  N   UNL A   1      32.992  23.874  22.369  1.00  0.00    -0.243 NA
ATOM     14  S   UNL A   1      33.522  25.318  24.402  1.00  0.00    -0.108 S 
ATOM     15  C   UNL A   1      32.967  25.198  21.936  1.00  0.00     0.063 A 
ATOM     16  C   UNL A   1      32.666  25.432  20.495  1.00  0.00     0.068 C 
BRANCH  12  17
ATOM     17  C   UNL A   1      33.501  22.481  24.379  1.00  0.00     0.232 C 
ATOM     18  N   UNL A   1      31.742  22.037  26.252  1.00  0.00    -0.331 N 
ATOM     19  C   UNL A   1      32.770  22.538  27.170  1.00  0.00     0.291 C 
ATOM     20  C   UNL A   1      32.243  21.736  24.898  1.00  0.00     0.302 C 
ATOM     21  H   UNL A   1      31.505  21.111  26.610  1.00  0.00     0.348 HD
ATOM     22  C   UNL A   1      33.919  23.341  26.548  1.00  0.00     0.222 C 
ATOM     23  O   UNL A   1      34.479  22.671  25.420  1.00  0.00    -0.359 OA
BRANCH  18  24
ATOM     24  C   UNL A   1      30.440  22.686  26.350  1.00  0.00     0.258 C 
ATOM     25  C   UNL A   1      30.558  24.208  26.379  1.00  0.00     0.071 C 
ENDBRANCH  18  24
ENDBRANCH  12  17
ENDBRANCH   9  11
ENDBRANCH   8   9
ENDBRANCH   7   8
ENDBRANCH   6   7
ENDBRANCH   5   6
ENDBRANCH   4   5
ENDBRANCH   3   4
ENDBRANCH   2   3
ENDBRANCH   1   2
BRANCH   1  26
ATOM     26  C   UNL A   1      35.226  31.723  27.833  1.00  0.00     0.188 C 
BRANCH  26  27
ATOM     27  O   UNL A   1      34.739  33.049  27.597  1.00  0.00    -0.376 OA
BRANCH  27  28
ATOM     28  C   UNL A   1      33.328  33.220  27.713  1.00  0.00     0.202 C 
BRANCH  28  29
ATOM     29  C   UNL A   1      32.913  34.576  28.304  1.00  0.00     0.261 C 
BRANCH  29  30
ATOM     30  O   UNL A   1      32.659  34.570  29.718  1.00  0.00    -0.460 OA
BRANCH  30  31
ATOM     31  C   UNL A   1      33.537  35.237  30.500  1.00  0.00     0.338 C 
ATOM     32  O   UNL A   1      33.356  36.309  31.048  1.00  0.00    -0.246 OA
BRANCH  31  33
ATOM     33  C   UNL A   1      34.698  34.356  30.747  1.00  0.00     0.060 A 
ATOM     34  C   UNL A   1      34.520  33.230  31.561  1.00  0.00     0.016 A 
ATOM     35  C   UNL A   1      35.952  34.651  30.206  1.00  0.00     0.016 A 
ATOM     36  C   UNL A   1      35.613  32.427  31.884  1.00  0.00     0.010 A 
ATOM     37  C   UNL A   1      37.049  33.855  30.545  1.00  0.00     0.010 A 
ATOM     38  C   UNL A   1      36.891  32.766  31.420  1.00  0.00    -0.014 A 
BRANCH  38  39
ATOM     39  C   UNL A   1      38.086  32.145  32.040  1.00  0.00     0.031 A 
ATOM     40  C   UNL A   1      38.755  31.018  31.301  1.00  0.00     0.074 A 
ATOM     41  C   UNL A   1      38.574  32.573  33.218  1.00  0.00     0.049 A 
ATOM     42  N   UNL A   1      39.781  30.285  31.647  1.00  0.00    -0.248 NA
ATOM     43  C   UNL A   1      38.180  30.669  29.990  1.00  0.00     0.031 C 
ATOM     44  C   UNL A   1      38.037  33.683  34.003  1.00  0.00     0.029 A 
ATOM     45  N   UNL A   1      39.635  32.116  33.959  1.00  0.00    -0.354 N 
ATOM     46  C   UNL A   1      39.981  29.397  30.595  1.00  0.00     0.074 A 
ATOM     47  C   UNL A   1      38.944  29.655  29.620  1.00  0.00     0.031 C 
ATOM     48  C   UNL A   1      38.766  33.810  35.128  1.00  0.00     0.029 A 
ATOM     49  C   UNL A   1      39.799  32.777  35.154  1.00  0.00     0.049 A 
ATOM     50  H   UNL A   1      40.222  31.384  33.663  1.00  0.00     0.167 HD
ATOM     51  C   UNL A   1      40.948  28.459  30.448  1.00  0.00     0.034 A 
ATOM     52  C   UNL A   1      40.672  32.552  36.157  1.00  0.00     0.034 A 
ATOM     53  C   UNL A   1      41.955  28.186  31.441  1.00  0.00     0.049 A 
ATOM     54  C   UNL A   1      41.681  31.435  36.017  1.00  0.00     0.074 A 
ATOM     55  C   UNL A   1      42.967  27.242  31.411  1.00  0.00     0.029 A 
ATOM     56  N   UNL A   1      42.069  28.851  32.655  1.00  0.00    -0.354 N 
ATOM     57  N   UNL A   1      41.862  30.603  35.016  1.00  0.00    -0.248 NA
ATOM     58  C   UNL A   1      42.607  31.232  37.140  1.00  0.00     0.031 C 
ATOM     59  C   UNL A   1      43.656  27.300  32.627  1.00  0.00     0.029 A 
ATOM     60  C   UNL A   1      43.119  28.325  33.390  1.00  0.00     0.049 A 
ATOM     61  H   UNL A   1      41.489  29.590  32.950  1.00  0.00     0.167 HD
ATOM     62  C   UNL A   1      42.947  29.807  35.375  1.00  0.00     0.074 A 
ATOM     63  C   UNL A   1      43.382  30.261  36.679  1.00  0.00     0.031 C 
ATOM     64  C   UNL A   1      43.538  28.795  34.688  1.00  0.00     0.034 A 
BRANCH  51  65
ATOM     65  C   UNL A   1      40.914  27.634  29.187  1.00  0.00     0.023 A 
ATOM     66  C   UNL A   1      41.824  27.861  28.139  1.00  0.00     0.031 A 
ATOM     67  C   UNL A   1      39.933  26.646  29.008  1.00  0.00     0.131 A 
ATOM     68  C   UNL A   1      41.689  27.158  26.932  1.00  0.00     0.055 A 
ATOM     69  C   UNL A   1      39.850  25.897  27.832  1.00  0.00     0.041 A 
ATOM     70  F   UNL A   1      39.022  26.406  29.964  1.00  0.00    -0.206 F 
ATOM     71  C   UNL A   1      40.722  26.161  26.780  1.00  0.00     0.022 A 
BRANCH  68  72
ATOM     72  S   UNL A   1      42.707  27.659  25.518  1.00  0.00     0.124 S 
ATOM     73  O   UNL A   1      41.999  28.849  25.052  1.00  0.00    -0.237 OA
ATOM     74  O   UNL A   1      44.010  27.889  26.130  1.00  0.00    -0.237 OA
ATOM     75  O   UNL A   1      42.635  26.509  24.619  1.00  0.00    -0.744 OA
ENDBRANCH  68  72
ENDBRANCH  51  65
BRANCH  52  76
ATOM     76  C   UNL A   1      40.623  33.365  37.408  1.00  0.00     0.023 A 
ATOM     77  C   UNL A   1      39.833  32.970  38.499  1.00  0.00     0.031 A 
ATOM     78  C   UNL A   1      41.304  34.592  37.496  1.00  0.00     0.131 A 
ATOM     79  C   UNL A   1      39.700  33.818  39.610  1.00  0.00     0.055 A 
ATOM     80  C   UNL A   1      41.208  35.409  38.624  1.00  0.00     0.041 A 
ATOM     81  F   UNL A   1      42.071  35.019  36.480  1.00  0.00    -0.206 F 
ATOM     82  C   UNL A   1      40.390  35.030  39.684  1.00  0.00     0.022 A 
BRANCH  79  83
ATOM     83  S   UNL A   1      38.532  33.358  40.919  1.00  0.00     0.124 S 
ATOM     84  O   UNL A   1      37.720  32.347  40.251  1.00  0.00    -0.237 OA
ATOM     85  O   UNL A   1      39.426  32.875  41.965  1.00  0.00    -0.237 OA
ATOM     86  O   UNL A   1      37.845  34.613  41.218  1.00  0.00    -0.744 OA
ENDBRANCH  79  83
ENDBRANCH  52  76
BRANCH  64  87
ATOM     87  C   UNL A   1      44.756  28.160  35.311  1.00  0.00     0.023 A 
ATOM     88  C   UNL A   1      44.663  27.029  36.139  1.00  0.00     0.031 A 
ATOM     89  C   UNL A   1      46.031  28.702  35.069  1.00  0.00     0.131 A 
ATOM     90  C   UNL A   1      45.820  26.505  36.737  1.00  0.00     0.055 A 
ATOM     91  C   UNL A   1      47.184  28.146  35.623  1.00  0.00     0.041 A 
ATOM     92  F   UNL A   1      46.176  29.782  34.284  1.00  0.00    -0.206 F 
ATOM     93  C   UNL A   1      47.080  27.047  36.473  1.00  0.00     0.022 A 
BRANCH  90  94
ATOM     94  S   UNL A   1      45.648  25.148  37.929  1.00  0.00     0.124 S 
ATOM     95  O   UNL A   1      46.618  24.179  37.429  1.00  0.00    -0.237 OA
ATOM     96  O   UNL A   1      45.987  25.797  39.190  1.00  0.00    -0.237 OA
ATOM     97  O   UNL A   1      44.248  24.749  37.795  1.00  0.00    -0.744 OA
ENDBRANCH  90  94
ENDBRANCH  64  87
ENDBRANCH  38  39
ENDBRANCH  31  33
ENDBRANCH  30  31
ENDBRANCH  29  30
ENDBRANCH  28  29
ENDBRANCH  27  28
ENDBRANCH  26  27
ENDBRANCH   1  26
TORSDOF 25
ENDMDL
MODEL 3
REMARK VINA RESULT:      -9.0      2.492      5.097
REMARK SMILES CC[N@@H+]1CCO[C@H](c2nc(C)c(C(=O)OCCOCCOCCOCCOC(=O)c3ccc(-c4c5nc(c(-c6cc(S(=O)(=O)[O-])ccc6F)c6ccc([nH]6)c(-c6cc(S(=O)(=O)[O-])ccc6F)c6nc(c(-c7cc(S(=O)(=O)[O-])ccc7F)c7ccc4[nH]7)C=C6)C=C5)cc3)s2)C1
REMARK SMILES IDX 22 1 21 2 20 3 19 4 18 5 17 6 16 7 15 8 13 9 14 10 12 11
REMARK SMILES IDX 8 12 9 13 93 14 10 15 11 16 7 17 3 18 4 19 94 20 5 22 6 23
REMARK SMILES IDX 2 24 1 25 23 26 24 27 25 28 26 29 27 30 28 31 29 32 30 33
REMARK SMILES IDX 31 34 92 35 32 36 91 37 33 38 34 39 35 40 85 41 36 42 90 43
REMARK SMILES IDX 84 44 86 45 37 46 89 47 83 48 82 49 38 51 70 52 50 53 69 54
REMARK SMILES IDX 51 55 54 56 68 57 87 58 52 59 53 60 67 62 88 63 55 64 39 65
REMARK SMILES IDX 40 66 48 67 41 68 47 69 49 70 46 71 42 72 43 73 44 74 45 75
REMARK SMILES IDX 71 76 72 77 80 78 73 79 79 80 81 81 78 82 74 83 75 84 76 85
REMARK SMILES IDX 77 86 56 87 57 88 65 89 58 90 64 91 66 92 63 93 59 94 60 95
REMARK SMILES IDX 61 96 62 97
REMARK H PARENT 3 21 86 50 54 61
REMARK Flexibility Score: inf
ROOT
ATOM      1  C   UNL A   1      33.901  23.938  25.666  1.00  0.00     0.188 C 
ENDROOT
BRANCH   1   2
ATOM      2  O   UNL A   1      33.174  25.121  25.347  1.00  0.00    -0.377 OA
BRANCH   2   3
ATOM      3  C   UNL A   1      31.814  24.936  24.985  1.00  0.00     0.188 C 
BRANCH   3   4
ATOM      4  C   UNL A   1      30.879  25.810  25.836  1.00  0.00     0.188 C 
BRANCH   4   5
ATOM      5  O   UNL A   1      31.523  26.346  26.987  1.00  0.00    -0.376 OA
BRANCH   5   6
ATOM      6  C   UNL A   1      31.221  27.694  27.340  1.00  0.00     0.202 C 
BRANCH   6   7
ATOM      7  C   UNL A   1      31.746  28.841  26.453  1.00  0.00     0.261 C 
BRANCH   7   8
ATOM      8  O   UNL A   1      32.715  29.706  27.062  1.00  0.00    -0.459 OA
BRANCH   8   9
ATOM      9  C   UNL A   1      34.029  29.424  26.887  1.00  0.00     0.350 C 
ATOM     10  O   UNL A   1      34.451  28.531  26.176  1.00  0.00    -0.245 OA
BRANCH   9  11
ATOM     11  C   UNL A   1      34.812  30.467  27.519  1.00  0.00     0.135 A 
ATOM     12  C   UNL A   1      35.462  32.605  28.511  1.00  0.00     0.128 A 
ATOM     13  N   UNL A   1      36.377  31.686  28.754  1.00  0.00    -0.243 NA
ATOM     14  S   UNL A   1      34.117  32.025  27.624  1.00  0.00    -0.108 S 
ATOM     15  C   UNL A   1      36.030  30.465  28.180  1.00  0.00     0.063 A 
ATOM     16  C   UNL A   1      36.995  29.342  28.346  1.00  0.00     0.068 C 
BRANCH  12  17
ATOM     17  C   UNL A   1      35.610  34.057  28.924  1.00  0.00     0.232 C 
ATOM     18  N   UNL A   1      34.777  34.554  31.345  1.00  0.00    -0.331 N 
ATOM     19  C   UNL A   1      33.544  35.014  30.698  1.00  0.00     0.291 C 
ATOM     20  C   UNL A   1      35.906  34.365  30.416  1.00  0.00     0.302 C 
ATOM     21  H   UNL A   1      35.085  35.349  31.907  1.00  0.00     0.348 HD
ATOM     22  C   UNL A   1      33.318  34.568  29.248  1.00  0.00     0.222 C 
ATOM     23  O   UNL A   1      34.472  34.797  28.441  1.00  0.00    -0.359 OA
BRANCH  18  24
ATOM     24  C   UNL A   1      34.603  33.556  32.393  1.00  0.00     0.258 C 
ATOM     25  C   UNL A   1      34.783  34.150  33.788  1.00  0.00     0.071 C 
ENDBRANCH  18  24
ENDBRANCH  12  17
ENDBRANCH   9  11
ENDBRANCH   8   9
ENDBRANCH   7   8
ENDBRANCH   6   7
ENDBRANCH   5   6
ENDBRANCH   4   5
ENDBRANCH   3   4
ENDBRANCH   2   3
ENDBRANCH   1   2
BRANCH   1  26
ATOM     26  C   UNL A   1      34.710  23.236  24.555  1.00  0.00     0.188 C 
BRANCH  26  27
ATOM     27  O   UNL A   1      35.977  22.743  25.006  1.00  0.00    -0.376 OA
BRANCH  27  28
ATOM     28  C   UNL A   1      36.258  21.380  24.693  1.00  0.00     0.202 C 
BRANCH  28  29
ATOM     29  C   UNL A   1      37.698  20.953  25.015  1.00  0.00     0.261 C 
BRANCH  29  30
ATOM     30  O   UNL A   1      38.567  22.016  25.438  1.00  0.00    -0.460 OA
BRANCH  30  31
ATOM     31  C   UNL A   1      39.602  21.678  26.238  1.00  0.00     0.338 C 
ATOM     32  O   UNL A   1      40.156  20.594  26.294  1.00  0.00    -0.246 OA
BRANCH  31  33
ATOM     33  C   UNL A   1      40.091  22.902  26.904  1.00  0.00     0.060 A 
ATOM     34  C   UNL A   1      39.423  24.108  26.660  1.00  0.00     0.016 A 
ATOM     35  C   UNL A   1      41.212  22.868  27.739  1.00  0.00     0.016 A 
ATOM     36  C   UNL A   1      39.910  25.296  27.204  1.00  0.00     0.010 A 
ATOM     37  C   UNL A   1      41.709  24.061  28.270  1.00  0.00     0.010 A 
ATOM     38  C   UNL A   1      41.085  25.284  27.968  1.00  0.00    -0.014 A 
BRANCH  38  39
ATOM     39  C   UNL A   1      41.796  26.556  28.240  1.00  0.00     0.031 A 
ATOM     40  C   UNL A   1      43.136  26.765  27.586  1.00  0.00     0.074 A 
ATOM     41  C   UNL A   1      41.269  27.505  29.034  1.00  0.00     0.049 A 
ATOM     42  N   UNL A   1      43.972  27.764  27.697  1.00  0.00    -0.248 NA
ATOM     43  C   UNL A   1      43.593  25.692  26.686  1.00  0.00     0.031 C 
ATOM     44  C   UNL A   1      39.963  27.433  29.686  1.00  0.00     0.029 A 
ATOM     45  N   UNL A   1      41.777  28.718  29.427  1.00  0.00    -0.354 N 
ATOM     46  C   UNL A   1      45.048  27.447  26.874  1.00  0.00     0.074 A 
ATOM     47  C   UNL A   1      44.777  26.144  26.307  1.00  0.00     0.031 C 
ATOM     48  C   UNL A   1      39.780  28.551  30.413  1.00  0.00     0.029 A 
ATOM     49  C   UNL A   1      40.963  29.402  30.299  1.00  0.00     0.049 A 
ATOM     50  H   UNL A   1      42.643  29.065  29.113  1.00  0.00     0.167 HD
ATOM     51  C   UNL A   1      46.157  28.178  26.606  1.00  0.00     0.034 A 
ATOM     52  C   UNL A   1      41.167  30.569  30.944  1.00  0.00     0.034 A 
ATOM     53  C   UNL A   1      46.433  29.459  27.204  1.00  0.00     0.049 A 
ATOM     54  C   UNL A   1      42.456  31.322  30.707  1.00  0.00     0.074 A 
ATOM     55  C   UNL A   1      47.536  30.277  27.027  1.00  0.00     0.029 A 
ATOM     56  N   UNL A   1      45.602  30.104  28.111  1.00  0.00    -0.354 N 
ATOM     57  N   UNL A   1      43.465  31.013  29.925  1.00  0.00    -0.248 NA
ATOM     58  C   UNL A   1      42.629  32.587  31.436  1.00  0.00     0.031 C 
ATOM     59  C   UNL A   1      47.397  31.388  27.866  1.00  0.00     0.029 A 
ATOM     60  C   UNL A   1      46.177  31.297  28.517  1.00  0.00     0.049 A 
ATOM     61  H   UNL A   1      44.732  29.763  28.419  1.00  0.00     0.167 HD
ATOM     62  C   UNL A   1      44.372  32.065  30.040  1.00  0.00     0.074 A 
ATOM     63  C   UNL A   1      43.788  33.018  30.960  1.00  0.00     0.031 C 
ATOM     64  C   UNL A   1      45.576  32.235  29.435  1.00  0.00     0.034 A 
BRANCH  51  65
ATOM     65  C   UNL A   1      47.165  27.572  25.664  1.00  0.00     0.023 A 
ATOM     66  C   UNL A   1      47.304  28.034  24.343  1.00  0.00     0.031 A 
ATOM     67  C   UNL A   1      47.959  26.488  26.072  1.00  0.00     0.131 A 
ATOM     68  C   UNL A   1      48.166  27.370  23.457  1.00  0.00     0.055 A 
ATOM     69  C   UNL A   1      48.869  25.878  25.206  1.00  0.00     0.041 A 
ATOM     70  F   UNL A   1      47.848  25.987  27.312  1.00  0.00    -0.206 F 
ATOM     71  C   UNL A   1      48.966  26.309  23.887  1.00  0.00     0.022 A 
BRANCH  68  72
ATOM     72  S   UNL A   1      48.125  27.825  21.702  1.00  0.00     0.124 S 
ATOM     73  O   UNL A   1      49.265  28.733  21.607  1.00  0.00    -0.237 OA
ATOM     74  O   UNL A   1      48.277  26.536  21.037  1.00  0.00    -0.237 OA
ATOM     75  O   UNL A   1      46.817  28.458  21.543  1.00  0.00    -0.744 OA
ENDBRANCH  68  72
ENDBRANCH  51  65
BRANCH  52  76
ATOM     76  C   UNL A   1      40.157  31.094  31.909  1.00  0.00     0.023 A 
ATOM     77  C   UNL A   1      40.270  30.842  33.285  1.00  0.00     0.031 A 
ATOM     78  C   UNL A   1      39.021  31.788  31.456  1.00  0.00     0.131 A 
ATOM     79  C   UNL A   1      39.239  31.232  34.154  1.00  0.00     0.055 A 
ATOM     80  C   UNL A   1      38.022  32.218  32.331  1.00  0.00     0.041 A 
ATOM     81  F   UNL A   1      38.863  32.053  30.149  1.00  0.00    -0.206 F 
ATOM     82  C   UNL A   1      38.121  31.927  33.689  1.00  0.00     0.022 A 
BRANCH  79  83
ATOM     83  S   UNL A   1      39.334  30.731  35.896  1.00  0.00     0.124 S 
ATOM     84  O   UNL A   1      39.898  31.924  36.517  1.00  0.00    -0.237 OA
ATOM     85  O   UNL A   1      37.937  30.447  36.204  1.00  0.00    -0.237 OA
ATOM     86  O   UNL A   1      40.215  29.566  35.867  1.00  0.00    -0.744 OA
ENDBRANCH  79  83
ENDBRANCH  52  76
BRANCH  64  87
ATOM     87  C   UNL A   1      46.305  33.528  29.704  1.00  0.00     0.023 A 
ATOM     88  C   UNL A   1      46.128  34.663  28.894  1.00  0.00     0.031 A 
ATOM     89  C   UNL A   1      47.193  33.619  30.791  1.00  0.00     0.131 A 
ATOM     90  C   UNL A   1      46.868  35.827  29.155  1.00  0.00     0.055 A 
ATOM     91  C   UNL A   1      47.885  34.795  31.077  1.00  0.00     0.041 A 
ATOM     92  F   UNL A   1      47.396  32.564  31.596  1.00  0.00    -0.206 F 
ATOM     93  C   UNL A   1      47.734  35.905  30.249  1.00  0.00     0.022 A 
BRANCH  90  94
ATOM     94  S   UNL A   1      46.742  37.218  27.998  1.00  0.00     0.124 S 
ATOM     95  O   UNL A   1      47.264  38.325  28.794  1.00  0.00    -0.237 OA
ATOM     96  O   UNL A   1      47.581  36.779  26.889  1.00  0.00    -0.237 OA
ATOM     97  O   UNL A   1      45.312  37.288  27.701  1.00  0.00    -0.744 OA
ENDBRANCH  90  94
ENDBRANCH  64  87
ENDBRANCH  38  39
ENDBRANCH  31  33
ENDBRANCH  30  31
ENDBRANCH  29  30
ENDBRANCH  28  29
ENDBRANCH  27  28
ENDBRANCH  26  27
ENDBRANCH   1  26
TORSDOF 25
ENDMDL
