MODEL 1
REMARK VINA RESULT:      -8.4      0.000      0.000
REMARK SMILES Cc1cccc(-n2c(C)cc(/C=N\c3ccc(O)c(C(=O)OCCOCCOCCOCCOC(=O)c4ccc(-c5c6nc(c(-c7cc(S(=O)(=O)[O-])ccc7F)c7ccc([nH]7)c(-c7cc(S(=O)(=O)[O-])ccc7F)c7nc(c(-c8cc(S(=O)(=O)[O-])ccc8F)c8ccc5[nH]8)C=C7)C=C6)cc4)c3)c2C)c1
REMARK SMILES IDX 28 1 27 2 26 3 25 4 24 5 23 6 22 7 20 8 21 9 19 10 14 11
REMARK SMILES IDX 15 12 100 13 16 14 17 15 13 16 12 17 11 18 7 19 8 20 101 21
REMARK SMILES IDX 9 22 10 23 102 24 6 25 1 26 2 27 3 28 103 29 4 30 5 31 18 32
REMARK SMILES IDX 29 34 30 35 31 36 32 37 33 38 34 39 35 40 36 41 37 42 38 43
REMARK SMILES IDX 99 44 39 45 98 46 40 47 41 48 42 49 92 50 43 51 97 52 91 53
REMARK SMILES IDX 93 54 44 55 96 56 90 57 89 58 45 60 77 61 57 62 76 63 58 64
REMARK SMILES IDX 61 65 75 66 94 67 59 68 60 69 74 71 95 72 62 73 46 74 47 75
REMARK SMILES IDX 55 76 48 77 54 78 56 79 53 80 49 81 50 82 51 83 52 84 78 85
REMARK SMILES IDX 79 86 87 87 80 88 86 89 88 90 85 91 81 92 82 93 83 94 84 95
REMARK SMILES IDX 63 96 64 97 72 98 65 99 71 100 73 101 70 102 66 103 67 104
REMARK SMILES IDX 68 105 69 106
REMARK H PARENT 18 33 93 59 61 70
REMARK Flexibility Score: inf
ROOT
ATOM      1  O   UNL A   1      40.981  30.254  34.641  1.00  0.00    -0.377 OA
ENDROOT
BRANCH   1   2
ATOM      2  C   UNL A   1      40.943  29.643  35.920  1.00  0.00     0.188 C 
BRANCH   2   3
ATOM      3  C   UNL A   1      41.447  28.193  36.066  1.00  0.00     0.188 C 
BRANCH   3   4
ATOM      4  O   UNL A   1      41.034  27.355  37.132  1.00  0.00    -0.376 OA
BRANCH   4   5
ATOM      5  C   UNL A   1      41.153  25.956  36.943  1.00  0.00     0.202 C 
BRANCH   5   6
ATOM      6  C   UNL A   1      42.241  25.401  36.051  1.00  0.00     0.261 C 
BRANCH   6   7
ATOM      7  O   UNL A   1      43.328  25.135  36.921  1.00  0.00    -0.460 OA
BRANCH   7   8
ATOM      8  C   UNL A   1      44.461  25.647  36.449  1.00  0.00     0.342 C 
ATOM      9  O   UNL A   1      44.580  26.410  35.517  1.00  0.00    -0.246 OA
BRANCH   8  10
ATOM     10  C   UNL A   1      45.494  25.391  37.468  1.00  0.00     0.103 A 
ATOM     11  C   UNL A   1      46.127  23.732  39.057  1.00  0.00     0.064 A 
ATOM     12  C   UNL A   1      47.060  24.590  39.636  1.00  0.00     0.032 A 
ATOM     13  C   UNL A   1      45.485  24.073  37.883  1.00  0.00     0.048 A 
ATOM     14  C   UNL A   1      47.173  25.895  39.151  1.00  0.00     0.049 A 
ATOM     15  C   UNL A   1      46.325  26.312  38.119  1.00  0.00     0.130 A 
BRANCH  11  16
ATOM     16  N   UNL A   1      45.707  22.545  39.617  1.00  0.00    -0.256 NA
ATOM     17  C   UNL A   1      46.253  21.420  39.246  1.00  0.00     0.121 C 
BRANCH  17  18
ATOM     18  C   UNL A   1      47.083  20.976  38.107  1.00  0.00     0.014 A 
ATOM     19  N   UNL A   1      48.563  20.590  36.411  1.00  0.00    -0.318 N 
ATOM     20  C   UNL A   1      47.301  20.414  35.896  1.00  0.00     0.021 A 
ATOM     21  C   UNL A   1      48.441  20.891  37.765  1.00  0.00     0.029 A 
ATOM     22  C   UNL A   1      47.035  20.116  34.474  1.00  0.00     0.065 C 
ATOM     23  C   UNL A   1      46.404  20.537  36.929  1.00  0.00     0.033 A 
ATOM     24  C   UNL A   1      49.689  21.144  38.508  1.00  0.00     0.065 C 
BRANCH  19  25
ATOM     25  C   UNL A   1      49.775  20.710  35.667  1.00  0.00     0.046 A 
ATOM     26  C   UNL A   1      52.189  23.516  34.788  1.00  0.00     0.044 C 
ATOM     27  C   UNL A   1      51.612  22.151  35.013  1.00  0.00    -0.049 A 
ATOM     28  C   UNL A   1      52.412  21.017  34.812  1.00  0.00     0.003 A 
ATOM     29  C   UNL A   1      50.289  21.994  35.447  1.00  0.00     0.030 A 
ATOM     30  C   UNL A   1      51.892  19.738  35.009  1.00  0.00     0.002 A 
ATOM     31  C   UNL A   1      50.565  19.578  35.415  1.00  0.00     0.026 A 
ENDBRANCH  19  25
ENDBRANCH  17  18
ENDBRANCH  11  16
BRANCH  15  32
ATOM     32  O   UNL A   1      46.272  27.652  37.898  1.00  0.00    -0.507 OA
ATOM     33  H   UNL A   1      46.342  28.248  38.617  1.00  0.00     0.293 HD
ENDBRANCH  15  32
ENDBRANCH   8  10
ENDBRANCH   7   8
ENDBRANCH   6   7
ENDBRANCH   5   6
ENDBRANCH   4   5
ENDBRANCH   3   4
ENDBRANCH   2   3
ENDBRANCH   1   2
BRANCH   1  34
ATOM     34  C   UNL A   1      39.857  31.066  34.312  1.00  0.00     0.188 C 
BRANCH  34  35
ATOM     35  C   UNL A   1      38.628  31.021  35.159  1.00  0.00     0.188 C 
BRANCH  35  36
ATOM     36  O   UNL A   1      37.602  31.625  34.369  1.00  0.00    -0.376 OA
BRANCH  36  37
ATOM     37  C   UNL A   1      37.884  31.631  32.986  1.00  0.00     0.202 C 
BRANCH  37  38
ATOM     38  C   UNL A   1      36.631  31.329  32.162  1.00  0.00     0.261 C 
BRANCH  38  39
ATOM     39  O   UNL A   1      36.993  31.340  30.760  1.00  0.00    -0.460 OA
BRANCH  39  40
ATOM     40  C   UNL A   1      37.118  30.116  30.169  1.00  0.00     0.338 C 
ATOM     41  O   UNL A   1      36.371  29.173  30.365  1.00  0.00    -0.246 OA
BRANCH  40  42
ATOM     42  C   UNL A   1      38.372  30.039  29.355  1.00  0.00     0.060 A 
ATOM     43  C   UNL A   1      38.396  29.341  28.135  1.00  0.00     0.016 A 
ATOM     44  C   UNL A   1      39.574  30.437  29.919  1.00  0.00     0.016 A 
ATOM     45  C   UNL A   1      39.615  28.880  27.588  1.00  0.00     0.010 A 
ATOM     46  C   UNL A   1      40.759  29.934  29.407  1.00  0.00     0.010 A 
ATOM     47  C   UNL A   1      40.805  29.096  28.277  1.00  0.00    -0.014 A 
BRANCH  47  48
ATOM     48  C   UNL A   1      42.103  28.418  27.999  1.00  0.00     0.031 A 
ATOM     49  C   UNL A   1      42.205  26.943  28.260  1.00  0.00     0.074 A 
ATOM     50  C   UNL A   1      43.018  29.003  27.168  1.00  0.00     0.049 A 
ATOM     51  N   UNL A   1      43.211  26.209  27.939  1.00  0.00    -0.248 NA
ATOM     52  C   UNL A   1      41.118  26.126  28.791  1.00  0.00     0.031 C 
ATOM     53  C   UNL A   1      44.112  28.388  26.410  1.00  0.00     0.029 A 
ATOM     54  N   UNL A   1      43.119  30.323  26.727  1.00  0.00    -0.354 N 
ATOM     55  C   UNL A   1      42.827  24.884  27.871  1.00  0.00     0.074 A 
ATOM     56  C   UNL A   1      41.523  24.885  28.486  1.00  0.00     0.031 C 
ATOM     57  C   UNL A   1      44.893  29.305  25.818  1.00  0.00     0.029 A 
ATOM     58  C   UNL A   1      44.449  30.571  26.327  1.00  0.00     0.049 A 
ATOM     59  H   UNL A   1      42.381  30.975  26.699  1.00  0.00     0.167 HD
ATOM     60  C   UNL A   1      43.637  24.004  27.193  1.00  0.00     0.034 A 
ATOM     61  C   UNL A   1      45.198  31.443  27.046  1.00  0.00     0.034 A 
ATOM     62  C   UNL A   1      44.903  24.676  26.794  1.00  0.00     0.049 A 
ATOM     63  C   UNL A   1      46.190  30.534  27.810  1.00  0.00     0.074 A 
ATOM     64  C   UNL A   1      45.582  24.896  25.606  1.00  0.00     0.029 A 
ATOM     65  N   UNL A   1      45.559  25.469  27.741  1.00  0.00    -0.354 N 
ATOM     66  N   UNL A   1      45.934  29.288  28.185  1.00  0.00    -0.248 NA
ATOM     67  C   UNL A   1      47.628  30.803  27.794  1.00  0.00     0.031 C 
ATOM     68  C   UNL A   1      46.531  25.952  25.833  1.00  0.00     0.029 A 
ATOM     69  C   UNL A   1      46.457  26.348  27.167  1.00  0.00     0.049 A 
ATOM     70  H   UNL A   1      45.398  25.408  28.711  1.00  0.00     0.167 HD
ATOM     71  C   UNL A   1      47.107  28.552  28.175  1.00  0.00     0.074 A 
ATOM     72  C   UNL A   1      48.140  29.576  28.005  1.00  0.00     0.031 C 
ATOM     73  C   UNL A   1      47.290  27.188  28.024  1.00  0.00     0.034 A 
BRANCH  60  74
ATOM     74  C   UNL A   1      43.294  22.573  26.742  1.00  0.00     0.023 A 
ATOM     75  C   UNL A   1      44.266  21.807  26.046  1.00  0.00     0.031 A 
ATOM     76  C   UNL A   1      42.060  21.907  26.913  1.00  0.00     0.131 A 
ATOM     77  C   UNL A   1      44.004  20.499  25.570  1.00  0.00     0.055 A 
ATOM     78  C   UNL A   1      41.807  20.597  26.467  1.00  0.00     0.041 A 
ATOM     79  F   UNL A   1      41.011  22.477  27.508  1.00  0.00    -0.206 F 
ATOM     80  C   UNL A   1      42.779  19.883  25.790  1.00  0.00     0.022 A 
BRANCH  77  81
ATOM     81  S   UNL A   1      45.294  19.589  24.666  1.00  0.00     0.124 S 
ATOM     82  O   UNL A   1      46.486  20.379  24.949  1.00  0.00    -0.237 OA
ATOM     83  O   UNL A   1      45.231  18.266  25.277  1.00  0.00    -0.237 OA
ATOM     84  O   UNL A   1      44.837  19.641  23.276  1.00  0.00    -0.744 OA
ENDBRANCH  77  81
ENDBRANCH  60  74
BRANCH  61  85
ATOM     85  C   UNL A   1      44.314  32.653  27.301  1.00  0.00     0.023 A 
ATOM     86  C   UNL A   1      44.020  32.913  28.688  1.00  0.00     0.031 A 
ATOM     87  C   UNL A   1      44.296  33.773  26.455  1.00  0.00     0.131 A 
ATOM     88  C   UNL A   1      43.919  34.230  29.196  1.00  0.00     0.055 A 
ATOM     89  C   UNL A   1      44.148  35.082  26.966  1.00  0.00     0.041 A 
ATOM     90  F   UNL A   1      44.602  33.650  25.155  1.00  0.00    -0.206 F 
ATOM     91  C   UNL A   1      44.015  35.321  28.337  1.00  0.00     0.022 A 
BRANCH  88  92
ATOM     92  S   UNL A   1      44.008  34.535  31.009  1.00  0.00     0.124 S 
ATOM     93  O   UNL A   1      45.046  35.554  31.105  1.00  0.00    -0.237 OA
ATOM     94  O   UNL A   1      42.655  34.969  31.338  1.00  0.00    -0.237 OA
ATOM     95  O   UNL A   1      44.364  33.224  31.557  1.00  0.00    -0.744 OA
ENDBRANCH  88  92
ENDBRANCH  61  85
BRANCH  73  96
ATOM     96  C   UNL A   1      48.367  26.459  28.805  1.00  0.00     0.023 A 
ATOM     97  C   UNL A   1      48.282  26.317  30.187  1.00  0.00     0.031 A 
ATOM     98  C   UNL A   1      49.435  25.756  28.180  1.00  0.00     0.131 A 
ATOM     99  C   UNL A   1      49.241  25.594  30.899  1.00  0.00     0.055 A 
ATOM    100  C   UNL A   1      50.325  24.942  28.881  1.00  0.00     0.041 A 
ATOM    101  F   UNL A   1      49.659  25.794  26.860  1.00  0.00    -0.206 F 
ATOM    102  C   UNL A   1      50.242  24.871  30.259  1.00  0.00     0.022 A 
BRANCH  99 103
ATOM    103  S   UNL A   1      49.173  25.726  32.693  1.00  0.00     0.124 S 
ATOM    104  O   UNL A   1      47.917  26.450  32.882  1.00  0.00    -0.237 OA
ATOM    105  O   UNL A   1      49.163  24.328  33.111  1.00  0.00    -0.237 OA
ATOM    106  O   UNL A   1      50.382  26.472  33.027  1.00  0.00    -0.744 OA
ENDBRANCH  99 103
ENDBRANCH  73  96
ENDBRANCH  47  48
ENDBRANCH  40  42
ENDBRANCH  39  40
ENDBRANCH  38  39
ENDBRANCH  37  38
ENDBRANCH  36  37
ENDBRANCH  35  36
ENDBRANCH  34  35
ENDBRANCH   1  34
TORSDOF 27
ENDMDL
MODEL 2
REMARK VINA RESULT:      -8.1      3.317      9.646
REMARK SMILES Cc1cccc(-n2c(C)cc(/C=N\c3ccc(O)c(C(=O)OCCOCCOCCOCCOC(=O)c4ccc(-c5c6nc(c(-c7cc(S(=O)(=O)[O-])ccc7F)c7ccc([nH]7)c(-c7cc(S(=O)(=O)[O-])ccc7F)c7nc(c(-c8cc(S(=O)(=O)[O-])ccc8F)c8ccc5[nH]8)C=C7)C=C6)cc4)c3)c2C)c1
REMARK SMILES IDX 28 1 27 2 26 3 25 4 24 5 23 6 22 7 20 8 21 9 19 10 14 11
REMARK SMILES IDX 15 12 100 13 16 14 17 15 13 16 12 17 11 18 7 19 8 20 101 21
REMARK SMILES IDX 9 22 10 23 102 24 6 25 1 26 2 27 3 28 103 29 4 30 5 31 18 32
REMARK SMILES IDX 29 34 30 35 31 36 32 37 33 38 34 39 35 40 36 41 37 42 38 43
REMARK SMILES IDX 99 44 39 45 98 46 40 47 41 48 42 49 92 50 43 51 97 52 91 53
REMARK SMILES IDX 93 54 44 55 96 56 90 57 89 58 45 60 77 61 57 62 76 63 58 64
REMARK SMILES IDX 61 65 75 66 94 67 59 68 60 69 74 71 95 72 62 73 46 74 47 75
REMARK SMILES IDX 55 76 48 77 54 78 56 79 53 80 49 81 50 82 51 83 52 84 78 85
REMARK SMILES IDX 79 86 87 87 80 88 86 89 88 90 85 91 81 92 82 93 83 94 84 95
REMARK SMILES IDX 63 96 64 97 72 98 65 99 71 100 73 101 70 102 66 103 67 104
REMARK SMILES IDX 68 105 69 106
REMARK H PARENT 18 33 93 59 61 70
REMARK Flexibility Score: inf
ROOT
ATOM      1  O   UNL A   1      51.576  22.469  33.304  1.00  0.00    -0.377 OA
ENDROOT
BRANCH   1   2
ATOM      2  C   UNL A   1      52.081  21.330  33.978  1.00  0.00     0.188 C 
BRANCH   2   3
ATOM      3  C   UNL A   1      51.200  20.066  34.063  1.00  0.00     0.188 C 
BRANCH   3   4
ATOM      4  O   UNL A   1      51.502  18.994  34.939  1.00  0.00    -0.376 OA
BRANCH   4   5
ATOM      5  C   UNL A   1      51.971  19.325  36.235  1.00  0.00     0.202 C 
BRANCH   5   6
ATOM      6  C   UNL A   1      51.084  19.109  37.441  1.00  0.00     0.261 C 
BRANCH   6   7
ATOM      7  O   UNL A   1      49.809  19.589  37.048  1.00  0.00    -0.460 OA
BRANCH   7   8
ATOM      8  C   UNL A   1      49.349  20.494  37.907  1.00  0.00     0.342 C 
ATOM      9  O   UNL A   1      49.944  20.972  38.847  1.00  0.00    -0.246 OA
BRANCH   8  10
ATOM     10  C   UNL A   1      48.122  21.052  37.313  1.00  0.00     0.103 A 
ATOM     11  C   UNL A   1      46.249  22.400  37.906  1.00  0.00     0.064 A 
ATOM     12  C   UNL A   1      45.604  22.097  36.709  1.00  0.00     0.032 A 
ATOM     13  C   UNL A   1      47.559  22.022  38.120  1.00  0.00     0.048 A 
ATOM     14  C   UNL A   1      46.212  21.210  35.818  1.00  0.00     0.049 A 
ATOM     15  C   UNL A   1      47.435  20.627  36.168  1.00  0.00     0.130 A 
BRANCH  11  16
ATOM     16  N   UNL A   1      45.642  23.007  38.985  1.00  0.00    -0.256 NA
ATOM     17  C   UNL A   1      45.098  24.184  38.850  1.00  0.00     0.121 C 
BRANCH  17  18
ATOM     18  C   UNL A   1      45.176  25.273  37.854  1.00  0.00     0.014 A 
ATOM     19  N   UNL A   1      45.626  27.021  36.454  1.00  0.00    -0.318 N 
ATOM     20  C   UNL A   1      44.364  27.222  36.960  1.00  0.00     0.021 A 
ATOM     21  C   UNL A   1      46.111  25.818  36.960  1.00  0.00     0.029 A 
ATOM     22  C   UNL A   1      43.550  28.419  36.669  1.00  0.00     0.065 C 
ATOM     23  C   UNL A   1      44.035  26.125  37.719  1.00  0.00     0.033 A 
ATOM     24  C   UNL A   1      47.473  25.424  36.557  1.00  0.00     0.065 C 
BRANCH  19  25
ATOM     25  C   UNL A   1      46.422  27.976  35.753  1.00  0.00     0.046 A 
ATOM     26  C   UNL A   1      48.981  30.631  36.686  1.00  0.00     0.044 C 
ATOM     27  C   UNL A   1      48.176  29.643  35.897  1.00  0.00    -0.049 A 
ATOM     28  C   UNL A   1      48.469  29.432  34.541  1.00  0.00     0.003 A 
ATOM     29  C   UNL A   1      47.150  28.907  36.503  1.00  0.00     0.030 A 
ATOM     30  C   UNL A   1      47.727  28.521  33.789  1.00  0.00     0.002 A 
ATOM     31  C   UNL A   1      46.686  27.807  34.385  1.00  0.00     0.026 A 
ENDBRANCH  19  25
ENDBRANCH  17  18
ENDBRANCH  11  16
BRANCH  15  32
ATOM     32  O   UNL A   1      47.824  19.564  35.416  1.00  0.00    -0.507 OA
ATOM     33  H   UNL A   1      48.534  19.023  35.700  1.00  0.00     0.293 HD
ENDBRANCH  15  32
ENDBRANCH   8  10
ENDBRANCH   7   8
ENDBRANCH   6   7
ENDBRANCH   5   6
ENDBRANCH   4   5
ENDBRANCH   3   4
ENDBRANCH   2   3
ENDBRANCH   1   2
BRANCH   1  34
ATOM     34  C   UNL A   1      52.345  23.661  33.448  1.00  0.00     0.188 C 
BRANCH  34  35
ATOM     35  C   UNL A   1      51.675  24.995  33.386  1.00  0.00     0.188 C 
BRANCH  35  36
ATOM     36  O   UNL A   1      52.564  25.830  32.642  1.00  0.00    -0.376 OA
BRANCH  36  37
ATOM     37  C   UNL A   1      53.092  26.903  33.392  1.00  0.00     0.202 C 
BRANCH  37  38
ATOM     38  C   UNL A   1      52.947  28.228  32.642  1.00  0.00     0.261 C 
BRANCH  38  39
ATOM     39  O   UNL A   1      52.320  27.963  31.364  1.00  0.00    -0.460 OA
BRANCH  39  40
ATOM     40  C   UNL A   1      51.510  28.950  30.883  1.00  0.00     0.338 C 
ATOM     41  O   UNL A   1      51.881  30.076  30.602  1.00  0.00    -0.246 OA
BRANCH  40  42
ATOM     42  C   UNL A   1      50.077  28.511  30.876  1.00  0.00     0.060 A 
ATOM     43  C   UNL A   1      49.742  27.149  30.963  1.00  0.00     0.016 A 
ATOM     44  C   UNL A   1      49.090  29.421  30.530  1.00  0.00     0.016 A 
ATOM     45  C   UNL A   1      48.483  26.685  30.521  1.00  0.00     0.010 A 
ATOM     46  C   UNL A   1      47.880  28.951  30.046  1.00  0.00     0.010 A 
ATOM     47  C   UNL A   1      47.572  27.580  29.968  1.00  0.00    -0.014 A 
BRANCH  47  48
ATOM     48  C   UNL A   1      46.357  27.211  29.187  1.00  0.00     0.031 A 
ATOM     49  C   UNL A   1      45.024  27.269  29.877  1.00  0.00     0.074 A 
ATOM     50  C   UNL A   1      46.391  27.223  27.820  1.00  0.00     0.049 A 
ATOM     51  N   UNL A   1      43.890  27.112  29.293  1.00  0.00    -0.248 NA
ATOM     52  C   UNL A   1      44.839  27.643  31.276  1.00  0.00     0.031 C 
ATOM     53  C   UNL A   1      45.285  27.337  26.864  1.00  0.00     0.029 A 
ATOM     54  N   UNL A   1      47.478  27.228  26.947  1.00  0.00    -0.354 N 
ATOM     55  C   UNL A   1      42.884  27.674  30.056  1.00  0.00     0.074 A 
ATOM     56  C   UNL A   1      43.529  27.926  31.320  1.00  0.00     0.031 C 
ATOM     57  C   UNL A   1      45.693  27.162  25.598  1.00  0.00     0.029 A 
ATOM     58  C   UNL A   1      47.059  26.734  25.693  1.00  0.00     0.049 A 
ATOM     59  H   UNL A   1      48.390  27.527  27.170  1.00  0.00     0.167 HD
ATOM     60  C   UNL A   1      41.679  27.944  29.450  1.00  0.00     0.034 A 
ATOM     61  C   UNL A   1      47.550  25.548  25.257  1.00  0.00     0.034 A 
ATOM     62  C   UNL A   1      41.666  27.394  28.068  1.00  0.00     0.049 A 
ATOM     63  C   UNL A   1      46.356  24.577  25.409  1.00  0.00     0.074 A 
ATOM     64  C   UNL A   1      41.454  27.903  26.796  1.00  0.00     0.029 A 
ATOM     65  N   UNL A   1      42.148  26.097  27.867  1.00  0.00    -0.354 N 
ATOM     66  N   UNL A   1      45.399  24.697  26.319  1.00  0.00    -0.248 NA
ATOM     67  C   UNL A   1      45.938  23.713  24.305  1.00  0.00     0.031 C 
ATOM     68  C   UNL A   1      41.977  26.953  25.852  1.00  0.00     0.029 A 
ATOM     69  C   UNL A   1      42.471  25.850  26.546  1.00  0.00     0.049 A 
ATOM     70  H   UNL A   1      42.246  25.432  28.586  1.00  0.00     0.167 HD
ATOM     71  C   UNL A   1      44.211  24.199  25.809  1.00  0.00     0.074 A 
ATOM     72  C   UNL A   1      44.635  23.523  24.581  1.00  0.00     0.031 C 
ATOM     73  C   UNL A   1      42.906  24.513  26.149  1.00  0.00     0.034 A 
BRANCH  60  74
ATOM     74  C   UNL A   1      40.530  28.809  29.997  1.00  0.00     0.023 A 
ATOM     75  C   UNL A   1      40.708  30.212  30.119  1.00  0.00     0.031 A 
ATOM     76  C   UNL A   1      39.271  28.353  30.446  1.00  0.00     0.131 A 
ATOM     77  C   UNL A   1      39.705  31.062  30.648  1.00  0.00     0.055 A 
ATOM     78  C   UNL A   1      38.262  29.198  30.946  1.00  0.00     0.041 A 
ATOM     79  F   UNL A   1      38.930  27.063  30.448  1.00  0.00    -0.206 F 
ATOM     80  C   UNL A   1      38.474  30.561  31.052  1.00  0.00     0.022 A 
BRANCH  77  81
ATOM     81  S   UNL A   1      40.016  32.848  30.794  1.00  0.00     0.124 S 
ATOM     82  O   UNL A   1      40.045  33.040  32.240  1.00  0.00    -0.237 OA
ATOM     83  O   UNL A   1      41.286  33.003  30.094  1.00  0.00    -0.237 OA
ATOM     84  O   UNL A   1      38.868  33.450  30.116  1.00  0.00    -0.744 OA
ENDBRANCH  77  81
ENDBRANCH  60  74
BRANCH  61  85
ATOM     85  C   UNL A   1      49.047  25.584  25.523  1.00  0.00     0.023 A 
ATOM     86  C   UNL A   1      49.794  26.486  24.683  1.00  0.00     0.031 A 
ATOM     87  C   UNL A   1      49.601  25.329  26.787  1.00  0.00     0.131 A 
ATOM     88  C   UNL A   1      50.901  27.219  25.174  1.00  0.00     0.055 A 
ATOM     89  C   UNL A   1      50.735  26.033  27.252  1.00  0.00     0.041 A 
ATOM     90  F   UNL A   1      48.962  24.541  27.665  1.00  0.00    -0.206 F 
ATOM     91  C   UNL A   1      51.354  27.016  26.475  1.00  0.00     0.022 A 
BRANCH  88  92
ATOM     92  S   UNL A   1      51.533  28.678  24.247  1.00  0.00     0.124 S 
ATOM     93  O   UNL A   1      50.737  28.642  23.026  1.00  0.00    -0.237 OA
ATOM     94  O   UNL A   1      51.262  29.788  25.153  1.00  0.00    -0.237 OA
ATOM     95  O   UNL A   1      52.957  28.382  24.076  1.00  0.00    -0.744 OA
ENDBRANCH  88  92
ENDBRANCH  61  85
BRANCH  73  96
ATOM     96  C   UNL A   1      41.834  23.440  26.180  1.00  0.00     0.023 A 
ATOM     97  C   UNL A   1      42.168  22.091  26.236  1.00  0.00     0.031 A 
ATOM     98  C   UNL A   1      40.447  23.736  26.304  1.00  0.00     0.131 A 
ATOM     99  C   UNL A   1      41.181  21.106  26.326  1.00  0.00     0.055 A 
ATOM    100  C   UNL A   1      39.475  22.757  26.508  1.00  0.00     0.041 A 
ATOM    101  F   UNL A   1      39.960  24.984  26.264  1.00  0.00    -0.206 F 
ATOM    102  C   UNL A   1      39.839  21.423  26.502  1.00  0.00     0.022 A 
BRANCH  99 103
ATOM    103  S   UNL A   1      41.727  19.405  26.104  1.00  0.00     0.124 S 
ATOM    104  O   UNL A   1      42.201  19.076  27.447  1.00  0.00    -0.237 OA
ATOM    105  O   UNL A   1      40.502  18.733  25.686  1.00  0.00    -0.237 OA
ATOM    106  O   UNL A   1      42.765  19.509  25.083  1.00  0.00    -0.744 OA
ENDBRANCH  99 103
ENDBRANCH  73  96
ENDBRANCH  47  48
ENDBRANCH  40  42
ENDBRANCH  39  40
ENDBRANCH  38  39
ENDBRANCH  37  38
ENDBRANCH  36  37
ENDBRANCH  35  36
ENDBRANCH  34  35
ENDBRANCH   1  34
TORSDOF 27
ENDMDL
MODEL 3
REMARK VINA RESULT:      -8.0      1.807      2.095
REMARK SMILES Cc1cccc(-n2c(C)cc(/C=N\c3ccc(O)c(C(=O)OCCOCCOCCOCCOC(=O)c4ccc(-c5c6nc(c(-c7cc(S(=O)(=O)[O-])ccc7F)c7ccc([nH]7)c(-c7cc(S(=O)(=O)[O-])ccc7F)c7nc(c(-c8cc(S(=O)(=O)[O-])ccc8F)c8ccc5[nH]8)C=C7)C=C6)cc4)c3)c2C)c1
REMARK SMILES IDX 28 1 27 2 26 3 25 4 24 5 23 6 22 7 20 8 21 9 19 10 14 11
REMARK SMILES IDX 15 12 100 13 16 14 17 15 13 16 12 17 11 18 7 19 8 20 101 21
REMARK SMILES IDX 9 22 10 23 102 24 6 25 1 26 2 27 3 28 103 29 4 30 5 31 18 32
REMARK SMILES IDX 29 34 30 35 31 36 32 37 33 38 34 39 35 40 36 41 37 42 38 43
REMARK SMILES IDX 99 44 39 45 98 46 40 47 41 48 42 49 92 50 43 51 97 52 91 53
REMARK SMILES IDX 93 54 44 55 96 56 90 57 89 58 45 60 77 61 57 62 76 63 58 64
REMARK SMILES IDX 61 65 75 66 94 67 59 68 60 69 74 71 95 72 62 73 46 74 47 75
REMARK SMILES IDX 55 76 48 77 54 78 56 79 53 80 49 81 50 82 51 83 52 84 78 85
REMARK SMILES IDX 79 86 87 87 80 88 86 89 88 90 85 91 81 92 82 93 83 94 84 95
REMARK SMILES IDX 63 96 64 97 72 98 65 99 71 100 73 101 70 102 66 103 67 104
REMARK SMILES IDX 68 105 69 106
REMARK H PARENT 18 33 93 59 61 70
REMARK Flexibility Score: inf
ROOT
ATOM      1  O   UNL A   1      41.066  30.470  34.621  1.00  0.00    -0.377 OA
ENDROOT
BRANCH   1   2
ATOM      2  C   UNL A   1      40.985  29.576  35.718  1.00  0.00     0.188 C 
BRANCH   2   3
ATOM      3  C   UNL A   1      41.689  28.208  35.616  1.00  0.00     0.188 C 
BRANCH   3   4
ATOM      4  O   UNL A   1      41.247  27.075  36.344  1.00  0.00    -0.376 OA
BRANCH   4   5
ATOM      5  C   UNL A   1      41.665  25.802  35.883  1.00  0.00     0.202 C 
BRANCH   5   6
ATOM      6  C   UNL A   1      42.922  25.671  35.053  1.00  0.00     0.261 C 
BRANCH   6   7
ATOM      7  O   UNL A   1      43.889  25.131  35.938  1.00  0.00    -0.460 OA
BRANCH   7   8
ATOM      8  C   UNL A   1      45.081  25.692  35.752  1.00  0.00     0.342 C 
ATOM      9  O   UNL A   1      45.319  26.695  35.117  1.00  0.00    -0.246 OA
BRANCH   8  10
ATOM     10  C   UNL A   1      45.994  25.073  36.728  1.00  0.00     0.103 A 
ATOM     11  C   UNL A   1      46.341  23.001  37.852  1.00  0.00     0.064 A 
ATOM     12  C   UNL A   1      47.288  23.577  38.697  1.00  0.00     0.032 A 
ATOM     13  C   UNL A   1      45.837  23.701  36.775  1.00  0.00     0.048 A 
ATOM     14  C   UNL A   1      47.553  24.943  38.587  1.00  0.00     0.049 A 
ATOM     15  C   UNL A   1      46.839  25.701  37.652  1.00  0.00     0.130 A 
BRANCH  11  16
ATOM     16  N   UNL A   1      45.774  21.760  38.048  1.00  0.00    -0.256 NA
ATOM     17  C   UNL A   1      46.363  20.694  37.583  1.00  0.00     0.121 C 
BRANCH  17  18
ATOM     18  C   UNL A   1      47.424  20.424  36.589  1.00  0.00     0.014 A 
ATOM     19  N   UNL A   1      49.176  20.345  35.126  1.00  0.00    -0.318 N 
ATOM     20  C   UNL A   1      48.071  19.870  34.461  1.00  0.00     0.021 A 
ATOM     21  C   UNL A   1      48.801  20.646  36.433  1.00  0.00     0.029 A 
ATOM     22  C   UNL A   1      48.081  19.482  33.036  1.00  0.00     0.065 C 
ATOM     23  C   UNL A   1      47.033  19.809  35.359  1.00  0.00     0.033 A 
ATOM     24  C   UNL A   1      49.843  21.199  37.317  1.00  0.00     0.065 C 
BRANCH  19  25
ATOM     25  C   UNL A   1      50.422  20.723  34.542  1.00  0.00     0.046 A 
ATOM     26  C   UNL A   1      52.306  23.975  33.956  1.00  0.00     0.044 C 
ATOM     27  C   UNL A   1      51.995  22.517  34.115  1.00  0.00    -0.049 A 
ATOM     28  C   UNL A   1      53.028  21.572  34.026  1.00  0.00     0.003 A 
ATOM     29  C   UNL A   1      50.688  22.088  34.379  1.00  0.00     0.030 A 
ATOM     30  C   UNL A   1      52.758  20.211  34.166  1.00  0.00     0.002 A 
ATOM     31  C   UNL A   1      51.451  19.779  34.400  1.00  0.00     0.026 A 
ENDBRANCH  19  25
ENDBRANCH  17  18
ENDBRANCH  11  16
BRANCH  15  32
ATOM     32  O   UNL A   1      46.919  27.050  37.795  1.00  0.00    -0.507 OA
ATOM     33  H   UNL A   1      47.688  27.437  38.165  1.00  0.00     0.293 HD
ENDBRANCH  15  32
ENDBRANCH   8  10
ENDBRANCH   7   8
ENDBRANCH   6   7
ENDBRANCH   5   6
ENDBRANCH   4   5
ENDBRANCH   3   4
ENDBRANCH   2   3
ENDBRANCH   1   2
BRANCH   1  34
ATOM     34  C   UNL A   1      39.948  31.337  34.448  1.00  0.00     0.188 C 
BRANCH  34  35
ATOM     35  C   UNL A   1      38.746  31.192  35.322  1.00  0.00     0.188 C 
BRANCH  35  36
ATOM     36  O   UNL A   1      37.665  31.751  34.574  1.00  0.00    -0.376 OA
BRANCH  36  37
ATOM     37  C   UNL A   1      37.884  31.753  33.180  1.00  0.00     0.202 C 
BRANCH  37  38
ATOM     38  C   UNL A   1      36.673  31.198  32.427  1.00  0.00     0.261 C 
BRANCH  38  39
ATOM     39  O   UNL A   1      36.996  31.150  31.016  1.00  0.00    -0.460 OA
BRANCH  39  40
ATOM     40  C   UNL A   1      37.301  29.917  30.519  1.00  0.00     0.338 C 
ATOM     41  O   UNL A   1      36.687  28.895  30.774  1.00  0.00    -0.246 OA
BRANCH  40  42
ATOM     42  C   UNL A   1      38.572  29.957  29.727  1.00  0.00     0.060 A 
ATOM     43  C   UNL A   1      38.666  29.307  28.484  1.00  0.00     0.016 A 
ATOM     44  C   UNL A   1      39.733  30.418  30.329  1.00  0.00     0.016 A 
ATOM     45  C   UNL A   1      39.924  28.953  27.946  1.00  0.00     0.010 A 
ATOM     46  C   UNL A   1      40.959  30.018  29.823  1.00  0.00     0.010 A 
ATOM     47  C   UNL A   1      41.084  29.227  28.666  1.00  0.00    -0.014 A 
BRANCH  47  48
ATOM     48  C   UNL A   1      42.431  28.652  28.390  1.00  0.00     0.031 A 
ATOM     49  C   UNL A   1      42.608  27.166  28.508  1.00  0.00     0.074 A 
ATOM     50  C   UNL A   1      43.348  29.368  27.670  1.00  0.00     0.049 A 
ATOM     51  N   UNL A   1      43.669  26.525  28.169  1.00  0.00    -0.248 NA
ATOM     52  C   UNL A   1      41.547  26.241  28.897  1.00  0.00     0.031 C 
ATOM     53  C   UNL A   1      44.510  28.894  26.913  1.00  0.00     0.029 A 
ATOM     54  N   UNL A   1      43.390  30.729  27.368  1.00  0.00    -0.354 N 
ATOM     55  C   UNL A   1      43.368  25.194  27.949  1.00  0.00     0.074 A 
ATOM     56  C   UNL A   1      42.039  25.062  28.492  1.00  0.00     0.031 C 
ATOM     57  C   UNL A   1      45.262  29.908  26.458  1.00  0.00     0.029 A 
ATOM     58  C   UNL A   1      44.721  31.089  27.066  1.00  0.00     0.049 A 
ATOM     59  H   UNL A   1      42.617  31.340  27.367  1.00  0.00     0.167 HD
ATOM     60  C   UNL A   1      44.260  24.434  27.230  1.00  0.00     0.034 A 
ATOM     61  C   UNL A   1      45.383  31.922  27.907  1.00  0.00     0.034 A 
ATOM     62  C   UNL A   1      45.501  25.210  26.966  1.00  0.00     0.049 A 
ATOM     63  C   UNL A   1      46.390  30.995  28.627  1.00  0.00     0.074 A 
ATOM     64  C   UNL A   1      46.221  25.587  25.844  1.00  0.00     0.029 A 
ATOM     65  N   UNL A   1      46.063  25.937  28.021  1.00  0.00    -0.354 N 
ATOM     66  N   UNL A   1      46.191  29.705  28.862  1.00  0.00    -0.248 NA
ATOM     67  C   UNL A   1      47.809  31.341  28.714  1.00  0.00     0.031 C 
ATOM     68  C   UNL A   1      47.093  26.664  26.224  1.00  0.00     0.029 A 
ATOM     69  C   UNL A   1      46.934  26.918  27.585  1.00  0.00     0.049 A 
ATOM     70  H   UNL A   1      45.862  25.768  28.970  1.00  0.00     0.167 HD
ATOM     71  C   UNL A   1      47.405  29.038  28.840  1.00  0.00     0.074 A 
ATOM     72  C   UNL A   1      48.382  30.129  28.828  1.00  0.00     0.031 C 
ATOM     73  C   UNL A   1      47.675  27.709  28.564  1.00  0.00     0.034 A 
BRANCH  60  74
ATOM     74  C   UNL A   1      44.024  23.040  26.621  1.00  0.00     0.023 A 
ATOM     75  C   UNL A   1      42.758  22.416  26.773  1.00  0.00     0.031 A 
ATOM     76  C   UNL A   1      44.968  22.252  25.925  1.00  0.00     0.131 A 
ATOM     77  C   UNL A   1      42.485  21.120  26.270  1.00  0.00     0.055 A 
ATOM     78  C   UNL A   1      44.690  20.976  25.400  1.00  0.00     0.041 A 
ATOM     79  F   UNL A   1      46.224  22.650  25.716  1.00  0.00    -0.206 F 
ATOM     80  C   UNL A   1      43.445  20.400  25.571  1.00  0.00     0.022 A 
BRANCH  77  81
ATOM     81  S   UNL A   1      40.844  20.376  26.525  1.00  0.00     0.124 S 
ATOM     82  O   UNL A   1      40.896  19.987  27.929  1.00  0.00    -0.237 OA
ATOM     83  O   UNL A   1      39.947  21.476  26.188  1.00  0.00    -0.237 OA
ATOM     84  O   UNL A   1      40.825  19.261  25.577  1.00  0.00    -0.744 OA
ENDBRANCH  77  81
ENDBRANCH  60  74
BRANCH  61  85
ATOM     85  C   UNL A   1      44.418  33.050  28.234  1.00  0.00     0.023 A 
ATOM     86  C   UNL A   1      44.287  33.354  29.637  1.00  0.00     0.031 A 
ATOM     87  C   UNL A   1      44.167  34.115  27.355  1.00  0.00     0.131 A 
ATOM     88  C   UNL A   1      44.116  34.680  30.101  1.00  0.00     0.055 A 
ATOM     89  C   UNL A   1      43.951  35.429  27.829  1.00  0.00     0.041 A 
ATOM     90  F   UNL A   1      44.306  33.953  26.031  1.00  0.00    -0.206 F 
ATOM     91  C   UNL A   1      43.980  35.727  29.194  1.00  0.00     0.022 A 
BRANCH  88  92
ATOM     92  S   UNL A   1      44.416  35.090  31.870  1.00  0.00     0.124 S 
ATOM     93  O   UNL A   1      45.872  35.126  31.942  1.00  0.00    -0.237 OA
ATOM     94  O   UNL A   1      43.737  36.371  32.032  1.00  0.00    -0.237 OA
ATOM     95  O   UNL A   1      43.780  33.983  32.588  1.00  0.00    -0.744 OA
ENDBRANCH  88  92
ENDBRANCH  61  85
BRANCH  73  96
ATOM     96  C   UNL A   1      48.756  26.963  29.325  1.00  0.00     0.023 A 
ATOM     97  C   UNL A   1      50.103  27.181  29.057  1.00  0.00     0.031 A 
ATOM     98  C   UNL A   1      48.478  26.124  30.440  1.00  0.00     0.131 A 
ATOM     99  C   UNL A   1      51.100  26.540  29.799  1.00  0.00     0.055 A 
ATOM    100  C   UNL A   1      49.474  25.577  31.249  1.00  0.00     0.041 A 
ATOM    101  F   UNL A   1      47.233  25.811  30.826  1.00  0.00    -0.206 F 
ATOM    102  C   UNL A   1      50.802  25.770  30.918  1.00  0.00     0.022 A 
BRANCH  99 103
ATOM    103  S   UNL A   1      52.780  26.685  29.172  1.00  0.00     0.124 S 
ATOM    104  O   UNL A   1      52.652  26.069  27.853  1.00  0.00    -0.237 OA
ATOM    105  O   UNL A   1      52.994  28.128  29.175  1.00  0.00    -0.237 OA
ATOM    106  O   UNL A   1      53.572  25.932  30.140  1.00  0.00    -0.744 OA
ENDBRANCH  99 103
ENDBRANCH  73  96
ENDBRANCH  47  48
ENDBRANCH  40  42
ENDBRANCH  39  40
ENDBRANCH  38  39
ENDBRANCH  37  38
ENDBRANCH  36  37
ENDBRANCH  35  36
ENDBRANCH  34  35
ENDBRANCH   1  34
TORSDOF 27
ENDMDL
