MODEL 1
REMARK VINA RESULT:      -6.5      0.000      0.000
REMARK SMILES C[C@@](NC(=O)c1cc(Br)c[nH]1)(C(=O)OCCOCCOCCOCCOC(=O)c1ccc(-c2c3nc(c(-c4cc(S(=O)(=O)[O-])ccc4F)c4ccc([nH]4)c(-c4cc(S(=O)(=O)[O-])ccc4F)c4nc(c(-c5cc(S(=O)(=O)[O-])ccc5F)c5ccc2[nH]5)C=C4)C=C3)cc1)C(F)(F)F
REMARK SMILES IDX 21 1 20 2 19 3 18 4 17 5 16 6 15 7 14 8 12 9 13 10 2 11 1 12
REMARK SMILES IDX 3 13 4 14 5 16 6 17 7 18 11 19 8 20 10 21 9 23 92 24 93 25
REMARK SMILES IDX 94 26 95 27 22 28 23 29 24 30 25 31 26 32 27 33 28 34 29 35
REMARK SMILES IDX 30 36 91 37 31 38 90 39 32 40 33 41 34 42 84 43 35 44 89 45
REMARK SMILES IDX 83 46 85 47 36 48 88 49 82 50 81 51 37 53 69 54 49 55 68 56
REMARK SMILES IDX 50 57 53 58 67 59 86 60 51 61 52 62 66 64 87 65 54 66 38 67
REMARK SMILES IDX 39 68 47 69 40 70 46 71 48 72 45 73 41 74 42 75 43 76 44 77
REMARK SMILES IDX 70 78 71 79 79 80 72 81 78 82 80 83 77 84 73 85 74 86 75 87
REMARK SMILES IDX 76 88 55 89 56 90 64 91 57 92 63 93 65 94 62 95 58 96 59 97
REMARK SMILES IDX 60 98 61 99
REMARK H PARENT 3 15 11 22 85 52 53 63
REMARK Flexibility Score: inf
ROOT
ATOM      1  C   UNL A   1      41.186  35.015  41.209  1.00  0.00     0.188 C 
ENDROOT
BRANCH   1   2
ATOM      2  O   UNL A   1      39.955  34.635  40.595  1.00  0.00    -0.377 OA
BRANCH   2   3
ATOM      3  C   UNL A   1      39.839  33.363  39.985  1.00  0.00     0.188 C 
BRANCH   3   4
ATOM      4  C   UNL A   1      38.748  33.228  38.911  1.00  0.00     0.188 C 
BRANCH   4   5
ATOM      5  O   UNL A   1      38.997  32.226  37.939  1.00  0.00    -0.376 OA
BRANCH   5   6
ATOM      6  C   UNL A   1      38.092  32.072  36.859  1.00  0.00     0.202 C 
BRANCH   6   7
ATOM      7  C   UNL A   1      38.199  30.819  35.989  1.00  0.00     0.261 C 
BRANCH   7   8
ATOM      8  O   UNL A   1      37.876  30.917  34.589  1.00  0.00    -0.461 OA
BRANCH   8   9
ATOM      9  C   UNL A   1      38.819  31.074  33.634  1.00  0.00     0.341 C 
ATOM     10  O   UNL A   1      39.568  32.037  33.533  1.00  0.00    -0.249 OA
BRANCH   9  11
ATOM     11  C   UNL A   1      38.703  29.982  32.581  1.00  0.00     0.231 C 
ATOM     12  C   UNL A   1      37.453  29.092  32.739  1.00  0.00     0.058 C 
BRANCH  11  13
ATOM     13  N   UNL A   1      38.761  30.553  31.192  1.00  0.00    -0.328 N 
ATOM     14  C   UNL A   1      37.800  31.249  30.500  1.00  0.00     0.268 C 
ATOM     15  H   UNL A   1      39.608  30.408  30.709  1.00  0.00     0.165 HD
ATOM     16  O   UNL A   1      37.614  30.930  29.330  1.00  0.00    -0.268 OA
BRANCH  14  17
ATOM     17  C   UNL A   1      37.140  32.380  31.118  1.00  0.00     0.105 A 
ATOM     18  C   UNL A   1      35.807  32.505  31.487  1.00  0.00     0.049 A 
ATOM     19  N   UNL A   1      37.719  33.615  31.356  1.00  0.00    -0.356 N 
ATOM     20  C   UNL A   1      35.637  33.785  32.055  1.00  0.00     0.036 A 
ATOM     21  C   UNL A   1      36.832  34.450  31.989  1.00  0.00     0.098 A 
ATOM     22  H   UNL A   1      38.639  33.862  31.107  1.00  0.00     0.166 HD
ATOM     23  Br  UNL A   1      34.064  34.392  32.867  1.00  0.00    -0.049 Br
ENDBRANCH  14  17
ENDBRANCH  11  13
BRANCH  11  24
ATOM     24  C   UNL A   1      39.939  29.099  32.858  1.00  0.00     0.422 C 
ATOM     25  F   UNL A   1      39.711  27.784  32.634  1.00  0.00    -0.168 F 
ATOM     26  F   UNL A   1      40.967  29.457  32.044  1.00  0.00    -0.168 F 
ATOM     27  F   UNL A   1      40.401  29.224  34.123  1.00  0.00    -0.168 F 
ENDBRANCH  11  24
ENDBRANCH   9  11
ENDBRANCH   8   9
ENDBRANCH   7   8
ENDBRANCH   6   7
ENDBRANCH   5   6
ENDBRANCH   4   5
ENDBRANCH   3   4
ENDBRANCH   2   3
ENDBRANCH   1   2
BRANCH   1  28
ATOM     28  C   UNL A   1      41.310  36.298  42.055  1.00  0.00     0.188 C 
BRANCH  28  29
ATOM     29  O   UNL A   1      42.560  36.956  41.934  1.00  0.00    -0.376 OA
BRANCH  29  30
ATOM     30  C   UNL A   1      42.806  37.727  40.772  1.00  0.00     0.202 C 
BRANCH  30  31
ATOM     31  C   UNL A   1      43.627  37.094  39.637  1.00  0.00     0.261 C 
BRANCH  31  32
ATOM     32  O   UNL A   1      43.108  37.198  38.301  1.00  0.00    -0.460 OA
BRANCH  32  33
ATOM     33  C   UNL A   1      41.934  36.597  38.009  1.00  0.00     0.338 C 
ATOM     34  O   UNL A   1      40.819  37.021  38.264  1.00  0.00    -0.246 OA
BRANCH  33  35
ATOM     35  C   UNL A   1      42.223  35.439  37.126  1.00  0.00     0.060 A 
ATOM     36  C   UNL A   1      43.555  35.130  36.810  1.00  0.00     0.016 A 
ATOM     37  C   UNL A   1      41.185  34.645  36.633  1.00  0.00     0.016 A 
ATOM     38  C   UNL A   1      43.847  34.055  35.966  1.00  0.00     0.010 A 
ATOM     39  C   UNL A   1      41.478  33.588  35.764  1.00  0.00     0.010 A 
ATOM     40  C   UNL A   1      42.808  33.311  35.396  1.00  0.00    -0.014 A 
BRANCH  40  41
ATOM     41  C   UNL A   1      43.085  32.417  34.240  1.00  0.00     0.031 A 
ATOM     42  C   UNL A   1      43.153  33.043  32.870  1.00  0.00     0.074 A 
ATOM     43  C   UNL A   1      43.294  31.097  34.392  1.00  0.00     0.049 A 
ATOM     44  N   UNL A   1      43.292  32.477  31.701  1.00  0.00    -0.248 NA
ATOM     45  C   UNL A   1      43.043  34.510  32.820  1.00  0.00     0.031 C 
ATOM     46  C   UNL A   1      43.322  30.385  35.667  1.00  0.00     0.029 A 
ATOM     47  N   UNL A   1      43.514  30.115  33.455  1.00  0.00    -0.354 N 
ATOM     48  C   UNL A   1      43.277  33.516  30.775  1.00  0.00     0.074 A 
ATOM     49  C   UNL A   1      43.081  34.741  31.518  1.00  0.00     0.031 C 
ATOM     50  C   UNL A   1      43.531  29.077  35.431  1.00  0.00     0.029 A 
ATOM     51  C   UNL A   1      43.603  28.849  33.988  1.00  0.00     0.049 A 
ATOM     52  H   UNL A   1      43.599  30.300  32.492  1.00  0.00     0.167 HD
ATOM     53  C   UNL A   1      43.415  33.453  29.429  1.00  0.00     0.034 A 
ATOM     54  C   UNL A   1      43.697  27.647  33.379  1.00  0.00     0.034 A 
ATOM     55  C   UNL A   1      43.600  32.223  28.700  1.00  0.00     0.049 A 
ATOM     56  C   UNL A   1      43.745  27.594  31.865  1.00  0.00     0.074 A 
ATOM     57  C   UNL A   1      43.762  32.047  27.337  1.00  0.00     0.029 A 
ATOM     58  N   UNL A   1      43.633  30.957  29.271  1.00  0.00    -0.354 N 
ATOM     59  N   UNL A   1      43.728  28.583  31.001  1.00  0.00    -0.248 NA
ATOM     60  C   UNL A   1      43.828  26.263  31.248  1.00  0.00     0.031 C 
ATOM     61  C   UNL A   1      43.805  30.675  27.075  1.00  0.00     0.029 A 
ATOM     62  C   UNL A   1      43.772  29.994  28.282  1.00  0.00     0.049 A 
ATOM     63  H   UNL A   1      43.569  30.770  30.234  1.00  0.00     0.167 HD
ATOM     64  C   UNL A   1      43.840  27.991  29.743  1.00  0.00     0.074 A 
ATOM     65  C   UNL A   1      43.938  26.564  29.964  1.00  0.00     0.031 C 
ATOM     66  C   UNL A   1      43.866  28.573  28.515  1.00  0.00     0.034 A 
BRANCH  53  67
ATOM     67  C   UNL A   1      43.312  34.744  28.654  1.00  0.00     0.023 A 
ATOM     68  C   UNL A   1      44.446  35.404  28.149  1.00  0.00     0.031 A 
ATOM     69  C   UNL A   1      42.054  35.331  28.427  1.00  0.00     0.131 A 
ATOM     70  C   UNL A   1      44.304  36.636  27.493  1.00  0.00     0.055 A 
ATOM     71  C   UNL A   1      41.912  36.516  27.704  1.00  0.00     0.041 A 
ATOM     72  F   UNL A   1      40.938  34.763  28.911  1.00  0.00    -0.206 F 
ATOM     73  C   UNL A   1      43.043  37.182  27.242  1.00  0.00     0.022 A 
BRANCH  70  74
ATOM     74  S   UNL A   1      45.797  37.583  27.090  1.00  0.00     0.124 S 
ATOM     75  O   UNL A   1      45.230  38.791  26.497  1.00  0.00    -0.237 OA
ATOM     76  O   UNL A   1      46.430  37.747  28.393  1.00  0.00    -0.237 OA
ATOM     77  O   UNL A   1      46.511  36.715  26.155  1.00  0.00    -0.744 OA
ENDBRANCH  70  74
ENDBRANCH  53  67
BRANCH  54  78
ATOM     78  C   UNL A   1      43.696  26.383  34.175  1.00  0.00     0.023 A 
ATOM     79  C   UNL A   1      44.863  25.616  34.326  1.00  0.00     0.031 A 
ATOM     80  C   UNL A   1      42.503  25.873  34.721  1.00  0.00     0.131 A 
ATOM     81  C   UNL A   1      44.800  24.358  34.948  1.00  0.00     0.055 A 
ATOM     82  C   UNL A   1      42.460  24.653  35.399  1.00  0.00     0.041 A 
ATOM     83  F   UNL A   1      41.353  26.555  34.597  1.00  0.00    -0.206 F 
ATOM     84  C   UNL A   1      43.611  23.879  35.501  1.00  0.00     0.022 A 
BRANCH  81  85
ATOM     85  S   UNL A   1      46.274  23.299  34.915  1.00  0.00     0.124 S 
ATOM     86  O   UNL A   1      46.622  23.234  36.330  1.00  0.00    -0.237 OA
ATOM     87  O   UNL A   1      45.751  22.071  34.326  1.00  0.00    -0.237 OA
ATOM     88  O   UNL A   1      47.210  24.043  34.075  1.00  0.00    -0.744 OA
ENDBRANCH  81  85
ENDBRANCH  54  78
BRANCH  66  89
ATOM     89  C   UNL A   1      44.068  27.670  27.321  1.00  0.00     0.023 A 
ATOM     90  C   UNL A   1      45.348  27.347  26.835  1.00  0.00     0.031 A 
ATOM     91  C   UNL A   1      42.954  27.123  26.655  1.00  0.00     0.131 A 
ATOM     92  C   UNL A   1      45.480  26.553  25.687  1.00  0.00     0.055 A 
ATOM     93  C   UNL A   1      43.096  26.276  25.555  1.00  0.00     0.041 A 
ATOM     94  F   UNL A   1      41.707  27.398  27.068  1.00  0.00    -0.206 F 
ATOM     95  C   UNL A   1      44.364  25.998  25.055  1.00  0.00     0.022 A 
BRANCH  92  96
ATOM     96  S   UNL A   1      47.130  26.336  24.963  1.00  0.00     0.124 S 
ATOM     97  O   UNL A   1      47.997  26.798  26.042  1.00  0.00    -0.237 OA
ATOM     98  O   UNL A   1      47.165  24.904  24.685  1.00  0.00    -0.237 OA
ATOM     99  O   UNL A   1      47.101  27.195  23.780  1.00  0.00    -0.744 OA
ENDBRANCH  92  96
ENDBRANCH  66  89
ENDBRANCH  40  41
ENDBRANCH  33  35
ENDBRANCH  32  33
ENDBRANCH  31  32
ENDBRANCH  30  31
ENDBRANCH  29  30
ENDBRANCH  28  29
ENDBRANCH   1  28
TORSDOF 26
ENDMDL
MODEL 2
REMARK VINA RESULT:      -6.5      6.726     10.984
REMARK SMILES C[C@@](NC(=O)c1cc(Br)c[nH]1)(C(=O)OCCOCCOCCOCCOC(=O)c1ccc(-c2c3nc(c(-c4cc(S(=O)(=O)[O-])ccc4F)c4ccc([nH]4)c(-c4cc(S(=O)(=O)[O-])ccc4F)c4nc(c(-c5cc(S(=O)(=O)[O-])ccc5F)c5ccc2[nH]5)C=C4)C=C3)cc1)C(F)(F)F
REMARK SMILES IDX 21 1 20 2 19 3 18 4 17 5 16 6 15 7 14 8 12 9 13 10 2 11 1 12
REMARK SMILES IDX 3 13 4 14 5 16 6 17 7 18 11 19 8 20 10 21 9 23 92 24 93 25
REMARK SMILES IDX 94 26 95 27 22 28 23 29 24 30 25 31 26 32 27 33 28 34 29 35
REMARK SMILES IDX 30 36 91 37 31 38 90 39 32 40 33 41 34 42 84 43 35 44 89 45
REMARK SMILES IDX 83 46 85 47 36 48 88 49 82 50 81 51 37 53 69 54 49 55 68 56
REMARK SMILES IDX 50 57 53 58 67 59 86 60 51 61 52 62 66 64 87 65 54 66 38 67
REMARK SMILES IDX 39 68 47 69 40 70 46 71 48 72 45 73 41 74 42 75 43 76 44 77
REMARK SMILES IDX 70 78 71 79 79 80 72 81 78 82 80 83 77 84 73 85 74 86 75 87
REMARK SMILES IDX 76 88 55 89 56 90 64 91 57 92 63 93 65 94 62 95 58 96 59 97
REMARK SMILES IDX 60 98 61 99
REMARK H PARENT 3 15 11 22 85 52 53 63
REMARK Flexibility Score: inf
ROOT
ATOM      1  C   UNL A   1      34.786  32.508  30.676  1.00  0.00     0.188 C 
ENDROOT
BRANCH   1   2
ATOM      2  O   UNL A   1      35.080  32.061  29.352  1.00  0.00    -0.377 OA
BRANCH   2   3
ATOM      3  C   UNL A   1      34.294  32.519  28.267  1.00  0.00     0.188 C 
BRANCH   3   4
ATOM      4  C   UNL A   1      33.341  31.487  27.643  1.00  0.00     0.188 C 
BRANCH   4   5
ATOM      5  O   UNL A   1      33.986  30.382  27.031  1.00  0.00    -0.376 OA
BRANCH   5   6
ATOM      6  C   UNL A   1      33.343  29.119  27.036  1.00  0.00     0.202 C 
BRANCH   6   7
ATOM      7  C   UNL A   1      32.240  28.856  26.010  1.00  0.00     0.261 C 
BRANCH   7   8
ATOM      8  O   UNL A   1      32.395  27.759  25.090  1.00  0.00    -0.461 OA
BRANCH   8   9
ATOM      9  C   UNL A   1      31.428  27.399  24.218  1.00  0.00     0.341 C 
ATOM     10  O   UNL A   1      30.538  26.590  24.444  1.00  0.00    -0.249 OA
BRANCH   9  11
ATOM     11  C   UNL A   1      31.700  27.991  22.843  1.00  0.00     0.231 C 
ATOM     12  C   UNL A   1      32.989  28.835  22.769  1.00  0.00     0.058 C 
BRANCH  11  13
ATOM     13  N   UNL A   1      31.717  26.926  21.782  1.00  0.00    -0.328 N 
ATOM     14  C   UNL A   1      32.616  25.904  21.595  1.00  0.00     0.268 C 
ATOM     15  H   UNL A   1      30.979  26.965  21.130  1.00  0.00     0.165 HD
ATOM     16  O   UNL A   1      33.004  25.707  20.447  1.00  0.00    -0.268 OA
BRANCH  14  17
ATOM     17  C   UNL A   1      32.975  25.043  22.701  1.00  0.00     0.105 A 
ATOM     18  C   UNL A   1      34.191  24.952  23.364  1.00  0.00     0.049 A 
ATOM     19  N   UNL A   1      32.173  24.050  23.238  1.00  0.00    -0.356 N 
ATOM     20  C   UNL A   1      34.057  23.978  24.376  1.00  0.00     0.036 A 
ATOM     21  C   UNL A   1      32.798  23.446  24.301  1.00  0.00     0.098 A 
ATOM     22  H   UNL A   1      31.278  23.809  22.905  1.00  0.00     0.166 HD
ATOM     23  Br  UNL A   1      35.358  23.593  25.666  1.00  0.00    -0.049 Br
ENDBRANCH  14  17
ENDBRANCH  11  13
BRANCH  11  24
ATOM     24  C   UNL A   1      30.506  28.947  22.633  1.00  0.00     0.422 C 
ATOM     25  F   UNL A   1      30.191  29.651  23.745  1.00  0.00    -0.168 F 
ATOM     26  F   UNL A   1      30.795  29.859  21.667  1.00  0.00    -0.168 F 
ATOM     27  F   UNL A   1      29.387  28.308  22.223  1.00  0.00    -0.168 F 
ENDBRANCH  11  24
ENDBRANCH   9  11
ENDBRANCH   8   9
ENDBRANCH   7   8
ENDBRANCH   6   7
ENDBRANCH   5   6
ENDBRANCH   4   5
ENDBRANCH   3   4
ENDBRANCH   2   3
ENDBRANCH   1   2
BRANCH   1  28
ATOM     28  C   UNL A   1      35.617  32.050  31.891  1.00  0.00     0.188 C 
BRANCH  28  29
ATOM     29  O   UNL A   1      36.594  32.986  32.313  1.00  0.00    -0.376 OA
BRANCH  29  30
ATOM     30  C   UNL A   1      37.555  33.428  31.373  1.00  0.00     0.202 C 
BRANCH  30  31
ATOM     31  C   UNL A   1      39.002  32.929  31.518  1.00  0.00     0.261 C 
BRANCH  31  32
ATOM     32  O   UNL A   1      40.060  33.878  31.303  1.00  0.00    -0.460 OA
BRANCH  32  33
ATOM     33  C   UNL A   1      41.110  33.888  32.152  1.00  0.00     0.338 C 
ATOM     34  O   UNL A   1      41.060  34.003  33.366  1.00  0.00    -0.246 OA
BRANCH  33  35
ATOM     35  C   UNL A   1      42.320  33.507  31.382  1.00  0.00     0.060 A 
ATOM     36  C   UNL A   1      42.385  33.799  30.011  1.00  0.00     0.016 A 
ATOM     37  C   UNL A   1      43.401  32.888  32.017  1.00  0.00     0.016 A 
ATOM     38  C   UNL A   1      43.509  33.433  29.265  1.00  0.00     0.010 A 
ATOM     39  C   UNL A   1      44.511  32.496  31.262  1.00  0.00     0.010 A 
ATOM     40  C   UNL A   1      44.554  32.732  29.875  1.00  0.00    -0.014 A 
BRANCH  40  41
ATOM     41  C   UNL A   1      45.567  32.036  29.037  1.00  0.00     0.031 A 
ATOM     42  C   UNL A   1      45.186  30.707  28.437  1.00  0.00     0.074 A 
ATOM     43  C   UNL A   1      46.779  32.566  28.792  1.00  0.00     0.049 A 
ATOM     44  N   UNL A   1      45.909  29.865  27.747  1.00  0.00    -0.248 NA
ATOM     45  C   UNL A   1      43.796  30.271  28.653  1.00  0.00     0.031 C 
ATOM     46  C   UNL A   1      47.241  33.871  29.257  1.00  0.00     0.029 A 
ATOM     47  N   UNL A   1      47.849  32.061  28.092  1.00  0.00    -0.354 N 
ATOM     48  C   UNL A   1      45.067  28.796  27.455  1.00  0.00     0.074 A 
ATOM     49  C   UNL A   1      43.789  29.083  28.071  1.00  0.00     0.031 C 
ATOM     50  C   UNL A   1      48.509  34.057  28.843  1.00  0.00     0.029 A 
ATOM     51  C   UNL A   1      48.964  32.866  28.125  1.00  0.00     0.049 A 
ATOM     52  H   UNL A   1      47.820  31.201  27.612  1.00  0.00     0.167 HD
ATOM     53  C   UNL A   1      45.333  27.679  26.736  1.00  0.00     0.034 A 
ATOM     54  C   UNL A   1      50.214  32.650  27.661  1.00  0.00     0.034 A 
ATOM     55  C   UNL A   1      46.614  27.401  26.136  1.00  0.00     0.049 A 
ATOM     56  C   UNL A   1      50.518  31.347  26.952  1.00  0.00     0.074 A 
ATOM     57  C   UNL A   1      46.990  26.306  25.378  1.00  0.00     0.029 A 
ATOM     58  N   UNL A   1      47.734  28.217  26.235  1.00  0.00    -0.354 N 
ATOM     59  N   UNL A   1      49.714  30.343  26.682  1.00  0.00    -0.248 NA
ATOM     60  C   UNL A   1      51.896  31.150  26.481  1.00  0.00     0.031 C 
ATOM     61  C   UNL A   1      48.354  26.416  25.095  1.00  0.00     0.029 A 
ATOM     62  C   UNL A   1      48.810  27.629  25.588  1.00  0.00     0.049 A 
ATOM     63  H   UNL A   1      47.760  29.086  26.697  1.00  0.00     0.167 HD
ATOM     64  C   UNL A   1      50.482  29.419  25.975  1.00  0.00     0.074 A 
ATOM     65  C   UNL A   1      51.805  29.990  25.850  1.00  0.00     0.031 C 
ATOM     66  C   UNL A   1      50.126  28.208  25.471  1.00  0.00     0.034 A 
BRANCH  53  67
ATOM     67  C   UNL A   1      44.238  26.649  26.612  1.00  0.00     0.023 A 
ATOM     68  C   UNL A   1      44.169  25.527  27.456  1.00  0.00     0.031 A 
ATOM     69  C   UNL A   1      43.248  26.789  25.621  1.00  0.00     0.131 A 
ATOM     70  C   UNL A   1      43.170  24.562  27.258  1.00  0.00     0.055 A 
ATOM     71  C   UNL A   1      42.209  25.867  25.481  1.00  0.00     0.041 A 
ATOM     72  F   UNL A   1      43.279  27.823  24.767  1.00  0.00    -0.206 F 
ATOM     73  C   UNL A   1      42.172  24.739  26.296  1.00  0.00     0.022 A 
BRANCH  70  74
ATOM     74  S   UNL A   1      43.266  23.008  28.186  1.00  0.00     0.124 S 
ATOM     75  O   UNL A   1      43.033  22.021  27.135  1.00  0.00    -0.237 OA
ATOM     76  O   UNL A   1      44.617  23.050  28.734  1.00  0.00    -0.237 OA
ATOM     77  O   UNL A   1      42.191  23.127  29.168  1.00  0.00    -0.744 OA
ENDBRANCH  70  74
ENDBRANCH  53  67
BRANCH  54  78
ATOM     78  C   UNL A   1      51.300  33.651  27.890  1.00  0.00     0.023 A 
ATOM     79  C   UNL A   1      51.606  34.627  26.928  1.00  0.00     0.031 A 
ATOM     80  C   UNL A   1      52.111  33.587  29.038  1.00  0.00     0.131 A 
ATOM     81  C   UNL A   1      52.728  35.456  27.101  1.00  0.00     0.055 A 
ATOM     82  C   UNL A   1      53.183  34.460  29.238  1.00  0.00     0.041 A 
ATOM     83  F   UNL A   1      51.875  32.667  29.988  1.00  0.00    -0.206 F 
ATOM     84  C   UNL A   1      53.507  35.390  28.257  1.00  0.00     0.022 A 
BRANCH  81  85
ATOM     85  S   UNL A   1      53.226  36.538  25.732  1.00  0.00     0.124 S 
ATOM     86  O   UNL A   1      53.385  35.581  24.642  1.00  0.00    -0.237 OA
ATOM     87  O   UNL A   1      52.087  37.443  25.631  1.00  0.00    -0.237 OA
ATOM     88  O   UNL A   1      54.464  37.147  26.213  1.00  0.00    -0.744 OA
ENDBRANCH  81  85
ENDBRANCH  54  78
BRANCH  66  89
ATOM     89  C   UNL A   1      51.168  27.449  24.682  1.00  0.00     0.023 A 
ATOM     90  C   UNL A   1      52.013  26.498  25.280  1.00  0.00     0.031 A 
ATOM     91  C   UNL A   1      51.318  27.686  23.302  1.00  0.00     0.131 A 
ATOM     92  C   UNL A   1      53.005  25.865  24.517  1.00  0.00     0.055 A 
ATOM     93  C   UNL A   1      52.259  27.000  22.534  1.00  0.00     0.041 A 
ATOM     94  F   UNL A   1      50.542  28.585  22.674  1.00  0.00    -0.206 F 
ATOM     95  C   UNL A   1      53.121  26.094  23.144  1.00  0.00     0.022 A 
BRANCH  92  96
ATOM     96  S   UNL A   1      54.216  24.811  25.364  1.00  0.00     0.124 S 
ATOM     97  O   UNL A   1      55.471  25.248  24.761  1.00  0.00    -0.237 OA
ATOM     98  O   UNL A   1      54.020  25.172  26.764  1.00  0.00    -0.237 OA
ATOM     99  O   UNL A   1      53.797  23.455  25.011  1.00  0.00    -0.744 OA
ENDBRANCH  92  96
ENDBRANCH  66  89
ENDBRANCH  40  41
ENDBRANCH  33  35
ENDBRANCH  32  33
ENDBRANCH  31  32
ENDBRANCH  30  31
ENDBRANCH  29  30
ENDBRANCH  28  29
ENDBRANCH   1  28
TORSDOF 26
ENDMDL
MODEL 3
REMARK VINA RESULT:      -6.3      6.242     11.330
REMARK SMILES C[C@@](NC(=O)c1cc(Br)c[nH]1)(C(=O)OCCOCCOCCOCCOC(=O)c1ccc(-c2c3nc(c(-c4cc(S(=O)(=O)[O-])ccc4F)c4ccc([nH]4)c(-c4cc(S(=O)(=O)[O-])ccc4F)c4nc(c(-c5cc(S(=O)(=O)[O-])ccc5F)c5ccc2[nH]5)C=C4)C=C3)cc1)C(F)(F)F
REMARK SMILES IDX 21 1 20 2 19 3 18 4 17 5 16 6 15 7 14 8 12 9 13 10 2 11 1 12
REMARK SMILES IDX 3 13 4 14 5 16 6 17 7 18 11 19 8 20 10 21 9 23 92 24 93 25
REMARK SMILES IDX 94 26 95 27 22 28 23 29 24 30 25 31 26 32 27 33 28 34 29 35
REMARK SMILES IDX 30 36 91 37 31 38 90 39 32 40 33 41 34 42 84 43 35 44 89 45
REMARK SMILES IDX 83 46 85 47 36 48 88 49 82 50 81 51 37 53 69 54 49 55 68 56
REMARK SMILES IDX 50 57 53 58 67 59 86 60 51 61 52 62 66 64 87 65 54 66 38 67
REMARK SMILES IDX 39 68 47 69 40 70 46 71 48 72 45 73 41 74 42 75 43 76 44 77
REMARK SMILES IDX 70 78 71 79 79 80 72 81 78 82 80 83 77 84 73 85 74 86 75 87
REMARK SMILES IDX 76 88 55 89 56 90 64 91 57 92 63 93 65 94 62 95 58 96 59 97
REMARK SMILES IDX 60 98 61 99
REMARK H PARENT 3 15 11 22 85 52 53 63
REMARK Flexibility Score: inf
ROOT
ATOM      1  C   UNL A   1      35.156  32.082  27.859  1.00  0.00     0.188 C 
ENDROOT
BRANCH   1   2
ATOM      2  O   UNL A   1      33.917  32.034  27.150  1.00  0.00    -0.377 OA
BRANCH   2   3
ATOM      3  C   UNL A   1      33.084  30.896  27.271  1.00  0.00     0.188 C 
BRANCH   3   4
ATOM      4  C   UNL A   1      33.169  29.875  26.126  1.00  0.00     0.188 C 
BRANCH   4   5
ATOM      5  O   UNL A   1      33.954  28.729  26.414  1.00  0.00    -0.376 OA
BRANCH   5   6
ATOM      6  C   UNL A   1      33.484  27.453  26.014  1.00  0.00     0.202 C 
BRANCH   6   7
ATOM      7  C   UNL A   1      34.505  26.340  25.774  1.00  0.00     0.261 C 
BRANCH   7   8
ATOM      8  O   UNL A   1      34.063  24.970  25.824  1.00  0.00    -0.461 OA
BRANCH   8   9
ATOM      9  C   UNL A   1      34.467  24.043  24.928  1.00  0.00     0.341 C 
ATOM     10  O   UNL A   1      34.557  24.220  23.720  1.00  0.00    -0.249 OA
BRANCH   9  11
ATOM     11  C   UNL A   1      34.615  22.683  25.594  1.00  0.00     0.231 C 
ATOM     12  C   UNL A   1      34.386  22.706  27.120  1.00  0.00     0.058 C 
BRANCH  11  13
ATOM     13  N   UNL A   1      33.722  21.658  24.951  1.00  0.00    -0.328 N 
ATOM     14  C   UNL A   1      32.352  21.648  24.843  1.00  0.00     0.268 C 
ATOM     15  H   UNL A   1      34.184  20.885  24.551  1.00  0.00     0.165 HD
ATOM     16  O   UNL A   1      31.782  20.591  25.092  1.00  0.00    -0.268 OA
BRANCH  14  17
ATOM     17  C   UNL A   1      31.657  22.814  24.340  1.00  0.00     0.105 A 
ATOM     18  C   UNL A   1      30.885  23.728  25.044  1.00  0.00     0.049 A 
ATOM     19  N   UNL A   1      31.550  23.171  23.006  1.00  0.00    -0.356 N 
ATOM     20  C   UNL A   1      30.420  24.694  24.126  1.00  0.00     0.036 A 
ATOM     21  C   UNL A   1      30.858  24.350  22.876  1.00  0.00     0.098 A 
ATOM     22  H   UNL A   1      31.917  22.652  22.254  1.00  0.00     0.166 HD
ATOM     23  Br  UNL A   1      29.474  26.241  24.593  1.00  0.00    -0.049 Br
ENDBRANCH  14  17
ENDBRANCH  11  13
BRANCH  11  24
ATOM     24  C   UNL A   1      36.100  22.337  25.353  1.00  0.00     0.422 C 
ATOM     25  F   UNL A   1      36.947  23.279  25.829  1.00  0.00    -0.168 F 
ATOM     26  F   UNL A   1      36.423  21.175  25.980  1.00  0.00    -0.168 F 
ATOM     27  F   UNL A   1      36.390  22.151  24.045  1.00  0.00    -0.168 F 
ENDBRANCH  11  24
ENDBRANCH   9  11
ENDBRANCH   8   9
ENDBRANCH   7   8
ENDBRANCH   6   7
ENDBRANCH   5   6
ENDBRANCH   4   5
ENDBRANCH   3   4
ENDBRANCH   2   3
ENDBRANCH   1   2
BRANCH   1  28
ATOM     28  C   UNL A   1      35.281  31.582  29.312  1.00  0.00     0.188 C 
BRANCH  28  29
ATOM     29  O   UNL A   1      34.769  32.480  30.282  1.00  0.00    -0.376 OA
BRANCH  29  30
ATOM     30  C   UNL A   1      34.536  33.824  29.901  1.00  0.00     0.202 C 
BRANCH  30  31
ATOM     31  C   UNL A   1      34.005  34.802  30.962  1.00  0.00     0.261 C 
BRANCH  31  32
ATOM     32  O   UNL A   1      34.260  34.491  32.342  1.00  0.00    -0.460 OA
BRANCH  32  33
ATOM     33  C   UNL A   1      34.967  35.368  33.086  1.00  0.00     0.338 C 
ATOM     34  O   UNL A   1      34.636  36.506  33.377  1.00  0.00    -0.246 OA
BRANCH  33  35
ATOM     35  C   UNL A   1      36.114  34.637  33.681  1.00  0.00     0.060 A 
ATOM     36  C   UNL A   1      35.913  33.857  34.830  1.00  0.00     0.016 A 
ATOM     37  C   UNL A   1      37.379  34.699  33.091  1.00  0.00     0.016 A 
ATOM     38  C   UNL A   1      36.984  33.175  35.415  1.00  0.00     0.010 A 
ATOM     39  C   UNL A   1      38.456  34.040  33.696  1.00  0.00     0.010 A 
ATOM     40  C   UNL A   1      38.271  33.306  34.882  1.00  0.00    -0.014 A 
BRANCH  40  41
ATOM     41  C   UNL A   1      39.450  32.890  35.686  1.00  0.00     0.031 A 
ATOM     42  C   UNL A   1      39.881  33.788  36.817  1.00  0.00     0.074 A 
ATOM     43  C   UNL A   1      40.112  31.743  35.443  1.00  0.00     0.049 A 
ATOM     44  N   UNL A   1      40.919  33.698  37.606  1.00  0.00    -0.248 NA
ATOM     45  C   UNL A   1      39.019  34.950  37.088  1.00  0.00     0.031 C 
ATOM     46  C   UNL A   1      39.754  30.759  34.425  1.00  0.00     0.029 A 
ATOM     47  N   UNL A   1      41.235  31.219  36.037  1.00  0.00    -0.354 N 
ATOM     48  C   UNL A   1      40.841  34.794  38.459  1.00  0.00     0.074 A 
ATOM     49  C   UNL A   1      39.672  35.552  38.068  1.00  0.00     0.031 C 
ATOM     50  C   UNL A   1      40.651  29.756  34.455  1.00  0.00     0.029 A 
ATOM     51  C   UNL A   1      41.674  30.049  35.460  1.00  0.00     0.049 A 
ATOM     52  H   UNL A   1      41.685  31.641  36.804  1.00  0.00     0.167 HD
ATOM     53  C   UNL A   1      41.668  35.137  39.476  1.00  0.00     0.034 A 
ATOM     54  C   UNL A   1      42.788  29.322  35.692  1.00  0.00     0.034 A 
ATOM     55  C   UNL A   1      42.836  34.378  39.848  1.00  0.00     0.049 A 
ATOM     56  C   UNL A   1      43.753  29.782  36.765  1.00  0.00     0.074 A 
ATOM     57  C   UNL A   1      43.735  34.628  40.869  1.00  0.00     0.029 A 
ATOM     58  N   UNL A   1      43.275  33.227  39.206  1.00  0.00    -0.354 N 
ATOM     59  N   UNL A   1      43.670  30.821  37.564  1.00  0.00    -0.248 NA
ATOM     60  C   UNL A   1      44.960  28.968  36.968  1.00  0.00     0.031 C 
ATOM     61  C   UNL A   1      44.763  33.685  40.789  1.00  0.00     0.029 A 
ATOM     62  C   UNL A   1      44.454  32.782  39.783  1.00  0.00     0.049 A 
ATOM     63  H   UNL A   1      42.817  32.791  38.452  1.00  0.00     0.167 HD
ATOM     64  C   UNL A   1      44.792  30.758  38.390  1.00  0.00     0.074 A 
ATOM     65  C   UNL A   1      45.526  29.574  38.000  1.00  0.00     0.031 C 
ATOM     66  C   UNL A   1      45.179  31.599  39.385  1.00  0.00     0.034 A 
BRANCH  53  67
ATOM     67  C   UNL A   1      41.371  36.417  40.218  1.00  0.00     0.023 A 
ATOM     68  C   UNL A   1      41.969  37.639  39.865  1.00  0.00     0.031 A 
ATOM     69  C   UNL A   1      40.479  36.411  41.306  1.00  0.00     0.131 A 
ATOM     70  C   UNL A   1      41.712  38.789  40.627  1.00  0.00     0.055 A 
ATOM     71  C   UNL A   1      40.165  37.574  42.010  1.00  0.00     0.041 A 
ATOM     72  F   UNL A   1      39.901  35.268  41.708  1.00  0.00    -0.206 F 
ATOM     73  C   UNL A   1      40.792  38.772  41.679  1.00  0.00     0.022 A 
BRANCH  70  74
ATOM     74  S   UNL A   1      42.695  40.279  40.310  1.00  0.00     0.124 S 
ATOM     75  O   UNL A   1      43.441  39.891  39.115  1.00  0.00    -0.237 OA
ATOM     76  O   UNL A   1      41.672  41.300  40.120  1.00  0.00    -0.237 OA
ATOM     77  O   UNL A   1      43.502  40.422  41.520  1.00  0.00    -0.744 OA
ENDBRANCH  70  74
ENDBRANCH  53  67
BRANCH  54  78
ATOM     78  C   UNL A   1      43.100  28.114  34.870  1.00  0.00     0.023 A 
ATOM     79  C   UNL A   1      42.725  26.828  35.292  1.00  0.00     0.031 A 
ATOM     80  C   UNL A   1      43.861  28.219  33.691  1.00  0.00     0.131 A 
ATOM     81  C   UNL A   1      43.162  25.699  34.579  1.00  0.00     0.055 A 
ATOM     82  C   UNL A   1      44.235  27.097  32.947  1.00  0.00     0.041 A 
ATOM     83  F   UNL A   1      44.261  29.420  33.244  1.00  0.00    -0.206 F 
ATOM     84  C   UNL A   1      43.900  25.826  33.400  1.00  0.00     0.022 A 
BRANCH  81  85
ATOM     85  S   UNL A   1      42.857  24.055  35.284  1.00  0.00     0.124 S 
ATOM     86  O   UNL A   1      43.054  23.195  34.122  1.00  0.00    -0.237 OA
ATOM     87  O   UNL A   1      43.880  23.976  36.321  1.00  0.00    -0.237 OA
ATOM     88  O   UNL A   1      41.482  24.143  35.771  1.00  0.00    -0.744 OA
ENDBRANCH  81  85
ENDBRANCH  54  78
BRANCH  66  89
ATOM     89  C   UNL A   1      46.422  31.233  40.162  1.00  0.00     0.023 A 
ATOM     90  C   UNL A   1      46.391  30.335  41.243  1.00  0.00     0.031 A 
ATOM     91  C   UNL A   1      47.664  31.798  39.811  1.00  0.00     0.131 A 
ATOM     92  C   UNL A   1      47.562  30.074  41.970  1.00  0.00     0.055 A 
ATOM     93  C   UNL A   1      48.838  31.479  40.495  1.00  0.00     0.041 A 
ATOM     94  F   UNL A   1      47.757  32.665  38.791  1.00  0.00    -0.206 F 
ATOM     95  C   UNL A   1      48.789  30.623  41.591  1.00  0.00     0.022 A 
BRANCH  92  96
ATOM     96  S   UNL A   1      47.443  29.084  43.487  1.00  0.00     0.124 S 
ATOM     97  O   UNL A   1      46.707  29.980  44.374  1.00  0.00    -0.237 OA
ATOM     98  O   UNL A   1      46.721  27.901  43.033  1.00  0.00    -0.237 OA
ATOM     99  O   UNL A   1      48.839  28.854  43.856  1.00  0.00    -0.744 OA
ENDBRANCH  92  96
ENDBRANCH  66  89
ENDBRANCH  40  41
ENDBRANCH  33  35
ENDBRANCH  32  33
ENDBRANCH  31  32
ENDBRANCH  30  31
ENDBRANCH  29  30
ENDBRANCH  28  29
ENDBRANCH   1  28
TORSDOF 26
ENDMDL
