MODEL 1
REMARK VINA RESULT:      -8.9      0.000      0.000
REMARK SMILES [NH3+][C@@H](Cc1ccc(F)cc1C(F)(F)F)C(=O)OCCOCCOCCOCCOC(=O)c1ccc(-c2c3nc(c(-c4cc(S(=O)(=O)[O-])ccc4F)c4ccc([nH]4)c(-c4cc(S(=O)(=O)[O-])ccc4F)c4nc(c(-c5cc(S(=O)(=O)[O-])ccc5F)c5ccc2[nH]5)C=C4)C=C3)cc1
REMARK SMILES IDX 23 1 22 2 21 3 20 4 19 5 18 6 17 7 15 8 16 9 2 10 1 11 3 15
REMARK SMILES IDX 4 16 5 17 10 18 6 19 9 20 7 21 8 22 11 23 12 24 13 25 14 26
REMARK SMILES IDX 24 27 25 28 26 29 27 30 28 31 29 32 30 33 31 34 32 35 33 36
REMARK SMILES IDX 94 37 34 38 93 39 35 40 36 41 37 42 87 43 38 44 92 45 86 46
REMARK SMILES IDX 88 47 39 48 91 49 85 50 84 51 40 53 72 54 52 55 71 56 53 57
REMARK SMILES IDX 56 58 70 59 89 60 54 61 55 62 69 64 90 65 57 66 41 67 42 68
REMARK SMILES IDX 50 69 43 70 49 71 51 72 48 73 44 74 45 75 46 76 47 77 73 78
REMARK SMILES IDX 74 79 82 80 75 81 81 82 83 83 80 84 76 85 77 86 78 87 79 88
REMARK SMILES IDX 58 89 59 90 67 91 60 92 66 93 68 94 65 95 61 96 62 97 63 98
REMARK SMILES IDX 64 99
REMARK H PARENT 1 12 1 13 1 14 88 52 56 63
REMARK Flexibility Score: inf
ROOT
ATOM      1  O   UNL A   1      37.505  23.211  25.416  1.00  0.00    -0.377 OA
ENDROOT
BRANCH   1   2
ATOM      2  C   UNL A   1      37.320  21.919  24.866  1.00  0.00     0.188 C 
BRANCH   2   3
ATOM      3  C   UNL A   1      35.869  21.424  24.703  1.00  0.00     0.188 C 
BRANCH   3   4
ATOM      4  O   UNL A   1      34.948  22.172  25.484  1.00  0.00    -0.376 OA
BRANCH   4   5
ATOM      5  C   UNL A   1      33.552  21.990  25.322  1.00  0.00     0.202 C 
BRANCH   5   6
ATOM      6  C   UNL A   1      33.000  21.150  24.161  1.00  0.00     0.261 C 
BRANCH   6   7
ATOM      7  O   UNL A   1      32.279  21.879  23.158  1.00  0.00    -0.459 OA
BRANCH   7   8
ATOM      8  C   UNL A   1      32.777  23.054  22.702  1.00  0.00     0.365 C 
ATOM      9  O   UNL A   1      33.847  23.178  22.120  1.00  0.00    -0.245 OA
BRANCH   8  10
ATOM     10  C   UNL A   1      31.825  24.223  23.035  1.00  0.00     0.296 C 
BRANCH  10  11
ATOM     11  N   UNL A   1      30.640  23.792  23.811  1.00  0.00    -0.346 N 
ATOM     12  H   UNL A   1      29.792  24.076  23.321  1.00  0.00     0.345 HD
ATOM     13  H   UNL A   1      30.662  24.226  24.733  1.00  0.00     0.345 HD
ATOM     14  H   UNL A   1      30.651  22.777  23.912  1.00  0.00     0.345 HD
ENDBRANCH  10  11
BRANCH  10  15
ATOM     15  C   UNL A   1      32.539  25.425  23.683  1.00  0.00     0.113 C 
BRANCH  15  16
ATOM     16  C   UNL A   1      31.816  26.762  23.744  1.00  0.00    -0.029 A 
ATOM     17  C   UNL A   1      31.134  27.153  22.569  1.00  0.00     0.007 A 
ATOM     18  C   UNL A   1      31.757  27.612  24.879  1.00  0.00     0.062 A 
ATOM     19  C   UNL A   1      30.411  28.344  22.507  1.00  0.00     0.039 A 
ATOM     20  C   UNL A   1      31.039  28.826  24.781  1.00  0.00     0.052 A 
ATOM     21  C   UNL A   1      30.371  29.170  23.614  1.00  0.00     0.123 A 
ATOM     22  F   UNL A   1      29.671  30.310  23.565  1.00  0.00    -0.207 F 
BRANCH  18  23
ATOM     23  C   UNL A   1      32.441  27.346  26.202  1.00  0.00     0.416 C 
ATOM     24  F   UNL A   1      33.792  27.468  26.107  1.00  0.00    -0.166 F 
ATOM     25  F   UNL A   1      32.054  28.198  27.192  1.00  0.00    -0.166 F 
ATOM     26  F   UNL A   1      32.227  26.097  26.700  1.00  0.00    -0.166 F 
ENDBRANCH  18  23
ENDBRANCH  15  16
ENDBRANCH  10  15
ENDBRANCH   8  10
ENDBRANCH   7   8
ENDBRANCH   6   7
ENDBRANCH   5   6
ENDBRANCH   4   5
ENDBRANCH   3   4
ENDBRANCH   2   3
ENDBRANCH   1   2
BRANCH   1  27
ATOM     27  C   UNL A   1      38.794  23.440  25.958  1.00  0.00     0.188 C 
BRANCH  27  28
ATOM     28  C   UNL A   1      39.333  22.213  26.708  1.00  0.00     0.188 C 
BRANCH  28  29
ATOM     29  O   UNL A   1      40.463  21.530  26.198  1.00  0.00    -0.376 OA
BRANCH  29  30
ATOM     30  C   UNL A   1      41.013  20.379  26.818  1.00  0.00     0.202 C 
BRANCH  30  31
ATOM     31  C   UNL A   1      42.118  19.449  26.269  1.00  0.00     0.261 C 
BRANCH  31  32
ATOM     32  O   UNL A   1      42.624  19.653  24.953  1.00  0.00    -0.460 OA
BRANCH  32  33
ATOM     33  C   UNL A   1      43.965  19.708  24.832  1.00  0.00     0.338 C 
ATOM     34  O   UNL A   1      44.705  18.821  24.445  1.00  0.00    -0.246 OA
BRANCH  33  35
ATOM     35  C   UNL A   1      44.368  21.110  25.070  1.00  0.00     0.060 A 
ATOM     36  C   UNL A   1      45.340  21.363  26.046  1.00  0.00     0.016 A 
ATOM     37  C   UNL A   1      43.820  22.159  24.324  1.00  0.00     0.016 A 
ATOM     38  C   UNL A   1      45.739  22.668  26.307  1.00  0.00     0.010 A 
ATOM     39  C   UNL A   1      44.196  23.474  24.612  1.00  0.00     0.010 A 
ATOM     40  C   UNL A   1      45.128  23.732  25.631  1.00  0.00    -0.014 A 
BRANCH  40  41
ATOM     41  C   UNL A   1      45.301  25.098  26.177  1.00  0.00     0.031 A 
ATOM     42  C   UNL A   1      46.662  25.728  26.072  1.00  0.00     0.074 A 
ATOM     43  C   UNL A   1      44.259  25.794  26.662  1.00  0.00     0.049 A 
ATOM     44  N   UNL A   1      47.051  26.924  26.427  1.00  0.00    -0.248 NA
ATOM     45  C   UNL A   1      47.726  24.898  25.483  1.00  0.00     0.031 C 
ATOM     46  C   UNL A   1      42.884  25.304  26.750  1.00  0.00     0.029 A 
ATOM     47  N   UNL A   1      44.195  27.073  27.155  1.00  0.00    -0.354 N 
ATOM     48  C   UNL A   1      48.400  26.990  26.103  1.00  0.00     0.074 A 
ATOM     49  C   UNL A   1      48.774  25.704  25.558  1.00  0.00     0.031 C 
ATOM     50  C   UNL A   1      42.110  26.278  27.261  1.00  0.00     0.029 A 
ATOM     51  C   UNL A   1      42.938  27.446  27.564  1.00  0.00     0.049 A 
ATOM     52  H   UNL A   1      44.978  27.667  27.212  1.00  0.00     0.167 HD
ATOM     53  C   UNL A   1      49.250  28.036  26.240  1.00  0.00     0.034 A 
ATOM     54  C   UNL A   1      42.507  28.592  28.130  1.00  0.00     0.034 A 
ATOM     55  C   UNL A   1      48.863  29.311  26.785  1.00  0.00     0.049 A 
ATOM     56  C   UNL A   1      43.488  29.712  28.363  1.00  0.00     0.074 A 
ATOM     57  C   UNL A   1      49.640  30.444  26.946  1.00  0.00     0.029 A 
ATOM     58  N   UNL A   1      47.601  29.617  27.274  1.00  0.00    -0.354 N 
ATOM     59  N   UNL A   1      44.766  29.762  28.063  1.00  0.00    -0.248 NA
ATOM     60  C   UNL A   1      42.977  30.928  29.012  1.00  0.00     0.031 C 
ATOM     61  C   UNL A   1      48.872  31.406  27.605  1.00  0.00     0.029 A 
ATOM     62  C   UNL A   1      47.590  30.906  27.779  1.00  0.00     0.049 A 
ATOM     63  H   UNL A   1      46.827  29.008  27.262  1.00  0.00     0.167 HD
ATOM     64  C   UNL A   1      45.206  31.019  28.467  1.00  0.00     0.074 A 
ATOM     65  C   UNL A   1      44.058  31.697  29.035  1.00  0.00     0.031 C 
ATOM     66  C   UNL A   1      46.444  31.565  28.362  1.00  0.00     0.034 A 
BRANCH  53  67
ATOM     67  C   UNL A   1      50.687  27.824  25.844  1.00  0.00     0.023 A 
ATOM     68  C   UNL A   1      51.102  27.858  24.502  1.00  0.00     0.031 A 
ATOM     69  C   UNL A   1      51.658  27.588  26.833  1.00  0.00     0.131 A 
ATOM     70  C   UNL A   1      52.447  27.615  24.183  1.00  0.00     0.055 A 
ATOM     71  C   UNL A   1      53.004  27.413  26.514  1.00  0.00     0.041 A 
ATOM     72  F   UNL A   1      51.311  27.519  28.128  1.00  0.00    -0.206 F 
ATOM     73  C   UNL A   1      53.404  27.418  25.181  1.00  0.00     0.022 A 
BRANCH  70  74
ATOM     74  S   UNL A   1      52.914  27.467  22.437  1.00  0.00     0.124 S 
ATOM     75  O   UNL A   1      51.630  27.159  21.813  1.00  0.00    -0.237 OA
ATOM     76  O   UNL A   1      53.468  28.783  22.144  1.00  0.00    -0.237 OA
ATOM     77  O   UNL A   1      53.881  26.370  22.433  1.00  0.00    -0.744 OA
ENDBRANCH  70  74
ENDBRANCH  53  67
BRANCH  54  78
ATOM     78  C   UNL A   1      41.081  28.713  28.540  1.00  0.00     0.023 A 
ATOM     79  C   UNL A   1      40.687  28.553  29.876  1.00  0.00     0.031 A 
ATOM     80  C   UNL A   1      40.093  29.034  27.590  1.00  0.00     0.131 A 
ATOM     81  C   UNL A   1      39.337  28.715  30.228  1.00  0.00     0.055 A 
ATOM     82  C   UNL A   1      38.760  29.228  27.950  1.00  0.00     0.041 A 
ATOM     83  F   UNL A   1      40.423  29.203  26.300  1.00  0.00    -0.206 F 
ATOM     84  C   UNL A   1      38.374  29.067  29.276  1.00  0.00     0.022 A 
BRANCH  81  85
ATOM     85  S   UNL A   1      38.846  28.469  31.957  1.00  0.00     0.124 S 
ATOM     86  O   UNL A   1      40.098  28.722  32.660  1.00  0.00    -0.237 OA
ATOM     87  O   UNL A   1      37.799  29.472  32.125  1.00  0.00    -0.237 OA
ATOM     88  O   UNL A   1      38.382  27.083  31.984  1.00  0.00    -0.744 OA
ENDBRANCH  81  85
ENDBRANCH  54  78
BRANCH  66  89
ATOM     89  C   UNL A   1      46.640  32.977  28.846  1.00  0.00     0.023 A 
ATOM     90  C   UNL A   1      46.417  34.082  28.008  1.00  0.00     0.031 A 
ATOM     91  C   UNL A   1      46.957  33.219  30.196  1.00  0.00     0.131 A 
ATOM     92  C   UNL A   1      46.524  35.382  28.527  1.00  0.00     0.055 A 
ATOM     93  C   UNL A   1      47.017  34.510  30.717  1.00  0.00     0.041 A 
ATOM     94  F   UNL A   1      47.173  32.195  31.039  1.00  0.00    -0.206 F 
ATOM     95  C   UNL A   1      46.801  35.602  29.880  1.00  0.00     0.022 A 
BRANCH  92  96
ATOM     96  S   UNL A   1      46.305  36.792  27.409  1.00  0.00     0.124 S 
ATOM     97  O   UNL A   1      45.043  37.355  27.877  1.00  0.00    -0.237 OA
ATOM     98  O   UNL A   1      47.496  37.593  27.671  1.00  0.00    -0.237 OA
ATOM     99  O   UNL A   1      46.255  36.176  26.084  1.00  0.00    -0.744 OA
ENDBRANCH  92  96
ENDBRANCH  66  89
ENDBRANCH  40  41
ENDBRANCH  33  35
ENDBRANCH  32  33
ENDBRANCH  31  32
ENDBRANCH  30  31
ENDBRANCH  29  30
ENDBRANCH  28  29
ENDBRANCH  27  28
ENDBRANCH   1  27
TORSDOF 27
ENDMDL
MODEL 2
REMARK VINA RESULT:      -8.7      3.056      8.305
REMARK SMILES [NH3+][C@@H](Cc1ccc(F)cc1C(F)(F)F)C(=O)OCCOCCOCCOCCOC(=O)c1ccc(-c2c3nc(c(-c4cc(S(=O)(=O)[O-])ccc4F)c4ccc([nH]4)c(-c4cc(S(=O)(=O)[O-])ccc4F)c4nc(c(-c5cc(S(=O)(=O)[O-])ccc5F)c5ccc2[nH]5)C=C4)C=C3)cc1
REMARK SMILES IDX 23 1 22 2 21 3 20 4 19 5 18 6 17 7 15 8 16 9 2 10 1 11 3 15
REMARK SMILES IDX 4 16 5 17 10 18 6 19 9 20 7 21 8 22 11 23 12 24 13 25 14 26
REMARK SMILES IDX 24 27 25 28 26 29 27 30 28 31 29 32 30 33 31 34 32 35 33 36
REMARK SMILES IDX 94 37 34 38 93 39 35 40 36 41 37 42 87 43 38 44 92 45 86 46
REMARK SMILES IDX 88 47 39 48 91 49 85 50 84 51 40 53 72 54 52 55 71 56 53 57
REMARK SMILES IDX 56 58 70 59 89 60 54 61 55 62 69 64 90 65 57 66 41 67 42 68
REMARK SMILES IDX 50 69 43 70 49 71 51 72 48 73 44 74 45 75 46 76 47 77 73 78
REMARK SMILES IDX 74 79 82 80 75 81 81 82 83 83 80 84 76 85 77 86 78 87 79 88
REMARK SMILES IDX 58 89 59 90 67 91 60 92 66 93 68 94 65 95 61 96 62 97 63 98
REMARK SMILES IDX 64 99
REMARK H PARENT 1 12 1 13 1 14 88 52 56 63
REMARK Flexibility Score: inf
ROOT
ATOM      1  O   UNL A   1      37.702  22.857  26.190  1.00  0.00    -0.377 OA
ENDROOT
BRANCH   1   2
ATOM      2  C   UNL A   1      37.723  21.810  25.235  1.00  0.00     0.188 C 
BRANCH   2   3
ATOM      3  C   UNL A   1      36.373  21.164  24.867  1.00  0.00     0.188 C 
BRANCH   3   4
ATOM      4  O   UNL A   1      35.432  21.227  25.930  1.00  0.00    -0.376 OA
BRANCH   4   5
ATOM      5  C   UNL A   1      34.041  21.245  25.660  1.00  0.00     0.202 C 
BRANCH   5   6
ATOM      6  C   UNL A   1      33.521  21.525  24.243  1.00  0.00     0.261 C 
BRANCH   6   7
ATOM      7  O   UNL A   1      32.867  22.789  24.061  1.00  0.00    -0.459 OA
BRANCH   7   8
ATOM      8  C   UNL A   1      33.614  23.898  23.840  1.00  0.00     0.365 C 
ATOM      9  O   UNL A   1      34.605  24.211  24.487  1.00  0.00    -0.245 OA
BRANCH   8  10
ATOM     10  C   UNL A   1      33.035  24.730  22.676  1.00  0.00     0.296 C 
BRANCH  10  11
ATOM     11  N   UNL A   1      32.953  23.965  21.412  1.00  0.00    -0.346 N 
ATOM     12  H   UNL A   1      33.806  24.109  20.871  1.00  0.00     0.345 HD
ATOM     13  H   UNL A   1      32.149  24.285  20.872  1.00  0.00     0.345 HD
ATOM     14  H   UNL A   1      32.848  22.972  21.622  1.00  0.00     0.345 HD
ENDBRANCH  10  11
BRANCH  10  15
ATOM     15  C   UNL A   1      31.703  25.422  23.025  1.00  0.00     0.113 C 
BRANCH  15  16
ATOM     16  C   UNL A   1      31.623  26.266  24.288  1.00  0.00    -0.029 A 
ATOM     17  C   UNL A   1      30.911  25.699  25.369  1.00  0.00     0.007 A 
ATOM     18  C   UNL A   1      32.221  27.541  24.461  1.00  0.00     0.062 A 
ATOM     19  C   UNL A   1      30.790  26.361  26.591  1.00  0.00     0.039 A 
ATOM     20  C   UNL A   1      32.061  28.202  25.701  1.00  0.00     0.052 A 
ATOM     21  C   UNL A   1      31.366  27.608  26.744  1.00  0.00     0.123 A 
ATOM     22  F   UNL A   1      31.262  28.246  27.916  1.00  0.00    -0.207 F 
BRANCH  18  23
ATOM     23  C   UNL A   1      33.001  28.288  23.402  1.00  0.00     0.416 C 
ATOM     24  F   UNL A   1      32.279  28.447  22.260  1.00  0.00    -0.166 F 
ATOM     25  F   UNL A   1      33.376  29.540  23.788  1.00  0.00    -0.166 F 
ATOM     26  F   UNL A   1      34.152  27.672  23.017  1.00  0.00    -0.166 F 
ENDBRANCH  18  23
ENDBRANCH  15  16
ENDBRANCH  10  15
ENDBRANCH   8  10
ENDBRANCH   7   8
ENDBRANCH   6   7
ENDBRANCH   5   6
ENDBRANCH   4   5
ENDBRANCH   3   4
ENDBRANCH   2   3
ENDBRANCH   1   2
BRANCH   1  27
ATOM     27  C   UNL A   1      38.976  23.388  26.508  1.00  0.00     0.188 C 
BRANCH  27  28
ATOM     28  C   UNL A   1      39.993  22.289  26.849  1.00  0.00     0.188 C 
BRANCH  28  29
ATOM     29  O   UNL A   1      41.054  22.023  25.950  1.00  0.00    -0.376 OA
BRANCH  29  30
ATOM     30  C   UNL A   1      42.045  21.040  26.198  1.00  0.00     0.202 C 
BRANCH  30  31
ATOM     31  C   UNL A   1      43.490  20.998  25.650  1.00  0.00     0.261 C 
BRANCH  31  32
ATOM     32  O   UNL A   1      44.064  22.171  25.082  1.00  0.00    -0.460 OA
BRANCH  32  33
ATOM     33  C   UNL A   1      45.171  22.645  25.687  1.00  0.00     0.338 C 
ATOM     34  O   UNL A   1      46.294  22.175  25.637  1.00  0.00    -0.246 OA
BRANCH  33  35
ATOM     35  C   UNL A   1      44.822  23.957  26.271  1.00  0.00     0.060 A 
ATOM     36  C   UNL A   1      44.465  24.995  25.402  1.00  0.00     0.016 A 
ATOM     37  C   UNL A   1      44.820  24.156  27.656  1.00  0.00     0.016 A 
ATOM     38  C   UNL A   1      44.140  26.246  25.912  1.00  0.00     0.010 A 
ATOM     39  C   UNL A   1      44.529  25.425  28.165  1.00  0.00     0.010 A 
ATOM     40  C   UNL A   1      44.226  26.482  27.289  1.00  0.00    -0.014 A 
BRANCH  40  41
ATOM     41  C   UNL A   1      44.235  27.886  27.759  1.00  0.00     0.031 A 
ATOM     42  C   UNL A   1      42.951  28.456  28.294  1.00  0.00     0.074 A 
ATOM     43  C   UNL A   1      45.371  28.602  27.800  1.00  0.00     0.049 A 
ATOM     44  N   UNL A   1      42.716  29.633  28.807  1.00  0.00    -0.248 NA
ATOM     45  C   UNL A   1      41.772  27.573  28.247  1.00  0.00     0.031 C 
ATOM     46  C   UNL A   1      46.685  28.127  27.368  1.00  0.00     0.029 A 
ATOM     47  N   UNL A   1      45.603  29.879  28.246  1.00  0.00    -0.354 N 
ATOM     48  C   UNL A   1      41.369  29.634  29.146  1.00  0.00     0.074 A 
ATOM     49  C   UNL A   1      40.827  28.355  28.746  1.00  0.00     0.031 C 
ATOM     50  C   UNL A   1      47.588  29.101  27.578  1.00  0.00     0.029 A 
ATOM     51  C   UNL A   1      46.913  30.277  28.129  1.00  0.00     0.049 A 
ATOM     52  H   UNL A   1      44.895  30.458  28.613  1.00  0.00     0.167 HD
ATOM     53  C   UNL A   1      40.651  30.612  29.746  1.00  0.00     0.034 A 
ATOM     54  C   UNL A   1      47.497  31.457  28.420  1.00  0.00     0.034 A 
ATOM     55  C   UNL A   1      41.205  31.882  30.137  1.00  0.00     0.049 A 
ATOM     56  C   UNL A   1      46.661  32.570  28.998  1.00  0.00     0.074 A 
ATOM     57  C   UNL A   1      40.569  32.934  30.773  1.00  0.00     0.029 A 
ATOM     58  N   UNL A   1      42.516  32.280  29.916  1.00  0.00    -0.354 N 
ATOM     59  N   UNL A   1      45.384  32.564  29.306  1.00  0.00    -0.248 NA
ATOM     60  C   UNL A   1      47.337  33.847  29.269  1.00  0.00     0.031 C 
ATOM     61  C   UNL A   1      41.472  33.996  30.862  1.00  0.00     0.029 A 
ATOM     62  C   UNL A   1      42.696  33.578  30.361  1.00  0.00     0.049 A 
ATOM     63  H   UNL A   1      43.214  31.721  29.505  1.00  0.00     0.167 HD
ATOM     64  C   UNL A   1      45.108  33.827  29.824  1.00  0.00     0.074 A 
ATOM     65  C   UNL A   1      46.352  34.571  29.785  1.00  0.00     0.031 C 
ATOM     66  C   UNL A   1      43.936  34.317  30.300  1.00  0.00     0.034 A 
BRANCH  53  67
ATOM     67  C   UNL A   1      39.181  30.366  29.963  1.00  0.00     0.023 A 
ATOM     68  C   UNL A   1      38.202  30.913  29.115  1.00  0.00     0.031 A 
ATOM     69  C   UNL A   1      38.757  29.566  31.038  1.00  0.00     0.131 A 
ATOM     70  C   UNL A   1      36.843  30.686  29.384  1.00  0.00     0.055 A 
ATOM     71  C   UNL A   1      37.407  29.290  31.260  1.00  0.00     0.041 A 
ATOM     72  F   UNL A   1      39.649  29.041  31.892  1.00  0.00    -0.206 F 
ATOM     73  C   UNL A   1      36.441  29.859  30.436  1.00  0.00     0.022 A 
BRANCH  70  74
ATOM     74  S   UNL A   1      35.602  31.565  28.397  1.00  0.00     0.124 S 
ATOM     75  O   UNL A   1      34.587  31.870  29.402  1.00  0.00    -0.237 OA
ATOM     76  O   UNL A   1      36.355  32.703  27.882  1.00  0.00    -0.237 OA
ATOM     77  O   UNL A   1      35.202  30.579  27.394  1.00  0.00    -0.744 OA
ENDBRANCH  70  74
ENDBRANCH  53  67
BRANCH  54  78
ATOM     78  C   UNL A   1      48.946  31.645  28.134  1.00  0.00     0.023 A 
ATOM     79  C   UNL A   1      49.385  32.294  26.970  1.00  0.00     0.031 A 
ATOM     80  C   UNL A   1      49.915  31.206  29.056  1.00  0.00     0.131 A 
ATOM     81  C   UNL A   1      50.760  32.487  26.758  1.00  0.00     0.055 A 
ATOM     82  C   UNL A   1      51.277  31.430  28.856  1.00  0.00     0.041 A 
ATOM     83  F   UNL A   1      49.543  30.585  30.186  1.00  0.00    -0.206 F 
ATOM     84  C   UNL A   1      51.707  32.073  27.700  1.00  0.00     0.022 A 
BRANCH  81  85
ATOM     85  S   UNL A   1      51.305  33.298  25.229  1.00  0.00     0.124 S 
ATOM     86  O   UNL A   1      50.157  34.140  24.914  1.00  0.00    -0.237 OA
ATOM     87  O   UNL A   1      52.513  33.991  25.663  1.00  0.00    -0.237 OA
ATOM     88  O   UNL A   1      51.531  32.180  24.314  1.00  0.00    -0.744 OA
ENDBRANCH  81  85
ENDBRANCH  54  78
BRANCH  66  89
ATOM     89  C   UNL A   1      43.925  35.720  30.847  1.00  0.00     0.023 A 
ATOM     90  C   UNL A   1      44.185  35.986  32.201  1.00  0.00     0.031 A 
ATOM     91  C   UNL A   1      43.750  36.812  29.976  1.00  0.00     0.131 A 
ATOM     92  C   UNL A   1      44.253  37.314  32.649  1.00  0.00     0.055 A 
ATOM     93  C   UNL A   1      43.864  38.130  30.417  1.00  0.00     0.041 A 
ATOM     94  F   UNL A   1      43.505  36.610  28.670  1.00  0.00    -0.206 F 
ATOM     95  C   UNL A   1      44.116  38.386  31.762  1.00  0.00     0.022 A 
BRANCH  92  96
ATOM     96  S   UNL A   1      44.515  37.631  34.415  1.00  0.00     0.124 S 
ATOM     97  O   UNL A   1      44.400  36.291  34.981  1.00  0.00    -0.237 OA
ATOM     98  O   UNL A   1      45.850  38.219  34.438  1.00  0.00    -0.237 OA
ATOM     99  O   UNL A   1      43.431  38.547  34.765  1.00  0.00    -0.744 OA
ENDBRANCH  92  96
ENDBRANCH  66  89
ENDBRANCH  40  41
ENDBRANCH  33  35
ENDBRANCH  32  33
ENDBRANCH  31  32
ENDBRANCH  30  31
ENDBRANCH  29  30
ENDBRANCH  28  29
ENDBRANCH  27  28
ENDBRANCH   1  27
TORSDOF 27
ENDMDL
MODEL 3
REMARK VINA RESULT:      -8.7      2.384      2.992
REMARK SMILES [NH3+][C@@H](Cc1ccc(F)cc1C(F)(F)F)C(=O)OCCOCCOCCOCCOC(=O)c1ccc(-c2c3nc(c(-c4cc(S(=O)(=O)[O-])ccc4F)c4ccc([nH]4)c(-c4cc(S(=O)(=O)[O-])ccc4F)c4nc(c(-c5cc(S(=O)(=O)[O-])ccc5F)c5ccc2[nH]5)C=C4)C=C3)cc1
REMARK SMILES IDX 23 1 22 2 21 3 20 4 19 5 18 6 17 7 15 8 16 9 2 10 1 11 3 15
REMARK SMILES IDX 4 16 5 17 10 18 6 19 9 20 7 21 8 22 11 23 12 24 13 25 14 26
REMARK SMILES IDX 24 27 25 28 26 29 27 30 28 31 29 32 30 33 31 34 32 35 33 36
REMARK SMILES IDX 94 37 34 38 93 39 35 40 36 41 37 42 87 43 38 44 92 45 86 46
REMARK SMILES IDX 88 47 39 48 91 49 85 50 84 51 40 53 72 54 52 55 71 56 53 57
REMARK SMILES IDX 56 58 70 59 89 60 54 61 55 62 69 64 90 65 57 66 41 67 42 68
REMARK SMILES IDX 50 69 43 70 49 71 51 72 48 73 44 74 45 75 46 76 47 77 73 78
REMARK SMILES IDX 74 79 82 80 75 81 81 82 83 83 80 84 76 85 77 86 78 87 79 88
REMARK SMILES IDX 58 89 59 90 67 91 60 92 66 93 68 94 65 95 61 96 62 97 63 98
REMARK SMILES IDX 64 99
REMARK H PARENT 1 12 1 13 1 14 88 52 56 63
REMARK Flexibility Score: inf
ROOT
ATOM      1  O   UNL A   1      37.046  23.257  25.999  1.00  0.00    -0.377 OA
ENDROOT
BRANCH   1   2
ATOM      2  C   UNL A   1      36.978  22.070  25.227  1.00  0.00     0.188 C 
BRANCH   2   3
ATOM      3  C   UNL A   1      35.717  21.198  25.386  1.00  0.00     0.188 C 
BRANCH   3   4
ATOM      4  O   UNL A   1      35.112  21.344  26.663  1.00  0.00    -0.376 OA
BRANCH   4   5
ATOM      5  C   UNL A   1      33.701  21.311  26.799  1.00  0.00     0.202 C 
BRANCH   5   6
ATOM      6  C   UNL A   1      32.792  21.415  25.567  1.00  0.00     0.261 C 
BRANCH   6   7
ATOM      7  O   UNL A   1      31.734  22.379  25.658  1.00  0.00    -0.459 OA
BRANCH   7   8
ATOM      8  C   UNL A   1      31.903  23.482  26.428  1.00  0.00     0.365 C 
ATOM      9  O   UNL A   1      31.517  23.589  27.584  1.00  0.00    -0.245 OA
BRANCH   8  10
ATOM     10  C   UNL A   1      32.630  24.596  25.644  1.00  0.00     0.296 C 
BRANCH  10  11
ATOM     11  N   UNL A   1      34.101  24.533  25.791  1.00  0.00    -0.346 N 
ATOM     12  H   UNL A   1      34.335  24.178  26.718  1.00  0.00     0.345 HD
ATOM     13  H   UNL A   1      34.495  25.466  25.674  1.00  0.00     0.345 HD
ATOM     14  H   UNL A   1      34.487  23.910  25.081  1.00  0.00     0.345 HD
ENDBRANCH  10  11
BRANCH  10  15
ATOM     15  C   UNL A   1      32.196  24.684  24.168  1.00  0.00     0.113 C 
BRANCH  15  16
ATOM     16  C   UNL A   1      31.287  25.826  23.737  1.00  0.00    -0.029 A 
ATOM     17  C   UNL A   1      29.929  25.715  24.116  1.00  0.00     0.007 A 
ATOM     18  C   UNL A   1      31.701  26.979  23.022  1.00  0.00     0.062 A 
ATOM     19  C   UNL A   1      29.002  26.709  23.806  1.00  0.00     0.039 A 
ATOM     20  C   UNL A   1      30.735  27.959  22.697  1.00  0.00     0.052 A 
ATOM     21  C   UNL A   1      29.414  27.822  23.098  1.00  0.00     0.123 A 
ATOM     22  F   UNL A   1      28.531  28.784  22.804  1.00  0.00    -0.207 F 
BRANCH  18  23
ATOM     23  C   UNL A   1      33.108  27.242  22.533  1.00  0.00     0.416 C 
ATOM     24  F   UNL A   1      33.392  26.537  21.405  1.00  0.00    -0.166 F 
ATOM     25  F   UNL A   1      33.341  28.549  22.229  1.00  0.00    -0.166 F 
ATOM     26  F   UNL A   1      34.081  26.902  23.423  1.00  0.00    -0.166 F 
ENDBRANCH  18  23
ENDBRANCH  15  16
ENDBRANCH  10  15
ENDBRANCH   8  10
ENDBRANCH   7   8
ENDBRANCH   6   7
ENDBRANCH   5   6
ENDBRANCH   4   5
ENDBRANCH   3   4
ENDBRANCH   2   3
ENDBRANCH   1   2
BRANCH   1  27
ATOM     27  C   UNL A   1      38.345  23.812  26.109  1.00  0.00     0.188 C 
BRANCH  27  28
ATOM     28  C   UNL A   1      39.317  22.871  26.835  1.00  0.00     0.188 C 
BRANCH  28  29
ATOM     29  O   UNL A   1      40.301  22.179  26.087  1.00  0.00    -0.376 OA
BRANCH  29  30
ATOM     30  C   UNL A   1      41.077  21.122  26.627  1.00  0.00     0.202 C 
BRANCH  30  31
ATOM     31  C   UNL A   1      42.384  20.527  26.057  1.00  0.00     0.261 C 
BRANCH  31  32
ATOM     32  O   UNL A   1      43.123  21.251  25.080  1.00  0.00    -0.460 OA
BRANCH  32  33
ATOM     33  C   UNL A   1      44.448  21.366  25.298  1.00  0.00     0.338 C 
ATOM     34  O   UNL A   1      45.309  20.543  25.040  1.00  0.00    -0.246 OA
BRANCH  33  35
ATOM     35  C   UNL A   1      44.702  22.755  25.733  1.00  0.00     0.060 A 
ATOM     36  C   UNL A   1      45.089  22.973  27.062  1.00  0.00     0.016 A 
ATOM     37  C   UNL A   1      44.588  23.826  24.841  1.00  0.00     0.016 A 
ATOM     38  C   UNL A   1      45.327  24.265  27.512  1.00  0.00     0.010 A 
ATOM     39  C   UNL A   1      44.792  25.129  25.305  1.00  0.00     0.010 A 
ATOM     40  C   UNL A   1      45.124  25.352  26.653  1.00  0.00    -0.014 A 
BRANCH  40  41
ATOM     41  C   UNL A   1      45.028  26.705  27.246  1.00  0.00     0.031 A 
ATOM     42  C   UNL A   1      46.269  27.552  27.269  1.00  0.00     0.074 A 
ATOM     43  C   UNL A   1      43.851  27.203  27.665  1.00  0.00     0.049 A 
ATOM     44  N   UNL A   1      46.428  28.780  27.686  1.00  0.00    -0.248 NA
ATOM     45  C   UNL A   1      47.498  26.930  26.746  1.00  0.00     0.031 C 
ATOM     46  C   UNL A   1      42.574  26.493  27.628  1.00  0.00     0.029 A 
ATOM     47  N   UNL A   1      43.541  28.433  28.185  1.00  0.00    -0.354 N 
ATOM     48  C   UNL A   1      47.768  29.078  27.474  1.00  0.00     0.074 A 
ATOM     49  C   UNL A   1      48.389  27.892  26.927  1.00  0.00     0.031 C 
ATOM     50  C   UNL A   1      41.613  27.306  28.101  1.00  0.00     0.029 A 
ATOM     51  C   UNL A   1      42.211  28.581  28.501  1.00  0.00     0.049 A 
ATOM     52  H   UNL A   1      44.208  29.144  28.321  1.00  0.00     0.167 HD
ATOM     53  C   UNL A   1      48.420  30.241  27.706  1.00  0.00     0.034 A 
ATOM     54  C   UNL A   1      41.556  29.617  29.061  1.00  0.00     0.034 A 
ATOM     55  C   UNL A   1      47.788  31.414  28.253  1.00  0.00     0.049 A 
ATOM     56  C   UNL A   1      42.318  30.872  29.403  1.00  0.00     0.074 A 
ATOM     57  C   UNL A   1      48.353  32.651  28.506  1.00  0.00     0.029 A 
ATOM     58  N   UNL A   1      46.460  31.491  28.646  1.00  0.00    -0.354 N 
ATOM     59  N   UNL A   1      43.589  31.141  29.208  1.00  0.00    -0.248 NA
ATOM     60  C   UNL A   1      41.566  31.962  30.040  1.00  0.00     0.031 C 
ATOM     61  C   UNL A   1      47.389  33.448  29.127  1.00  0.00     0.029 A 
ATOM     62  C   UNL A   1      46.198  32.740  29.183  1.00  0.00     0.049 A 
ATOM     63  H   UNL A   1      45.801  30.765  28.556  1.00  0.00     0.167 HD
ATOM     64  C   UNL A   1      43.784  32.437  29.679  1.00  0.00     0.074 A 
ATOM     65  C   UNL A   1      42.500  32.896  30.171  1.00  0.00     0.031 C 
ATOM     66  C   UNL A   1      44.919  33.180  29.689  1.00  0.00     0.034 A 
BRANCH  53  67
ATOM     67  C   UNL A   1      49.899  30.282  27.422  1.00  0.00     0.023 A 
ATOM     68  C   UNL A   1      50.408  30.749  26.199  1.00  0.00     0.031 A 
ATOM     69  C   UNL A   1      50.811  29.849  28.400  1.00  0.00     0.131 A 
ATOM     70  C   UNL A   1      51.793  30.729  25.969  1.00  0.00     0.055 A 
ATOM     71  C   UNL A   1      52.190  29.894  28.189  1.00  0.00     0.041 A 
ATOM     72  F   UNL A   1      50.376  29.369  29.576  1.00  0.00    -0.206 F 
ATOM     73  C   UNL A   1      52.687  30.328  26.965  1.00  0.00     0.022 A 
BRANCH  70  74
ATOM     74  S   UNL A   1      52.406  31.146  24.314  1.00  0.00     0.124 S 
ATOM     75  O   UNL A   1      52.015  29.965  23.548  1.00  0.00    -0.237 OA
ATOM     76  O   UNL A   1      51.683  32.375  24.009  1.00  0.00    -0.237 OA
ATOM     77  O   UNL A   1      53.846  31.304  24.512  1.00  0.00    -0.744 OA
ENDBRANCH  70  74
ENDBRANCH  53  67
BRANCH  54  78
ATOM     78  C   UNL A   1      40.103  29.488  29.357  1.00  0.00     0.023 A 
ATOM     79  C   UNL A   1      39.626  29.433  30.675  1.00  0.00     0.031 A 
ATOM     80  C   UNL A   1      39.163  29.461  28.310  1.00  0.00     0.131 A 
ATOM     81  C   UNL A   1      38.244  29.352  30.913  1.00  0.00     0.055 A 
ATOM     82  C   UNL A   1      37.790  29.414  28.552  1.00  0.00     0.041 A 
ATOM     83  F   UNL A   1      39.571  29.517  27.032  1.00  0.00    -0.206 F 
ATOM     84  C   UNL A   1      37.324  29.358  29.861  1.00  0.00     0.022 A 
BRANCH  81  85
ATOM     85  S   UNL A   1      37.654  29.246  32.626  1.00  0.00     0.124 S 
ATOM     86  O   UNL A   1      37.766  27.816  32.890  1.00  0.00    -0.237 OA
ATOM     87  O   UNL A   1      38.599  30.108  33.329  1.00  0.00    -0.237 OA
ATOM     88  O   UNL A   1      36.289  29.763  32.547  1.00  0.00    -0.744 OA
ENDBRANCH  81  85
ENDBRANCH  54  78
BRANCH  66  89
ATOM     89  C   UNL A   1      44.841  34.585  30.225  1.00  0.00     0.023 A 
ATOM     90  C   UNL A   1      45.005  34.863  31.592  1.00  0.00     0.031 A 
ATOM     91  C   UNL A   1      44.701  35.668  29.337  1.00  0.00     0.131 A 
ATOM     92  C   UNL A   1      45.015  36.195  32.035  1.00  0.00     0.055 A 
ATOM     93  C   UNL A   1      44.758  36.990  29.777  1.00  0.00     0.041 A 
ATOM     94  F   UNL A   1      44.548  35.454  28.020  1.00  0.00    -0.206 F 
ATOM     95  C   UNL A   1      44.914  37.259  31.134  1.00  0.00     0.022 A 
BRANCH  92  96
ATOM     96  S   UNL A   1      45.153  36.526  33.813  1.00  0.00     0.124 S 
ATOM     97  O   UNL A   1      44.264  37.671  33.975  1.00  0.00    -0.237 OA
ATOM     98  O   UNL A   1      44.695  35.274  34.406  1.00  0.00    -0.237 OA
ATOM     99  O   UNL A   1      46.575  36.813  33.999  1.00  0.00    -0.744 OA
ENDBRANCH  92  96
ENDBRANCH  66  89
ENDBRANCH  40  41
ENDBRANCH  33  35
ENDBRANCH  32  33
ENDBRANCH  31  32
ENDBRANCH  30  31
ENDBRANCH  29  30
ENDBRANCH  28  29
ENDBRANCH  27  28
ENDBRANCH   1  27
TORSDOF 27
ENDMDL
