MODEL 1
REMARK VINA RESULT:      -8.9      0.000      0.000
REMARK SMILES O=C1NC(=S)S/C1=C\c1ccc(OCc2cn(-c3ccc(C(=O)OCCOCCOCCOCCOC(=O)c4ccc(-c5c6nc(c(-c7cc(S(=O)(=O)[O-])ccc7F)c7ccc([nH]7)c(-c7cc(S(=O)(=O)[O-])ccc7F)c7nc(c(-c8cc(S(=O)(=O)[O-])ccc8F)c8ccc5[nH]8)C=C7)C=C6)cc4)cc3)nn2)cc1
REMARK SMILES IDX 29 1 28 2 27 3 26 4 25 5 24 6 22 7 23 8 21 9 18 10 19 11
REMARK SMILES IDX 103 12 20 13 102 14 17 15 15 16 16 17 105 18 104 19 14 20
REMARK SMILES IDX 13 21 12 22 9 23 10 24 107 25 11 26 106 27 8 28 1 29 2 30
REMARK SMILES IDX 3 31 7 32 4 33 6 35 5 36 30 37 31 38 32 39 33 40 34 41 35 42
REMARK SMILES IDX 36 43 37 44 38 45 39 46 40 47 101 48 41 49 100 50 42 51
REMARK SMILES IDX 43 52 44 53 94 54 45 55 99 56 93 57 95 58 46 59 98 60 92 61
REMARK SMILES IDX 91 62 47 64 79 65 59 66 78 67 60 68 63 69 77 70 96 71 61 72
REMARK SMILES IDX 62 73 76 75 97 76 64 77 48 78 49 79 57 80 50 81 56 82 58 83
REMARK SMILES IDX 55 84 51 85 52 86 53 87 54 88 80 89 81 90 89 91 82 92 88 93
REMARK SMILES IDX 90 94 87 95 83 96 84 97 85 98 86 99 65 100 66 101 74 102
REMARK SMILES IDX 67 103 73 104 75 105 72 106 68 107 69 108 70 109 71 110
REMARK H PARENT 3 34 95 63 63 74
REMARK Flexibility Score: inf
ROOT
ATOM      1  C   UNL A   1      40.769  28.621  27.754  1.00  0.00     0.188 C 
ENDROOT
BRANCH   1   2
ATOM      2  C   UNL A   1      40.323  29.136  29.141  1.00  0.00     0.188 C 
BRANCH   2   3
ATOM      3  O   UNL A   1      39.045  29.718  29.356  1.00  0.00    -0.376 OA
BRANCH   3   4
ATOM      4  C   UNL A   1      38.869  30.999  29.936  1.00  0.00     0.202 C 
BRANCH   4   5
ATOM      5  C   UNL A   1      37.572  31.820  29.833  1.00  0.00     0.261 C 
BRANCH   5   6
ATOM      6  O   UNL A   1      36.429  31.169  29.286  1.00  0.00    -0.460 OA
BRANCH   6   7
ATOM      7  C   UNL A   1      35.468  31.990  28.822  1.00  0.00     0.338 C 
ATOM      8  O   UNL A   1      35.414  33.204  28.916  1.00  0.00    -0.246 OA
BRANCH   7   9
ATOM      9  C   UNL A   1      34.539  31.188  28.000  1.00  0.00     0.060 A 
ATOM     10  C   UNL A   1      32.916  29.658  26.347  1.00  0.00     0.066 A 
ATOM     11  C   UNL A   1      34.118  29.120  26.828  1.00  0.00     0.029 A 
ATOM     12  C   UNL A   1      32.474  30.916  26.780  1.00  0.00     0.029 A 
ATOM     13  C   UNL A   1      34.948  29.906  27.618  1.00  0.00     0.018 A 
ATOM     14  C   UNL A   1      33.279  31.672  27.635  1.00  0.00     0.018 A 
BRANCH  10  15
ATOM     15  N   UNL A   1      32.241  28.967  25.318  1.00  0.00    -0.220 N 
ATOM     16  C   UNL A   1      31.008  27.509  24.265  1.00  0.00     0.120 A 
ATOM     17  C   UNL A   1      31.964  27.620  25.254  1.00  0.00     0.144 A 
ATOM     18  N   UNL A   1      30.795  28.747  23.720  1.00  0.00    -0.131 NA
ATOM     19  N   UNL A   1      31.550  29.622  24.358  1.00  0.00    -0.062 NA
BRANCH  16  20
ATOM     20  C   UNL A   1      30.167  26.347  23.857  1.00  0.00     0.289 C 
BRANCH  20  21
ATOM     21  O   UNL A   1      29.969  25.347  24.866  1.00  0.00    -0.487 OA
BRANCH  21  22
ATOM     22  C   UNL A   1      30.581  24.136  24.696  1.00  0.00     0.119 A 
ATOM     23  C   UNL A   1      32.049  21.744  24.672  1.00  0.00    -0.024 A 
ATOM     24  C   UNL A   1      31.429  22.173  25.847  1.00  0.00     0.012 A 
ATOM     25  C   UNL A   1      31.855  22.468  23.493  1.00  0.00     0.012 A 
ATOM     26  C   UNL A   1      30.700  23.366  25.855  1.00  0.00     0.047 A 
ATOM     27  C   UNL A   1      31.107  23.645  23.502  1.00  0.00     0.047 A 
BRANCH  23  28
ATOM     28  C   UNL A   1      32.918  20.565  24.670  1.00  0.00     0.029 C 
ATOM     29  O   UNL A   1      34.682  18.257  24.512  1.00  0.00    -0.268 OA
ATOM     30  C   UNL A   1      35.086  19.377  24.780  1.00  0.00     0.263 C 
ATOM     31  N   UNL A   1      36.395  19.704  25.000  1.00  0.00    -0.307 N 
ATOM     32  C   UNL A   1      34.244  20.600  24.866  1.00  0.00     0.080 C 
ATOM     33  C   UNL A   1      36.700  21.012  25.233  1.00  0.00     0.145 C 
ATOM     34  H   UNL A   1      37.097  19.015  24.992  1.00  0.00     0.171 HD
ATOM     35  S   UNL A   1      35.239  21.970  25.214  1.00  0.00    -0.055 SA
ATOM     36  S   UNL A   1      38.241  21.566  25.464  1.00  0.00    -0.052 S 
ENDBRANCH  23  28
ENDBRANCH  21  22
ENDBRANCH  20  21
ENDBRANCH  16  20
ENDBRANCH  10  15
ENDBRANCH   7   9
ENDBRANCH   6   7
ENDBRANCH   5   6
ENDBRANCH   4   5
ENDBRANCH   3   4
ENDBRANCH   2   3
ENDBRANCH   1   2
BRANCH   1  37
ATOM     37  O   UNL A   1      42.073  28.065  27.744  1.00  0.00    -0.377 OA
BRANCH  37  38
ATOM     38  C   UNL A   1      42.158  26.689  28.109  1.00  0.00     0.188 C 
BRANCH  38  39
ATOM     39  C   UNL A   1      41.062  25.715  27.599  1.00  0.00     0.188 C 
BRANCH  39  40
ATOM     40  O   UNL A   1      40.998  24.476  28.299  1.00  0.00    -0.376 OA
BRANCH  40  41
ATOM     41  C   UNL A   1      42.016  23.497  28.179  1.00  0.00     0.202 C 
BRANCH  41  42
ATOM     42  C   UNL A   1      42.018  22.683  26.890  1.00  0.00     0.261 C 
BRANCH  42  43
ATOM     43  O   UNL A   1      43.320  22.374  26.439  1.00  0.00    -0.460 OA
BRANCH  43  44
ATOM     44  C   UNL A   1      43.727  23.070  25.364  1.00  0.00     0.338 C 
ATOM     45  O   UNL A   1      43.273  23.009  24.227  1.00  0.00    -0.246 OA
BRANCH  44  46
ATOM     46  C   UNL A   1      44.895  23.854  25.753  1.00  0.00     0.060 A 
ATOM     47  C   UNL A   1      45.879  23.143  26.435  1.00  0.00     0.016 A 
ATOM     48  C   UNL A   1      44.746  25.247  25.850  1.00  0.00     0.016 A 
ATOM     49  C   UNL A   1      46.479  23.778  27.488  1.00  0.00     0.010 A 
ATOM     50  C   UNL A   1      45.318  25.867  26.921  1.00  0.00     0.010 A 
ATOM     51  C   UNL A   1      46.082  25.088  27.781  1.00  0.00    -0.014 A 
BRANCH  51  52
ATOM     52  C   UNL A   1      46.582  25.678  28.995  1.00  0.00     0.031 A 
ATOM     53  C   UNL A   1      45.518  25.775  30.007  1.00  0.00     0.074 A 
ATOM     54  C   UNL A   1      47.877  25.996  29.157  1.00  0.00     0.049 A 
ATOM     55  N   UNL A   1      44.908  26.841  30.398  1.00  0.00    -0.248 NA
ATOM     56  C   UNL A   1      44.873  24.519  30.430  1.00  0.00     0.031 C 
ATOM     57  C   UNL A   1      49.011  25.678  28.285  1.00  0.00     0.029 A 
ATOM     58  N   UNL A   1      48.470  26.590  30.221  1.00  0.00    -0.354 N 
ATOM     59  C   UNL A   1      43.990  26.395  31.337  1.00  0.00     0.074 A 
ATOM     60  C   UNL A   1      43.822  24.991  31.098  1.00  0.00     0.031 C 
ATOM     61  C   UNL A   1      50.162  25.863  28.975  1.00  0.00     0.029 A 
ATOM     62  C   UNL A   1      49.847  26.419  30.282  1.00  0.00     0.049 A 
ATOM     63  H   UNL A   1      47.966  27.102  30.895  1.00  0.00     0.167 HD
ATOM     64  C   UNL A   1      43.714  27.147  32.434  1.00  0.00     0.034 A 
ATOM     65  C   UNL A   1      50.633  26.625  31.375  1.00  0.00     0.034 A 
ATOM     66  C   UNL A   1      44.086  28.530  32.216  1.00  0.00     0.049 A 
ATOM     67  C   UNL A   1      49.866  27.516  32.291  1.00  0.00     0.074 A 
ATOM     68  C   UNL A   1      43.744  29.475  31.265  1.00  0.00     0.029 A 
ATOM     69  N   UNL A   1      45.249  28.993  32.796  1.00  0.00    -0.354 N 
ATOM     70  N   UNL A   1      49.558  28.751  31.995  1.00  0.00    -0.248 NA
ATOM     71  C   UNL A   1      49.001  26.891  33.285  1.00  0.00     0.031 C 
ATOM     72  C   UNL A   1      44.954  30.176  30.988  1.00  0.00     0.029 A 
ATOM     73  C   UNL A   1      45.948  29.690  31.838  1.00  0.00     0.049 A 
ATOM     74  H   UNL A   1      45.528  28.851  33.729  1.00  0.00     0.167 HD
ATOM     75  C   UNL A   1      48.244  28.910  32.416  1.00  0.00     0.074 A 
ATOM     76  C   UNL A   1      47.986  27.763  33.285  1.00  0.00     0.031 C 
ATOM     77  C   UNL A   1      47.398  29.784  31.791  1.00  0.00     0.034 A 
BRANCH  64  78
ATOM     78  C   UNL A   1      43.514  26.555  33.811  1.00  0.00     0.023 A 
ATOM     79  C   UNL A   1      44.582  25.808  34.332  1.00  0.00     0.031 A 
ATOM     80  C   UNL A   1      42.283  26.428  34.504  1.00  0.00     0.131 A 
ATOM     81  C   UNL A   1      44.382  24.906  35.388  1.00  0.00     0.055 A 
ATOM     82  C   UNL A   1      42.108  25.581  35.599  1.00  0.00     0.041 A 
ATOM     83  F   UNL A   1      41.155  27.036  34.126  1.00  0.00    -0.206 F 
ATOM     84  C   UNL A   1      43.152  24.784  36.025  1.00  0.00     0.022 A 
BRANCH  81  85
ATOM     85  S   UNL A   1      45.721  23.759  35.784  1.00  0.00     0.124 S 
ATOM     86  O   UNL A   1      46.407  23.660  34.500  1.00  0.00    -0.237 OA
ATOM     87  O   UNL A   1      46.425  24.480  36.839  1.00  0.00    -0.237 OA
ATOM     88  O   UNL A   1      45.015  22.554  36.212  1.00  0.00    -0.744 OA
ENDBRANCH  81  85
ENDBRANCH  64  78
BRANCH  65  89
ATOM     89  C   UNL A   1      51.794  25.791  31.807  1.00  0.00     0.023 A 
ATOM     90  C   UNL A   1      51.650  24.502  32.365  1.00  0.00     0.031 A 
ATOM     91  C   UNL A   1      53.109  26.180  31.457  1.00  0.00     0.131 A 
ATOM     92  C   UNL A   1      52.785  23.674  32.554  1.00  0.00     0.055 A 
ATOM     93  C   UNL A   1      54.224  25.364  31.654  1.00  0.00     0.041 A 
ATOM     94  F   UNL A   1      53.350  27.340  30.828  1.00  0.00    -0.206 F 
ATOM     95  C   UNL A   1      54.066  24.101  32.197  1.00  0.00     0.022 A 
BRANCH  92  96
ATOM     96  S   UNL A   1      52.604  21.977  33.197  1.00  0.00     0.124 S 
ATOM     97  O   UNL A   1      51.654  22.158  34.289  1.00  0.00    -0.237 OA
ATOM     98  O   UNL A   1      52.122  21.249  32.030  1.00  0.00    -0.237 OA
ATOM     99  O   UNL A   1      53.961  21.624  33.619  1.00  0.00    -0.744 OA
ENDBRANCH  92  96
ENDBRANCH  65  89
BRANCH  77 100
ATOM    100  C   UNL A   1      47.988  30.797  30.825  1.00  0.00     0.023 A 
ATOM    101  C   UNL A   1      48.083  30.629  29.423  1.00  0.00     0.031 A 
ATOM    102  C   UNL A   1      48.356  32.047  31.355  1.00  0.00     0.131 A 
ATOM    103  C   UNL A   1      48.543  31.689  28.615  1.00  0.00     0.055 A 
ATOM    104  C   UNL A   1      48.789  33.099  30.549  1.00  0.00     0.041 A 
ATOM    105  F   UNL A   1      48.263  32.281  32.674  1.00  0.00    -0.206 F 
ATOM    106  C   UNL A   1      48.890  32.923  29.176  1.00  0.00     0.022 A 
BRANCH 103 107
ATOM    107  S   UNL A   1      48.720  31.484  26.812  1.00  0.00     0.124 S 
ATOM    108  O   UNL A   1      49.266  30.139  26.673  1.00  0.00    -0.237 OA
ATOM    109  O   UNL A   1      47.351  31.671  26.338  1.00  0.00    -0.237 OA
ATOM    110  O   UNL A   1      49.643  32.557  26.435  1.00  0.00    -0.744 OA
ENDBRANCH 103 107
ENDBRANCH  77 100
ENDBRANCH  51  52
ENDBRANCH  44  46
ENDBRANCH  43  44
ENDBRANCH  42  43
ENDBRANCH  41  42
ENDBRANCH  40  41
ENDBRANCH  39  40
ENDBRANCH  38  39
ENDBRANCH  37  38
ENDBRANCH   1  37
TORSDOF 28
ENDMDL
MODEL 2
REMARK VINA RESULT:      -8.1      3.945      9.284
REMARK SMILES O=C1NC(=S)S/C1=C\c1ccc(OCc2cn(-c3ccc(C(=O)OCCOCCOCCOCCOC(=O)c4ccc(-c5c6nc(c(-c7cc(S(=O)(=O)[O-])ccc7F)c7ccc([nH]7)c(-c7cc(S(=O)(=O)[O-])ccc7F)c7nc(c(-c8cc(S(=O)(=O)[O-])ccc8F)c8ccc5[nH]8)C=C7)C=C6)cc4)cc3)nn2)cc1
REMARK SMILES IDX 29 1 28 2 27 3 26 4 25 5 24 6 22 7 23 8 21 9 18 10 19 11
REMARK SMILES IDX 103 12 20 13 102 14 17 15 15 16 16 17 105 18 104 19 14 20
REMARK SMILES IDX 13 21 12 22 9 23 10 24 107 25 11 26 106 27 8 28 1 29 2 30
REMARK SMILES IDX 3 31 7 32 4 33 6 35 5 36 30 37 31 38 32 39 33 40 34 41 35 42
REMARK SMILES IDX 36 43 37 44 38 45 39 46 40 47 101 48 41 49 100 50 42 51
REMARK SMILES IDX 43 52 44 53 94 54 45 55 99 56 93 57 95 58 46 59 98 60 92 61
REMARK SMILES IDX 91 62 47 64 79 65 59 66 78 67 60 68 63 69 77 70 96 71 61 72
REMARK SMILES IDX 62 73 76 75 97 76 64 77 48 78 49 79 57 80 50 81 56 82 58 83
REMARK SMILES IDX 55 84 51 85 52 86 53 87 54 88 80 89 81 90 89 91 82 92 88 93
REMARK SMILES IDX 90 94 87 95 83 96 84 97 85 98 86 99 65 100 66 101 74 102
REMARK SMILES IDX 67 103 73 104 75 105 72 106 68 107 69 108 70 109 71 110
REMARK H PARENT 3 34 95 63 63 74
REMARK Flexibility Score: inf
ROOT
ATOM      1  C   UNL A   1      44.568  31.800  34.215  1.00  0.00     0.188 C 
ENDROOT
BRANCH   1   2
ATOM      2  C   UNL A   1      43.564  32.244  35.303  1.00  0.00     0.188 C 
BRANCH   2   3
ATOM      3  O   UNL A   1      43.632  31.759  36.637  1.00  0.00    -0.376 OA
BRANCH   3   4
ATOM      4  C   UNL A   1      44.134  30.476  36.967  1.00  0.00     0.202 C 
BRANCH   4   5
ATOM      5  C   UNL A   1      43.523  29.157  36.467  1.00  0.00     0.261 C 
BRANCH   5   6
ATOM      6  O   UNL A   1      42.119  28.983  36.637  1.00  0.00    -0.460 OA
BRANCH   6   7
ATOM      7  C   UNL A   1      41.487  28.381  35.610  1.00  0.00     0.338 C 
ATOM      8  O   UNL A   1      41.300  27.189  35.446  1.00  0.00    -0.246 OA
BRANCH   7   9
ATOM      9  C   UNL A   1      40.879  29.432  34.769  1.00  0.00     0.060 A 
ATOM     10  C   UNL A   1      39.597  31.386  33.271  1.00  0.00     0.066 A 
ATOM     11  C   UNL A   1      39.652  31.508  34.667  1.00  0.00     0.029 A 
ATOM     12  C   UNL A   1      40.276  30.348  32.619  1.00  0.00     0.029 A 
ATOM     13  C   UNL A   1      40.255  30.505  35.415  1.00  0.00     0.018 A 
ATOM     14  C   UNL A   1      40.945  29.382  33.373  1.00  0.00     0.018 A 
BRANCH  10  15
ATOM     15  N   UNL A   1      38.732  32.246  32.560  1.00  0.00    -0.220 N 
ATOM     16  C   UNL A   1      37.524  33.112  30.965  1.00  0.00     0.120 A 
ATOM     17  C   UNL A   1      38.746  32.522  31.211  1.00  0.00     0.144 A 
ATOM     18  N   UNL A   1      36.854  33.245  32.151  1.00  0.00    -0.131 NA
ATOM     19  N   UNL A   1      37.596  32.725  33.112  1.00  0.00    -0.062 NA
BRANCH  16  20
ATOM     20  C   UNL A   1      36.858  33.461  29.676  1.00  0.00     0.289 C 
BRANCH  20  21
ATOM     21  O   UNL A   1      37.246  32.663  28.549  1.00  0.00    -0.487 OA
BRANCH  21  22
ATOM     22  C   UNL A   1      36.394  31.674  28.141  1.00  0.00     0.119 A 
ATOM     23  C   UNL A   1      34.407  29.769  27.594  1.00  0.00    -0.024 A 
ATOM     24  C   UNL A   1      34.067  31.117  27.727  1.00  0.00     0.012 A 
ATOM     25  C   UNL A   1      35.752  29.395  27.644  1.00  0.00     0.012 A 
ATOM     26  C   UNL A   1      35.061  32.063  28.001  1.00  0.00     0.047 A 
ATOM     27  C   UNL A   1      36.741  30.346  27.895  1.00  0.00     0.047 A 
BRANCH  23  28
ATOM     28  C   UNL A   1      33.370  28.748  27.430  1.00  0.00     0.029 C 
ATOM     29  O   UNL A   1      31.199  26.834  27.138  1.00  0.00    -0.268 OA
ATOM     30  C   UNL A   1      31.571  27.552  26.223  1.00  0.00     0.263 C 
ATOM     31  N   UNL A   1      31.011  27.584  24.977  1.00  0.00    -0.307 N 
ATOM     32  C   UNL A   1      32.664  28.557  26.307  1.00  0.00     0.080 C 
ATOM     33  C   UNL A   1      31.499  28.482  24.076  1.00  0.00     0.145 C 
ATOM     34  H   UNL A   1      30.276  26.975  24.736  1.00  0.00     0.171 HD
ATOM     35  S   UNL A   1      32.812  29.384  24.796  1.00  0.00    -0.055 SA
ATOM     36  S   UNL A   1      30.891  28.673  22.550  1.00  0.00    -0.052 S 
ENDBRANCH  23  28
ENDBRANCH  21  22
ENDBRANCH  20  21
ENDBRANCH  16  20
ENDBRANCH  10  15
ENDBRANCH   7   9
ENDBRANCH   6   7
ENDBRANCH   5   6
ENDBRANCH   4   5
ENDBRANCH   3   4
ENDBRANCH   2   3
ENDBRANCH   1   2
BRANCH   1  37
ATOM     37  O   UNL A   1      44.142  32.091  32.894  1.00  0.00    -0.377 OA
BRANCH  37  38
ATOM     38  C   UNL A   1      43.273  33.215  32.762  1.00  0.00     0.188 C 
BRANCH  38  39
ATOM     39  C   UNL A   1      43.898  34.611  32.497  1.00  0.00     0.188 C 
BRANCH  39  40
ATOM     40  O   UNL A   1      43.364  35.295  31.368  1.00  0.00    -0.376 OA
BRANCH  40  41
ATOM     41  C   UNL A   1      42.346  34.726  30.562  1.00  0.00     0.202 C 
BRANCH  41  42
ATOM     42  C   UNL A   1      42.442  35.000  29.065  1.00  0.00     0.261 C 
BRANCH  42  43
ATOM     43  O   UNL A   1      43.183  34.016  28.374  1.00  0.00    -0.460 OA
BRANCH  43  44
ATOM     44  C   UNL A   1      43.730  34.428  27.218  1.00  0.00     0.338 C 
ATOM     45  O   UNL A   1      43.251  35.216  26.411  1.00  0.00    -0.246 OA
BRANCH  44  46
ATOM     46  C   UNL A   1      44.971  33.685  27.021  1.00  0.00     0.060 A 
ATOM     47  C   UNL A   1      44.914  32.691  26.048  1.00  0.00     0.016 A 
ATOM     48  C   UNL A   1      45.905  33.681  28.070  1.00  0.00     0.016 A 
ATOM     49  C   UNL A   1      45.551  31.514  26.333  1.00  0.00     0.010 A 
ATOM     50  C   UNL A   1      46.509  32.496  28.369  1.00  0.00     0.010 A 
ATOM     51  C   UNL A   1      46.226  31.407  27.553  1.00  0.00    -0.014 A 
BRANCH  51  52
ATOM     52  C   UNL A   1      46.733  30.112  27.922  1.00  0.00     0.031 A 
ATOM     53  C   UNL A   1      48.156  29.987  27.567  1.00  0.00     0.074 A 
ATOM     54  C   UNL A   1      45.987  29.211  28.582  1.00  0.00     0.049 A 
ATOM     55  N   UNL A   1      48.662  29.294  26.606  1.00  0.00    -0.248 NA
ATOM     56  C   UNL A   1      49.091  30.951  28.176  1.00  0.00     0.031 C 
ATOM     57  C   UNL A   1      44.663  29.387  29.184  1.00  0.00     0.029 A 
ATOM     58  N   UNL A   1      46.322  27.951  28.950  1.00  0.00    -0.354 N 
ATOM     59  C   UNL A   1      50.027  29.529  26.684  1.00  0.00     0.074 A 
ATOM     60  C   UNL A   1      50.182  30.735  27.444  1.00  0.00     0.031 C 
ATOM     61  C   UNL A   1      44.429  28.366  30.041  1.00  0.00     0.029 A 
ATOM     62  C   UNL A   1      45.527  27.415  29.956  1.00  0.00     0.049 A 
ATOM     63  H   UNL A   1      47.066  27.454  28.539  1.00  0.00     0.167 HD
ATOM     64  C   UNL A   1      50.909  28.533  26.412  1.00  0.00     0.034 A 
ATOM     65  C   UNL A   1      45.825  26.328  30.721  1.00  0.00     0.034 A 
ATOM     66  C   UNL A   1      50.281  27.492  25.623  1.00  0.00     0.049 A 
ATOM     67  C   UNL A   1      46.858  25.553  29.977  1.00  0.00     0.074 A 
ATOM     68  C   UNL A   1      49.620  27.479  24.407  1.00  0.00     0.029 A 
ATOM     69  N   UNL A   1      49.911  26.325  26.257  1.00  0.00    -0.354 N 
ATOM     70  N   UNL A   1      46.625  24.968  28.832  1.00  0.00    -0.248 NA
ATOM     71  C   UNL A   1      48.260  25.862  30.231  1.00  0.00     0.031 C 
ATOM     72  C   UNL A   1      48.532  26.577  24.587  1.00  0.00     0.029 A 
ATOM     73  C   UNL A   1      48.629  26.020  25.863  1.00  0.00     0.049 A 
ATOM     74  H   UNL A   1      50.466  25.802  26.880  1.00  0.00     0.167 HD
ATOM     75  C   UNL A   1      47.747  25.227  28.055  1.00  0.00     0.074 A 
ATOM     76  C   UNL A   1      48.757  25.701  29.000  1.00  0.00     0.031 C 
ATOM     77  C   UNL A   1      47.663  25.320  26.693  1.00  0.00     0.034 A 
BRANCH  64  78
ATOM     78  C   UNL A   1      52.177  28.313  27.206  1.00  0.00     0.023 A 
ATOM     79  C   UNL A   1      52.018  27.832  28.515  1.00  0.00     0.031 A 
ATOM     80  C   UNL A   1      53.469  28.801  26.885  1.00  0.00     0.131 A 
ATOM     81  C   UNL A   1      53.050  27.960  29.459  1.00  0.00     0.055 A 
ATOM     82  C   UNL A   1      54.513  28.861  27.810  1.00  0.00     0.041 A 
ATOM     83  F   UNL A   1      53.787  29.330  25.700  1.00  0.00    -0.206 F 
ATOM     84  C   UNL A   1      54.297  28.473  29.117  1.00  0.00     0.022 A 
BRANCH  81  85
ATOM     85  S   UNL A   1      52.659  27.614  31.188  1.00  0.00     0.124 S 
ATOM     86  O   UNL A   1      53.351  26.346  31.393  1.00  0.00    -0.237 OA
ATOM     87  O   UNL A   1      53.230  28.778  31.859  1.00  0.00    -0.237 OA
ATOM     88  O   UNL A   1      51.200  27.541  31.195  1.00  0.00    -0.744 OA
ENDBRANCH  81  85
ENDBRANCH  64  78
BRANCH  65  89
ATOM     89  C   UNL A   1      45.558  26.166  32.181  1.00  0.00     0.023 A 
ATOM     90  C   UNL A   1      44.791  25.106  32.710  1.00  0.00     0.031 A 
ATOM     91  C   UNL A   1      46.267  26.956  33.118  1.00  0.00     0.131 A 
ATOM     92  C   UNL A   1      44.752  24.880  34.109  1.00  0.00     0.055 A 
ATOM     93  C   UNL A   1      46.218  26.734  34.495  1.00  0.00     0.041 A 
ATOM     94  F   UNL A   1      47.106  27.925  32.721  1.00  0.00    -0.206 F 
ATOM     95  C   UNL A   1      45.465  25.688  34.998  1.00  0.00     0.022 A 
BRANCH  92  96
ATOM     96  S   UNL A   1      43.831  23.464  34.799  1.00  0.00     0.124 S 
ATOM     97  O   UNL A   1      43.297  22.827  33.601  1.00  0.00    -0.237 OA
ATOM     98  O   UNL A   1      44.868  22.735  35.517  1.00  0.00    -0.237 OA
ATOM     99  O   UNL A   1      42.825  24.096  35.655  1.00  0.00    -0.744 OA
ENDBRANCH  92  96
ENDBRANCH  65  89
BRANCH  77 100
ATOM    100  C   UNL A   1      46.392  24.843  26.011  1.00  0.00     0.023 A 
ATOM    101  C   UNL A   1      46.096  23.498  25.684  1.00  0.00     0.031 A 
ATOM    102  C   UNL A   1      45.382  25.799  25.799  1.00  0.00     0.131 A 
ATOM    103  C   UNL A   1      44.832  23.162  25.158  1.00  0.00     0.055 A 
ATOM    104  C   UNL A   1      44.127  25.458  25.299  1.00  0.00     0.041 A 
ATOM    105  F   UNL A   1      45.589  27.089  26.114  1.00  0.00    -0.206 F 
ATOM    106  C   UNL A   1      43.848  24.139  24.971  1.00  0.00     0.022 A 
BRANCH 103 107
ATOM    107  S   UNL A   1      44.441  21.445  24.684  1.00  0.00     0.124 S 
ATOM    108  O   UNL A   1      44.505  21.469  23.228  1.00  0.00    -0.237 OA
ATOM    109  O   UNL A   1      45.490  20.685  25.359  1.00  0.00    -0.237 OA
ATOM    110  O   UNL A   1      43.098  21.238  25.231  1.00  0.00    -0.744 OA
ENDBRANCH 103 107
ENDBRANCH  77 100
ENDBRANCH  51  52
ENDBRANCH  44  46
ENDBRANCH  43  44
ENDBRANCH  42  43
ENDBRANCH  41  42
ENDBRANCH  40  41
ENDBRANCH  39  40
ENDBRANCH  38  39
ENDBRANCH  37  38
ENDBRANCH   1  37
TORSDOF 28
ENDMDL
MODEL 3
REMARK VINA RESULT:      -8.0      5.117      7.540
REMARK SMILES O=C1NC(=S)S/C1=C\c1ccc(OCc2cn(-c3ccc(C(=O)OCCOCCOCCOCCOC(=O)c4ccc(-c5c6nc(c(-c7cc(S(=O)(=O)[O-])ccc7F)c7ccc([nH]7)c(-c7cc(S(=O)(=O)[O-])ccc7F)c7nc(c(-c8cc(S(=O)(=O)[O-])ccc8F)c8ccc5[nH]8)C=C7)C=C6)cc4)cc3)nn2)cc1
REMARK SMILES IDX 29 1 28 2 27 3 26 4 25 5 24 6 22 7 23 8 21 9 18 10 19 11
REMARK SMILES IDX 103 12 20 13 102 14 17 15 15 16 16 17 105 18 104 19 14 20
REMARK SMILES IDX 13 21 12 22 9 23 10 24 107 25 11 26 106 27 8 28 1 29 2 30
REMARK SMILES IDX 3 31 7 32 4 33 6 35 5 36 30 37 31 38 32 39 33 40 34 41 35 42
REMARK SMILES IDX 36 43 37 44 38 45 39 46 40 47 101 48 41 49 100 50 42 51
REMARK SMILES IDX 43 52 44 53 94 54 45 55 99 56 93 57 95 58 46 59 98 60 92 61
REMARK SMILES IDX 91 62 47 64 79 65 59 66 78 67 60 68 63 69 77 70 96 71 61 72
REMARK SMILES IDX 62 73 76 75 97 76 64 77 48 78 49 79 57 80 50 81 56 82 58 83
REMARK SMILES IDX 55 84 51 85 52 86 53 87 54 88 80 89 81 90 89 91 82 92 88 93
REMARK SMILES IDX 90 94 87 95 83 96 84 97 85 98 86 99 65 100 66 101 74 102
REMARK SMILES IDX 67 103 73 104 75 105 72 106 68 107 69 108 70 109 71 110
REMARK H PARENT 3 34 95 63 63 74
REMARK Flexibility Score: inf
ROOT
ATOM      1  C   UNL A   1      40.045  28.191  27.874  1.00  0.00     0.188 C 
ENDROOT
BRANCH   1   2
ATOM      2  C   UNL A   1      39.652  29.209  28.968  1.00  0.00     0.188 C 
BRANCH   2   3
ATOM      3  O   UNL A   1      38.297  29.494  29.283  1.00  0.00    -0.376 OA
BRANCH   3   4
ATOM      4  C   UNL A   1      37.861  30.762  29.742  1.00  0.00     0.202 C 
BRANCH   4   5
ATOM      5  C   UNL A   1      36.486  31.370  29.417  1.00  0.00     0.261 C 
BRANCH   5   6
ATOM      6  O   UNL A   1      35.645  30.642  28.527  1.00  0.00    -0.460 OA
BRANCH   6   7
ATOM      7  C   UNL A   1      34.636  31.350  27.983  1.00  0.00     0.338 C 
ATOM      8  O   UNL A   1      34.501  32.560  27.961  1.00  0.00    -0.246 OA
BRANCH   7   9
ATOM      9  C   UNL A   1      33.771  30.413  27.238  1.00  0.00     0.060 A 
ATOM     10  C   UNL A   1      32.266  28.636  25.727  1.00  0.00     0.066 A 
ATOM     11  C   UNL A   1      33.524  28.245  26.205  1.00  0.00     0.029 A 
ATOM     12  C   UNL A   1      31.715  29.871  26.095  1.00  0.00     0.029 A 
ATOM     13  C   UNL A   1      34.293  29.154  26.923  1.00  0.00     0.018 A 
ATOM     14  C   UNL A   1      32.462  30.752  26.880  1.00  0.00     0.018 A 
BRANCH  10  15
ATOM     15  N   UNL A   1      31.637  27.821  24.761  1.00  0.00    -0.220 N 
ATOM     16  C   UNL A   1      30.837  26.075  23.728  1.00  0.00     0.120 A 
ATOM     17  C   UNL A   1      31.928  26.510  24.451  1.00  0.00     0.144 A 
ATOM     18  N   UNL A   1      29.976  27.126  23.557  1.00  0.00    -0.131 NA
ATOM     19  N   UNL A   1      30.472  28.179  24.179  1.00  0.00    -0.062 NA
BRANCH  16  20
ATOM     20  C   UNL A   1      30.458  24.705  23.276  1.00  0.00     0.289 C 
BRANCH  20  21
ATOM     21  O   UNL A   1      30.641  23.665  24.247  1.00  0.00    -0.487 OA
BRANCH  21  22
ATOM     22  C   UNL A   1      31.819  22.972  24.230  1.00  0.00     0.119 A 
ATOM     23  C   UNL A   1      34.293  21.688  24.563  1.00  0.00    -0.024 A 
ATOM     24  C   UNL A   1      33.304  21.568  25.541  1.00  0.00     0.012 A 
ATOM     25  C   UNL A   1      34.005  22.376  23.381  1.00  0.00     0.012 A 
ATOM     26  C   UNL A   1      32.073  22.210  25.372  1.00  0.00     0.047 A 
ATOM     27  C   UNL A   1      32.767  22.995  23.207  1.00  0.00     0.047 A 
BRANCH  23  28
ATOM     28  C   UNL A   1      35.629  21.129  24.775  1.00  0.00     0.029 C 
ATOM     29  O   UNL A   1      38.329  20.081  25.053  1.00  0.00    -0.268 OA
ATOM     30  C   UNL A   1      38.023  21.212  25.396  1.00  0.00     0.263 C 
ATOM     31  N   UNL A   1      38.890  22.135  25.910  1.00  0.00    -0.307 N 
ATOM     32  C   UNL A   1      36.669  21.814  25.271  1.00  0.00     0.080 C 
ATOM     33  C   UNL A   1      38.412  23.379  26.193  1.00  0.00     0.145 C 
ATOM     34  H   UNL A   1      39.834  21.907  26.072  1.00  0.00     0.171 HD
ATOM     35  S   UNL A   1      36.705  23.451  25.827  1.00  0.00    -0.055 SA
ATOM     36  S   UNL A   1      39.351  24.613  26.770  1.00  0.00    -0.052 S 
ENDBRANCH  23  28
ENDBRANCH  21  22
ENDBRANCH  20  21
ENDBRANCH  16  20
ENDBRANCH  10  15
ENDBRANCH   7   9
ENDBRANCH   6   7
ENDBRANCH   5   6
ENDBRANCH   4   5
ENDBRANCH   3   4
ENDBRANCH   2   3
ENDBRANCH   1   2
BRANCH   1  37
ATOM     37  O   UNL A   1      41.234  27.474  28.163  1.00  0.00    -0.377 OA
BRANCH  37  38
ATOM     38  C   UNL A   1      42.259  27.559  27.176  1.00  0.00     0.188 C 
BRANCH  38  39
ATOM     39  C   UNL A   1      41.851  27.584  25.679  1.00  0.00     0.188 C 
BRANCH  39  40
ATOM     40  O   UNL A   1      42.083  26.365  24.981  1.00  0.00    -0.376 OA
BRANCH  40  41
ATOM     41  C   UNL A   1      42.764  25.277  25.583  1.00  0.00     0.202 C 
BRANCH  41  42
ATOM     42  C   UNL A   1      44.114  24.910  24.975  1.00  0.00     0.261 C 
BRANCH  42  43
ATOM     43  O   UNL A   1      45.202  25.271  25.800  1.00  0.00    -0.460 OA
BRANCH  43  44
ATOM     44  C   UNL A   1      45.885  26.355  25.393  1.00  0.00     0.338 C 
ATOM     45  O   UNL A   1      45.441  27.480  25.198  1.00  0.00    -0.246 OA
BRANCH  44  46
ATOM     46  C   UNL A   1      47.256  25.941  25.113  1.00  0.00     0.060 A 
ATOM     47  C   UNL A   1      47.929  25.365  26.187  1.00  0.00     0.016 A 
ATOM     48  C   UNL A   1      47.914  26.547  24.030  1.00  0.00     0.016 A 
ATOM     49  C   UNL A   1      49.241  25.717  26.352  1.00  0.00     0.010 A 
ATOM     50  C   UNL A   1      49.211  26.925  24.214  1.00  0.00     0.010 A 
ATOM     51  C   UNL A   1      49.810  26.596  25.424  1.00  0.00    -0.014 A 
BRANCH  51  52
ATOM     52  C   UNL A   1      51.127  27.100  25.707  1.00  0.00     0.031 A 
ATOM     53  C   UNL A   1      51.066  28.498  26.162  1.00  0.00     0.074 A 
ATOM     54  C   UNL A   1      52.223  26.326  25.635  1.00  0.00     0.049 A 
ATOM     55  N   UNL A   1      51.413  29.550  25.502  1.00  0.00    -0.248 NA
ATOM     56  C   UNL A   1      50.281  28.778  27.378  1.00  0.00     0.031 C 
ATOM     57  C   UNL A   1      52.304  24.875  25.445  1.00  0.00     0.029 A 
ATOM     58  N   UNL A   1      53.516  26.678  25.832  1.00  0.00    -0.354 N 
ATOM     59  C   UNL A   1      51.141  30.607  26.358  1.00  0.00     0.074 A 
ATOM     60  C   UNL A   1      50.211  30.108  27.328  1.00  0.00     0.031 C 
ATOM     61  C   UNL A   1      53.546  24.455  25.783  1.00  0.00     0.029 A 
ATOM     62  C   UNL A   1      54.369  25.614  26.096  1.00  0.00     0.049 A 
ATOM     63  H   UNL A   1      53.827  27.612  25.791  1.00  0.00     0.167 HD
ATOM     64  C   UNL A   1      51.962  31.688  26.391  1.00  0.00     0.034 A 
ATOM     65  C   UNL A   1      55.617  25.700  26.634  1.00  0.00     0.034 A 
ATOM     66  C   UNL A   1      52.751  31.772  25.179  1.00  0.00     0.049 A 
ATOM     67  C   UNL A   1      56.079  27.100  26.416  1.00  0.00     0.074 A 
ATOM     68  C   UNL A   1      52.435  31.834  23.833  1.00  0.00     0.029 A 
ATOM     69  N   UNL A   1      54.072  31.380  25.230  1.00  0.00    -0.354 N 
ATOM     70  N   UNL A   1      56.307  27.601  25.231  1.00  0.00    -0.248 NA
ATOM     71  C   UNL A   1      55.788  28.085  27.451  1.00  0.00     0.031 C 
ATOM     72  C   UNL A   1      53.405  31.014  23.187  1.00  0.00     0.029 A 
ATOM     73  C   UNL A   1      54.312  30.566  24.148  1.00  0.00     0.049 A 
ATOM     74  H   UNL A   1      54.727  31.638  25.918  1.00  0.00     0.167 HD
ATOM     75  C   UNL A   1      55.769  28.882  25.267  1.00  0.00     0.074 A 
ATOM     76  C   UNL A   1      55.547  29.156  26.687  1.00  0.00     0.031 C 
ATOM     77  C   UNL A   1      55.278  29.479  24.140  1.00  0.00     0.034 A 
BRANCH  64  78
ATOM     78  C   UNL A   1      52.343  32.396  27.672  1.00  0.00     0.023 A 
ATOM     79  C   UNL A   1      53.232  31.718  28.520  1.00  0.00     0.031 A 
ATOM     80  C   UNL A   1      51.692  33.520  28.241  1.00  0.00     0.131 A 
ATOM     81  C   UNL A   1      53.349  32.073  29.874  1.00  0.00     0.055 A 
ATOM     82  C   UNL A   1      51.866  33.911  29.569  1.00  0.00     0.041 A 
ATOM     83  F   UNL A   1      50.787  34.257  27.591  1.00  0.00    -0.206 F 
ATOM     84  C   UNL A   1      52.670  33.164  30.406  1.00  0.00     0.022 A 
BRANCH  81  85
ATOM     85  S   UNL A   1      54.264  30.959  30.963  1.00  0.00     0.124 S 
ATOM     86  O   UNL A   1      55.602  31.537  30.911  1.00  0.00    -0.237 OA
ATOM     87  O   UNL A   1      53.540  31.114  32.220  1.00  0.00    -0.237 OA
ATOM     88  O   UNL A   1      54.117  29.659  30.313  1.00  0.00    -0.744 OA
ENDBRANCH  81  85
ENDBRANCH  64  78
BRANCH  65  89
ATOM     89  C   UNL A   1      56.222  24.772  27.635  1.00  0.00     0.023 A 
ATOM     90  C   UNL A   1      56.082  24.948  29.030  1.00  0.00     0.031 A 
ATOM     91  C   UNL A   1      56.772  23.539  27.210  1.00  0.00     0.131 A 
ATOM     92  C   UNL A   1      56.489  23.925  29.923  1.00  0.00     0.055 A 
ATOM     93  C   UNL A   1      57.180  22.540  28.095  1.00  0.00     0.041 A 
ATOM     94  F   UNL A   1      56.857  23.225  25.909  1.00  0.00    -0.206 F 
ATOM     95  C   UNL A   1      57.032  22.725  29.458  1.00  0.00     0.022 A 
BRANCH  92  96
ATOM     96  S   UNL A   1      56.239  24.105  31.721  1.00  0.00     0.124 S 
ATOM     97  O   UNL A   1      55.536  25.380  31.811  1.00  0.00    -0.237 OA
ATOM     98  O   UNL A   1      55.469  22.913  32.052  1.00  0.00    -0.237 OA
ATOM     99  O   UNL A   1      57.602  24.119  32.256  1.00  0.00    -0.744 OA
ENDBRANCH  92  96
ENDBRANCH  65  89
BRANCH  77 100
ATOM    100  C   UNL A   1      55.595  28.854  22.792  1.00  0.00     0.023 A 
ATOM    101  C   UNL A   1      56.794  29.046  22.065  1.00  0.00     0.031 A 
ATOM    102  C   UNL A   1      54.674  27.919  22.288  1.00  0.00     0.131 A 
ATOM    103  C   UNL A   1      57.023  28.320  20.878  1.00  0.00     0.055 A 
ATOM    104  C   UNL A   1      54.915  27.187  21.126  1.00  0.00     0.041 A 
ATOM    105  F   UNL A   1      53.528  27.670  22.945  1.00  0.00    -0.206 F 
ATOM    106  C   UNL A   1      56.088  27.389  20.413  1.00  0.00     0.022 A 
BRANCH 103 107
ATOM    107  S   UNL A   1      58.538  28.582  19.898  1.00  0.00     0.124 S 
ATOM    108  O   UNL A   1      58.034  29.001  18.595  1.00  0.00    -0.237 OA
ATOM    109  O   UNL A   1      59.241  29.602  20.670  1.00  0.00    -0.237 OA
ATOM    110  O   UNL A   1      59.181  27.266  19.907  1.00  0.00    -0.744 OA
ENDBRANCH 103 107
ENDBRANCH  77 100
ENDBRANCH  51  52
ENDBRANCH  44  46
ENDBRANCH  43  44
ENDBRANCH  42  43
ENDBRANCH  41  42
ENDBRANCH  40  41
ENDBRANCH  39  40
ENDBRANCH  38  39
ENDBRANCH  37  38
ENDBRANCH   1  37
TORSDOF 28
ENDMDL
