MODEL 1
REMARK VINA RESULT:      -8.3      0.000      0.000
REMARK SMILES C[C@@H]([NH2+]C[C@H]1CCC[C@@H]1C(=O)OCCOCCOCCOCCOC(=O)c1ccc(-c2c3nc(c(-c4cc(S(=O)(=O)[O-])ccc4F)c4ccc([nH]4)c(-c4cc(S(=O)(=O)[O-])ccc4F)c4nc(c(-c5cc(S(=O)(=O)[O-])ccc5F)c5ccc2[nH]5)C=C4)C=C3)cc1)c1cc(F)ccc1O
REMARK SMILES IDX 17 1 16 2 15 3 14 4 13 5 12 6 10 7 11 8 9 9 5 10 6 11 7 12
REMARK SMILES IDX 8 13 4 14 3 15 2 18 1 19 90 20 91 21 96 22 92 23 95 24 93 25
REMARK SMILES IDX 94 26 97 27 18 29 19 30 20 31 21 32 22 33 23 34 24 35 25 36
REMARK SMILES IDX 26 37 27 38 28 39 89 40 29 41 88 42 30 43 31 44 32 45 82 46
REMARK SMILES IDX 33 47 87 48 81 49 83 50 34 51 86 52 80 53 79 54 35 56 67 57
REMARK SMILES IDX 47 58 66 59 48 60 51 61 65 62 84 63 49 64 50 65 64 67 85 68
REMARK SMILES IDX 52 69 36 70 37 71 45 72 38 73 44 74 46 75 43 76 39 77 40 78
REMARK SMILES IDX 41 79 42 80 68 81 69 82 77 83 70 84 76 85 78 86 75 87 71 88
REMARK SMILES IDX 72 89 73 90 74 91 53 92 54 93 62 94 55 95 61 96 63 97 60 98
REMARK SMILES IDX 56 99 57 100 58 101 59 102
REMARK H PARENT 3 16 3 17 97 28 83 55 51 66
REMARK Flexibility Score: inf
ROOT
ATOM      1  C   UNL A   1      39.820  22.246  26.530  1.00  0.00     0.188 C 
ENDROOT
BRANCH   1   2
ATOM      2  C   UNL A   1      38.770  23.353  26.632  1.00  0.00     0.188 C 
BRANCH   2   3
ATOM      3  O   UNL A   1      37.467  23.168  26.100  1.00  0.00    -0.376 OA
BRANCH   3   4
ATOM      4  C   UNL A   1      37.282  23.011  24.699  1.00  0.00     0.202 C 
BRANCH   4   5
ATOM      5  C   UNL A   1      36.428  21.832  24.181  1.00  0.00     0.261 C 
BRANCH   5   6
ATOM      6  O   UNL A   1      35.818  20.950  25.159  1.00  0.00    -0.463 OA
BRANCH   6   7
ATOM      7  C   UNL A   1      34.796  20.169  24.728  1.00  0.00     0.309 C 
ATOM      8  O   UNL A   1      34.831  18.941  24.721  1.00  0.00    -0.252 OA
BRANCH   7   9
ATOM      9  C   UNL A   1      33.513  20.910  24.297  1.00  0.00     0.108 C 
ATOM     10  C   UNL A   1      33.416  22.454  24.223  1.00  0.00     0.058 C 
ATOM     11  C   UNL A   1      32.636  22.888  25.473  1.00  0.00     0.010 C 
ATOM     12  C   UNL A   1      31.708  21.736  25.794  1.00  0.00     0.001 C 
ATOM     13  C   UNL A   1      32.326  20.482  25.182  1.00  0.00     0.016 C 
BRANCH  10  14
ATOM     14  C   UNL A   1      32.660  22.870  22.930  1.00  0.00     0.265 C 
BRANCH  14  15
ATOM     15  N   UNL A   1      32.990  24.185  22.348  1.00  0.00    -0.340 N 
ATOM     16  H   UNL A   1      33.751  24.595  22.888  1.00  0.00     0.346 HD
ATOM     17  H   UNL A   1      33.251  24.029  21.375  1.00  0.00     0.346 HD
BRANCH  15  18
ATOM     18  C   UNL A   1      31.848  25.124  22.354  1.00  0.00     0.214 C 
ATOM     19  C   UNL A   1      32.128  26.253  21.352  1.00  0.00     0.081 C 
BRANCH  18  20
ATOM     20  C   UNL A   1      31.605  25.646  23.750  1.00  0.00     0.054 A 
ATOM     21  C   UNL A   1      30.370  25.409  24.371  1.00  0.00     0.053 A 
ATOM     22  C   UNL A   1      32.592  26.332  24.478  1.00  0.00     0.124 A 
ATOM     23  C   UNL A   1      30.147  25.858  25.668  1.00  0.00     0.123 A 
ATOM     24  C   UNL A   1      32.351  26.813  25.761  1.00  0.00     0.050 A 
ATOM     25  F   UNL A   1      28.979  25.585  26.263  1.00  0.00    -0.207 F 
ATOM     26  C   UNL A   1      31.120  26.566  26.363  1.00  0.00     0.043 A 
BRANCH  22  27
ATOM     27  O   UNL A   1      33.856  26.491  23.977  1.00  0.00    -0.507 OA
ATOM     28  H   UNL A   1      33.981  26.903  23.145  1.00  0.00     0.293 HD
ENDBRANCH  22  27
ENDBRANCH  18  20
ENDBRANCH  15  18
ENDBRANCH  14  15
ENDBRANCH  10  14
ENDBRANCH   7   9
ENDBRANCH   6   7
ENDBRANCH   5   6
ENDBRANCH   4   5
ENDBRANCH   3   4
ENDBRANCH   2   3
ENDBRANCH   1   2
BRANCH   1  29
ATOM     29  O   UNL A   1      39.341  20.922  26.459  1.00  0.00    -0.377 OA
BRANCH  29  30
ATOM     30  C   UNL A   1      40.254  19.912  26.071  1.00  0.00     0.188 C 
BRANCH  30  31
ATOM     31  C   UNL A   1      41.710  20.083  26.520  1.00  0.00     0.188 C 
BRANCH  31  32
ATOM     32  O   UNL A   1      42.643  19.993  25.447  1.00  0.00    -0.376 OA
BRANCH  32  33
ATOM     33  C   UNL A   1      43.734  20.901  25.410  1.00  0.00     0.202 C 
BRANCH  33  34
ATOM     34  C   UNL A   1      43.788  22.026  26.459  1.00  0.00     0.261 C 
BRANCH  34  35
ATOM     35  O   UNL A   1      43.161  23.273  26.125  1.00  0.00    -0.460 OA
BRANCH  35  36
ATOM     36  C   UNL A   1      42.822  24.106  27.132  1.00  0.00     0.338 C 
ATOM     37  O   UNL A   1      42.045  23.869  28.042  1.00  0.00    -0.246 OA
BRANCH  36  38
ATOM     38  C   UNL A   1      43.718  25.280  27.062  1.00  0.00     0.060 A 
ATOM     39  C   UNL A   1      43.947  25.885  25.820  1.00  0.00     0.016 A 
ATOM     40  C   UNL A   1      44.312  25.796  28.217  1.00  0.00     0.016 A 
ATOM     41  C   UNL A   1      44.791  26.992  25.724  1.00  0.00     0.010 A 
ATOM     42  C   UNL A   1      45.179  26.888  28.116  1.00  0.00     0.010 A 
ATOM     43  C   UNL A   1      45.448  27.472  26.864  1.00  0.00    -0.014 A 
BRANCH  43  44
ATOM     44  C   UNL A   1      46.574  28.426  26.712  1.00  0.00     0.031 A 
ATOM     45  C   UNL A   1      46.259  29.897  26.708  1.00  0.00     0.074 A 
ATOM     46  C   UNL A   1      47.848  28.007  26.609  1.00  0.00     0.049 A 
ATOM     47  N   UNL A   1      47.051  30.921  26.530  1.00  0.00    -0.248 NA
ATOM     48  C   UNL A   1      44.848  30.253  26.927  1.00  0.00     0.031 C 
ATOM     49  C   UNL A   1      48.282  26.612  26.651  1.00  0.00     0.029 A 
ATOM     50  N   UNL A   1      49.010  28.718  26.437  1.00  0.00    -0.354 N 
ATOM     51  C   UNL A   1      46.236  32.047  26.616  1.00  0.00     0.074 A 
ATOM     52  C   UNL A   1      44.883  31.571  26.809  1.00  0.00     0.031 C 
ATOM     53  C   UNL A   1      49.616  26.569  26.485  1.00  0.00     0.029 A 
ATOM     54  C   UNL A   1      50.124  27.926  26.285  1.00  0.00     0.049 A 
ATOM     55  H   UNL A   1      49.042  29.702  26.423  1.00  0.00     0.167 HD
ATOM     56  C   UNL A   1      46.587  33.355  26.555  1.00  0.00     0.034 A 
ATOM     57  C   UNL A   1      51.397  28.257  25.984  1.00  0.00     0.034 A 
ATOM     58  C   UNL A   1      47.938  33.808  26.331  1.00  0.00     0.049 A 
ATOM     59  C   UNL A   1      51.753  29.716  25.809  1.00  0.00     0.074 A 
ATOM     60  C   UNL A   1      48.409  35.106  26.243  1.00  0.00     0.029 A 
ATOM     61  N   UNL A   1      49.035  32.975  26.138  1.00  0.00    -0.354 N 
ATOM     62  N   UNL A   1      50.978  30.774  25.899  1.00  0.00    -0.248 NA
ATOM     63  C   UNL A   1      53.156  30.025  25.505  1.00  0.00     0.031 C 
ATOM     64  C   UNL A   1      49.768  35.058  25.914  1.00  0.00     0.029 A 
ATOM     65  C   UNL A   1      50.171  33.732  25.894  1.00  0.00     0.049 A 
ATOM     66  H   UNL A   1      49.008  31.992  26.170  1.00  0.00     0.167 HD
ATOM     67  C   UNL A   1      51.808  31.874  25.691  1.00  0.00     0.074 A 
ATOM     68  C   UNL A   1      53.143  31.350  25.486  1.00  0.00     0.031 C 
ATOM     69  C   UNL A   1      51.497  33.197  25.676  1.00  0.00     0.034 A 
BRANCH  56  70
ATOM     70  C   UNL A   1      45.473  34.371  26.671  1.00  0.00     0.023 A 
ATOM     71  C   UNL A   1      45.324  35.174  27.816  1.00  0.00     0.031 A 
ATOM     72  C   UNL A   1      44.510  34.492  25.654  1.00  0.00     0.131 A 
ATOM     73  C   UNL A   1      44.189  35.987  27.957  1.00  0.00     0.055 A 
ATOM     74  C   UNL A   1      43.435  35.376  25.760  1.00  0.00     0.041 A 
ATOM     75  F   UNL A   1      44.581  33.733  24.549  1.00  0.00    -0.206 F 
ATOM     76  C   UNL A   1      43.257  36.115  26.925  1.00  0.00     0.022 A 
BRANCH  73  77
ATOM     77  S   UNL A   1      43.851  36.722  29.582  1.00  0.00     0.124 S 
ATOM     78  O   UNL A   1      45.174  37.210  29.965  1.00  0.00    -0.237 OA
ATOM     79  O   UNL A   1      42.860  37.743  29.266  1.00  0.00    -0.237 OA
ATOM     80  O   UNL A   1      43.360  35.595  30.372  1.00  0.00    -0.744 OA
ENDBRANCH  73  77
ENDBRANCH  56  70
BRANCH  57  81
ATOM     81  C   UNL A   1      52.418  27.189  25.767  1.00  0.00     0.023 A 
ATOM     82  C   UNL A   1      53.318  26.815  26.777  1.00  0.00     0.031 A 
ATOM     83  C   UNL A   1      52.529  26.552  24.518  1.00  0.00     0.131 A 
ATOM     84  C   UNL A   1      54.312  25.859  26.510  1.00  0.00     0.055 A 
ATOM     85  C   UNL A   1      53.481  25.562  24.273  1.00  0.00     0.041 A 
ATOM     86  F   UNL A   1      51.700  26.879  23.513  1.00  0.00    -0.206 F 
ATOM     87  C   UNL A   1      54.388  25.218  25.270  1.00  0.00     0.022 A 
BRANCH  84  88
ATOM     88  S   UNL A   1      55.561  25.520  27.781  1.00  0.00     0.124 S 
ATOM     89  O   UNL A   1      54.856  25.899  28.999  1.00  0.00    -0.237 OA
ATOM     90  O   UNL A   1      55.802  24.093  27.596  1.00  0.00    -0.237 OA
ATOM     91  O   UNL A   1      56.674  26.390  27.407  1.00  0.00    -0.744 OA
ENDBRANCH  84  88
ENDBRANCH  57  81
BRANCH  69  92
ATOM     92  C   UNL A   1      52.633  34.176  25.481  1.00  0.00     0.023 A 
ATOM     93  C   UNL A   1      53.222  34.394  24.223  1.00  0.00     0.031 A 
ATOM     94  C   UNL A   1      53.133  34.903  26.577  1.00  0.00     0.131 A 
ATOM     95  C   UNL A   1      54.313  35.271  24.104  1.00  0.00     0.055 A 
ATOM     96  C   UNL A   1      54.170  35.827  26.438  1.00  0.00     0.041 A 
ATOM     97  F   UNL A   1      52.614  34.733  27.804  1.00  0.00    -0.206 F 
ATOM     98  C   UNL A   1      54.776  36.004  25.199  1.00  0.00     0.022 A 
BRANCH  95  99
ATOM     99  S   UNL A   1      55.187  35.365  22.517  1.00  0.00     0.124 S 
ATOM    100  O   UNL A   1      56.456  34.716  22.833  1.00  0.00    -0.237 OA
ATOM    101  O   UNL A   1      54.298  34.629  21.626  1.00  0.00    -0.237 OA
ATOM    102  O   UNL A   1      55.273  36.801  22.258  1.00  0.00    -0.744 OA
ENDBRANCH  95  99
ENDBRANCH  69  92
ENDBRANCH  43  44
ENDBRANCH  36  38
ENDBRANCH  35  36
ENDBRANCH  34  35
ENDBRANCH  33  34
ENDBRANCH  32  33
ENDBRANCH  31  32
ENDBRANCH  30  31
ENDBRANCH  29  30
ENDBRANCH   1  29
TORSDOF 28
ENDMDL
MODEL 2
REMARK VINA RESULT:      -7.7      7.362     12.791
REMARK SMILES C[C@@H]([NH2+]C[C@H]1CCC[C@@H]1C(=O)OCCOCCOCCOCCOC(=O)c1ccc(-c2c3nc(c(-c4cc(S(=O)(=O)[O-])ccc4F)c4ccc([nH]4)c(-c4cc(S(=O)(=O)[O-])ccc4F)c4nc(c(-c5cc(S(=O)(=O)[O-])ccc5F)c5ccc2[nH]5)C=C4)C=C3)cc1)c1cc(F)ccc1O
REMARK SMILES IDX 17 1 16 2 15 3 14 4 13 5 12 6 10 7 11 8 9 9 5 10 6 11 7 12
REMARK SMILES IDX 8 13 4 14 3 15 2 18 1 19 90 20 91 21 96 22 92 23 95 24 93 25
REMARK SMILES IDX 94 26 97 27 18 29 19 30 20 31 21 32 22 33 23 34 24 35 25 36
REMARK SMILES IDX 26 37 27 38 28 39 89 40 29 41 88 42 30 43 31 44 32 45 82 46
REMARK SMILES IDX 33 47 87 48 81 49 83 50 34 51 86 52 80 53 79 54 35 56 67 57
REMARK SMILES IDX 47 58 66 59 48 60 51 61 65 62 84 63 49 64 50 65 64 67 85 68
REMARK SMILES IDX 52 69 36 70 37 71 45 72 38 73 44 74 46 75 43 76 39 77 40 78
REMARK SMILES IDX 41 79 42 80 68 81 69 82 77 83 70 84 76 85 78 86 75 87 71 88
REMARK SMILES IDX 72 89 73 90 74 91 53 92 54 93 62 94 55 95 61 96 63 97 60 98
REMARK SMILES IDX 56 99 57 100 58 101 59 102
REMARK H PARENT 3 16 3 17 97 28 83 55 51 66
REMARK Flexibility Score: inf
ROOT
ATOM      1  C   UNL A   1      43.113  31.450  42.169  1.00  0.00     0.188 C 
ENDROOT
BRANCH   1   2
ATOM      2  C   UNL A   1      41.921  32.204  41.577  1.00  0.00     0.188 C 
BRANCH   2   3
ATOM      3  O   UNL A   1      41.411  31.865  40.296  1.00  0.00    -0.376 OA
BRANCH   3   4
ATOM      4  C   UNL A   1      41.630  32.726  39.187  1.00  0.00     0.202 C 
BRANCH   4   5
ATOM      5  C   UNL A   1      40.445  33.073  38.258  1.00  0.00     0.261 C 
BRANCH   5   6
ATOM      6  O   UNL A   1      40.635  32.925  36.827  1.00  0.00    -0.463 OA
BRANCH   6   7
ATOM      7  C   UNL A   1      39.727  32.169  36.162  1.00  0.00     0.309 C 
ATOM      8  O   UNL A   1      39.243  31.132  36.610  1.00  0.00    -0.252 OA
BRANCH   7   9
ATOM      9  C   UNL A   1      39.255  32.719  34.800  1.00  0.00     0.108 C 
ATOM     10  C   UNL A   1      40.119  32.647  33.517  1.00  0.00     0.058 C 
ATOM     11  C   UNL A   1      40.690  34.058  33.313  1.00  0.00     0.010 C 
ATOM     12  C   UNL A   1      39.664  35.002  33.904  1.00  0.00     0.001 C 
ATOM     13  C   UNL A   1      38.865  34.205  34.931  1.00  0.00     0.016 C 
BRANCH  10  14
ATOM     14  C   UNL A   1      39.229  32.234  32.310  1.00  0.00     0.265 C 
BRANCH  14  15
ATOM     15  N   UNL A   1      39.249  30.813  31.913  1.00  0.00    -0.340 N 
ATOM     16  H   UNL A   1      39.319  30.242  32.756  1.00  0.00     0.346 HD
ATOM     17  H   UNL A   1      38.388  30.630  31.398  1.00  0.00     0.346 HD
BRANCH  15  18
ATOM     18  C   UNL A   1      40.378  30.476  31.021  1.00  0.00     0.214 C 
ATOM     19  C   UNL A   1      40.848  31.753  30.308  1.00  0.00     0.081 C 
BRANCH  18  20
ATOM     20  C   UNL A   1      39.973  29.395  30.047  1.00  0.00     0.054 A 
ATOM     21  C   UNL A   1      40.728  28.215  29.972  1.00  0.00     0.053 A 
ATOM     22  C   UNL A   1      38.834  29.506  29.233  1.00  0.00     0.124 A 
ATOM     23  C   UNL A   1      40.346  27.200  29.102  1.00  0.00     0.123 A 
ATOM     24  C   UNL A   1      38.477  28.504  28.336  1.00  0.00     0.050 A 
ATOM     25  F   UNL A   1      41.050  26.062  29.074  1.00  0.00    -0.207 F 
ATOM     26  C   UNL A   1      39.236  27.338  28.276  1.00  0.00     0.043 A 
BRANCH  22  27
ATOM     27  O   UNL A   1      37.989  30.577  29.343  1.00  0.00    -0.507 OA
ATOM     28  H   UNL A   1      38.338  31.440  29.450  1.00  0.00     0.293 HD
ENDBRANCH  22  27
ENDBRANCH  18  20
ENDBRANCH  15  18
ENDBRANCH  14  15
ENDBRANCH  10  14
ENDBRANCH   7   9
ENDBRANCH   6   7
ENDBRANCH   5   6
ENDBRANCH   4   5
ENDBRANCH   3   4
ENDBRANCH   2   3
ENDBRANCH   1   2
BRANCH   1  29
ATOM     29  O   UNL A   1      44.394  31.855  41.742  1.00  0.00    -0.377 OA
BRANCH  29  30
ATOM     30  C   UNL A   1      44.574  33.218  41.404  1.00  0.00     0.188 C 
BRANCH  30  31
ATOM     31  C   UNL A   1      45.404  33.518  40.150  1.00  0.00     0.188 C 
BRANCH  31  32
ATOM     32  O   UNL A   1      45.370  34.890  39.768  1.00  0.00    -0.376 OA
BRANCH  32  33
ATOM     33  C   UNL A   1      44.780  35.833  40.650  1.00  0.00     0.202 C 
BRANCH  33  34
ATOM     34  C   UNL A   1      44.189  37.124  40.056  1.00  0.00     0.261 C 
BRANCH  34  35
ATOM     35  O   UNL A   1      44.951  37.796  39.042  1.00  0.00    -0.460 OA
BRANCH  35  36
ATOM     36  C   UNL A   1      44.315  38.181  37.916  1.00  0.00     0.338 C 
ATOM     37  O   UNL A   1      43.970  39.314  37.625  1.00  0.00    -0.246 OA
BRANCH  36  38
ATOM     38  C   UNL A   1      44.296  37.023  36.996  1.00  0.00     0.060 A 
ATOM     39  C   UNL A   1      45.513  36.495  36.545  1.00  0.00     0.016 A 
ATOM     40  C   UNL A   1      43.087  36.447  36.597  1.00  0.00     0.016 A 
ATOM     41  C   UNL A   1      45.524  35.406  35.673  1.00  0.00     0.010 A 
ATOM     42  C   UNL A   1      43.099  35.373  35.701  1.00  0.00     0.010 A 
ATOM     43  C   UNL A   1      44.317  34.867  35.210  1.00  0.00    -0.014 A 
BRANCH  43  44
ATOM     44  C   UNL A   1      44.327  33.936  34.054  1.00  0.00     0.031 A 
ATOM     45  C   UNL A   1      44.232  34.524  32.673  1.00  0.00     0.074 A 
ATOM     46  C   UNL A   1      44.446  32.607  34.217  1.00  0.00     0.049 A 
ATOM     47  N   UNL A   1      44.159  33.926  31.513  1.00  0.00    -0.248 NA
ATOM     48  C   UNL A   1      44.206  35.993  32.599  1.00  0.00     0.031 C 
ATOM     49  C   UNL A   1      44.596  31.925  35.501  1.00  0.00     0.029 A 
ATOM     50  N   UNL A   1      44.449  31.592  33.292  1.00  0.00    -0.354 N 
ATOM     51  C   UNL A   1      44.081  34.945  30.568  1.00  0.00     0.074 A 
ATOM     52  C   UNL A   1      44.061  36.195  31.299  1.00  0.00     0.031 C 
ATOM     53  C   UNL A   1      44.652  30.599  35.283  1.00  0.00     0.029 A 
ATOM     54  C   UNL A   1      44.503  30.336  33.852  1.00  0.00     0.049 A 
ATOM     55  H   UNL A   1      44.414  31.748  32.321  1.00  0.00     0.167 HD
ATOM     56  C   UNL A   1      44.043  34.848  29.216  1.00  0.00     0.034 A 
ATOM     57  C   UNL A   1      44.407  29.119  33.278  1.00  0.00     0.034 A 
ATOM     58  C   UNL A   1      44.032  33.591  28.508  1.00  0.00     0.049 A 
ATOM     59  C   UNL A   1      44.254  29.027  31.777  1.00  0.00     0.074 A 
ATOM     60  C   UNL A   1      43.989  33.371  27.142  1.00  0.00     0.029 A 
ATOM     61  N   UNL A   1      44.044  32.338  29.110  1.00  0.00    -0.354 N 
ATOM     62  N   UNL A   1      44.187  29.995  30.890  1.00  0.00    -0.248 NA
ATOM     63  C   UNL A   1      44.177  27.679  31.199  1.00  0.00     0.031 C 
ATOM     64  C   UNL A   1      43.889  31.994  26.924  1.00  0.00     0.029 A 
ATOM     65  C   UNL A   1      43.970  31.345  28.146  1.00  0.00     0.049 A 
ATOM     66  H   UNL A   1      44.098  32.180  30.080  1.00  0.00     0.167 HD
ATOM     67  C   UNL A   1      44.089  29.369  29.648  1.00  0.00     0.074 A 
ATOM     68  C   UNL A   1      44.120  27.943  29.902  1.00  0.00     0.031 C 
ATOM     69  C   UNL A   1      43.988  29.923  28.411  1.00  0.00     0.034 A 
BRANCH  56  70
ATOM     70  C   UNL A   1      43.947  36.140  28.437  1.00  0.00     0.023 A 
ATOM     71  C   UNL A   1      45.080  36.934  28.183  1.00  0.00     0.031 A 
ATOM     72  C   UNL A   1      42.699  36.618  28.000  1.00  0.00     0.131 A 
ATOM     73  C   UNL A   1      44.930  38.202  27.601  1.00  0.00     0.055 A 
ATOM     74  C   UNL A   1      42.571  37.838  27.334  1.00  0.00     0.041 A 
ATOM     75  F   UNL A   1      41.577  35.921  28.236  1.00  0.00    -0.206 F 
ATOM     76  C   UNL A   1      43.687  38.648  27.149  1.00  0.00     0.022 A 
BRANCH  73  77
ATOM     77  S   UNL A   1      46.349  39.333  27.621  1.00  0.00     0.124 S 
ATOM     78  O   UNL A   1      46.949  39.076  26.313  1.00  0.00    -0.237 OA
ATOM     79  O   UNL A   1      45.712  40.634  27.787  1.00  0.00    -0.237 OA
ATOM     80  O   UNL A   1      47.140  38.872  28.760  1.00  0.00    -0.744 OA
ENDBRANCH  73  77
ENDBRANCH  56  70
BRANCH  57  81
ATOM     81  C   UNL A   1      44.389  27.890  34.125  1.00  0.00     0.023 A 
ATOM     82  C   UNL A   1      43.186  27.309  34.555  1.00  0.00     0.031 A 
ATOM     83  C   UNL A   1      45.593  27.300  34.552  1.00  0.00     0.131 A 
ATOM     84  C   UNL A   1      43.212  26.197  35.413  1.00  0.00     0.055 A 
ATOM     85  C   UNL A   1      45.616  26.161  35.358  1.00  0.00     0.041 A 
ATOM     86  F   UNL A   1      46.773  27.821  34.179  1.00  0.00    -0.206 F 
ATOM     87  C   UNL A   1      44.419  25.609  35.803  1.00  0.00     0.022 A 
BRANCH  84  88
ATOM     88  S   UNL A   1      41.646  25.573  36.082  1.00  0.00     0.124 S 
ATOM     89  O   UNL A   1      41.612  26.203  37.396  1.00  0.00    -0.237 OA
ATOM     90  O   UNL A   1      40.681  26.069  35.107  1.00  0.00    -0.237 OA
ATOM     91  O   UNL A   1      41.831  24.123  36.089  1.00  0.00    -0.744 OA
ENDBRANCH  84  88
ENDBRANCH  57  81
BRANCH  69  92
ATOM     92  C   UNL A   1      43.956  28.981  27.229  1.00  0.00     0.023 A 
ATOM     93  C   UNL A   1      45.116  28.343  26.752  1.00  0.00     0.031 A 
ATOM     94  C   UNL A   1      42.742  28.718  26.569  1.00  0.00     0.131 A 
ATOM     95  C   UNL A   1      45.044  27.522  25.614  1.00  0.00     0.055 A 
ATOM     96  C   UNL A   1      42.666  27.845  25.483  1.00  0.00     0.041 A 
ATOM     97  F   UNL A   1      41.603  29.302  26.975  1.00  0.00    -0.206 F 
ATOM     98  C   UNL A   1      43.824  27.253  24.991  1.00  0.00     0.022 A 
BRANCH  95  99
ATOM     99  S   UNL A   1      46.586  26.891  24.896  1.00  0.00     0.124 S 
ATOM    100  O   UNL A   1      46.705  27.695  23.684  1.00  0.00    -0.237 OA
ATOM    101  O   UNL A   1      47.558  27.172  25.947  1.00  0.00    -0.237 OA
ATOM    102  O   UNL A   1      46.306  25.473  24.675  1.00  0.00    -0.744 OA
ENDBRANCH  95  99
ENDBRANCH  69  92
ENDBRANCH  43  44
ENDBRANCH  36  38
ENDBRANCH  35  36
ENDBRANCH  34  35
ENDBRANCH  33  34
ENDBRANCH  32  33
ENDBRANCH  31  32
ENDBRANCH  30  31
ENDBRANCH  29  30
ENDBRANCH   1  29
TORSDOF 28
ENDMDL
MODEL 3
REMARK VINA RESULT:      -7.6      7.200     16.051
REMARK SMILES C[C@@H]([NH2+]C[C@H]1CCC[C@@H]1C(=O)OCCOCCOCCOCCOC(=O)c1ccc(-c2c3nc(c(-c4cc(S(=O)(=O)[O-])ccc4F)c4ccc([nH]4)c(-c4cc(S(=O)(=O)[O-])ccc4F)c4nc(c(-c5cc(S(=O)(=O)[O-])ccc5F)c5ccc2[nH]5)C=C4)C=C3)cc1)c1cc(F)ccc1O
REMARK SMILES IDX 17 1 16 2 15 3 14 4 13 5 12 6 10 7 11 8 9 9 5 10 6 11 7 12
REMARK SMILES IDX 8 13 4 14 3 15 2 18 1 19 90 20 91 21 96 22 92 23 95 24 93 25
REMARK SMILES IDX 94 26 97 27 18 29 19 30 20 31 21 32 22 33 23 34 24 35 25 36
REMARK SMILES IDX 26 37 27 38 28 39 89 40 29 41 88 42 30 43 31 44 32 45 82 46
REMARK SMILES IDX 33 47 87 48 81 49 83 50 34 51 86 52 80 53 79 54 35 56 67 57
REMARK SMILES IDX 47 58 66 59 48 60 51 61 65 62 84 63 49 64 50 65 64 67 85 68
REMARK SMILES IDX 52 69 36 70 37 71 45 72 38 73 44 74 46 75 43 76 39 77 40 78
REMARK SMILES IDX 41 79 42 80 68 81 69 82 77 83 70 84 76 85 78 86 75 87 71 88
REMARK SMILES IDX 72 89 73 90 74 91 53 92 54 93 62 94 55 95 61 96 63 97 60 98
REMARK SMILES IDX 56 99 57 100 58 101 59 102
REMARK H PARENT 3 16 3 17 97 28 83 55 51 66
REMARK Flexibility Score: inf
ROOT
ATOM      1  C   UNL A   1      48.301  45.481  23.322  1.00  0.00     0.188 C 
ENDROOT
BRANCH   1   2
ATOM      2  C   UNL A   1      48.283  46.465  22.151  1.00  0.00     0.188 C 
BRANCH   2   3
ATOM      3  O   UNL A   1      48.769  46.081  20.874  1.00  0.00    -0.376 OA
BRANCH   3   4
ATOM      4  C   UNL A   1      48.727  46.996  19.787  1.00  0.00     0.202 C 
BRANCH   4   5
ATOM      5  C   UNL A   1      47.631  46.836  18.710  1.00  0.00     0.261 C 
BRANCH   5   6
ATOM      6  O   UNL A   1      47.049  48.040  18.146  1.00  0.00    -0.463 OA
BRANCH   6   7
ATOM      7  C   UNL A   1      46.061  48.636  18.860  1.00  0.00     0.309 C 
ATOM      8  O   UNL A   1      46.216  49.667  19.510  1.00  0.00    -0.252 OA
BRANCH   7   9
ATOM      9  C   UNL A   1      44.667  47.984  18.761  1.00  0.00     0.108 C 
ATOM     10  C   UNL A   1      44.315  46.902  17.710  1.00  0.00     0.058 C 
ATOM     11  C   UNL A   1      43.494  47.617  16.627  1.00  0.00     0.010 C 
ATOM     12  C   UNL A   1      42.775  48.743  17.338  1.00  0.00     0.001 C 
ATOM     13  C   UNL A   1      43.581  49.066  18.593  1.00  0.00     0.016 C 
BRANCH  10  14
ATOM     14  C   UNL A   1      43.478  45.774  18.380  1.00  0.00     0.265 C 
BRANCH  14  15
ATOM     15  N   UNL A   1      44.201  44.559  18.802  1.00  0.00    -0.340 N 
ATOM     16  H   UNL A   1      44.732  44.206  18.007  1.00  0.00     0.346 HD
ATOM     17  H   UNL A   1      44.805  44.821  19.581  1.00  0.00     0.346 HD
BRANCH  15  18
ATOM     18  C   UNL A   1      43.302  43.488  19.282  1.00  0.00     0.214 C 
ATOM     19  C   UNL A   1      41.980  43.563  18.504  1.00  0.00     0.081 C 
BRANCH  18  20
ATOM     20  C   UNL A   1      43.093  43.606  20.773  1.00  0.00     0.054 A 
ATOM     21  C   UNL A   1      41.872  43.203  21.333  1.00  0.00     0.053 A 
ATOM     22  C   UNL A   1      44.099  44.068  21.638  1.00  0.00     0.124 A 
ATOM     23  C   UNL A   1      41.680  43.277  22.708  1.00  0.00     0.123 A 
ATOM     24  C   UNL A   1      43.890  44.176  23.009  1.00  0.00     0.050 A 
ATOM     25  F   UNL A   1      40.526  42.847  23.232  1.00  0.00    -0.207 F 
ATOM     26  C   UNL A   1      42.672  43.770  23.548  1.00  0.00     0.043 A 
BRANCH  22  27
ATOM     27  O   UNL A   1      45.351  44.363  21.170  1.00  0.00    -0.507 OA
ATOM     28  H   UNL A   1      45.844  43.712  20.711  1.00  0.00     0.293 HD
ENDBRANCH  22  27
ENDBRANCH  18  20
ENDBRANCH  15  18
ENDBRANCH  14  15
ENDBRANCH  10  14
ENDBRANCH   7   9
ENDBRANCH   6   7
ENDBRANCH   5   6
ENDBRANCH   4   5
ENDBRANCH   3   4
ENDBRANCH   2   3
ENDBRANCH   1   2
BRANCH   1  29
ATOM     29  O   UNL A   1      47.194  44.617  23.440  1.00  0.00    -0.377 OA
BRANCH  29  30
ATOM     30  C   UNL A   1      46.986  43.981  24.688  1.00  0.00     0.188 C 
BRANCH  30  31
ATOM     31  C   UNL A   1      46.639  42.488  24.657  1.00  0.00     0.188 C 
BRANCH  31  32
ATOM     32  O   UNL A   1      46.021  42.029  25.856  1.00  0.00    -0.376 OA
BRANCH  32  33
ATOM     33  C   UNL A   1      44.801  41.308  25.765  1.00  0.00     0.202 C 
BRANCH  33  34
ATOM     34  C   UNL A   1      43.625  41.741  26.660  1.00  0.00     0.261 C 
BRANCH  34  35
ATOM     35  O   UNL A   1      42.566  40.793  26.866  1.00  0.00    -0.460 OA
BRANCH  35  36
ATOM     36  C   UNL A   1      42.529  40.122  28.036  1.00  0.00     0.338 C 
ATOM     37  O   UNL A   1      41.810  40.364  28.991  1.00  0.00    -0.246 OA
BRANCH  36  38
ATOM     38  C   UNL A   1      43.361  38.909  27.882  1.00  0.00     0.060 A 
ATOM     39  C   UNL A   1      44.289  38.593  28.882  1.00  0.00     0.016 A 
ATOM     40  C   UNL A   1      43.212  38.077  26.769  1.00  0.00     0.016 A 
ATOM     41  C   UNL A   1      45.089  37.457  28.761  1.00  0.00     0.010 A 
ATOM     42  C   UNL A   1      44.034  36.954  26.635  1.00  0.00     0.010 A 
ATOM     43  C   UNL A   1      44.999  36.656  27.616  1.00  0.00    -0.014 A 
BRANCH  43  44
ATOM     44  C   UNL A   1      46.056  35.650  27.341  1.00  0.00     0.031 A 
ATOM     45  C   UNL A   1      45.706  34.196  27.499  1.00  0.00     0.074 A 
ATOM     46  C   UNL A   1      47.286  36.010  26.934  1.00  0.00     0.049 A 
ATOM     47  N   UNL A   1      46.462  33.136  27.380  1.00  0.00    -0.248 NA
ATOM     48  C   UNL A   1      44.307  33.905  27.851  1.00  0.00     0.031 C 
ATOM     49  C   UNL A   1      47.728  37.383  26.697  1.00  0.00     0.029 A 
ATOM     50  N   UNL A   1      48.393  35.246  26.658  1.00  0.00    -0.354 N 
ATOM     51  C   UNL A   1      45.631  32.050  27.640  1.00  0.00     0.074 A 
ATOM     52  C   UNL A   1      44.330  32.588  27.976  1.00  0.00     0.031 C 
ATOM     53  C   UNL A   1      49.022  37.364  26.332  1.00  0.00     0.029 A 
ATOM     54  C   UNL A   1      49.511  35.986  26.350  1.00  0.00     0.049 A 
ATOM     55  H   UNL A   1      48.388  34.261  26.681  1.00  0.00     0.167 HD
ATOM     56  C   UNL A   1      45.924  30.727  27.590  1.00  0.00     0.034 A 
ATOM     57  C   UNL A   1      50.786  35.597  26.142  1.00  0.00     0.034 A 
ATOM     58  C   UNL A   1      47.236  30.212  27.284  1.00  0.00     0.049 A 
ATOM     59  C   UNL A   1      51.121  34.124  26.198  1.00  0.00     0.074 A 
ATOM     60  C   UNL A   1      47.650  28.894  27.210  1.00  0.00     0.029 A 
ATOM     61  N   UNL A   1      48.356  30.994  27.018  1.00  0.00    -0.354 N 
ATOM     62  N   UNL A   1      50.329  33.103  26.438  1.00  0.00    -0.248 NA
ATOM     63  C   UNL A   1      52.518  33.750  25.942  1.00  0.00     0.031 C 
ATOM     64  C   UNL A   1      49.031  28.880  26.987  1.00  0.00     0.029 A 
ATOM     65  C   UNL A   1      49.465  30.186  26.820  1.00  0.00     0.049 A 
ATOM     66  H   UNL A   1      48.359  31.977  26.977  1.00  0.00     0.167 HD
ATOM     67  C   UNL A   1      51.129  31.966  26.333  1.00  0.00     0.074 A 
ATOM     68  C   UNL A   1      52.459  32.428  25.994  1.00  0.00     0.031 C 
ATOM     69  C   UNL A   1      50.793  30.659  26.496  1.00  0.00     0.034 A 
BRANCH  56  70
ATOM     70  C   UNL A   1      44.811  29.764  27.936  1.00  0.00     0.023 A 
ATOM     71  C   UNL A   1      43.960  29.235  26.950  1.00  0.00     0.031 A 
ATOM     72  C   UNL A   1      44.556  29.422  29.276  1.00  0.00     0.131 A 
ATOM     73  C   UNL A   1      42.841  28.475  27.324  1.00  0.00     0.055 A 
ATOM     74  C   UNL A   1      43.497  28.585  29.633  1.00  0.00     0.041 A 
ATOM     75  F   UNL A   1      45.315  29.916  30.266  1.00  0.00    -0.206 F 
ATOM     76  C   UNL A   1      42.619  28.123  28.657  1.00  0.00     0.022 A 
BRANCH  73  77
ATOM     77  S   UNL A   1      41.580  28.119  26.069  1.00  0.00     0.124 S 
ATOM     78  O   UNL A   1      41.327  26.699  26.300  1.00  0.00    -0.237 OA
ATOM     79  O   UNL A   1      40.502  29.029  26.438  1.00  0.00    -0.237 OA
ATOM     80  O   UNL A   1      42.255  28.426  24.809  1.00  0.00    -0.744 OA
ENDBRANCH  73  77
ENDBRANCH  56  70
BRANCH  57  81
ATOM     81  C   UNL A   1      51.854  36.616  25.923  1.00  0.00     0.023 A 
ATOM     82  C   UNL A   1      52.462  37.288  26.996  1.00  0.00     0.031 A 
ATOM     83  C   UNL A   1      52.256  36.961  24.619  1.00  0.00     0.131 A 
ATOM     84  C   UNL A   1      53.409  38.295  26.745  1.00  0.00     0.055 A 
ATOM     85  C   UNL A   1      53.239  37.921  24.376  1.00  0.00     0.041 A 
ATOM     86  F   UNL A   1      51.700  36.357  23.557  1.00  0.00    -0.206 F 
ATOM     87  C   UNL A   1      53.814  38.603  25.443  1.00  0.00     0.022 A 
BRANCH  84  88
ATOM     88  S   UNL A   1      54.051  39.257  28.143  1.00  0.00     0.124 S 
ATOM     89  O   UNL A   1      53.976  40.618  27.626  1.00  0.00    -0.237 OA
ATOM     90  O   UNL A   1      53.107  38.919  29.202  1.00  0.00    -0.237 OA
ATOM     91  O   UNL A   1      55.403  38.732  28.326  1.00  0.00    -0.744 OA
ENDBRANCH  84  88
ENDBRANCH  57  81
BRANCH  69  92
ATOM     92  C   UNL A   1      51.874  29.629  26.258  1.00  0.00     0.023 A 
ATOM     93  C   UNL A   1      52.116  29.082  24.985  1.00  0.00     0.031 A 
ATOM     94  C   UNL A   1      52.676  29.188  27.327  1.00  0.00     0.131 A 
ATOM     95  C   UNL A   1      53.093  28.085  24.827  1.00  0.00     0.055 A 
ATOM     96  C   UNL A   1      53.693  28.250  27.148  1.00  0.00     0.041 A 
ATOM     97  F   UNL A   1      52.489  29.671  28.566  1.00  0.00    -0.206 F 
ATOM     98  C   UNL A   1      53.896  27.682  25.895  1.00  0.00     0.022 A 
BRANCH  95  99
ATOM     99  S   UNL A   1      53.229  27.246  23.224  1.00  0.00     0.124 S 
ATOM    100  O   UNL A   1      54.296  26.282  23.478  1.00  0.00    -0.237 OA
ATOM    101  O   UNL A   1      51.893  26.688  23.048  1.00  0.00    -0.237 OA
ATOM    102  O   UNL A   1      53.577  28.325  22.301  1.00  0.00    -0.744 OA
ENDBRANCH  95  99
ENDBRANCH  69  92
ENDBRANCH  43  44
ENDBRANCH  36  38
ENDBRANCH  35  36
ENDBRANCH  34  35
ENDBRANCH  33  34
ENDBRANCH  32  33
ENDBRANCH  31  32
ENDBRANCH  30  31
ENDBRANCH  29  30
ENDBRANCH   1  29
TORSDOF 28
ENDMDL
