MODEL 1
REMARK VINA RESULT:     -10.1      0.000      0.000
REMARK SMILES Cc1cnn(C2(C(=O)OCCOCCOCCOCCOC(=O)c3ccc(-c4c5nc(c(-c6cc(S(=O)(=O)[O-])ccc6F)c6ccc([nH]6)c(-c6cc(S(=O)(=O)[O-])ccc6F)c6nc(c(-c7cc(S(=O)(=O)[O-])ccc7F)c7ccc4[nH]7)C=C6)C=C5)cc3)CCN(C(=O)c3cc4ccccc4[nH]3)CC2)c1
REMARK SMILES IDX 16 1 15 2 14 3 13 4 12 5 11 6 10 7 9 8 7 9 8 10 6 11 87 12
REMARK SMILES IDX 102 13 88 14 101 15 89 16 90 17 91 18 5 19 1 20 2 21 3 22
REMARK SMILES IDX 103 23 4 24 92 25 93 26 100 27 94 28 99 29 95 31 98 32 96 33
REMARK SMILES IDX 97 34 17 35 18 36 19 37 20 38 21 39 22 40 23 41 24 42 25 43
REMARK SMILES IDX 86 44 26 45 85 46 27 47 28 48 29 49 79 50 30 51 84 52 78 53
REMARK SMILES IDX 80 54 31 55 83 56 77 57 76 58 32 60 64 61 44 62 63 63 45 64
REMARK SMILES IDX 48 65 62 66 81 67 46 68 47 69 61 71 82 72 49 73 33 74 34 75
REMARK SMILES IDX 42 76 35 77 41 78 43 79 40 80 36 81 37 82 38 83 39 84 65 85
REMARK SMILES IDX 66 86 74 87 67 88 73 89 75 90 72 91 68 92 69 93 70 94 71 95
REMARK SMILES IDX 50 96 51 97 59 98 52 99 58 100 60 101 57 102 53 103 54 104
REMARK SMILES IDX 55 105 56 106
REMARK H PARENT 100 30 80 59 48 70
REMARK Flexibility Score: inf
ROOT
ATOM      1  C   UNL A   1      34.105  31.331  28.136  1.00  0.00     0.188 C 
ENDROOT
BRANCH   1   2
ATOM      2  O   UNL A   1      34.911  30.324  27.529  1.00  0.00    -0.377 OA
BRANCH   2   3
ATOM      3  C   UNL A   1      34.220  29.395  26.712  1.00  0.00     0.188 C 
BRANCH   3   4
ATOM      4  C   UNL A   1      32.877  29.877  26.137  1.00  0.00     0.188 C 
BRANCH   4   5
ATOM      5  O   UNL A   1      32.520  29.550  24.800  1.00  0.00    -0.376 OA
BRANCH   5   6
ATOM      6  C   UNL A   1      33.391  28.729  24.033  1.00  0.00     0.202 C 
BRANCH   6   7
ATOM      7  C   UNL A   1      32.891  27.373  23.509  1.00  0.00     0.261 C 
BRANCH   7   8
ATOM      8  O   UNL A   1      33.888  26.334  23.402  1.00  0.00    -0.461 OA
BRANCH   8   9
ATOM      9  C   UNL A   1      33.436  25.077  23.140  1.00  0.00     0.334 C 
ATOM     10  O   UNL A   1      32.725  24.817  22.168  1.00  0.00    -0.249 OA
BRANCH   9  11
ATOM     11  C   UNL A   1      33.758  24.024  24.245  1.00  0.00     0.163 C 
ATOM     12  C   UNL A   1      34.187  22.618  23.746  1.00  0.00     0.064 C 
ATOM     13  C   UNL A   1      34.958  24.719  24.931  1.00  0.00     0.064 C 
ATOM     14  C   UNL A   1      34.984  21.808  24.762  1.00  0.00     0.123 C 
ATOM     15  C   UNL A   1      35.766  23.868  25.885  1.00  0.00     0.123 C 
ATOM     16  N   UNL A   1      36.087  22.569  25.315  1.00  0.00    -0.337 N 
ATOM     17  C   UNL A   1      37.364  21.998  25.313  1.00  0.00     0.270 C 
ATOM     18  O   UNL A   1      37.657  21.035  24.632  1.00  0.00    -0.267 OA
BRANCH  11  19
ATOM     19  N   UNL A   1      32.578  23.908  25.130  1.00  0.00    -0.255 N 
ATOM     20  C   UNL A   1      29.610  22.451  26.700  1.00  0.00     0.048 C 
ATOM     21  C   UNL A   1      30.770  23.229  26.215  1.00  0.00    -0.013 A 
ATOM     22  C   UNL A   1      31.270  24.441  26.721  1.00  0.00     0.138 A 
ATOM     23  C   UNL A   1      31.598  22.950  25.148  1.00  0.00     0.113 A 
ATOM     24  N   UNL A   1      32.308  24.890  26.018  1.00  0.00    -0.180 NA
ENDBRANCH  11  19
BRANCH  17  25
ATOM     25  C   UNL A   1      38.344  22.664  26.140  1.00  0.00     0.105 A 
ATOM     26  C   UNL A   1      38.456  23.995  26.495  1.00  0.00     0.042 A 
ATOM     27  N   UNL A   1      39.386  21.998  26.735  1.00  0.00    -0.351 N 
ATOM     28  C   UNL A   1      39.692  24.163  27.168  1.00  0.00     0.000 A 
ATOM     29  C   UNL A   1      40.269  22.898  27.283  1.00  0.00     0.046 A 
ATOM     30  H   UNL A   1      39.487  21.019  26.764  1.00  0.00     0.167 HD
ATOM     31  C   UNL A   1      40.385  25.279  27.669  1.00  0.00     0.010 A 
ATOM     32  C   UNL A   1      41.521  22.692  27.868  1.00  0.00     0.026 A 
ATOM     33  C   UNL A   1      41.639  25.091  28.257  1.00  0.00     0.001 A 
ATOM     34  C   UNL A   1      42.198  23.816  28.351  1.00  0.00     0.002 A 
ENDBRANCH  17  25
ENDBRANCH   9  11
ENDBRANCH   8   9
ENDBRANCH   7   8
ENDBRANCH   6   7
ENDBRANCH   5   6
ENDBRANCH   4   5
ENDBRANCH   3   4
ENDBRANCH   2   3
ENDBRANCH   1   2
BRANCH   1  35
ATOM     35  C   UNL A   1      34.265  32.784  27.635  1.00  0.00     0.188 C 
BRANCH  35  36
ATOM     36  O   UNL A   1      33.288  33.704  28.124  1.00  0.00    -0.376 OA
BRANCH  36  37
ATOM     37  C   UNL A   1      33.696  34.934  28.711  1.00  0.00     0.202 C 
BRANCH  37  38
ATOM     38  C   UNL A   1      33.467  35.079  30.218  1.00  0.00     0.261 C 
BRANCH  38  39
ATOM     39  O   UNL A   1      34.601  34.791  31.018  1.00  0.00    -0.460 OA
BRANCH  39  40
ATOM     40  C   UNL A   1      34.457  33.799  31.918  1.00  0.00     0.338 C 
ATOM     41  O   UNL A   1      33.696  33.767  32.870  1.00  0.00    -0.246 OA
BRANCH  40  42
ATOM     42  C   UNL A   1      35.433  32.752  31.624  1.00  0.00     0.060 A 
ATOM     43  C   UNL A   1      35.685  31.881  32.681  1.00  0.00     0.016 A 
ATOM     44  C   UNL A   1      36.304  32.904  30.532  1.00  0.00     0.016 A 
ATOM     45  C   UNL A   1      36.968  31.432  32.823  1.00  0.00     0.010 A 
ATOM     46  C   UNL A   1      37.590  32.455  30.677  1.00  0.00     0.010 A 
ATOM     47  C   UNL A   1      37.918  31.839  31.880  1.00  0.00    -0.014 A 
BRANCH  47  48
ATOM     48  C   UNL A   1      39.295  31.610  32.221  1.00  0.00     0.031 A 
ATOM     49  C   UNL A   1      40.023  32.845  32.525  1.00  0.00     0.074 A 
ATOM     50  C   UNL A   1      39.830  30.379  32.263  1.00  0.00     0.049 A 
ATOM     51  N   UNL A   1      40.916  33.425  31.800  1.00  0.00    -0.248 NA
ATOM     52  C   UNL A   1      39.550  33.634  33.668  1.00  0.00     0.031 C 
ATOM     53  C   UNL A   1      39.139  29.088  32.241  1.00  0.00     0.029 A 
ATOM     54  N   UNL A   1      41.129  30.040  32.452  1.00  0.00    -0.354 N 
ATOM     55  C   UNL A   1      41.293  34.544  32.524  1.00  0.00     0.074 A 
ATOM     56  C   UNL A   1      40.276  34.741  33.520  1.00  0.00     0.031 C 
ATOM     57  C   UNL A   1      40.000  28.128  32.646  1.00  0.00     0.029 A 
ATOM     58  C   UNL A   1      41.316  28.720  32.830  1.00  0.00     0.049 A 
ATOM     59  H   UNL A   1      41.873  30.674  32.332  1.00  0.00     0.167 HD
ATOM     60  C   UNL A   1      42.548  35.050  32.413  1.00  0.00     0.034 A 
ATOM     61  C   UNL A   1      42.447  28.198  33.367  1.00  0.00     0.034 A 
ATOM     62  C   UNL A   1      43.190  34.594  31.197  1.00  0.00     0.049 A 
ATOM     63  C   UNL A   1      43.573  29.091  32.976  1.00  0.00     0.074 A 
ATOM     64  C   UNL A   1      42.872  34.682  29.853  1.00  0.00     0.029 A 
ATOM     65  N   UNL A   1      44.141  33.600  31.286  1.00  0.00    -0.354 N 
ATOM     66  N   UNL A   1      43.971  29.247  31.742  1.00  0.00    -0.248 NA
ATOM     67  C   UNL A   1      43.952  30.171  33.878  1.00  0.00     0.031 C 
ATOM     68  C   UNL A   1      43.282  33.438  29.290  1.00  0.00     0.029 A 
ATOM     69  C   UNL A   1      43.878  32.681  30.300  1.00  0.00     0.049 A 
ATOM     70  H   UNL A   1      44.877  33.558  31.940  1.00  0.00     0.167 HD
ATOM     71  C   UNL A   1      44.254  30.600  31.617  1.00  0.00     0.074 A 
ATOM     72  C   UNL A   1      44.335  31.092  32.989  1.00  0.00     0.031 C 
ATOM     73  C   UNL A   1      44.113  31.251  30.422  1.00  0.00     0.034 A 
BRANCH  60  74
ATOM     74  C   UNL A   1      43.310  35.644  33.573  1.00  0.00     0.023 A 
ATOM     75  C   UNL A   1      43.587  34.787  34.651  1.00  0.00     0.031 A 
ATOM     76  C   UNL A   1      43.528  37.022  33.813  1.00  0.00     0.131 A 
ATOM     77  C   UNL A   1      43.940  35.303  35.907  1.00  0.00     0.055 A 
ATOM     78  C   UNL A   1      43.957  37.524  35.043  1.00  0.00     0.041 A 
ATOM     79  F   UNL A   1      43.253  37.977  32.918  1.00  0.00    -0.206 F 
ATOM     80  C   UNL A   1      44.130  36.666  36.112  1.00  0.00     0.022 A 
BRANCH  77  81
ATOM     81  S   UNL A   1      43.952  34.169  37.315  1.00  0.00     0.124 S 
ATOM     82  O   UNL A   1      43.383  32.963  36.723  1.00  0.00    -0.237 OA
ATOM     83  O   UNL A   1      45.372  34.120  37.645  1.00  0.00    -0.237 OA
ATOM     84  O   UNL A   1      43.105  34.842  38.296  1.00  0.00    -0.744 OA
ENDBRANCH  77  81
ENDBRANCH  60  74
BRANCH  61  85
ATOM     85  C   UNL A   1      42.494  27.205  34.472  1.00  0.00     0.023 A 
ATOM     86  C   UNL A   1      43.265  26.029  34.405  1.00  0.00     0.031 A 
ATOM     87  C   UNL A   1      41.916  27.515  35.727  1.00  0.00     0.131 A 
ATOM     88  C   UNL A   1      43.414  25.215  35.552  1.00  0.00     0.055 A 
ATOM     89  C   UNL A   1      42.049  26.698  36.849  1.00  0.00     0.041 A 
ATOM     90  F   UNL A   1      41.264  28.672  35.930  1.00  0.00    -0.206 F 
ATOM     91  C   UNL A   1      42.806  25.543  36.767  1.00  0.00     0.022 A 
BRANCH  88  92
ATOM     92  S   UNL A   1      44.491  23.749  35.498  1.00  0.00     0.124 S 
ATOM     93  O   UNL A   1      45.531  24.160  34.563  1.00  0.00    -0.237 OA
ATOM     94  O   UNL A   1      44.890  23.607  36.893  1.00  0.00    -0.237 OA
ATOM     95  O   UNL A   1      43.604  22.693  35.007  1.00  0.00    -0.744 OA
ENDBRANCH  88  92
ENDBRANCH  61  85
BRANCH  73  96
ATOM     96  C   UNL A   1      43.948  30.421  29.163  1.00  0.00     0.023 A 
ATOM     97  C   UNL A   1      45.017  29.864  28.426  1.00  0.00     0.031 A 
ATOM     98  C   UNL A   1      42.641  30.074  28.776  1.00  0.00     0.131 A 
ATOM     99  C   UNL A   1      44.755  29.008  27.338  1.00  0.00     0.055 A 
ATOM    100  C   UNL A   1      42.385  29.211  27.711  1.00  0.00     0.041 A 
ATOM    101  F   UNL A   1      41.581  30.544  29.456  1.00  0.00    -0.206 F 
ATOM    102  C   UNL A   1      43.443  28.679  26.983  1.00  0.00     0.022 A 
BRANCH  99 103
ATOM    103  S   UNL A   1      46.122  28.310  26.358  1.00  0.00     0.124 S 
ATOM    104  O   UNL A   1      47.259  29.156  26.704  1.00  0.00    -0.237 OA
ATOM    105  O   UNL A   1      46.181  26.931  26.836  1.00  0.00    -0.237 OA
ATOM    106  O   UNL A   1      45.658  28.452  24.976  1.00  0.00    -0.744 OA
ENDBRANCH  99 103
ENDBRANCH  73  96
ENDBRANCH  47  48
ENDBRANCH  40  42
ENDBRANCH  39  40
ENDBRANCH  38  39
ENDBRANCH  37  38
ENDBRANCH  36  37
ENDBRANCH  35  36
ENDBRANCH   1  35
TORSDOF 25
ENDMDL
MODEL 2
REMARK VINA RESULT:      -8.9      2.529      7.250
REMARK SMILES Cc1cnn(C2(C(=O)OCCOCCOCCOCCOC(=O)c3ccc(-c4c5nc(c(-c6cc(S(=O)(=O)[O-])ccc6F)c6ccc([nH]6)c(-c6cc(S(=O)(=O)[O-])ccc6F)c6nc(c(-c7cc(S(=O)(=O)[O-])ccc7F)c7ccc4[nH]7)C=C6)C=C5)cc3)CCN(C(=O)c3cc4ccccc4[nH]3)CC2)c1
REMARK SMILES IDX 16 1 15 2 14 3 13 4 12 5 11 6 10 7 9 8 7 9 8 10 6 11 87 12
REMARK SMILES IDX 102 13 88 14 101 15 89 16 90 17 91 18 5 19 1 20 2 21 3 22
REMARK SMILES IDX 103 23 4 24 92 25 93 26 100 27 94 28 99 29 95 31 98 32 96 33
REMARK SMILES IDX 97 34 17 35 18 36 19 37 20 38 21 39 22 40 23 41 24 42 25 43
REMARK SMILES IDX 86 44 26 45 85 46 27 47 28 48 29 49 79 50 30 51 84 52 78 53
REMARK SMILES IDX 80 54 31 55 83 56 77 57 76 58 32 60 64 61 44 62 63 63 45 64
REMARK SMILES IDX 48 65 62 66 81 67 46 68 47 69 61 71 82 72 49 73 33 74 34 75
REMARK SMILES IDX 42 76 35 77 41 78 43 79 40 80 36 81 37 82 38 83 39 84 65 85
REMARK SMILES IDX 66 86 74 87 67 88 73 89 75 90 72 91 68 92 69 93 70 94 71 95
REMARK SMILES IDX 50 96 51 97 59 98 52 99 58 100 60 101 57 102 53 103 54 104
REMARK SMILES IDX 55 105 56 106
REMARK H PARENT 100 30 80 59 48 70
REMARK Flexibility Score: inf
ROOT
ATOM      1  C   UNL A   1      34.679  32.381  29.020  1.00  0.00     0.188 C 
ENDROOT
BRANCH   1   2
ATOM      2  O   UNL A   1      35.290  31.700  27.926  1.00  0.00    -0.377 OA
BRANCH   2   3
ATOM      3  C   UNL A   1      34.431  30.874  27.161  1.00  0.00     0.188 C 
BRANCH   3   4
ATOM      4  C   UNL A   1      32.930  30.998  27.469  1.00  0.00     0.188 C 
BRANCH   4   5
ATOM      5  O   UNL A   1      31.988  30.231  26.729  1.00  0.00    -0.376 OA
BRANCH   5   6
ATOM      6  C   UNL A   1      32.461  29.299  25.765  1.00  0.00     0.202 C 
BRANCH   6   7
ATOM      7  C   UNL A   1      32.167  27.802  25.949  1.00  0.00     0.261 C 
BRANCH   7   8
ATOM      8  O   UNL A   1      32.968  26.902  25.152  1.00  0.00    -0.461 OA
BRANCH   8   9
ATOM      9  C   UNL A   1      32.305  25.909  24.499  1.00  0.00     0.334 C 
ATOM     10  O   UNL A   1      31.263  26.108  23.873  1.00  0.00    -0.249 OA
BRANCH   9  11
ATOM     11  C   UNL A   1      32.879  24.477  24.731  1.00  0.00     0.163 C 
ATOM     12  C   UNL A   1      33.422  23.746  23.475  1.00  0.00     0.064 C 
ATOM     13  C   UNL A   1      34.053  24.813  25.682  1.00  0.00     0.064 C 
ATOM     14  C   UNL A   1      34.424  22.638  23.778  1.00  0.00     0.123 C 
ATOM     15  C   UNL A   1      35.063  23.713  25.910  1.00  0.00     0.123 C 
ATOM     16  N   UNL A   1      35.478  23.089  24.664  1.00  0.00    -0.337 N 
ATOM     17  C   UNL A   1      36.809  22.858  24.298  1.00  0.00     0.270 C 
ATOM     18  O   UNL A   1      37.141  22.559  23.168  1.00  0.00    -0.267 OA
BRANCH  11  19
ATOM     19  N   UNL A   1      31.831  23.659  25.379  1.00  0.00    -0.255 N 
ATOM     20  C   UNL A   1      29.108  22.770  27.658  1.00  0.00     0.048 C 
ATOM     21  C   UNL A   1      30.178  22.904  26.647  1.00  0.00    -0.013 A 
ATOM     22  C   UNL A   1      30.525  21.998  25.630  1.00  0.00     0.138 A 
ATOM     23  C   UNL A   1      31.085  23.933  26.496  1.00  0.00     0.113 A 
ATOM     24  N   UNL A   1      31.571  22.415  24.920  1.00  0.00    -0.180 NA
ENDBRANCH  11  19
BRANCH  17  25
ATOM     25  C   UNL A   1      37.784  23.051  25.346  1.00  0.00     0.105 A 
ATOM     26  C   UNL A   1      38.125  24.190  26.050  1.00  0.00     0.042 A 
ATOM     27  N   UNL A   1      38.571  22.032  25.821  1.00  0.00    -0.351 N 
ATOM     28  C   UNL A   1      39.264  23.890  26.838  1.00  0.00     0.000 A 
ATOM     29  C   UNL A   1      39.541  22.534  26.656  1.00  0.00     0.046 A 
ATOM     30  H   UNL A   1      38.458  21.080  25.596  1.00  0.00     0.167 HD
ATOM     31  C   UNL A   1      40.102  24.653  27.670  1.00  0.00     0.010 A 
ATOM     32  C   UNL A   1      40.629  21.900  27.261  1.00  0.00     0.026 A 
ATOM     33  C   UNL A   1      41.196  24.033  28.283  1.00  0.00     0.001 A 
ATOM     34  C   UNL A   1      41.456  22.679  28.076  1.00  0.00     0.002 A 
ENDBRANCH  17  25
ENDBRANCH   9  11
ENDBRANCH   8   9
ENDBRANCH   7   8
ENDBRANCH   6   7
ENDBRANCH   5   6
ENDBRANCH   4   5
ENDBRANCH   3   4
ENDBRANCH   2   3
ENDBRANCH   1   2
BRANCH   1  35
ATOM     35  C   UNL A   1      34.130  33.804  28.771  1.00  0.00     0.188 C 
BRANCH  35  36
ATOM     36  O   UNL A   1      33.183  34.265  29.735  1.00  0.00    -0.376 OA
BRANCH  36  37
ATOM     37  C   UNL A   1      33.476  35.404  30.535  1.00  0.00     0.202 C 
BRANCH  37  38
ATOM     38  C   UNL A   1      33.914  35.131  31.976  1.00  0.00     0.261 C 
BRANCH  38  39
ATOM     39  O   UNL A   1      35.099  34.362  32.097  1.00  0.00    -0.460 OA
BRANCH  39  40
ATOM     40  C   UNL A   1      35.406  33.936  33.338  1.00  0.00     0.338 C 
ATOM     41  O   UNL A   1      35.077  34.441  34.397  1.00  0.00    -0.246 OA
BRANCH  40  42
ATOM     42  C   UNL A   1      36.289  32.776  33.231  1.00  0.00     0.060 A 
ATOM     43  C   UNL A   1      37.097  32.558  34.345  1.00  0.00     0.016 A 
ATOM     44  C   UNL A   1      36.563  32.227  31.967  1.00  0.00     0.016 A 
ATOM     45  C   UNL A   1      38.361  32.092  34.112  1.00  0.00     0.010 A 
ATOM     46  C   UNL A   1      37.830  31.763  31.736  1.00  0.00     0.010 A 
ATOM     47  C   UNL A   1      38.734  31.826  32.791  1.00  0.00    -0.014 A 
BRANCH  47  48
ATOM     48  C   UNL A   1      40.138  31.638  32.550  1.00  0.00     0.031 A 
ATOM     49  C   UNL A   1      40.600  30.289  32.888  1.00  0.00     0.074 A 
ATOM     50  C   UNL A   1      40.920  32.610  32.052  1.00  0.00     0.049 A 
ATOM     51  N   UNL A   1      41.331  29.941  33.891  1.00  0.00    -0.248 NA
ATOM     52  C   UNL A   1      40.008  29.173  32.142  1.00  0.00     0.031 C 
ATOM     53  C   UNL A   1      40.512  33.878  31.442  1.00  0.00     0.029 A 
ATOM     54  N   UNL A   1      42.266  32.598  31.893  1.00  0.00    -0.354 N 
ATOM     55  C   UNL A   1      41.488  28.571  33.761  1.00  0.00     0.074 A 
ATOM     56  C   UNL A   1      40.482  28.137  32.831  1.00  0.00     0.031 C 
ATOM     57  C   UNL A   1      41.567  34.395  30.773  1.00  0.00     0.029 A 
ATOM     58  C   UNL A   1      42.735  33.562  31.014  1.00  0.00     0.049 A 
ATOM     59  H   UNL A   1      42.856  31.963  32.357  1.00  0.00     0.167 HD
ATOM     60  C   UNL A   1      42.605  27.955  34.225  1.00  0.00     0.034 A 
ATOM     61  C   UNL A   1      43.966  33.588  30.445  1.00  0.00     0.034 A 
ATOM     62  C   UNL A   1      43.291  28.780  35.198  1.00  0.00     0.049 A 
ATOM     63  C   UNL A   1      44.868  32.777  31.308  1.00  0.00     0.074 A 
ATOM     64  C   UNL A   1      42.922  29.349  36.404  1.00  0.00     0.029 A 
ATOM     65  N   UNL A   1      44.431  29.449  34.808  1.00  0.00    -0.354 N 
ATOM     66  N   UNL A   1      45.187  33.113  32.529  1.00  0.00    -0.248 NA
ATOM     67  C   UNL A   1      45.040  31.362  31.002  1.00  0.00     0.031 C 
ATOM     68  C   UNL A   1      43.566  30.621  36.429  1.00  0.00     0.029 A 
ATOM     69  C   UNL A   1      44.337  30.739  35.271  1.00  0.00     0.049 A 
ATOM     70  H   UNL A   1      45.179  29.071  34.291  1.00  0.00     0.167 HD
ATOM     71  C   UNL A   1      45.178  31.926  33.249  1.00  0.00     0.074 A 
ATOM     72  C   UNL A   1      45.196  30.875  32.237  1.00  0.00     0.031 C 
ATOM     73  C   UNL A   1      44.868  31.904  34.581  1.00  0.00     0.034 A 
BRANCH  60  74
ATOM     74  C   UNL A   1      43.261  26.788  33.525  1.00  0.00     0.023 A 
ATOM     75  C   UNL A   1      43.565  25.669  34.317  1.00  0.00     0.031 A 
ATOM     76  C   UNL A   1      43.849  26.807  32.237  1.00  0.00     0.131 A 
ATOM     77  C   UNL A   1      44.488  24.707  33.878  1.00  0.00     0.055 A 
ATOM     78  C   UNL A   1      44.705  25.807  31.775  1.00  0.00     0.041 A 
ATOM     79  F   UNL A   1      43.715  27.828  31.383  1.00  0.00    -0.206 F 
ATOM     80  C   UNL A   1      45.060  24.766  32.611  1.00  0.00     0.022 A 
BRANCH  77  81
ATOM     81  S   UNL A   1      45.075  23.488  35.077  1.00  0.00     0.124 S 
ATOM     82  O   UNL A   1      45.464  24.342  36.195  1.00  0.00    -0.237 OA
ATOM     83  O   UNL A   1      43.885  22.668  35.273  1.00  0.00    -0.237 OA
ATOM     84  O   UNL A   1      46.178  22.834  34.379  1.00  0.00    -0.744 OA
ENDBRANCH  77  81
ENDBRANCH  60  74
BRANCH  61  85
ATOM     85  C   UNL A   1      44.252  33.968  29.037  1.00  0.00     0.023 A 
ATOM     86  C   UNL A   1      44.998  35.111  28.694  1.00  0.00     0.031 A 
ATOM     87  C   UNL A   1      43.951  33.069  27.986  1.00  0.00     0.131 A 
ATOM     88  C   UNL A   1      45.393  35.324  27.353  1.00  0.00     0.055 A 
ATOM     89  C   UNL A   1      44.324  33.293  26.661  1.00  0.00     0.041 A 
ATOM     90  F   UNL A   1      43.350  31.891  28.223  1.00  0.00    -0.206 F 
ATOM     91  C   UNL A   1      45.053  34.424  26.339  1.00  0.00     0.022 A 
BRANCH  88  92
ATOM     92  S   UNL A   1      46.442  36.747  26.923  1.00  0.00     0.124 S 
ATOM     93  O   UNL A   1      45.467  37.817  26.759  1.00  0.00    -0.237 OA
ATOM     94  O   UNL A   1      47.322  36.842  28.082  1.00  0.00    -0.237 OA
ATOM     95  O   UNL A   1      47.105  36.322  25.689  1.00  0.00    -0.744 OA
ENDBRANCH  88  92
ENDBRANCH  61  85
BRANCH  73  96
ATOM     96  C   UNL A   1      44.843  33.218  35.339  1.00  0.00     0.023 A 
ATOM     97  C   UNL A   1      43.779  34.147  35.295  1.00  0.00     0.031 A 
ATOM     98  C   UNL A   1      45.889  33.470  36.245  1.00  0.00     0.131 A 
ATOM     99  C   UNL A   1      43.798  35.283  36.129  1.00  0.00     0.055 A 
ATOM    100  C   UNL A   1      45.895  34.585  37.083  1.00  0.00     0.041 A 
ATOM    101  F   UNL A   1      46.914  32.609  36.359  1.00  0.00    -0.206 F 
ATOM    102  C   UNL A   1      44.850  35.500  37.024  1.00  0.00     0.022 A 
BRANCH  99 103
ATOM    103  S   UNL A   1      42.450  36.505  36.059  1.00  0.00     0.124 S 
ATOM    104  O   UNL A   1      41.479  35.895  35.158  1.00  0.00    -0.237 OA
ATOM    105  O   UNL A   1      42.046  36.610  37.459  1.00  0.00    -0.237 OA
ATOM    106  O   UNL A   1      43.103  37.704  35.527  1.00  0.00    -0.744 OA
ENDBRANCH  99 103
ENDBRANCH  73  96
ENDBRANCH  47  48
ENDBRANCH  40  42
ENDBRANCH  39  40
ENDBRANCH  38  39
ENDBRANCH  37  38
ENDBRANCH  36  37
ENDBRANCH  35  36
ENDBRANCH   1  35
TORSDOF 25
ENDMDL
MODEL 3
REMARK VINA RESULT:      -8.8      4.441      8.659
REMARK SMILES Cc1cnn(C2(C(=O)OCCOCCOCCOCCOC(=O)c3ccc(-c4c5nc(c(-c6cc(S(=O)(=O)[O-])ccc6F)c6ccc([nH]6)c(-c6cc(S(=O)(=O)[O-])ccc6F)c6nc(c(-c7cc(S(=O)(=O)[O-])ccc7F)c7ccc4[nH]7)C=C6)C=C5)cc3)CCN(C(=O)c3cc4ccccc4[nH]3)CC2)c1
REMARK SMILES IDX 16 1 15 2 14 3 13 4 12 5 11 6 10 7 9 8 7 9 8 10 6 11 87 12
REMARK SMILES IDX 102 13 88 14 101 15 89 16 90 17 91 18 5 19 1 20 2 21 3 22
REMARK SMILES IDX 103 23 4 24 92 25 93 26 100 27 94 28 99 29 95 31 98 32 96 33
REMARK SMILES IDX 97 34 17 35 18 36 19 37 20 38 21 39 22 40 23 41 24 42 25 43
REMARK SMILES IDX 86 44 26 45 85 46 27 47 28 48 29 49 79 50 30 51 84 52 78 53
REMARK SMILES IDX 80 54 31 55 83 56 77 57 76 58 32 60 64 61 44 62 63 63 45 64
REMARK SMILES IDX 48 65 62 66 81 67 46 68 47 69 61 71 82 72 49 73 33 74 34 75
REMARK SMILES IDX 42 76 35 77 41 78 43 79 40 80 36 81 37 82 38 83 39 84 65 85
REMARK SMILES IDX 66 86 74 87 67 88 73 89 75 90 72 91 68 92 69 93 70 94 71 95
REMARK SMILES IDX 50 96 51 97 59 98 52 99 58 100 60 101 57 102 53 103 54 104
REMARK SMILES IDX 55 105 56 106
REMARK H PARENT 100 30 80 59 48 70
REMARK Flexibility Score: inf
ROOT
ATOM      1  C   UNL A   1      36.114  32.283  29.207  1.00  0.00     0.188 C 
ENDROOT
BRANCH   1   2
ATOM      2  O   UNL A   1      35.699  30.922  29.111  1.00  0.00    -0.377 OA
BRANCH   2   3
ATOM      3  C   UNL A   1      36.732  29.957  29.205  1.00  0.00     0.188 C 
BRANCH   3   4
ATOM      4  C   UNL A   1      37.839  30.055  28.142  1.00  0.00     0.188 C 
BRANCH   4   5
ATOM      5  O   UNL A   1      39.204  29.963  28.531  1.00  0.00    -0.376 OA
BRANCH   5   6
ATOM      6  C   UNL A   1      39.923  28.767  28.257  1.00  0.00     0.202 C 
BRANCH   6   7
ATOM      7  C   UNL A   1      40.531  28.550  26.862  1.00  0.00     0.261 C 
BRANCH   7   8
ATOM      8  O   UNL A   1      41.207  27.290  26.661  1.00  0.00    -0.461 OA
BRANCH   8   9
ATOM      9  C   UNL A   1      42.458  27.346  26.126  1.00  0.00     0.334 C 
ATOM     10  O   UNL A   1      42.724  28.020  25.131  1.00  0.00    -0.249 OA
BRANCH   9  11
ATOM     11  C   UNL A   1      43.490  26.373  26.776  1.00  0.00     0.163 C 
ATOM     12  C   UNL A   1      44.900  26.959  27.056  1.00  0.00     0.064 C 
ATOM     13  C   UNL A   1      42.774  26.084  28.117  1.00  0.00     0.064 C 
ATOM     14  C   UNL A   1      45.686  26.216  28.130  1.00  0.00     0.123 C 
ATOM     15  C   UNL A   1      43.602  25.403  29.183  1.00  0.00     0.123 C 
ATOM     16  N   UNL A   1      44.907  26.025  29.337  1.00  0.00    -0.337 N 
ATOM     17  C   UNL A   1      45.467  26.400  30.563  1.00  0.00     0.270 C 
ATOM     18  O   UNL A   1      46.438  27.124  30.653  1.00  0.00    -0.267 OA
BRANCH  11  19
ATOM     19  N   UNL A   1      43.602  25.175  25.914  1.00  0.00    -0.255 N 
ATOM     20  C   UNL A   1      45.116  22.679  23.707  1.00  0.00     0.048 C 
ATOM     21  C   UNL A   1      44.303  23.552  24.580  1.00  0.00    -0.013 A 
ATOM     22  C   UNL A   1      42.996  23.329  25.048  1.00  0.00     0.138 A 
ATOM     23  C   UNL A   1      44.636  24.783  25.104  1.00  0.00     0.113 A 
ATOM     24  N   UNL A   1      42.545  24.343  25.784  1.00  0.00    -0.180 NA
ENDBRANCH  11  19
BRANCH  17  25
ATOM     25  C   UNL A   1      44.779  25.910  31.735  1.00  0.00     0.105 A 
ATOM     26  C   UNL A   1      43.830  26.519  32.534  1.00  0.00     0.042 A 
ATOM     27  N   UNL A   1      45.001  24.660  32.255  1.00  0.00    -0.351 N 
ATOM     28  C   UNL A   1      43.610  25.688  33.660  1.00  0.00     0.000 A 
ATOM     29  C   UNL A   1      44.377  24.538  33.475  1.00  0.00     0.046 A 
ATOM     30  H   UNL A   1      45.532  23.954  31.820  1.00  0.00     0.167 HD
ATOM     31  C   UNL A   1      42.847  25.819  34.834  1.00  0.00     0.010 A 
ATOM     32  C   UNL A   1      44.431  23.508  34.417  1.00  0.00     0.026 A 
ATOM     33  C   UNL A   1      42.889  24.797  35.788  1.00  0.00     0.001 A 
ATOM     34  C   UNL A   1      43.673  23.662  35.582  1.00  0.00     0.002 A 
ENDBRANCH  17  25
ENDBRANCH   9  11
ENDBRANCH   8   9
ENDBRANCH   7   8
ENDBRANCH   6   7
ENDBRANCH   5   6
ENDBRANCH   4   5
ENDBRANCH   3   4
ENDBRANCH   2   3
ENDBRANCH   1   2
BRANCH   1  35
ATOM     35  C   UNL A   1      35.198  33.266  29.969  1.00  0.00     0.188 C 
BRANCH  35  36
ATOM     36  O   UNL A   1      34.360  32.669  30.960  1.00  0.00    -0.376 OA
BRANCH  36  37
ATOM     37  C   UNL A   1      34.578  32.945  32.338  1.00  0.00     0.202 C 
BRANCH  37  38
ATOM     38  C   UNL A   1      35.164  34.318  32.675  1.00  0.00     0.261 C 
BRANCH  38  39
ATOM     39  O   UNL A   1      36.328  34.282  33.483  1.00  0.00    -0.460 OA
BRANCH  39  40
ATOM     40  C   UNL A   1      36.147  33.918  34.767  1.00  0.00     0.338 C 
ATOM     41  O   UNL A   1      35.291  34.316  35.537  1.00  0.00    -0.246 OA
BRANCH  40  42
ATOM     42  C   UNL A   1      37.214  32.994  35.148  1.00  0.00     0.060 A 
ATOM     43  C   UNL A   1      38.251  33.573  35.875  1.00  0.00     0.016 A 
ATOM     44  C   UNL A   1      37.343  31.769  34.472  1.00  0.00     0.016 A 
ATOM     45  C   UNL A   1      39.514  33.109  35.632  1.00  0.00     0.010 A 
ATOM     46  C   UNL A   1      38.609  31.308  34.227  1.00  0.00     0.010 A 
ATOM     47  C   UNL A   1      39.668  32.067  34.711  1.00  0.00    -0.014 A 
BRANCH  47  48
ATOM     48  C   UNL A   1      41.007  31.815  34.251  1.00  0.00     0.031 A 
ATOM     49  C   UNL A   1      41.712  30.820  35.063  1.00  0.00     0.074 A 
ATOM     50  C   UNL A   1      41.526  32.432  33.177  1.00  0.00     0.049 A 
ATOM     51  N   UNL A   1      42.673  31.029  35.895  1.00  0.00    -0.248 NA
ATOM     52  C   UNL A   1      41.143  29.468  35.107  1.00  0.00     0.031 C 
ATOM     53  C   UNL A   1      40.829  33.223  32.161  1.00  0.00     0.029 A 
ATOM     54  N   UNL A   1      42.799  32.372  32.716  1.00  0.00    -0.354 N 
ATOM     55  C   UNL A   1      42.991  29.778  36.396  1.00  0.00     0.074 A 
ATOM     56  C   UNL A   1      41.888  28.919  36.064  1.00  0.00     0.031 C 
ATOM     57  C   UNL A   1      41.642  33.366  31.090  1.00  0.00     0.029 A 
ATOM     58  C   UNL A   1      42.940  32.786  31.401  1.00  0.00     0.049 A 
ATOM     59  H   UNL A   1      43.555  32.063  33.265  1.00  0.00     0.167 HD
ATOM     60  C   UNL A   1      44.255  29.497  36.805  1.00  0.00     0.034 A 
ATOM     61  C   UNL A   1      44.013  32.555  30.604  1.00  0.00     0.034 A 
ATOM     62  C   UNL A   1      45.002  30.709  37.068  1.00  0.00     0.049 A 
ATOM     63  C   UNL A   1      45.176  32.296  31.496  1.00  0.00     0.074 A 
ATOM     64  C   UNL A   1      44.810  31.792  37.908  1.00  0.00     0.029 A 
ATOM     65  N   UNL A   1      45.933  31.124  36.140  1.00  0.00    -0.354 N 
ATOM     66  N   UNL A   1      45.687  33.199  32.290  1.00  0.00    -0.248 NA
ATOM     67  C   UNL A   1      45.479  30.920  31.866  1.00  0.00     0.031 C 
ATOM     68  C   UNL A   1      45.260  32.924  37.168  1.00  0.00     0.029 A 
ATOM     69  C   UNL A   1      45.754  32.472  35.943  1.00  0.00     0.049 A 
ATOM     70  H   UNL A   1      46.606  30.556  35.698  1.00  0.00     0.167 HD
ATOM     71  C   UNL A   1      45.992  32.523  33.464  1.00  0.00     0.074 A 
ATOM     72  C   UNL A   1      45.950  31.110  33.102  1.00  0.00     0.031 C 
ATOM     73  C   UNL A   1      45.966  33.155  34.677  1.00  0.00     0.034 A 
BRANCH  60  74
ATOM     74  C   UNL A   1      44.912  28.151  36.606  1.00  0.00     0.023 A 
ATOM     75  C   UNL A   1      44.852  27.254  37.685  1.00  0.00     0.031 A 
ATOM     76  C   UNL A   1      45.810  27.804  35.568  1.00  0.00     0.131 A 
ATOM     77  C   UNL A   1      45.725  26.157  37.757  1.00  0.00     0.055 A 
ATOM     78  C   UNL A   1      46.620  26.668  35.608  1.00  0.00     0.041 A 
ATOM     79  F   UNL A   1      46.036  28.579  34.502  1.00  0.00    -0.206 F 
ATOM     80  C   UNL A   1      46.608  25.855  36.726  1.00  0.00     0.022 A 
BRANCH  77  81
ATOM     81  S   UNL A   1      45.817  25.251  39.318  1.00  0.00     0.124 S 
ATOM     82  O   UNL A   1      47.247  24.978  39.413  1.00  0.00    -0.237 OA
ATOM     83  O   UNL A   1      45.281  26.227  40.261  1.00  0.00    -0.237 OA
ATOM     84  O   UNL A   1      44.973  24.083  39.080  1.00  0.00    -0.744 OA
ENDBRANCH  77  81
ENDBRANCH  60  74
BRANCH  61  85
ATOM     85  C   UNL A   1      43.950  32.197  29.163  1.00  0.00     0.023 A 
ATOM     86  C   UNL A   1      44.261  33.109  28.138  1.00  0.00     0.031 A 
ATOM     87  C   UNL A   1      43.768  30.846  28.777  1.00  0.00     0.131 A 
ATOM     88  C   UNL A   1      44.360  32.663  26.799  1.00  0.00     0.055 A 
ATOM     89  C   UNL A   1      43.846  30.416  27.453  1.00  0.00     0.041 A 
ATOM     90  F   UNL A   1      43.588  29.877  29.689  1.00  0.00    -0.206 F 
ATOM     91  C   UNL A   1      44.149  31.325  26.456  1.00  0.00     0.022 A 
BRANCH  88  92
ATOM     92  S   UNL A   1      44.861  33.819  25.486  1.00  0.00     0.124 S 
ATOM     93  O   UNL A   1      44.231  33.243  24.305  1.00  0.00    -0.237 OA
ATOM     94  O   UNL A   1      44.315  35.084  25.963  1.00  0.00    -0.237 OA
ATOM     95  O   UNL A   1      46.323  33.742  25.503  1.00  0.00    -0.744 OA
ENDBRANCH  88  92
ENDBRANCH  61  85
BRANCH  73  96
ATOM     96  C   UNL A   1      45.911  34.671  34.701  1.00  0.00     0.023 A 
ATOM     97  C   UNL A   1      44.764  35.436  34.390  1.00  0.00     0.031 A 
ATOM     98  C   UNL A   1      47.038  35.358  35.188  1.00  0.00     0.131 A 
ATOM     99  C   UNL A   1      44.780  36.834  34.558  1.00  0.00     0.055 A 
ATOM    100  C   UNL A   1      47.044  36.740  35.372  1.00  0.00     0.041 A 
ATOM    101  F   UNL A   1      48.149  34.686  35.533  1.00  0.00    -0.206 F 
ATOM    102  C   UNL A   1      45.915  37.485  35.051  1.00  0.00     0.022 A 
BRANCH  99 103
ATOM    103  S   UNL A   1      43.321  37.836  34.130  1.00  0.00     0.124 S 
ATOM    104  O   UNL A   1      43.567  39.107  34.801  1.00  0.00    -0.237 OA
ATOM    105  O   UNL A   1      43.372  37.860  32.670  1.00  0.00    -0.237 OA
ATOM    106  O   UNL A   1      42.204  37.064  34.683  1.00  0.00    -0.744 OA
ENDBRANCH  99 103
ENDBRANCH  73  96
ENDBRANCH  47  48
ENDBRANCH  40  42
ENDBRANCH  39  40
ENDBRANCH  38  39
ENDBRANCH  37  38
ENDBRANCH  36  37
ENDBRANCH  35  36
ENDBRANCH   1  35
TORSDOF 25
ENDMDL
