MODEL 1
REMARK VINA RESULT:      -8.1      0.000      0.000
REMARK SMILES CCOc1oc(C[C@H]2CCCCO2)nc1C(=O)OCCOCCOCCOCCOC(=O)c1ccc(-c2c3nc(c(-c4cc(S(=O)(=O)[O-])ccc4F)c4ccc([nH]4)c(-c4cc(S(=O)(=O)[O-])ccc4F)c4nc(c(-c5cc(S(=O)(=O)[O-])ccc5F)c5ccc2[nH]5)C=C4)C=C3)cc1
REMARK SMILES IDX 25 1 24 2 23 3 22 4 21 5 20 6 19 7 18 8 16 9 17 10 15 11
REMARK SMILES IDX 4 12 5 13 6 14 14 15 3 16 2 17 1 18 7 19 8 20 9 21 13 22
REMARK SMILES IDX 10 23 12 24 11 25 26 26 27 27 28 28 29 29 30 30 31 31 32 32
REMARK SMILES IDX 33 33 34 34 95 35 35 36 94 37 36 38 37 39 38 40 88 41 39 42
REMARK SMILES IDX 93 43 87 44 89 45 40 46 92 47 86 48 85 49 41 51 73 52 53 53
REMARK SMILES IDX 72 54 54 55 57 56 71 57 90 58 55 59 56 60 70 62 91 63 58 64
REMARK SMILES IDX 42 65 43 66 51 67 44 68 50 69 52 70 49 71 45 72 46 73 47 74
REMARK SMILES IDX 48 75 74 76 75 77 83 78 76 79 82 80 84 81 81 82 77 83 78 84
REMARK SMILES IDX 79 85 80 86 59 87 60 88 68 89 61 90 67 91 69 92 66 93 62 94
REMARK SMILES IDX 63 95 64 96 65 97
REMARK H PARENT 89 50 57 61
REMARK Flexibility Score: inf
ROOT
ATOM      1  C   UNL A   1      43.794  21.971  24.944  1.00  0.00     0.188 C 
ENDROOT
BRANCH   1   2
ATOM      2  O   UNL A   1      43.099  21.711  26.163  1.00  0.00    -0.377 OA
BRANCH   2   3
ATOM      3  C   UNL A   1      41.874  22.426  26.294  1.00  0.00     0.188 C 
BRANCH   3   4
ATOM      4  C   UNL A   1      40.762  21.638  26.995  1.00  0.00     0.188 C 
BRANCH   4   5
ATOM      5  O   UNL A   1      39.711  21.299  26.089  1.00  0.00    -0.376 OA
BRANCH   5   6
ATOM      6  C   UNL A   1      38.677  22.260  25.905  1.00  0.00     0.202 C 
BRANCH   6   7
ATOM      7  C   UNL A   1      37.522  21.808  24.998  1.00  0.00     0.261 C 
BRANCH   7   8
ATOM      8  O   UNL A   1      36.521  22.814  24.772  1.00  0.00    -0.458 OA
BRANCH   8   9
ATOM      9  C   UNL A   1      36.137  23.045  23.486  1.00  0.00     0.364 C 
ATOM     10  O   UNL A   1      36.872  22.928  22.512  1.00  0.00    -0.244 OA
BRANCH   9  11
ATOM     11  C   UNL A   1      34.700  23.229  23.409  1.00  0.00     0.233 A 
ATOM     12  C   UNL A   1      33.749  22.441  24.018  1.00  0.00     0.320 A 
ATOM     13  O   UNL A   1      32.530  23.021  23.841  1.00  0.00    -0.409 OA
ATOM     14  C   UNL A   1      32.796  24.142  23.102  1.00  0.00     0.202 A 
ATOM     15  N   UNL A   1      34.074  24.336  22.851  1.00  0.00    -0.203 NA
BRANCH  12  16
ATOM     16  O   UNL A   1      33.747  21.325  24.737  1.00  0.00    -0.464 OA
BRANCH  16  17
ATOM     17  C   UNL A   1      32.824  20.335  24.273  1.00  0.00     0.230 C 
ATOM     18  C   UNL A   1      32.869  19.148  25.218  1.00  0.00     0.049 C 
ENDBRANCH  16  17
ENDBRANCH  12  16
BRANCH  14  19
ATOM     19  C   UNL A   1      31.628  24.943  22.648  1.00  0.00     0.129 C 
BRANCH  19  20
ATOM     20  C   UNL A   1      31.807  26.426  23.001  1.00  0.00     0.127 C 
ATOM     21  C   UNL A   1      30.513  27.230  22.823  1.00  0.00     0.033 C 
ATOM     22  O   UNL A   1      32.223  26.531  24.374  1.00  0.00    -0.378 OA
ATOM     23  C   UNL A   1      30.749  28.691  23.192  1.00  0.00     0.005 C 
ATOM     24  C   UNL A   1      32.568  27.874  24.722  1.00  0.00     0.160 C 
ATOM     25  C   UNL A   1      31.365  28.799  24.581  1.00  0.00     0.029 C 
ENDBRANCH  19  20
ENDBRANCH  14  19
ENDBRANCH   9  11
ENDBRANCH   8   9
ENDBRANCH   7   8
ENDBRANCH   6   7
ENDBRANCH   5   6
ENDBRANCH   4   5
ENDBRANCH   3   4
ENDBRANCH   2   3
ENDBRANCH   1   2
BRANCH   1  26
ATOM     26  C   UNL A   1      45.322  21.809  25.078  1.00  0.00     0.188 C 
BRANCH  26  27
ATOM     27  O   UNL A   1      45.836  22.249  26.338  1.00  0.00    -0.376 OA
BRANCH  27  28
ATOM     28  C   UNL A   1      46.087  23.648  26.444  1.00  0.00     0.202 C 
BRANCH  28  29
ATOM     29  C   UNL A   1      46.672  24.303  25.185  1.00  0.00     0.261 C 
BRANCH  29  30
ATOM     30  O   UNL A   1      45.920  25.405  24.654  1.00  0.00    -0.460 OA
BRANCH  30  31
ATOM     31  C   UNL A   1      46.457  26.644  24.737  1.00  0.00     0.338 C 
ATOM     32  O   UNL A   1      47.093  27.226  23.878  1.00  0.00    -0.246 OA
BRANCH  31  33
ATOM     33  C   UNL A   1      45.941  27.258  25.980  1.00  0.00     0.060 A 
ATOM     34  C   UNL A   1      44.554  27.347  26.165  1.00  0.00     0.016 A 
ATOM     35  C   UNL A   1      46.817  27.661  26.993  1.00  0.00     0.016 A 
ATOM     36  C   UNL A   1      44.043  27.866  27.356  1.00  0.00     0.010 A 
ATOM     37  C   UNL A   1      46.306  28.199  28.175  1.00  0.00     0.010 A 
ATOM     38  C   UNL A   1      44.919  28.332  28.348  1.00  0.00    -0.014 A 
BRANCH  38  39
ATOM     39  C   UNL A   1      44.403  29.190  29.442  1.00  0.00     0.031 A 
ATOM     40  C   UNL A   1      44.092  28.521  30.754  1.00  0.00     0.074 A 
ATOM     41  C   UNL A   1      44.198  30.508  29.281  1.00  0.00     0.049 A 
ATOM     42  N   UNL A   1      43.611  29.029  31.856  1.00  0.00    -0.248 NA
ATOM     43  C   UNL A   1      44.358  27.073  30.820  1.00  0.00     0.031 C 
ATOM     44  C   UNL A   1      44.474  31.268  28.064  1.00  0.00     0.029 A 
ATOM     45  N   UNL A   1      43.691  31.439  30.153  1.00  0.00    -0.354 N 
ATOM     46  C   UNL A   1      43.530  27.969  32.752  1.00  0.00     0.074 A 
ATOM     47  C   UNL A   1      43.968  26.784  32.049  1.00  0.00     0.031 C 
ATOM     48  C   UNL A   1      44.119  32.551  28.263  1.00  0.00     0.029 A 
ATOM     49  C   UNL A   1      43.569  32.697  29.610  1.00  0.00     0.049 A 
ATOM     50  H   UNL A   1      43.439  31.228  31.081  1.00  0.00     0.167 HD
ATOM     51  C   UNL A   1      43.135  27.982  34.048  1.00  0.00     0.034 A 
ATOM     52  C   UNL A   1      43.053  33.826  30.139  1.00  0.00     0.034 A 
ATOM     53  C   UNL A   1      42.652  29.158  34.724  1.00  0.00     0.049 A 
ATOM     54  C   UNL A   1      42.525  33.799  31.556  1.00  0.00     0.074 A 
ATOM     55  C   UNL A   1      42.222  29.288  36.033  1.00  0.00     0.029 A 
ATOM     56  N   UNL A   1      42.508  30.406  34.131  1.00  0.00    -0.354 N 
ATOM     57  N   UNL A   1      42.488  32.799  32.408  1.00  0.00    -0.248 NA
ATOM     58  C   UNL A   1      41.976  35.055  32.084  1.00  0.00     0.031 C 
ATOM     59  C   UNL A   1      41.759  30.597  36.211  1.00  0.00     0.029 A 
ATOM     60  C   UNL A   1      41.965  31.303  35.036  1.00  0.00     0.049 A 
ATOM     61  H   UNL A   1      42.755  30.621  33.203  1.00  0.00     0.167 HD
ATOM     62  C   UNL A   1      41.941  33.315  33.580  1.00  0.00     0.074 A 
ATOM     63  C   UNL A   1      41.670  34.716  33.328  1.00  0.00     0.031 C 
ATOM     64  C   UNL A   1      41.692  32.694  34.761  1.00  0.00     0.034 A 
BRANCH  51  65
ATOM     65  C   UNL A   1      43.163  26.663  34.778  1.00  0.00     0.023 A 
ATOM     66  C   UNL A   1      44.370  26.110  35.246  1.00  0.00     0.031 A 
ATOM     67  C   UNL A   1      41.986  25.915  34.942  1.00  0.00     0.131 A 
ATOM     68  C   UNL A   1      44.383  24.814  35.781  1.00  0.00     0.055 A 
ATOM     69  C   UNL A   1      41.995  24.657  35.546  1.00  0.00     0.041 A 
ATOM     70  F   UNL A   1      40.811  26.381  34.489  1.00  0.00    -0.206 F 
ATOM     71  C   UNL A   1      43.200  24.092  35.955  1.00  0.00     0.022 A 
BRANCH  68  72
ATOM     72  S   UNL A   1      45.985  24.025  36.103  1.00  0.00     0.124 S 
ATOM     73  O   UNL A   1      46.108  24.183  37.550  1.00  0.00    -0.237 OA
ATOM     74  O   UNL A   1      45.768  22.664  35.625  1.00  0.00    -0.237 OA
ATOM     75  O   UNL A   1      46.923  24.822  35.314  1.00  0.00    -0.744 OA
ENDBRANCH  68  72
ENDBRANCH  51  65
BRANCH  52  76
ATOM     76  C   UNL A   1      42.966  35.074  29.329  1.00  0.00     0.023 A 
ATOM     77  C   UNL A   1      44.071  35.929  29.187  1.00  0.00     0.031 A 
ATOM     78  C   UNL A   1      41.751  35.464  28.737  1.00  0.00     0.131 A 
ATOM     79  C   UNL A   1      43.929  37.150  28.507  1.00  0.00     0.055 A 
ATOM     80  C   UNL A   1      41.626  36.659  28.026  1.00  0.00     0.041 A 
ATOM     81  F   UNL A   1      40.664  34.684  28.846  1.00  0.00    -0.206 F 
ATOM     82  C   UNL A   1      42.717  37.515  27.917  1.00  0.00     0.022 A 
BRANCH  79  83
ATOM     83  S   UNL A   1      45.338  38.294  28.465  1.00  0.00     0.124 S 
ATOM     84  O   UNL A   1      44.966  39.184  27.372  1.00  0.00    -0.237 OA
ATOM     85  O   UNL A   1      45.299  38.870  29.805  1.00  0.00    -0.237 OA
ATOM     86  O   UNL A   1      46.479  37.420  28.200  1.00  0.00    -0.744 OA
ENDBRANCH  79  83
ENDBRANCH  52  76
BRANCH  64  87
ATOM     87  C   UNL A   1      41.143  33.541  35.883  1.00  0.00     0.023 A 
ATOM     88  C   UNL A   1      41.983  34.285  36.729  1.00  0.00     0.031 A 
ATOM     89  C   UNL A   1      39.755  33.603  36.102  1.00  0.00     0.131 A 
ATOM     90  C   UNL A   1      41.430  35.027  37.785  1.00  0.00     0.055 A 
ATOM     91  C   UNL A   1      39.208  34.384  37.121  1.00  0.00     0.041 A 
ATOM     92  F   UNL A   1      38.909  32.912  35.322  1.00  0.00    -0.206 F 
ATOM     93  C   UNL A   1      40.047  35.092  37.976  1.00  0.00     0.022 A 
BRANCH  90  94
ATOM     94  S   UNL A   1      42.546  35.848  38.955  1.00  0.00     0.124 S 
ATOM     95  O   UNL A   1      42.537  34.923  40.085  1.00  0.00    -0.237 OA
ATOM     96  O   UNL A   1      43.792  35.921  38.200  1.00  0.00    -0.237 OA
ATOM     97  O   UNL A   1      41.897  37.134  39.204  1.00  0.00    -0.744 OA
ENDBRANCH  90  94
ENDBRANCH  64  87
ENDBRANCH  38  39
ENDBRANCH  31  33
ENDBRANCH  30  31
ENDBRANCH  29  30
ENDBRANCH  28  29
ENDBRANCH  27  28
ENDBRANCH  26  27
ENDBRANCH   1  26
TORSDOF 27
ENDMDL
MODEL 2
REMARK VINA RESULT:      -8.1      1.176      3.138
REMARK SMILES CCOc1oc(C[C@H]2CCCCO2)nc1C(=O)OCCOCCOCCOCCOC(=O)c1ccc(-c2c3nc(c(-c4cc(S(=O)(=O)[O-])ccc4F)c4ccc([nH]4)c(-c4cc(S(=O)(=O)[O-])ccc4F)c4nc(c(-c5cc(S(=O)(=O)[O-])ccc5F)c5ccc2[nH]5)C=C4)C=C3)cc1
REMARK SMILES IDX 25 1 24 2 23 3 22 4 21 5 20 6 19 7 18 8 16 9 17 10 15 11
REMARK SMILES IDX 4 12 5 13 6 14 14 15 3 16 2 17 1 18 7 19 8 20 9 21 13 22
REMARK SMILES IDX 10 23 12 24 11 25 26 26 27 27 28 28 29 29 30 30 31 31 32 32
REMARK SMILES IDX 33 33 34 34 95 35 35 36 94 37 36 38 37 39 38 40 88 41 39 42
REMARK SMILES IDX 93 43 87 44 89 45 40 46 92 47 86 48 85 49 41 51 73 52 53 53
REMARK SMILES IDX 72 54 54 55 57 56 71 57 90 58 55 59 56 60 70 62 91 63 58 64
REMARK SMILES IDX 42 65 43 66 51 67 44 68 50 69 52 70 49 71 45 72 46 73 47 74
REMARK SMILES IDX 48 75 74 76 75 77 83 78 76 79 82 80 84 81 81 82 77 83 78 84
REMARK SMILES IDX 79 85 80 86 59 87 60 88 68 89 61 90 67 91 69 92 66 93 62 94
REMARK SMILES IDX 63 95 64 96 65 97
REMARK H PARENT 89 50 57 61
REMARK Flexibility Score: inf
ROOT
ATOM      1  C   UNL A   1      44.087  22.153  24.775  1.00  0.00     0.188 C 
ENDROOT
BRANCH   1   2
ATOM      2  O   UNL A   1      43.816  21.905  26.154  1.00  0.00    -0.377 OA
BRANCH   2   3
ATOM      3  C   UNL A   1      42.632  22.537  26.633  1.00  0.00     0.188 C 
BRANCH   3   4
ATOM      4  C   UNL A   1      41.671  21.593  27.365  1.00  0.00     0.188 C 
BRANCH   4   5
ATOM      5  O   UNL A   1      40.599  21.179  26.516  1.00  0.00    -0.376 OA
BRANCH   5   6
ATOM      6  C   UNL A   1      39.432  21.994  26.500  1.00  0.00     0.202 C 
BRANCH   6   7
ATOM      7  C   UNL A   1      38.313  21.509  25.565  1.00  0.00     0.261 C 
BRANCH   7   8
ATOM      8  O   UNL A   1      37.056  22.181  25.752  1.00  0.00    -0.458 OA
BRANCH   8   9
ATOM      9  C   UNL A   1      36.559  22.894  24.704  1.00  0.00     0.364 C 
ATOM     10  O   UNL A   1      37.202  23.714  24.058  1.00  0.00    -0.244 OA
BRANCH   9  11
ATOM     11  C   UNL A   1      35.251  22.396  24.323  1.00  0.00     0.233 A 
ATOM     12  C   UNL A   1      34.379  23.002  23.446  1.00  0.00     0.320 A 
ATOM     13  O   UNL A   1      33.332  22.160  23.228  1.00  0.00    -0.409 OA
ATOM     14  C   UNL A   1      33.608  21.071  24.011  1.00  0.00     0.202 A 
ATOM     15  N   UNL A   1      34.756  21.141  24.652  1.00  0.00    -0.203 NA
BRANCH  12  16
ATOM     16  O   UNL A   1      34.341  24.142  22.766  1.00  0.00    -0.464 OA
BRANCH  16  17
ATOM     17  C   UNL A   1      33.228  24.979  23.093  1.00  0.00     0.230 C 
ATOM     18  C   UNL A   1      32.902  25.846  21.890  1.00  0.00     0.049 C 
ENDBRANCH  16  17
ENDBRANCH  12  16
BRANCH  14  19
ATOM     19  C   UNL A   1      32.574  20.004  24.072  1.00  0.00     0.129 C 
BRANCH  19  20
ATOM     20  C   UNL A   1      33.210  18.637  24.359  1.00  0.00     0.127 C 
ATOM     21  C   UNL A   1      32.531  17.909  25.526  1.00  0.00     0.033 C 
ATOM     22  O   UNL A   1      33.098  17.815  23.184  1.00  0.00    -0.378 OA
ATOM     23  C   UNL A   1      33.199  16.559  25.762  1.00  0.00     0.005 C 
ATOM     24  C   UNL A   1      33.817  16.587  23.325  1.00  0.00     0.160 C 
ATOM     25  C   UNL A   1      33.250  15.754  24.469  1.00  0.00     0.029 C 
ENDBRANCH  19  20
ENDBRANCH  14  19
ENDBRANCH   9  11
ENDBRANCH   8   9
ENDBRANCH   7   8
ENDBRANCH   6   7
ENDBRANCH   5   6
ENDBRANCH   4   5
ENDBRANCH   3   4
ENDBRANCH   2   3
ENDBRANCH   1   2
BRANCH   1  26
ATOM     26  C   UNL A   1      45.596  22.202  24.460  1.00  0.00     0.188 C 
BRANCH  26  27
ATOM     27  O   UNL A   1      46.409  22.502  25.598  1.00  0.00    -0.376 OA
BRANCH  27  28
ATOM     28  C   UNL A   1      46.481  23.879  25.955  1.00  0.00     0.202 C 
BRANCH  28  29
ATOM     29  C   UNL A   1      47.144  24.790  24.912  1.00  0.00     0.261 C 
BRANCH  29  30
ATOM     30  O   UNL A   1      46.390  25.954  24.539  1.00  0.00    -0.460 OA
BRANCH  30  31
ATOM     31  C   UNL A   1      46.940  27.169  24.759  1.00  0.00     0.338 C 
ATOM     32  O   UNL A   1      47.654  27.799  24.001  1.00  0.00    -0.246 OA
BRANCH  31  33
ATOM     33  C   UNL A   1      46.337  27.700  26.002  1.00  0.00     0.060 A 
ATOM     34  C   UNL A   1      44.949  27.599  26.175  1.00  0.00     0.016 A 
ATOM     35  C   UNL A   1      47.143  28.211  27.025  1.00  0.00     0.016 A 
ATOM     36  C   UNL A   1      44.364  28.036  27.366  1.00  0.00     0.010 A 
ATOM     37  C   UNL A   1      46.555  28.667  28.205  1.00  0.00     0.010 A 
ATOM     38  C   UNL A   1      45.161  28.610  28.367  1.00  0.00    -0.014 A 
BRANCH  38  39
ATOM     39  C   UNL A   1      44.526  29.383  29.462  1.00  0.00     0.031 A 
ATOM     40  C   UNL A   1      44.183  28.637  30.723  1.00  0.00     0.074 A 
ATOM     41  C   UNL A   1      44.243  30.691  29.343  1.00  0.00     0.049 A 
ATOM     42  N   UNL A   1      43.605  29.063  31.814  1.00  0.00    -0.248 NA
ATOM     43  C   UNL A   1      44.540  27.208  30.746  1.00  0.00     0.031 C 
ATOM     44  C   UNL A   1      44.540  31.521  28.178  1.00  0.00     0.029 A 
ATOM     45  N   UNL A   1      43.625  31.548  30.220  1.00  0.00    -0.354 N 
ATOM     46  C   UNL A   1      43.542  27.961  32.658  1.00  0.00     0.074 A 
ATOM     47  C   UNL A   1      44.098  26.838  31.935  1.00  0.00     0.031 C 
ATOM     48  C   UNL A   1      44.090  32.769  28.407  1.00  0.00     0.029 A 
ATOM     49  C   UNL A   1      43.452  32.818  29.723  1.00  0.00     0.049 A 
ATOM     50  H   UNL A   1      43.334  31.279  31.120  1.00  0.00     0.167 HD
ATOM     51  C   UNL A   1      43.071  27.890  33.927  1.00  0.00     0.034 A 
ATOM     52  C   UNL A   1      42.832  33.887  30.265  1.00  0.00     0.034 A 
ATOM     53  C   UNL A   1      42.471  29.001  34.619  1.00  0.00     0.049 A 
ATOM     54  C   UNL A   1      42.225  33.762  31.644  1.00  0.00     0.074 A 
ATOM     55  C   UNL A   1      41.958  29.044  35.903  1.00  0.00     0.029 A 
ATOM     56  N   UNL A   1      42.280  30.262  34.070  1.00  0.00    -0.354 N 
ATOM     57  N   UNL A   1      42.204  32.724  32.450  1.00  0.00    -0.248 NA
ATOM     58  C   UNL A   1      41.563  34.956  32.188  1.00  0.00     0.031 C 
ATOM     59  C   UNL A   1      41.399  30.311  36.106  1.00  0.00     0.029 A 
ATOM     60  C   UNL A   1      41.627  31.081  34.977  1.00  0.00     0.049 A 
ATOM     61  H   UNL A   1      42.567  30.535  33.169  1.00  0.00     0.167 HD
ATOM     62  C   UNL A   1      41.555  33.152  33.606  1.00  0.00     0.074 A 
ATOM     63  C   UNL A   1      41.208  34.542  33.396  1.00  0.00     0.031 C 
ATOM     64  C   UNL A   1      41.279  32.463  34.743  1.00  0.00     0.034 A 
BRANCH  51  65
ATOM     65  C   UNL A   1      43.143  26.544  34.602  1.00  0.00     0.023 A 
ATOM     66  C   UNL A   1      44.378  25.951  34.926  1.00  0.00     0.031 A 
ATOM     67  C   UNL A   1      41.973  25.811  34.856  1.00  0.00     0.131 A 
ATOM     68  C   UNL A   1      44.417  24.635  35.409  1.00  0.00     0.055 A 
ATOM     69  C   UNL A   1      42.014  24.531  35.411  1.00  0.00     0.041 A 
ATOM     70  F   UNL A   1      40.769  26.315  34.542  1.00  0.00    -0.206 F 
ATOM     71  C   UNL A   1      43.242  23.929  35.675  1.00  0.00     0.022 A 
BRANCH  68  72
ATOM     72  S   UNL A   1      46.025  23.807  35.539  1.00  0.00     0.124 S 
ATOM     73  O   UNL A   1      46.008  22.941  34.362  1.00  0.00    -0.237 OA
ATOM     74  O   UNL A   1      46.961  24.925  35.495  1.00  0.00    -0.237 OA
ATOM     75  O   UNL A   1      45.948  23.106  36.819  1.00  0.00    -0.744 OA
ENDBRANCH  68  72
ENDBRANCH  51  65
BRANCH  52  76
ATOM     76  C   UNL A   1      42.711  35.163  29.503  1.00  0.00     0.023 A 
ATOM     77  C   UNL A   1      43.731  36.127  29.530  1.00  0.00     0.031 A 
ATOM     78  C   UNL A   1      41.537  35.464  28.788  1.00  0.00     0.131 A 
ATOM     79  C   UNL A   1      43.544  37.364  28.889  1.00  0.00     0.055 A 
ATOM     80  C   UNL A   1      41.373  36.677  28.117  1.00  0.00     0.041 A 
ATOM     81  F   UNL A   1      40.531  34.578  28.734  1.00  0.00    -0.206 F 
ATOM     82  C   UNL A   1      42.375  37.640  28.175  1.00  0.00     0.022 A 
BRANCH  79  83
ATOM     83  S   UNL A   1      44.823  38.639  29.063  1.00  0.00     0.124 S 
ATOM     84  O   UNL A   1      46.028  37.904  28.696  1.00  0.00    -0.237 OA
ATOM     85  O   UNL A   1      44.373  39.650  28.113  1.00  0.00    -0.237 OA
ATOM     86  O   UNL A   1      44.731  39.025  30.469  1.00  0.00    -0.744 OA
ENDBRANCH  79  83
ENDBRANCH  52  76
BRANCH  64  87
ATOM     87  C   UNL A   1      40.610  33.222  35.863  1.00  0.00     0.023 A 
ATOM     88  C   UNL A   1      41.346  33.989  36.782  1.00  0.00     0.031 A 
ATOM     89  C   UNL A   1      39.211  33.175  36.006  1.00  0.00     0.131 A 
ATOM     90  C   UNL A   1      40.684  34.645  37.832  1.00  0.00     0.055 A 
ATOM     91  C   UNL A   1      38.554  33.872  37.020  1.00  0.00     0.041 A 
ATOM     92  F   UNL A   1      38.461  32.457  35.154  1.00  0.00    -0.206 F 
ATOM     93  C   UNL A   1      39.292  34.603  37.947  1.00  0.00     0.022 A 
BRANCH  90  94
ATOM     94  S   UNL A   1      41.672  35.496  39.092  1.00  0.00     0.124 S 
ATOM     95  O   UNL A   1      42.856  34.645  39.175  1.00  0.00    -0.237 OA
ATOM     96  O   UNL A   1      41.873  36.812  38.496  1.00  0.00    -0.237 OA
ATOM     97  O   UNL A   1      40.812  35.476  40.274  1.00  0.00    -0.744 OA
ENDBRANCH  90  94
ENDBRANCH  64  87
ENDBRANCH  38  39
ENDBRANCH  31  33
ENDBRANCH  30  31
ENDBRANCH  29  30
ENDBRANCH  28  29
ENDBRANCH  27  28
ENDBRANCH  26  27
ENDBRANCH   1  26
TORSDOF 27
ENDMDL
MODEL 3
REMARK VINA RESULT:      -7.5      4.834      8.227
REMARK SMILES CCOc1oc(C[C@H]2CCCCO2)nc1C(=O)OCCOCCOCCOCCOC(=O)c1ccc(-c2c3nc(c(-c4cc(S(=O)(=O)[O-])ccc4F)c4ccc([nH]4)c(-c4cc(S(=O)(=O)[O-])ccc4F)c4nc(c(-c5cc(S(=O)(=O)[O-])ccc5F)c5ccc2[nH]5)C=C4)C=C3)cc1
REMARK SMILES IDX 25 1 24 2 23 3 22 4 21 5 20 6 19 7 18 8 16 9 17 10 15 11
REMARK SMILES IDX 4 12 5 13 6 14 14 15 3 16 2 17 1 18 7 19 8 20 9 21 13 22
REMARK SMILES IDX 10 23 12 24 11 25 26 26 27 27 28 28 29 29 30 30 31 31 32 32
REMARK SMILES IDX 33 33 34 34 95 35 35 36 94 37 36 38 37 39 38 40 88 41 39 42
REMARK SMILES IDX 93 43 87 44 89 45 40 46 92 47 86 48 85 49 41 51 73 52 53 53
REMARK SMILES IDX 72 54 54 55 57 56 71 57 90 58 55 59 56 60 70 62 91 63 58 64
REMARK SMILES IDX 42 65 43 66 51 67 44 68 50 69 52 70 49 71 45 72 46 73 47 74
REMARK SMILES IDX 48 75 74 76 75 77 83 78 76 79 82 80 84 81 81 82 77 83 78 84
REMARK SMILES IDX 79 85 80 86 59 87 60 88 68 89 61 90 67 91 69 92 66 93 62 94
REMARK SMILES IDX 63 95 64 96 65 97
REMARK H PARENT 89 50 57 61
REMARK Flexibility Score: inf
ROOT
ATOM      1  C   UNL A   1      39.557  28.056  29.755  1.00  0.00     0.188 C 
ENDROOT
BRANCH   1   2
ATOM      2  O   UNL A   1      39.152  26.708  29.520  1.00  0.00    -0.377 OA
BRANCH   2   3
ATOM      3  C   UNL A   1      39.516  26.211  28.235  1.00  0.00     0.188 C 
BRANCH   3   4
ATOM      4  C   UNL A   1      39.242  24.715  28.042  1.00  0.00     0.188 C 
BRANCH   4   5
ATOM      5  O   UNL A   1      39.978  24.189  26.937  1.00  0.00    -0.376 OA
BRANCH   5   6
ATOM      6  C   UNL A   1      39.293  23.289  26.071  1.00  0.00     0.202 C 
BRANCH   6   7
ATOM      7  C   UNL A   1      37.831  23.657  25.776  1.00  0.00     0.261 C 
BRANCH   7   8
ATOM      8  O   UNL A   1      37.083  22.620  25.119  1.00  0.00    -0.458 OA
BRANCH   8   9
ATOM      9  C   UNL A   1      36.448  22.938  23.957  1.00  0.00     0.364 C 
ATOM     10  O   UNL A   1      37.018  23.300  22.933  1.00  0.00    -0.244 OA
BRANCH   9  11
ATOM     11  C   UNL A   1      35.043  22.583  24.030  1.00  0.00     0.233 A 
ATOM     12  C   UNL A   1      34.029  23.140  23.284  1.00  0.00     0.320 A 
ATOM     13  O   UNL A   1      32.885  22.442  23.522  1.00  0.00    -0.409 OA
ATOM     14  C   UNL A   1      33.256  21.490  24.434  1.00  0.00     0.202 A 
ATOM     15  N   UNL A   1      34.537  21.503  24.740  1.00  0.00    -0.203 NA
BRANCH  12  16
ATOM     16  O   UNL A   1      33.919  24.125  22.400  1.00  0.00    -0.464 OA
BRANCH  16  17
ATOM     17  C   UNL A   1      32.922  25.096  22.731  1.00  0.00     0.230 C 
ATOM     18  C   UNL A   1      33.083  26.292  21.809  1.00  0.00     0.049 C 
ENDBRANCH  16  17
ENDBRANCH  12  16
BRANCH  14  19
ATOM     19  C   UNL A   1      32.179  20.623  24.981  1.00  0.00     0.129 C 
BRANCH  19  20
ATOM     20  C   UNL A   1      32.327  19.179  24.483  1.00  0.00     0.127 C 
ATOM     21  C   UNL A   1      32.528  19.102  22.964  1.00  0.00     0.033 C 
ATOM     22  O   UNL A   1      33.468  18.580  25.123  1.00  0.00    -0.378 OA
ATOM     23  C   UNL A   1      32.675  17.648  22.528  1.00  0.00     0.005 C 
ATOM     24  C   UNL A   1      33.568  17.185  24.832  1.00  0.00     0.160 C 
ATOM     25  C   UNL A   1      33.763  16.954  23.338  1.00  0.00     0.029 C 
ENDBRANCH  19  20
ENDBRANCH  14  19
ENDBRANCH   9  11
ENDBRANCH   8   9
ENDBRANCH   7   8
ENDBRANCH   6   7
ENDBRANCH   5   6
ENDBRANCH   4   5
ENDBRANCH   3   4
ENDBRANCH   2   3
ENDBRANCH   1   2
BRANCH   1  26
ATOM     26  C   UNL A   1      39.329  28.973  28.536  1.00  0.00     0.188 C 
BRANCH  26  27
ATOM     27  O   UNL A   1      37.976  29.419  28.401  1.00  0.00    -0.376 OA
BRANCH  27  28
ATOM     28  C   UNL A   1      37.474  30.193  29.486  1.00  0.00     0.202 C 
BRANCH  28  29
ATOM     29  C   UNL A   1      36.372  29.519  30.315  1.00  0.00     0.261 C 
BRANCH  29  30
ATOM     30  O   UNL A   1      36.279  29.944  31.683  1.00  0.00    -0.460 OA
BRANCH  30  31
ATOM     31  C   UNL A   1      37.236  29.533  32.546  1.00  0.00     0.338 C 
ATOM     32  O   UNL A   1      37.364  28.421  33.023  1.00  0.00    -0.246 OA
BRANCH  31  33
ATOM     33  C   UNL A   1      38.235  30.621  32.636  1.00  0.00     0.060 A 
ATOM     34  C   UNL A   1      39.597  30.288  32.639  1.00  0.00     0.016 A 
ATOM     35  C   UNL A   1      37.833  31.961  32.630  1.00  0.00     0.016 A 
ATOM     36  C   UNL A   1      40.559  31.300  32.661  1.00  0.00     0.010 A 
ATOM     37  C   UNL A   1      38.795  32.970  32.674  1.00  0.00     0.010 A 
ATOM     38  C   UNL A   1      40.160  32.643  32.720  1.00  0.00    -0.014 A 
BRANCH  38  39
ATOM     39  C   UNL A   1      41.144  33.689  33.092  1.00  0.00     0.031 A 
ATOM     40  C   UNL A   1      41.264  34.033  34.552  1.00  0.00     0.074 A 
ATOM     41  C   UNL A   1      41.891  34.327  32.175  1.00  0.00     0.049 A 
ATOM     42  N   UNL A   1      42.022  34.919  35.141  1.00  0.00    -0.248 NA
ATOM     43  C   UNL A   1      40.400  33.270  35.469  1.00  0.00     0.031 C 
ATOM     44  C   UNL A   1      41.872  34.070  30.737  1.00  0.00     0.029 A 
ATOM     45  N   UNL A   1      42.807  35.338  32.326  1.00  0.00    -0.354 N 
ATOM     46  C   UNL A   1      41.738  34.811  36.497  1.00  0.00     0.074 A 
ATOM     47  C   UNL A   1      40.706  33.807  36.638  1.00  0.00     0.031 C 
ATOM     48  C   UNL A   1      42.729  34.915  30.134  1.00  0.00     0.029 A 
ATOM     49  C   UNL A   1      43.337  35.787  31.139  1.00  0.00     0.049 A 
ATOM     50  H   UNL A   1      43.062  35.707  33.202  1.00  0.00     0.167 HD
ATOM     51  C   UNL A   1      42.292  35.481  37.537  1.00  0.00     0.034 A 
ATOM     52  C   UNL A   1      44.197  36.797  30.897  1.00  0.00     0.034 A 
ATOM     53  C   UNL A   1      43.281  36.516  37.382  1.00  0.00     0.049 A 
ATOM     54  C   UNL A   1      44.732  37.601  32.062  1.00  0.00     0.074 A 
ATOM     55  C   UNL A   1      43.910  37.264  38.361  1.00  0.00     0.029 A 
ATOM     56  N   UNL A   1      43.767  36.968  36.161  1.00  0.00    -0.354 N 
ATOM     57  N   UNL A   1      44.485  37.465  33.345  1.00  0.00    -0.248 NA
ATOM     58  C   UNL A   1      45.666  38.689  31.744  1.00  0.00     0.031 C 
ATOM     59  C   UNL A   1      44.726  38.210  37.730  1.00  0.00     0.029 A 
ATOM     60  C   UNL A   1      44.661  38.007  36.361  1.00  0.00     0.049 A 
ATOM     61  H   UNL A   1      43.512  36.604  35.283  1.00  0.00     0.167 HD
ATOM     62  C   UNL A   1      45.257  38.430  33.987  1.00  0.00     0.074 A 
ATOM     63  C   UNL A   1      45.983  39.135  32.950  1.00  0.00     0.031 C 
ATOM     64  C   UNL A   1      45.367  38.705  35.312  1.00  0.00     0.034 A 
BRANCH  51  65
ATOM     65  C   UNL A   1      41.782  35.139  38.913  1.00  0.00     0.023 A 
ATOM     66  C   UNL A   1      40.636  35.758  39.444  1.00  0.00     0.031 A 
ATOM     67  C   UNL A   1      42.487  34.241  39.731  1.00  0.00     0.131 A 
ATOM     68  C   UNL A   1      40.277  35.534  40.782  1.00  0.00     0.055 A 
ATOM     69  C   UNL A   1      42.079  33.963  41.037  1.00  0.00     0.041 A 
ATOM     70  F   UNL A   1      43.603  33.641  39.285  1.00  0.00    -0.206 F 
ATOM     71  C   UNL A   1      40.978  34.623  41.575  1.00  0.00     0.022 A 
BRANCH  68  72
ATOM     72  S   UNL A   1      38.977  36.566  41.515  1.00  0.00     0.124 S 
ATOM     73  O   UNL A   1      39.705  37.245  42.583  1.00  0.00    -0.237 OA
ATOM     74  O   UNL A   1      38.566  37.401  40.391  1.00  0.00    -0.237 OA
ATOM     75  O   UNL A   1      37.983  35.595  41.967  1.00  0.00    -0.744 OA
ENDBRANCH  68  72
ENDBRANCH  51  65
BRANCH  52  76
ATOM     76  C   UNL A   1      44.587  37.147  29.502  1.00  0.00     0.023 A 
ATOM     77  C   UNL A   1      45.709  36.563  28.891  1.00  0.00     0.031 A 
ATOM     78  C   UNL A   1      43.877  38.124  28.780  1.00  0.00     0.131 A 
ATOM     79  C   UNL A   1      46.114  36.990  27.615  1.00  0.00     0.055 A 
ATOM     80  C   UNL A   1      44.259  38.514  27.495  1.00  0.00     0.041 A 
ATOM     81  F   UNL A   1      42.800  38.715  29.319  1.00  0.00    -0.206 F 
ATOM     82  C   UNL A   1      45.389  37.954  26.910  1.00  0.00     0.022 A 
BRANCH  79  83
ATOM     83  S   UNL A   1      47.647  36.317  26.916  1.00  0.00     0.124 S 
ATOM     84  O   UNL A   1      48.378  37.532  26.576  1.00  0.00    -0.237 OA
ATOM     85  O   UNL A   1      48.174  35.542  28.034  1.00  0.00    -0.237 OA
ATOM     86  O   UNL A   1      47.185  35.526  25.778  1.00  0.00    -0.744 OA
ENDBRANCH  79  83
ENDBRANCH  52  76
BRANCH  64  87
ATOM     87  C   UNL A   1      46.343  39.783  35.714  1.00  0.00     0.023 A 
ATOM     88  C   UNL A   1      45.918  41.077  36.059  1.00  0.00     0.031 A 
ATOM     89  C   UNL A   1      47.721  39.503  35.755  1.00  0.00     0.131 A 
ATOM     90  C   UNL A   1      46.866  42.059  36.387  1.00  0.00     0.055 A 
ATOM     91  C   UNL A   1      48.654  40.468  36.134  1.00  0.00     0.041 A 
ATOM     92  F   UNL A   1      48.179  38.282  35.436  1.00  0.00    -0.206 F 
ATOM     93  C   UNL A   1      48.230  41.758  36.441  1.00  0.00     0.022 A 
BRANCH  90  94
ATOM     94  S   UNL A   1      46.302  43.759  36.672  1.00  0.00     0.124 S 
ATOM     95  O   UNL A   1      45.324  43.579  37.741  1.00  0.00    -0.237 OA
ATOM     96  O   UNL A   1      47.537  44.440  37.046  1.00  0.00    -0.237 OA
ATOM     97  O   UNL A   1      45.743  44.156  35.382  1.00  0.00    -0.744 OA
ENDBRANCH  90  94
ENDBRANCH  64  87
ENDBRANCH  38  39
ENDBRANCH  31  33
ENDBRANCH  30  31
ENDBRANCH  29  30
ENDBRANCH  28  29
ENDBRANCH  27  28
ENDBRANCH  26  27
ENDBRANCH   1  26
TORSDOF 27
ENDMDL
