MODEL 1
REMARK VINA RESULT:      -7.8      0.000      0.000
REMARK SMILES C[C@@H](Oc1ccc(-c2ccccc2)cc1)C(=O)N1CCC[C@H](C(=O)OCCOCCOCCOCCOC(=O)c2ccc(-c3c4nc(c(-c5cc(S(=O)(=O)[O-])ccc5F)c5ccc([nH]5)c(-c5cc(S(=O)(=O)[O-])ccc5F)c5nc(c(-c6cc(S(=O)(=O)[O-])ccc6F)c6ccc3[nH]6)C=C5)C=C4)cc2)C1
REMARK SMILES IDX 30 1 29 2 28 3 27 4 26 5 25 6 23 7 24 8 22 9 18 10 19 11
REMARK SMILES IDX 103 12 20 13 21 14 16 15 17 16 2 17 1 18 3 19 4 20 5 21
REMARK SMILES IDX 15 22 6 23 14 24 7 25 8 26 9 27 13 28 10 29 12 30 11 31
REMARK SMILES IDX 31 32 32 33 33 34 34 35 35 36 36 37 37 38 38 39 39 40 40 41
REMARK SMILES IDX 41 42 102 43 42 44 101 45 43 46 44 47 45 48 95 49 46 50
REMARK SMILES IDX 100 51 94 52 96 53 47 54 99 55 93 56 92 57 48 59 80 60 60 61
REMARK SMILES IDX 79 62 61 63 64 64 78 65 97 66 62 67 63 68 77 70 98 71 65 72
REMARK SMILES IDX 49 73 50 74 58 75 51 76 57 77 59 78 56 79 52 80 53 81 54 82
REMARK SMILES IDX 55 83 81 84 82 85 90 86 83 87 89 88 91 89 88 90 84 91 85 92
REMARK SMILES IDX 86 93 87 94 66 95 67 96 75 97 68 98 74 99 76 100 73 101
REMARK SMILES IDX 69 102 70 103 71 104 72 105
REMARK H PARENT 96 58 64 69
REMARK Flexibility Score: inf
ROOT
ATOM      1  C   UNL A   1      45.380  22.175  23.981  1.00  0.00     0.188 C 
ENDROOT
BRANCH   1   2
ATOM      2  C   UNL A   1      46.194  22.471  25.247  1.00  0.00     0.188 C 
BRANCH   2   3
ATOM      3  O   UNL A   1      46.093  23.714  25.916  1.00  0.00    -0.376 OA
BRANCH   3   4
ATOM      4  C   UNL A   1      47.140  24.673  25.848  1.00  0.00     0.202 C 
BRANCH   4   5
ATOM      5  C   UNL A   1      47.503  25.405  24.546  1.00  0.00     0.261 C 
BRANCH   5   6
ATOM      6  O   UNL A   1      48.893  25.713  24.336  1.00  0.00    -0.463 OA
BRANCH   6   7
ATOM      7  C   UNL A   1      49.270  27.003  24.455  1.00  0.00     0.310 C 
ATOM      8  O   UNL A   1      48.890  27.902  23.708  1.00  0.00    -0.252 OA
BRANCH   7   9
ATOM      9  C   UNL A   1      50.311  27.268  25.539  1.00  0.00     0.119 C 
ATOM     10  N   UNL A   1      52.103  27.908  24.013  1.00  0.00    -0.339 N 
ATOM     11  C   UNL A   1      53.029  26.880  24.466  1.00  0.00     0.119 C 
ATOM     12  C   UNL A   1      51.181  28.415  25.033  1.00  0.00     0.134 C 
ATOM     13  C   UNL A   1      52.291  25.695  25.066  1.00  0.00     0.022 C 
ATOM     14  C   UNL A   1      51.237  26.160  26.068  1.00  0.00     0.019 C 
BRANCH  10  15
ATOM     15  C   UNL A   1      52.032  28.209  22.656  1.00  0.00     0.263 C 
ATOM     16  O   UNL A   1      51.699  27.366  21.821  1.00  0.00    -0.271 OA
BRANCH  15  17
ATOM     17  C   UNL A   1      52.435  29.620  22.202  1.00  0.00     0.259 C 
ATOM     18  C   UNL A   1      51.428  30.231  21.231  1.00  0.00     0.064 C 
BRANCH  17  19
ATOM     19  O   UNL A   1      52.575  30.361  23.423  1.00  0.00    -0.481 OA
BRANCH  19  20
ATOM     20  C   UNL A   1      52.800  31.686  23.259  1.00  0.00     0.120 A 
ATOM     21  C   UNL A   1      53.875  32.094  22.479  1.00  0.00     0.047 A 
ATOM     22  C   UNL A   1      52.087  32.588  24.034  1.00  0.00     0.047 A 
ATOM     23  C   UNL A   1      54.236  33.440  22.468  1.00  0.00     0.012 A 
ATOM     24  C   UNL A   1      52.440  33.929  24.010  1.00  0.00     0.012 A 
ATOM     25  C   UNL A   1      53.530  34.376  23.244  1.00  0.00    -0.018 A 
BRANCH  25  26
ATOM     26  C   UNL A   1      53.928  35.786  23.303  1.00  0.00    -0.018 A 
ATOM     27  C   UNL A   1      55.042  36.259  22.595  1.00  0.00     0.009 A 
ATOM     28  C   UNL A   1      53.172  36.705  24.052  1.00  0.00     0.009 A 
ATOM     29  C   UNL A   1      55.374  37.615  22.619  1.00  0.00     0.001 A 
ATOM     30  C   UNL A   1      53.502  38.059  24.075  1.00  0.00     0.001 A 
ATOM     31  C   UNL A   1      54.601  38.514  23.353  1.00  0.00     0.000 A 
ENDBRANCH  25  26
ENDBRANCH  19  20
ENDBRANCH  17  19
ENDBRANCH  15  17
ENDBRANCH  10  15
ENDBRANCH   7   9
ENDBRANCH   6   7
ENDBRANCH   5   6
ENDBRANCH   4   5
ENDBRANCH   3   4
ENDBRANCH   2   3
ENDBRANCH   1   2
BRANCH   1  32
ATOM     32  O   UNL A   1      44.854  20.870  23.881  1.00  0.00    -0.377 OA
BRANCH  32  33
ATOM     33  C   UNL A   1      44.816  20.068  25.055  1.00  0.00     0.188 C 
BRANCH  33  34
ATOM     34  C   UNL A   1      43.498  19.350  25.406  1.00  0.00     0.188 C 
BRANCH  34  35
ATOM     35  O   UNL A   1      42.574  20.152  26.131  1.00  0.00    -0.376 OA
BRANCH  35  36
ATOM     36  C   UNL A   1      41.198  19.798  26.085  1.00  0.00     0.202 C 
BRANCH  36  37
ATOM     37  C   UNL A   1      40.178  20.834  26.589  1.00  0.00     0.261 C 
BRANCH  37  38
ATOM     38  O   UNL A   1      40.417  22.204  26.223  1.00  0.00    -0.460 OA
BRANCH  38  39
ATOM     39  C   UNL A   1      39.400  23.085  26.322  1.00  0.00     0.338 C 
ATOM     40  O   UNL A   1      38.210  22.848  26.199  1.00  0.00    -0.246 OA
BRANCH  39  41
ATOM     41  C   UNL A   1      39.962  24.357  26.820  1.00  0.00     0.060 A 
ATOM     42  C   UNL A   1      40.152  24.524  28.198  1.00  0.00     0.016 A 
ATOM     43  C   UNL A   1      40.308  25.375  25.929  1.00  0.00     0.016 A 
ATOM     44  C   UNL A   1      40.669  25.722  28.692  1.00  0.00     0.010 A 
ATOM     45  C   UNL A   1      40.799  26.584  26.428  1.00  0.00     0.010 A 
ATOM     46  C   UNL A   1      40.957  26.773  27.813  1.00  0.00    -0.014 A 
BRANCH  46  47
ATOM     47  C   UNL A   1      41.233  28.131  28.342  1.00  0.00     0.031 A 
ATOM     48  C   UNL A   1      42.666  28.579  28.430  1.00  0.00     0.074 A 
ATOM     49  C   UNL A   1      40.240  28.948  28.735  1.00  0.00     0.049 A 
ATOM     50  N   UNL A   1      43.170  29.662  28.959  1.00  0.00    -0.248 NA
ATOM     51  C   UNL A   1      43.665  27.672  27.843  1.00  0.00     0.031 C 
ATOM     52  C   UNL A   1      38.812  28.651  28.633  1.00  0.00     0.029 A 
ATOM     53  N   UNL A   1      40.285  30.193  29.311  1.00  0.00    -0.354 N 
ATOM     54  C   UNL A   1      44.546  29.564  28.780  1.00  0.00     0.074 A 
ATOM     55  C   UNL A   1      44.796  28.300  28.122  1.00  0.00     0.031 C 
ATOM     56  C   UNL A   1      38.117  29.680  29.149  1.00  0.00     0.029 A 
ATOM     57  C   UNL A   1      39.049  30.683  29.664  1.00  0.00     0.049 A 
ATOM     58  H   UNL A   1      41.124  30.689  29.459  1.00  0.00     0.167 HD
ATOM     59  C   UNL A   1      45.508  30.451  29.130  1.00  0.00     0.034 A 
ATOM     60  C   UNL A   1      38.715  31.792  30.358  1.00  0.00     0.034 A 
ATOM     61  C   UNL A   1      45.239  31.699  29.802  1.00  0.00     0.049 A 
ATOM     62  C   UNL A   1      39.815  32.708  30.847  1.00  0.00     0.074 A 
ATOM     63  C   UNL A   1      46.137  32.674  30.197  1.00  0.00     0.029 A 
ATOM     64  N   UNL A   1      43.980  32.134  30.195  1.00  0.00    -0.354 N 
ATOM     65  N   UNL A   1      41.114  32.608  30.677  1.00  0.00    -0.248 NA
ATOM     66  C   UNL A   1      39.404  33.886  31.624  1.00  0.00     0.031 C 
ATOM     67  C   UNL A   1      45.433  33.655  30.903  1.00  0.00     0.029 A 
ATOM     68  C   UNL A   1      44.083  33.342  30.867  1.00  0.00     0.049 A 
ATOM     69  H   UNL A   1      43.137  31.655  30.022  1.00  0.00     0.167 HD
ATOM     70  C   UNL A   1      41.669  33.727  31.295  1.00  0.00     0.074 A 
ATOM     71  C   UNL A   1      40.563  34.492  31.832  1.00  0.00     0.031 C 
ATOM     72  C   UNL A   1      42.972  34.093  31.405  1.00  0.00     0.034 A 
BRANCH  59  73
ATOM     73  C   UNL A   1      46.942  30.067  28.851  1.00  0.00     0.023 A 
ATOM     74  C   UNL A   1      47.693  29.292  29.751  1.00  0.00     0.031 A 
ATOM     75  C   UNL A   1      47.576  30.512  27.677  1.00  0.00     0.131 A 
ATOM     76  C   UNL A   1      49.051  29.046  29.499  1.00  0.00     0.055 A 
ATOM     77  C   UNL A   1      48.904  30.190  27.390  1.00  0.00     0.041 A 
ATOM     78  F   UNL A   1      46.919  31.279  26.793  1.00  0.00    -0.206 F 
ATOM     79  C   UNL A   1      49.654  29.465  28.311  1.00  0.00     0.022 A 
BRANCH  76  80
ATOM     80  S   UNL A   1      50.056  28.303  30.812  1.00  0.00     0.124 S 
ATOM     81  O   UNL A   1      50.513  27.071  30.174  1.00  0.00    -0.237 OA
ATOM     82  O   UNL A   1      51.076  29.319  31.044  1.00  0.00    -0.237 OA
ATOM     83  O   UNL A   1      49.105  28.111  31.906  1.00  0.00    -0.744 OA
ENDBRANCH  76  80
ENDBRANCH  59  73
BRANCH  60  84
ATOM     84  C   UNL A   1      37.289  32.078  30.692  1.00  0.00     0.023 A 
ATOM     85  C   UNL A   1      36.438  32.707  29.769  1.00  0.00     0.031 A 
ATOM     86  C   UNL A   1      36.771  31.786  31.968  1.00  0.00     0.131 A 
ATOM     87  C   UNL A   1      35.134  33.067  30.149  1.00  0.00     0.055 A 
ATOM     88  C   UNL A   1      35.455  32.088  32.320  1.00  0.00     0.041 A 
ATOM     89  F   UNL A   1      37.545  31.199  32.896  1.00  0.00    -0.206 F 
ATOM     90  C   UNL A   1      34.632  32.746  31.413  1.00  0.00     0.022 A 
BRANCH  87  91
ATOM     91  S   UNL A   1      34.137  34.060  29.004  1.00  0.00     0.124 S 
ATOM     92  O   UNL A   1      35.131  34.989  28.475  1.00  0.00    -0.237 OA
ATOM     93  O   UNL A   1      33.646  33.049  28.073  1.00  0.00    -0.237 OA
ATOM     94  O   UNL A   1      33.121  34.658  29.866  1.00  0.00    -0.744 OA
ENDBRANCH  87  91
ENDBRANCH  60  84
BRANCH  72  95
ATOM     95  C   UNL A   1      43.272  35.407  32.088  1.00  0.00     0.023 A 
ATOM     96  C   UNL A   1      43.437  36.601  31.368  1.00  0.00     0.031 A 
ATOM     97  C   UNL A   1      43.376  35.462  33.491  1.00  0.00     0.131 A 
ATOM     98  C   UNL A   1      43.742  37.792  32.047  1.00  0.00     0.055 A 
ATOM     99  C   UNL A   1      43.617  36.660  34.165  1.00  0.00     0.041 A 
ATOM    100  F   UNL A   1      43.232  34.351  34.232  1.00  0.00    -0.206 F 
ATOM    101  C   UNL A   1      43.812  37.832  33.442  1.00  0.00     0.022 A 
BRANCH  98 102
ATOM    102  S   UNL A   1      44.130  39.276  31.079  1.00  0.00     0.124 S 
ATOM    103  O   UNL A   1      43.691  38.889  29.742  1.00  0.00    -0.237 OA
ATOM    104  O   UNL A   1      43.330  40.301  31.742  1.00  0.00    -0.237 OA
ATOM    105  O   UNL A   1      45.576  39.422  31.238  1.00  0.00    -0.744 OA
ENDBRANCH  98 102
ENDBRANCH  72  95
ENDBRANCH  46  47
ENDBRANCH  39  41
ENDBRANCH  38  39
ENDBRANCH  37  38
ENDBRANCH  36  37
ENDBRANCH  35  36
ENDBRANCH  34  35
ENDBRANCH  33  34
ENDBRANCH  32  33
ENDBRANCH   1  32
TORSDOF 28
ENDMDL
MODEL 2
REMARK VINA RESULT:      -7.7     12.223     17.519
REMARK SMILES C[C@@H](Oc1ccc(-c2ccccc2)cc1)C(=O)N1CCC[C@H](C(=O)OCCOCCOCCOCCOC(=O)c2ccc(-c3c4nc(c(-c5cc(S(=O)(=O)[O-])ccc5F)c5ccc([nH]5)c(-c5cc(S(=O)(=O)[O-])ccc5F)c5nc(c(-c6cc(S(=O)(=O)[O-])ccc6F)c6ccc3[nH]6)C=C5)C=C4)cc2)C1
REMARK SMILES IDX 30 1 29 2 28 3 27 4 26 5 25 6 23 7 24 8 22 9 18 10 19 11
REMARK SMILES IDX 103 12 20 13 21 14 16 15 17 16 2 17 1 18 3 19 4 20 5 21
REMARK SMILES IDX 15 22 6 23 14 24 7 25 8 26 9 27 13 28 10 29 12 30 11 31
REMARK SMILES IDX 31 32 32 33 33 34 34 35 35 36 36 37 37 38 38 39 39 40 40 41
REMARK SMILES IDX 41 42 102 43 42 44 101 45 43 46 44 47 45 48 95 49 46 50
REMARK SMILES IDX 100 51 94 52 96 53 47 54 99 55 93 56 92 57 48 59 80 60 60 61
REMARK SMILES IDX 79 62 61 63 64 64 78 65 97 66 62 67 63 68 77 70 98 71 65 72
REMARK SMILES IDX 49 73 50 74 58 75 51 76 57 77 59 78 56 79 52 80 53 81 54 82
REMARK SMILES IDX 55 83 81 84 82 85 90 86 83 87 89 88 91 89 88 90 84 91 85 92
REMARK SMILES IDX 86 93 87 94 66 95 67 96 75 97 68 98 74 99 76 100 73 101
REMARK SMILES IDX 69 102 70 103 71 104 72 105
REMARK H PARENT 96 58 64 69
REMARK Flexibility Score: inf
ROOT
ATOM      1  C   UNL A   1      44.474  18.538  42.262  1.00  0.00     0.188 C 
ENDROOT
BRANCH   1   2
ATOM      2  C   UNL A   1      43.900  19.924  42.582  1.00  0.00     0.188 C 
BRANCH   2   3
ATOM      3  O   UNL A   1      43.867  20.422  43.907  1.00  0.00    -0.376 OA
BRANCH   3   4
ATOM      4  C   UNL A   1      44.432  19.685  44.983  1.00  0.00     0.202 C 
BRANCH   4   5
ATOM      5  C   UNL A   1      45.569  20.241  45.854  1.00  0.00     0.261 C 
BRANCH   5   6
ATOM      6  O   UNL A   1      46.688  19.370  46.101  1.00  0.00    -0.463 OA
BRANCH   6   7
ATOM      7  C   UNL A   1      47.869  19.699  45.538  1.00  0.00     0.310 C 
ATOM      8  O   UNL A   1      48.386  20.811  45.625  1.00  0.00    -0.252 OA
BRANCH   7   9
ATOM      9  C   UNL A   1      48.492  18.607  44.674  1.00  0.00     0.119 C 
ATOM     10  N   UNL A   1      48.910  17.048  46.502  1.00  0.00    -0.339 N 
ATOM     11  C   UNL A   1      50.345  16.966  46.274  1.00  0.00     0.119 C 
ATOM     12  C   UNL A   1      48.096  17.276  45.304  1.00  0.00     0.134 C 
ATOM     13  C   UNL A   1      50.868  18.211  45.578  1.00  0.00     0.022 C 
ATOM     14  C   UNL A   1      50.000  18.567  44.373  1.00  0.00     0.019 C 
BRANCH  10  15
ATOM     15  C   UNL A   1      48.429  17.082  47.809  1.00  0.00     0.263 C 
ATOM     16  O   UNL A   1      48.759  17.969  48.598  1.00  0.00    -0.271 OA
BRANCH  15  17
ATOM     17  C   UNL A   1      47.509  15.944  48.274  1.00  0.00     0.259 C 
ATOM     18  C   UNL A   1      47.699  15.606  49.749  1.00  0.00     0.064 C 
BRANCH  17  19
ATOM     19  O   UNL A   1      46.187  16.401  47.956  1.00  0.00    -0.481 OA
BRANCH  19  20
ATOM     20  C   UNL A   1      45.384  15.467  47.393  1.00  0.00     0.120 A 
ATOM     21  C   UNL A   1      45.702  14.124  47.550  1.00  0.00     0.047 A 
ATOM     22  C   UNL A   1      44.395  15.876  46.510  1.00  0.00     0.047 A 
ATOM     23  C   UNL A   1      45.005  13.168  46.814  1.00  0.00     0.012 A 
ATOM     24  C   UNL A   1      43.694  14.921  45.789  1.00  0.00     0.012 A 
ATOM     25  C   UNL A   1      43.998  13.555  45.912  1.00  0.00    -0.018 A 
BRANCH  25  26
ATOM     26  C   UNL A   1      43.295  12.578  45.075  1.00  0.00    -0.018 A 
ATOM     27  C   UNL A   1      42.308  12.976  44.163  1.00  0.00     0.009 A 
ATOM     28  C   UNL A   1      43.626  11.213  45.149  1.00  0.00     0.009 A 
ATOM     29  C   UNL A   1      41.687  12.038  43.334  1.00  0.00     0.001 A 
ATOM     30  C   UNL A   1      43.009  10.278  44.321  1.00  0.00     0.001 A 
ATOM     31  C   UNL A   1      42.043  10.692  43.410  1.00  0.00     0.000 A 
ENDBRANCH  25  26
ENDBRANCH  19  20
ENDBRANCH  17  19
ENDBRANCH  15  17
ENDBRANCH  10  15
ENDBRANCH   7   9
ENDBRANCH   6   7
ENDBRANCH   5   6
ENDBRANCH   4   5
ENDBRANCH   3   4
ENDBRANCH   2   3
ENDBRANCH   1   2
BRANCH   1  32
ATOM     32  O   UNL A   1      44.121  18.003  41.005  1.00  0.00    -0.377 OA
BRANCH  32  33
ATOM     33  C   UNL A   1      45.066  17.178  40.335  1.00  0.00     0.188 C 
BRANCH  33  34
ATOM     34  C   UNL A   1      46.563  17.510  40.488  1.00  0.00     0.188 C 
BRANCH  34  35
ATOM     35  O   UNL A   1      47.130  18.177  39.367  1.00  0.00    -0.376 OA
BRANCH  35  36
ATOM     36  C   UNL A   1      47.798  19.412  39.588  1.00  0.00     0.202 C 
BRANCH  36  37
ATOM     37  C   UNL A   1      47.558  20.544  38.574  1.00  0.00     0.261 C 
BRANCH  37  38
ATOM     38  O   UNL A   1      46.253  20.604  37.972  1.00  0.00    -0.460 OA
BRANCH  38  39
ATOM     39  C   UNL A   1      46.082  20.065  36.748  1.00  0.00     0.338 C 
ATOM     40  O   UNL A   1      45.961  18.882  36.477  1.00  0.00    -0.246 OA
BRANCH  39  41
ATOM     41  C   UNL A   1      45.852  21.176  35.802  1.00  0.00     0.060 A 
ATOM     42  C   UNL A   1      46.942  21.723  35.114  1.00  0.00     0.016 A 
ATOM     43  C   UNL A   1      44.562  21.669  35.590  1.00  0.00     0.016 A 
ATOM     44  C   UNL A   1      46.750  22.782  34.226  1.00  0.00     0.010 A 
ATOM     45  C   UNL A   1      44.375  22.748  34.722  1.00  0.00     0.010 A 
ATOM     46  C   UNL A   1      45.471  23.326  34.056  1.00  0.00    -0.014 A 
BRANCH  46  47
ATOM     47  C   UNL A   1      45.300  24.616  33.344  1.00  0.00     0.031 A 
ATOM     48  C   UNL A   1      44.799  24.582  31.926  1.00  0.00     0.074 A 
ATOM     49  C   UNL A   1      45.582  25.790  33.938  1.00  0.00     0.049 A 
ATOM     50  N   UNL A   1      44.678  25.553  31.062  1.00  0.00    -0.248 NA
ATOM     51  C   UNL A   1      44.383  23.265  31.419  1.00  0.00     0.031 C 
ATOM     52  C   UNL A   1      46.008  25.952  35.326  1.00  0.00     0.029 A 
ATOM     53  N   UNL A   1      45.562  27.068  33.439  1.00  0.00    -0.354 N 
ATOM     54  C   UNL A   1      44.183  24.966  29.902  1.00  0.00     0.074 A 
ATOM     55  C   UNL A   1      44.058  23.549  30.168  1.00  0.00     0.031 C 
ATOM     56  C   UNL A   1      46.229  27.258  35.563  1.00  0.00     0.029 A 
ATOM     57  C   UNL A   1      46.009  28.016  34.331  1.00  0.00     0.049 A 
ATOM     58  H   UNL A   1      45.258  27.287  32.528  1.00  0.00     0.167 HD
ATOM     59  C   UNL A   1      43.861  25.557  28.727  1.00  0.00     0.034 A 
ATOM     60  C   UNL A   1      46.252  29.332  34.157  1.00  0.00     0.034 A 
ATOM     61  C   UNL A   1      44.009  26.970  28.476  1.00  0.00     0.049 A 
ATOM     62  C   UNL A   1      46.000  29.950  32.799  1.00  0.00     0.074 A 
ATOM     63  C   UNL A   1      43.707  27.676  27.326  1.00  0.00     0.029 A 
ATOM     64  N   UNL A   1      44.520  27.889  29.384  1.00  0.00    -0.354 N 
ATOM     65  N   UNL A   1      45.536  29.388  31.706  1.00  0.00    -0.248 NA
ATOM     66  C   UNL A   1      46.308  31.379  32.650  1.00  0.00     0.031 C 
ATOM     67  C   UNL A   1      44.114  29.001  27.507  1.00  0.00     0.029 A 
ATOM     68  C   UNL A   1      44.583  29.146  28.804  1.00  0.00     0.049 A 
ATOM     69  H   UNL A   1      44.797  27.678  30.305  1.00  0.00     0.167 HD
ATOM     70  C   UNL A   1      45.464  30.403  30.754  1.00  0.00     0.074 A 
ATOM     71  C   UNL A   1      45.923  31.612  31.405  1.00  0.00     0.031 C 
ATOM     72  C   UNL A   1      45.050  30.345  29.462  1.00  0.00     0.034 A 
BRANCH  59  73
ATOM     73  C   UNL A   1      43.379  24.664  27.609  1.00  0.00     0.023 A 
ATOM     74  C   UNL A   1      44.272  24.025  26.731  1.00  0.00     0.031 A 
ATOM     75  C   UNL A   1      42.001  24.476  27.398  1.00  0.00     0.131 A 
ATOM     76  C   UNL A   1      43.778  23.287  25.644  1.00  0.00     0.055 A 
ATOM     77  C   UNL A   1      41.517  23.669  26.366  1.00  0.00     0.041 A 
ATOM     78  F   UNL A   1      41.100  25.083  28.186  1.00  0.00    -0.206 F 
ATOM     79  C   UNL A   1      42.407  23.082  25.473  1.00  0.00     0.022 A 
BRANCH  76  80
ATOM     80  S   UNL A   1      44.944  22.728  24.374  1.00  0.00     0.124 S 
ATOM     81  O   UNL A   1      45.836  23.880  24.264  1.00  0.00    -0.237 OA
ATOM     82  O   UNL A   1      45.519  21.531  24.976  1.00  0.00    -0.237 OA
ATOM     83  O   UNL A   1      44.096  22.495  23.207  1.00  0.00    -0.744 OA
ENDBRANCH  76  80
ENDBRANCH  59  73
BRANCH  60  84
ATOM     84  C   UNL A   1      46.819  30.153  35.267  1.00  0.00     0.023 A 
ATOM     85  C   UNL A   1      48.207  30.266  35.453  1.00  0.00     0.031 A 
ATOM     86  C   UNL A   1      45.978  30.784  36.203  1.00  0.00     0.131 A 
ATOM     87  C   UNL A   1      48.711  30.949  36.573  1.00  0.00     0.055 A 
ATOM     88  C   UNL A   1      46.484  31.517  37.278  1.00  0.00     0.041 A 
ATOM     89  F   UNL A   1      44.643  30.697  36.084  1.00  0.00    -0.206 F 
ATOM     90  C   UNL A   1      47.859  31.590  37.476  1.00  0.00     0.022 A 
BRANCH  87  91
ATOM     91  S   UNL A   1      50.496  30.898  36.891  1.00  0.00     0.124 S 
ATOM     92  O   UNL A   1      50.536  30.890  38.350  1.00  0.00    -0.237 OA
ATOM     93  O   UNL A   1      50.887  29.656  36.233  1.00  0.00    -0.237 OA
ATOM     94  O   UNL A   1      50.991  32.119  36.260  1.00  0.00    -0.744 OA
ENDBRANCH  87  91
ENDBRANCH  60  84
BRANCH  72  95
ATOM     95  C   UNL A   1      45.025  31.636  28.679  1.00  0.00     0.023 A 
ATOM     96  C   UNL A   1      46.124  32.068  27.918  1.00  0.00     0.031 A 
ATOM     97  C   UNL A   1      43.869  32.439  28.683  1.00  0.00     0.131 A 
ATOM     98  C   UNL A   1      46.061  33.290  27.229  1.00  0.00     0.055 A 
ATOM     99  C   UNL A   1      43.790  33.620  27.945  1.00  0.00     0.041 A 
ATOM    100  F   UNL A   1      42.789  32.079  29.395  1.00  0.00    -0.206 F 
ATOM    101  C   UNL A   1      44.894  34.058  27.221  1.00  0.00     0.022 A 
BRANCH  98 102
ATOM    102  S   UNL A   1      47.556  33.908  26.407  1.00  0.00     0.124 S 
ATOM    103  O   UNL A   1      48.118  34.790  27.425  1.00  0.00    -0.237 OA
ATOM    104  O   UNL A   1      48.300  32.680  26.145  1.00  0.00    -0.237 OA
ATOM    105  O   UNL A   1      47.040  34.583  25.218  1.00  0.00    -0.744 OA
ENDBRANCH  98 102
ENDBRANCH  72  95
ENDBRANCH  46  47
ENDBRANCH  39  41
ENDBRANCH  38  39
ENDBRANCH  37  38
ENDBRANCH  36  37
ENDBRANCH  35  36
ENDBRANCH  34  35
ENDBRANCH  33  34
ENDBRANCH  32  33
ENDBRANCH   1  32
TORSDOF 28
ENDMDL
MODEL 3
REMARK VINA RESULT:      -7.6      6.054     12.847
REMARK SMILES C[C@@H](Oc1ccc(-c2ccccc2)cc1)C(=O)N1CCC[C@H](C(=O)OCCOCCOCCOCCOC(=O)c2ccc(-c3c4nc(c(-c5cc(S(=O)(=O)[O-])ccc5F)c5ccc([nH]5)c(-c5cc(S(=O)(=O)[O-])ccc5F)c5nc(c(-c6cc(S(=O)(=O)[O-])ccc6F)c6ccc3[nH]6)C=C5)C=C4)cc2)C1
REMARK SMILES IDX 30 1 29 2 28 3 27 4 26 5 25 6 23 7 24 8 22 9 18 10 19 11
REMARK SMILES IDX 103 12 20 13 21 14 16 15 17 16 2 17 1 18 3 19 4 20 5 21
REMARK SMILES IDX 15 22 6 23 14 24 7 25 8 26 9 27 13 28 10 29 12 30 11 31
REMARK SMILES IDX 31 32 32 33 33 34 34 35 35 36 36 37 37 38 38 39 39 40 40 41
REMARK SMILES IDX 41 42 102 43 42 44 101 45 43 46 44 47 45 48 95 49 46 50
REMARK SMILES IDX 100 51 94 52 96 53 47 54 99 55 93 56 92 57 48 59 80 60 60 61
REMARK SMILES IDX 79 62 61 63 64 64 78 65 97 66 62 67 63 68 77 70 98 71 65 72
REMARK SMILES IDX 49 73 50 74 58 75 51 76 57 77 59 78 56 79 52 80 53 81 54 82
REMARK SMILES IDX 55 83 81 84 82 85 90 86 83 87 89 88 91 89 88 90 84 91 85 92
REMARK SMILES IDX 86 93 87 94 66 95 67 96 75 97 68 98 74 99 76 100 73 101
REMARK SMILES IDX 69 102 70 103 71 104 72 105
REMARK H PARENT 96 58 64 69
REMARK Flexibility Score: inf
ROOT
ATOM      1  C   UNL A   1      43.900  32.959  27.860  1.00  0.00     0.188 C 
ENDROOT
BRANCH   1   2
ATOM      2  C   UNL A   1      43.907  31.653  28.665  1.00  0.00     0.188 C 
BRANCH   2   3
ATOM      3  O   UNL A   1      45.107  30.940  28.905  1.00  0.00    -0.376 OA
BRANCH   3   4
ATOM      4  C   UNL A   1      45.192  29.542  28.661  1.00  0.00     0.202 C 
BRANCH   4   5
ATOM      5  C   UNL A   1      45.556  28.967  27.283  1.00  0.00     0.261 C 
BRANCH   5   6
ATOM      6  O   UNL A   1      45.317  27.562  27.077  1.00  0.00    -0.463 OA
BRANCH   6   7
ATOM      7  C   UNL A   1      45.557  27.064  25.847  1.00  0.00     0.310 C 
ATOM      8  O   UNL A   1      45.479  27.721  24.811  1.00  0.00    -0.252 OA
BRANCH   7   9
ATOM      9  C   UNL A   1      45.837  25.564  25.807  1.00  0.00     0.119 C 
ATOM     10  N   UNL A   1      43.498  24.876  25.769  1.00  0.00    -0.339 N 
ATOM     11  C   UNL A   1      43.582  24.071  26.980  1.00  0.00     0.119 C 
ATOM     12  C   UNL A   1      44.725  24.938  24.971  1.00  0.00     0.134 C 
ATOM     13  C   UNL A   1      44.709  24.545  27.883  1.00  0.00     0.022 C 
ATOM     14  C   UNL A   1      46.000  24.732  27.090  1.00  0.00     0.019 C 
BRANCH  10  15
ATOM     15  C   UNL A   1      42.361  25.648  25.543  1.00  0.00     0.263 C 
ATOM     16  O   UNL A   1      42.340  26.539  24.692  1.00  0.00    -0.271 OA
BRANCH  15  17
ATOM     17  C   UNL A   1      41.128  25.401  26.427  1.00  0.00     0.259 C 
ATOM     18  C   UNL A   1      40.856  23.916  26.646  1.00  0.00     0.064 C 
BRANCH  17  19
ATOM     19  O   UNL A   1      41.408  26.117  27.637  1.00  0.00    -0.481 OA
BRANCH  19  20
ATOM     20  C   UNL A   1      40.540  27.118  27.917  1.00  0.00     0.120 A 
ATOM     21  C   UNL A   1      39.453  26.855  28.741  1.00  0.00     0.047 A 
ATOM     22  C   UNL A   1      40.642  28.311  27.216  1.00  0.00     0.047 A 
ATOM     23  C   UNL A   1      38.450  27.814  28.873  1.00  0.00     0.012 A 
ATOM     24  C   UNL A   1      39.649  29.268  27.360  1.00  0.00     0.012 A 
ATOM     25  C   UNL A   1      38.528  29.031  28.174  1.00  0.00    -0.018 A 
BRANCH  25  26
ATOM     26  C   UNL A   1      37.457  30.029  28.241  1.00  0.00    -0.018 A 
ATOM     27  C   UNL A   1      37.676  31.299  28.793  1.00  0.00     0.009 A 
ATOM     28  C   UNL A   1      36.185  29.740  27.716  1.00  0.00     0.009 A 
ATOM     29  C   UNL A   1      36.660  32.256  28.799  1.00  0.00     0.001 A 
ATOM     30  C   UNL A   1      35.171  30.696  27.719  1.00  0.00     0.001 A 
ATOM     31  C   UNL A   1      35.411  31.956  28.257  1.00  0.00     0.000 A 
ENDBRANCH  25  26
ENDBRANCH  19  20
ENDBRANCH  17  19
ENDBRANCH  15  17
ENDBRANCH  10  15
ENDBRANCH   7   9
ENDBRANCH   6   7
ENDBRANCH   5   6
ENDBRANCH   4   5
ENDBRANCH   3   4
ENDBRANCH   2   3
ENDBRANCH   1   2
BRANCH   1  32
ATOM     32  O   UNL A   1      44.728  32.980  26.718  1.00  0.00    -0.377 OA
BRANCH  32  33
ATOM     33  C   UNL A   1      45.853  33.850  26.717  1.00  0.00     0.188 C 
BRANCH  33  34
ATOM     34  C   UNL A   1      47.221  33.275  27.132  1.00  0.00     0.188 C 
BRANCH  34  35
ATOM     35  O   UNL A   1      47.689  33.736  28.394  1.00  0.00    -0.376 OA
BRANCH  35  36
ATOM     36  C   UNL A   1      46.798  34.490  29.206  1.00  0.00     0.202 C 
BRANCH  36  37
ATOM     37  C   UNL A   1      47.057  36.001  29.336  1.00  0.00     0.261 C 
BRANCH  37  38
ATOM     38  O   UNL A   1      45.982  36.796  29.865  1.00  0.00    -0.460 OA
BRANCH  38  39
ATOM     39  C   UNL A   1      46.258  37.686  30.840  1.00  0.00     0.338 C 
ATOM     40  O   UNL A   1      46.960  38.679  30.749  1.00  0.00    -0.246 OA
BRANCH  39  41
ATOM     41  C   UNL A   1      45.387  37.370  31.989  1.00  0.00     0.060 A 
ATOM     42  C   UNL A   1      45.695  36.265  32.794  1.00  0.00     0.016 A 
ATOM     43  C   UNL A   1      44.276  38.166  32.276  1.00  0.00     0.016 A 
ATOM     44  C   UNL A   1      44.879  35.940  33.878  1.00  0.00     0.010 A 
ATOM     45  C   UNL A   1      43.444  37.822  33.345  1.00  0.00     0.010 A 
ATOM     46  C   UNL A   1      43.727  36.693  34.134  1.00  0.00    -0.014 A 
BRANCH  46  47
ATOM     47  C   UNL A   1      42.711  36.195  35.094  1.00  0.00     0.031 A 
ATOM     48  C   UNL A   1      42.747  36.725  36.501  1.00  0.00     0.074 A 
ATOM     49  C   UNL A   1      41.780  35.296  34.729  1.00  0.00     0.049 A 
ATOM     50  N   UNL A   1      42.049  36.365  37.545  1.00  0.00    -0.248 NA
ATOM     51  C   UNL A   1      43.708  37.808  36.761  1.00  0.00     0.031 C 
ATOM     52  C   UNL A   1      41.604  34.763  33.379  1.00  0.00     0.029 A 
ATOM     53  N   UNL A   1      40.813  34.664  35.470  1.00  0.00    -0.354 N 
ATOM     54  C   UNL A   1      42.493  37.167  38.590  1.00  0.00     0.074 A 
ATOM     55  C   UNL A   1      43.543  38.010  38.058  1.00  0.00     0.031 C 
ATOM     56  C   UNL A   1      40.600  33.868  33.393  1.00  0.00     0.029 A 
ATOM     57  C   UNL A   1      40.098  33.727  34.760  1.00  0.00     0.049 A 
ATOM     58  H   UNL A   1      40.647  34.861  36.420  1.00  0.00     0.167 HD
ATOM     59  C   UNL A   1      42.062  37.197  39.874  1.00  0.00     0.034 A 
ATOM     60  C   UNL A   1      39.177  32.832  35.176  1.00  0.00     0.034 A 
ATOM     61  C   UNL A   1      41.026  36.336  40.390  1.00  0.00     0.049 A 
ATOM     62  C   UNL A   1      38.797  32.800  36.640  1.00  0.00     0.074 A 
ATOM     63  C   UNL A   1      40.506  36.287  41.671  1.00  0.00     0.029 A 
ATOM     64  N   UNL A   1      40.366  35.359  39.655  1.00  0.00    -0.354 N 
ATOM     65  N   UNL A   1      39.224  33.560  37.624  1.00  0.00    -0.248 NA
ATOM     66  C   UNL A   1      37.813  31.789  37.050  1.00  0.00     0.031 C 
ATOM     67  C   UNL A   1      39.597  35.226  41.733  1.00  0.00     0.029 A 
ATOM     68  C   UNL A   1      39.477  34.673  40.467  1.00  0.00     0.049 A 
ATOM     69  H   UNL A   1      40.510  35.180  38.697  1.00  0.00     0.167 HD
ATOM     70  C   UNL A   1      38.533  33.139  38.759  1.00  0.00     0.074 A 
ATOM     71  C   UNL A   1      37.656  32.068  38.336  1.00  0.00     0.031 C 
ATOM     72  C   UNL A   1      38.611  33.600  40.034  1.00  0.00     0.034 A 
BRANCH  59  73
ATOM     73  C   UNL A   1      42.758  38.148  40.819  1.00  0.00     0.023 A 
ATOM     74  C   UNL A   1      42.311  39.467  41.008  1.00  0.00     0.031 A 
ATOM     75  C   UNL A   1      43.907  37.735  41.517  1.00  0.00     0.131 A 
ATOM     76  C   UNL A   1      43.048  40.346  41.817  1.00  0.00     0.055 A 
ATOM     77  C   UNL A   1      44.586  38.590  42.388  1.00  0.00     0.041 A 
ATOM     78  F   UNL A   1      44.397  36.497  41.355  1.00  0.00    -0.206 F 
ATOM     79  C   UNL A   1      44.166  39.908  42.531  1.00  0.00     0.022 A 
BRANCH  76  80
ATOM     80  S   UNL A   1      42.613  42.107  41.803  1.00  0.00     0.124 S 
ATOM     81  O   UNL A   1      43.260  42.561  40.574  1.00  0.00    -0.237 OA
ATOM     82  O   UNL A   1      41.155  42.073  41.782  1.00  0.00    -0.237 OA
ATOM     83  O   UNL A   1      43.209  42.617  43.036  1.00  0.00    -0.744 OA
ENDBRANCH  76  80
ENDBRANCH  59  73
BRANCH  60  84
ATOM     84  C   UNL A   1      38.589  31.848  34.221  1.00  0.00     0.023 A 
ATOM     85  C   UNL A   1      39.188  30.596  34.005  1.00  0.00     0.031 A 
ATOM     86  C   UNL A   1      37.452  32.171  33.457  1.00  0.00     0.131 A 
ATOM     87  C   UNL A   1      38.678  29.736  33.017  1.00  0.00     0.055 A 
ATOM     88  C   UNL A   1      36.911  31.287  32.522  1.00  0.00     0.041 A 
ATOM     89  F   UNL A   1      36.847  33.361  33.610  1.00  0.00    -0.206 F 
ATOM     90  C   UNL A   1      37.534  30.066  32.287  1.00  0.00     0.022 A 
BRANCH  87  91
ATOM     91  S   UNL A   1      39.599  28.223  32.624  1.00  0.00     0.124 S 
ATOM     92  O   UNL A   1      40.272  27.949  33.890  1.00  0.00    -0.237 OA
ATOM     93  O   UNL A   1      38.528  27.302  32.257  1.00  0.00    -0.237 OA
ATOM     94  O   UNL A   1      40.473  28.630  31.527  1.00  0.00    -0.744 OA
ENDBRANCH  87  91
ENDBRANCH  60  84
BRANCH  72  95
ATOM     95  C   UNL A   1      37.686  32.983  41.056  1.00  0.00     0.023 A 
ATOM     96  C   UNL A   1      36.391  33.477  41.284  1.00  0.00     0.031 A 
ATOM     97  C   UNL A   1      38.107  31.866  41.803  1.00  0.00     0.131 A 
ATOM     98  C   UNL A   1      35.579  32.885  42.265  1.00  0.00     0.055 A 
ATOM     99  C   UNL A   1      37.272  31.243  42.731  1.00  0.00     0.041 A 
ATOM    100  F   UNL A   1      39.336  31.353  41.631  1.00  0.00    -0.206 F 
ATOM    101  C   UNL A   1      36.004  31.759  42.975  1.00  0.00     0.022 A 
BRANCH  98 102
ATOM    102  S   UNL A   1      33.987  33.657  42.664  1.00  0.00     0.124 S 
ATOM    103  O   UNL A   1      34.328  34.476  43.823  1.00  0.00    -0.237 OA
ATOM    104  O   UNL A   1      33.676  34.386  41.438  1.00  0.00    -0.237 OA
ATOM    105  O   UNL A   1      33.113  32.519  42.945  1.00  0.00    -0.744 OA
ENDBRANCH  98 102
ENDBRANCH  72  95
ENDBRANCH  46  47
ENDBRANCH  39  41
ENDBRANCH  38  39
ENDBRANCH  37  38
ENDBRANCH  36  37
ENDBRANCH  35  36
ENDBRANCH  34  35
ENDBRANCH  33  34
ENDBRANCH  32  33
ENDBRANCH   1  32
TORSDOF 28
ENDMDL
