MODEL 1
REMARK VINA RESULT:      -9.4      0.000      0.000
REMARK SMILES CC[C@]1(C(=O)OCCOCCOCCOCCOC(=O)c2ccc(-c3c4nc(c(-c5cc(S(=O)(=O)[O-])ccc5F)c5ccc([nH]5)c(-c5cc(S(=O)(=O)[O-])ccc5F)c5nc(c(-c6cc(S(=O)(=O)[O-])ccc6F)c6ccc3[nH]6)C=C5)C=C4)cc2)CC[N@@H+](Cc2ccc(CC(C)C)cc2)C1
REMARK SMILES IDX 11 1 10 2 9 3 8 4 7 5 6 6 4 7 5 8 3 9 84 10 98 11 85 12
REMARK SMILES IDX 86 13 2 15 1 16 87 17 88 18 89 19 97 20 90 21 96 22 91 23
REMARK SMILES IDX 92 24 93 25 94 26 95 27 12 28 13 29 14 30 15 31 16 32 17 33
REMARK SMILES IDX 18 34 19 35 20 36 21 37 22 38 83 39 23 40 82 41 24 42 25 43
REMARK SMILES IDX 26 44 76 45 27 46 81 47 75 48 77 49 28 50 80 51 74 52 73 53
REMARK SMILES IDX 29 55 61 56 41 57 60 58 42 59 45 60 59 61 78 62 43 63 44 64
REMARK SMILES IDX 58 66 79 67 46 68 30 69 31 70 39 71 32 72 38 73 40 74 37 75
REMARK SMILES IDX 33 76 34 77 35 78 36 79 62 80 63 81 71 82 64 83 70 84 72 85
REMARK SMILES IDX 69 86 65 87 66 88 67 89 68 90 47 91 48 92 56 93 49 94 55 95
REMARK SMILES IDX 57 96 54 97 50 98 51 99 52 100 53 101
REMARK H PARENT 86 14 77 54 45 65
REMARK Flexibility Score: inf
ROOT
ATOM      1  C   UNL A   1      37.475  22.085  25.859  1.00  0.00     0.188 C 
ENDROOT
BRANCH   1   2
ATOM      2  C   UNL A   1      36.338  21.177  25.377  1.00  0.00     0.188 C 
BRANCH   2   3
ATOM      3  O   UNL A   1      35.502  21.573  24.292  1.00  0.00    -0.376 OA
BRANCH   3   4
ATOM      4  C   UNL A   1      34.099  21.705  24.498  1.00  0.00     0.202 C 
BRANCH   4   5
ATOM      5  C   UNL A   1      33.287  22.723  23.679  1.00  0.00     0.261 C 
BRANCH   5   6
ATOM      6  O   UNL A   1      31.874  22.760  23.959  1.00  0.00    -0.463 OA
BRANCH   6   7
ATOM      7  C   UNL A   1      31.294  23.981  24.024  1.00  0.00     0.318 C 
ATOM      8  O   UNL A   1      30.710  24.508  23.080  1.00  0.00    -0.251 OA
BRANCH   7   9
ATOM      9  C   UNL A   1      31.408  24.672  25.390  1.00  0.00     0.122 C 
ATOM     10  C   UNL A   1      32.777  25.221  25.823  1.00  0.00     0.086 C 
ATOM     11  C   UNL A   1      30.606  26.000  25.223  1.00  0.00     0.281 C 
ATOM     12  C   UNL A   1      32.435  26.472  26.623  1.00  0.00     0.263 C 
ATOM     13  N   UNL A   1      31.314  27.094  25.918  1.00  0.00    -0.330 N 
ATOM     14  H   UNL A   1      30.693  27.554  26.584  1.00  0.00     0.348 HD
BRANCH   9  15
ATOM     15  C   UNL A   1      30.856  23.793  26.566  1.00  0.00     0.021 C 
ATOM     16  C   UNL A   1      31.823  22.887  27.319  1.00  0.00     0.005 C 
ENDBRANCH   9  15
BRANCH  13  17
ATOM     17  C   UNL A   1      31.694  28.231  25.039  1.00  0.00     0.299 C 
BRANCH  17  18
ATOM     18  C   UNL A   1      32.626  29.252  25.652  1.00  0.00     0.006 A 
ATOM     19  C   UNL A   1      32.096  30.414  26.240  1.00  0.00     0.010 A 
ATOM     20  C   UNL A   1      33.985  28.954  25.808  1.00  0.00     0.010 A 
ATOM     21  C   UNL A   1      32.841  31.116  27.171  1.00  0.00     0.004 A 
ATOM     22  C   UNL A   1      34.737  29.667  26.719  1.00  0.00     0.004 A 
ATOM     23  C   UNL A   1      34.123  30.665  27.476  1.00  0.00    -0.048 A 
BRANCH  23  24
ATOM     24  C   UNL A   1      34.797  31.106  28.722  1.00  0.00     0.038 C 
BRANCH  24  25
ATOM     25  C   UNL A   1      35.092  32.589  28.799  1.00  0.00    -0.013 C 
ATOM     26  C   UNL A   1      34.837  33.058  30.231  1.00  0.00     0.008 C 
ATOM     27  C   UNL A   1      36.511  32.676  28.251  1.00  0.00     0.008 C 
ENDBRANCH  24  25
ENDBRANCH  23  24
ENDBRANCH  17  18
ENDBRANCH  13  17
ENDBRANCH   7   9
ENDBRANCH   6   7
ENDBRANCH   5   6
ENDBRANCH   4   5
ENDBRANCH   3   4
ENDBRANCH   2   3
ENDBRANCH   1   2
BRANCH   1  28
ATOM     28  O   UNL A   1      38.702  21.831  25.228  1.00  0.00    -0.377 OA
BRANCH  28  29
ATOM     29  C   UNL A   1      39.583  20.892  25.811  1.00  0.00     0.188 C 
BRANCH  29  30
ATOM     30  C   UNL A   1      40.707  21.376  26.722  1.00  0.00     0.188 C 
BRANCH  30  31
ATOM     31  O   UNL A   1      41.893  20.600  26.622  1.00  0.00    -0.376 OA
BRANCH  31  32
ATOM     32  C   UNL A   1      41.750  19.220  26.317  1.00  0.00     0.202 C 
BRANCH  32  33
ATOM     33  C   UNL A   1      42.967  18.470  25.737  1.00  0.00     0.261 C 
BRANCH  33  34
ATOM     34  O   UNL A   1      43.580  18.954  24.523  1.00  0.00    -0.460 OA
BRANCH  34  35
ATOM     35  C   UNL A   1      44.829  19.487  24.565  1.00  0.00     0.338 C 
ATOM     36  O   UNL A   1      45.852  18.913  24.260  1.00  0.00    -0.246 OA
BRANCH  35  37
ATOM     37  C   UNL A   1      44.730  20.947  24.895  1.00  0.00     0.060 A 
ATOM     38  C   UNL A   1      44.471  21.880  23.878  1.00  0.00     0.016 A 
ATOM     39  C   UNL A   1      44.891  21.410  26.201  1.00  0.00     0.016 A 
ATOM     40  C   UNL A   1      44.352  23.264  24.163  1.00  0.00     0.010 A 
ATOM     41  C   UNL A   1      44.792  22.790  26.476  1.00  0.00     0.010 A 
ATOM     42  C   UNL A   1      44.489  23.746  25.474  1.00  0.00    -0.014 A 
BRANCH  42  43
ATOM     43  C   UNL A   1      44.617  25.212  25.823  1.00  0.00     0.031 A 
ATOM     44  C   UNL A   1      46.036  25.693  25.977  1.00  0.00     0.074 A 
ATOM     45  C   UNL A   1      43.624  26.099  26.105  1.00  0.00     0.049 A 
ATOM     46  N   UNL A   1      46.476  26.860  26.363  1.00  0.00    -0.248 NA
ATOM     47  C   UNL A   1      47.093  24.743  25.588  1.00  0.00     0.031 C 
ATOM     48  C   UNL A   1      42.197  25.983  25.829  1.00  0.00     0.029 A 
ATOM     49  N   UNL A   1      43.671  27.292  26.809  1.00  0.00    -0.354 N 
ATOM     50  C   UNL A   1      47.848  26.812  26.181  1.00  0.00     0.074 A 
ATOM     51  C   UNL A   1      48.182  25.469  25.762  1.00  0.00     0.031 C 
ATOM     52  C   UNL A   1      41.495  26.864  26.558  1.00  0.00     0.029 A 
ATOM     53  C   UNL A   1      42.430  27.741  27.233  1.00  0.00     0.049 A 
ATOM     54  H   UNL A   1      44.509  27.776  26.991  1.00  0.00     0.167 HD
ATOM     55  C   UNL A   1      48.745  27.818  26.292  1.00  0.00     0.034 A 
ATOM     56  C   UNL A   1      42.047  28.771  28.016  1.00  0.00     0.034 A 
ATOM     57  C   UNL A   1      48.415  29.129  26.783  1.00  0.00     0.049 A 
ATOM     58  C   UNL A   1      43.083  29.800  28.356  1.00  0.00     0.074 A 
ATOM     59  C   UNL A   1      49.247  30.220  26.940  1.00  0.00     0.029 A 
ATOM     60  N   UNL A   1      47.160  29.513  27.239  1.00  0.00    -0.354 N 
ATOM     61  N   UNL A   1      44.365  29.779  28.083  1.00  0.00    -0.248 NA
ATOM     62  C   UNL A   1      42.616  31.033  28.999  1.00  0.00     0.031 C 
ATOM     63  C   UNL A   1      48.522  31.231  27.579  1.00  0.00     0.029 A 
ATOM     64  C   UNL A   1      47.213  30.805  27.737  1.00  0.00     0.049 A 
ATOM     65  H   UNL A   1      46.353  28.950  27.213  1.00  0.00     0.167 HD
ATOM     66  C   UNL A   1      44.843  31.032  28.439  1.00  0.00     0.074 A 
ATOM     67  C   UNL A   1      43.717  31.772  28.974  1.00  0.00     0.031 C 
ATOM     68  C   UNL A   1      46.095  31.530  28.292  1.00  0.00     0.034 A 
BRANCH  55  69
ATOM     69  C   UNL A   1      50.162  27.492  25.910  1.00  0.00     0.023 A 
ATOM     70  C   UNL A   1      50.623  27.677  24.593  1.00  0.00     0.031 A 
ATOM     71  C   UNL A   1      51.034  26.912  26.845  1.00  0.00     0.131 A 
ATOM     72  C   UNL A   1      51.892  27.209  24.228  1.00  0.00     0.055 A 
ATOM     73  C   UNL A   1      52.329  26.529  26.494  1.00  0.00     0.041 A 
ATOM     74  F   UNL A   1      50.631  26.679  28.103  1.00  0.00    -0.206 F 
ATOM     75  C   UNL A   1      52.758  26.661  25.176  1.00  0.00     0.022 A 
BRANCH  72  76
ATOM     76  S   UNL A   1      52.327  27.174  22.466  1.00  0.00     0.124 S 
ATOM     77  O   UNL A   1      53.418  26.200  22.452  1.00  0.00    -0.237 OA
ATOM     78  O   UNL A   1      51.082  26.745  21.840  1.00  0.00    -0.237 OA
ATOM     79  O   UNL A   1      52.728  28.550  22.185  1.00  0.00    -0.744 OA
ENDBRANCH  72  76
ENDBRANCH  55  69
BRANCH  56  80
ATOM     80  C   UNL A   1      40.619  28.940  28.429  1.00  0.00     0.023 A 
ATOM     81  C   UNL A   1      40.214  28.816  29.769  1.00  0.00     0.031 A 
ATOM     82  C   UNL A   1      39.625  29.209  27.470  1.00  0.00     0.131 A 
ATOM     83  C   UNL A   1      38.855  28.924  30.108  1.00  0.00     0.055 A 
ATOM     84  C   UNL A   1      38.276  29.347  27.817  1.00  0.00     0.041 A 
ATOM     85  F   UNL A   1      39.951  29.339  26.174  1.00  0.00    -0.206 F 
ATOM     86  C   UNL A   1      37.883  29.195  29.142  1.00  0.00     0.022 A 
BRANCH  83  87
ATOM     87  S   UNL A   1      38.359  28.636  31.831  1.00  0.00     0.124 S 
ATOM     88  O   UNL A   1      39.292  29.490  32.559  1.00  0.00    -0.237 OA
ATOM     89  O   UNL A   1      36.966  29.072  31.818  1.00  0.00    -0.237 OA
ATOM     90  O   UNL A   1      38.559  27.200  32.010  1.00  0.00    -0.744 OA
ENDBRANCH  83  87
ENDBRANCH  56  80
BRANCH  68  91
ATOM     91  C   UNL A   1      46.311  32.963  28.693  1.00  0.00     0.023 A 
ATOM     92  C   UNL A   1      46.091  34.018  27.794  1.00  0.00     0.031 A 
ATOM     93  C   UNL A   1      46.730  33.274  29.998  1.00  0.00     0.131 A 
ATOM     94  C   UNL A   1      46.339  35.336  28.196  1.00  0.00     0.055 A 
ATOM     95  C   UNL A   1      46.910  34.592  30.414  1.00  0.00     0.041 A 
ATOM     96  F   UNL A   1      46.962  32.300  30.894  1.00  0.00    -0.206 F 
ATOM     97  C   UNL A   1      46.723  35.632  29.507  1.00  0.00     0.022 A 
BRANCH  94  98
ATOM     98  S   UNL A   1      46.226  36.653  26.958  1.00  0.00     0.124 S 
ATOM     99  O   UNL A   1      47.188  37.626  27.464  1.00  0.00    -0.237 OA
ATOM    100  O   UNL A   1      46.606  35.961  25.730  1.00  0.00    -0.237 OA
ATOM    101  O   UNL A   1      44.826  37.068  27.026  1.00  0.00    -0.744 OA
ENDBRANCH  94  98
ENDBRANCH  68  91
ENDBRANCH  42  43
ENDBRANCH  35  37
ENDBRANCH  34  35
ENDBRANCH  33  34
ENDBRANCH  32  33
ENDBRANCH  31  32
ENDBRANCH  30  31
ENDBRANCH  29  30
ENDBRANCH  28  29
ENDBRANCH   1  28
TORSDOF 28
ENDMDL
MODEL 2
REMARK VINA RESULT:      -9.2      1.769      7.534
REMARK SMILES CC[C@]1(C(=O)OCCOCCOCCOCCOC(=O)c2ccc(-c3c4nc(c(-c5cc(S(=O)(=O)[O-])ccc5F)c5ccc([nH]5)c(-c5cc(S(=O)(=O)[O-])ccc5F)c5nc(c(-c6cc(S(=O)(=O)[O-])ccc6F)c6ccc3[nH]6)C=C5)C=C4)cc2)CC[N@@H+](Cc2ccc(CC(C)C)cc2)C1
REMARK SMILES IDX 11 1 10 2 9 3 8 4 7 5 6 6 4 7 5 8 3 9 84 10 98 11 85 12
REMARK SMILES IDX 86 13 2 15 1 16 87 17 88 18 89 19 97 20 90 21 96 22 91 23
REMARK SMILES IDX 92 24 93 25 94 26 95 27 12 28 13 29 14 30 15 31 16 32 17 33
REMARK SMILES IDX 18 34 19 35 20 36 21 37 22 38 83 39 23 40 82 41 24 42 25 43
REMARK SMILES IDX 26 44 76 45 27 46 81 47 75 48 77 49 28 50 80 51 74 52 73 53
REMARK SMILES IDX 29 55 61 56 41 57 60 58 42 59 45 60 59 61 78 62 43 63 44 64
REMARK SMILES IDX 58 66 79 67 46 68 30 69 31 70 39 71 32 72 38 73 40 74 37 75
REMARK SMILES IDX 33 76 34 77 35 78 36 79 62 80 63 81 71 82 64 83 70 84 72 85
REMARK SMILES IDX 69 86 65 87 66 88 67 89 68 90 47 91 48 92 56 93 49 94 55 95
REMARK SMILES IDX 57 96 54 97 50 98 51 99 52 100 53 101
REMARK H PARENT 86 14 77 54 45 65
REMARK Flexibility Score: inf
ROOT
ATOM      1  C   UNL A   1      34.491  20.684  24.942  1.00  0.00     0.188 C 
ENDROOT
BRANCH   1   2
ATOM      2  C   UNL A   1      33.050  20.275  25.265  1.00  0.00     0.188 C 
BRANCH   2   3
ATOM      3  O   UNL A   1      31.949  20.993  24.713  1.00  0.00    -0.376 OA
BRANCH   3   4
ATOM      4  C   UNL A   1      31.253  21.940  25.516  1.00  0.00     0.202 C 
BRANCH   4   5
ATOM      5  C   UNL A   1      31.868  23.322  25.798  1.00  0.00     0.261 C 
BRANCH   5   6
ATOM      6  O   UNL A   1      31.116  24.449  25.308  1.00  0.00    -0.463 OA
BRANCH   6   7
ATOM      7  C   UNL A   1      31.095  24.635  23.968  1.00  0.00     0.318 C 
ATOM      8  O   UNL A   1      30.451  23.933  23.193  1.00  0.00    -0.251 OA
BRANCH   7   9
ATOM      9  C   UNL A   1      31.941  25.817  23.473  1.00  0.00     0.122 C 
ATOM     10  C   UNL A   1      31.218  27.061  22.929  1.00  0.00     0.086 C 
ATOM     11  C   UNL A   1      32.586  26.403  24.767  1.00  0.00     0.281 C 
ATOM     12  C   UNL A   1      32.113  28.219  23.350  1.00  0.00     0.263 C 
ATOM     13  N   UNL A   1      32.592  27.879  24.689  1.00  0.00    -0.330 N 
ATOM     14  H   UNL A   1      33.537  28.238  24.827  1.00  0.00     0.348 HD
BRANCH   9  15
ATOM     15  C   UNL A   1      33.019  25.394  22.415  1.00  0.00     0.021 C 
ATOM     16  C   UNL A   1      32.685  25.531  20.935  1.00  0.00     0.005 C 
ENDBRANCH   9  15
BRANCH  13  17
ATOM     17  C   UNL A   1      31.860  28.552  25.795  1.00  0.00     0.299 C 
BRANCH  17  18
ATOM     18  C   UNL A   1      32.713  29.332  26.768  1.00  0.00     0.006 A 
ATOM     19  C   UNL A   1      33.920  28.781  27.234  1.00  0.00     0.010 A 
ATOM     20  C   UNL A   1      32.406  30.668  27.053  1.00  0.00     0.010 A 
ATOM     21  C   UNL A   1      34.906  29.610  27.741  1.00  0.00     0.004 A 
ATOM     22  C   UNL A   1      33.380  31.492  27.580  1.00  0.00     0.004 A 
ATOM     23  C   UNL A   1      34.656  30.978  27.808  1.00  0.00    -0.048 A 
BRANCH  23  24
ATOM     24  C   UNL A   1      35.778  31.939  27.945  1.00  0.00     0.038 C 
BRANCH  24  25
ATOM     25  C   UNL A   1      35.854  32.645  29.282  1.00  0.00    -0.013 C 
ATOM     26  C   UNL A   1      35.486  31.644  30.378  1.00  0.00     0.008 C 
ATOM     27  C   UNL A   1      37.264  33.223  29.275  1.00  0.00     0.008 C 
ENDBRANCH  24  25
ENDBRANCH  23  24
ENDBRANCH  17  18
ENDBRANCH  13  17
ENDBRANCH   7   9
ENDBRANCH   6   7
ENDBRANCH   5   6
ENDBRANCH   4   5
ENDBRANCH   3   4
ENDBRANCH   2   3
ENDBRANCH   1   2
BRANCH   1  28
ATOM     28  O   UNL A   1      35.126  21.374  25.986  1.00  0.00    -0.377 OA
BRANCH  28  29
ATOM     29  C   UNL A   1      35.621  22.674  25.738  1.00  0.00     0.188 C 
BRANCH  29  30
ATOM     30  C   UNL A   1      37.109  22.876  25.469  1.00  0.00     0.188 C 
BRANCH  30  31
ATOM     31  O   UNL A   1      37.861  21.670  25.500  1.00  0.00    -0.376 OA
BRANCH  31  32
ATOM     32  C   UNL A   1      39.234  21.763  25.852  1.00  0.00     0.202 C 
BRANCH  32  33
ATOM     33  C   UNL A   1      40.001  20.458  26.146  1.00  0.00     0.261 C 
BRANCH  33  34
ATOM     34  O   UNL A   1      41.059  20.045  25.255  1.00  0.00    -0.460 OA
BRANCH  34  35
ATOM     35  C   UNL A   1      42.284  19.741  25.758  1.00  0.00     0.338 C 
ATOM     36  O   UNL A   1      42.807  18.648  25.732  1.00  0.00    -0.246 OA
BRANCH  35  37
ATOM     37  C   UNL A   1      42.958  21.003  26.210  1.00  0.00     0.060 A 
ATOM     38  C   UNL A   1      42.835  21.426  27.544  1.00  0.00     0.016 A 
ATOM     39  C   UNL A   1      43.712  21.780  25.330  1.00  0.00     0.016 A 
ATOM     40  C   UNL A   1      43.478  22.603  28.004  1.00  0.00     0.010 A 
ATOM     41  C   UNL A   1      44.333  22.961  25.788  1.00  0.00     0.010 A 
ATOM     42  C   UNL A   1      44.258  23.385  27.138  1.00  0.00    -0.014 A 
BRANCH  42  43
ATOM     43  C   UNL A   1      44.770  24.766  27.483  1.00  0.00     0.031 A 
ATOM     44  C   UNL A   1      43.689  25.785  27.733  1.00  0.00     0.074 A 
ATOM     45  C   UNL A   1      46.058  25.207  27.495  1.00  0.00     0.049 A 
ATOM     46  N   UNL A   1      43.798  27.067  27.953  1.00  0.00    -0.248 NA
ATOM     47  C   UNL A   1      42.310  25.272  27.797  1.00  0.00     0.031 C 
ATOM     48  C   UNL A   1      47.287  24.422  27.512  1.00  0.00     0.029 A 
ATOM     49  N   UNL A   1      46.557  26.495  27.394  1.00  0.00    -0.354 N 
ATOM     50  C   UNL A   1      42.518  27.495  28.265  1.00  0.00     0.074 A 
ATOM     51  C   UNL A   1      41.632  26.365  28.094  1.00  0.00     0.031 C 
ATOM     52  C   UNL A   1      48.340  25.174  27.159  1.00  0.00     0.029 A 
ATOM     53  C   UNL A   1      47.901  26.550  27.058  1.00  0.00     0.049 A 
ATOM     54  H   UNL A   1      46.008  27.298  27.547  1.00  0.00     0.167 HD
ATOM     55  C   UNL A   1      42.124  28.706  28.717  1.00  0.00     0.034 A 
ATOM     56  C   UNL A   1      48.730  27.573  26.762  1.00  0.00     0.034 A 
ATOM     57  C   UNL A   1      42.998  29.844  28.810  1.00  0.00     0.049 A 
ATOM     58  C   UNL A   1      48.236  28.961  27.037  1.00  0.00     0.074 A 
ATOM     59  C   UNL A   1      42.703  31.120  29.250  1.00  0.00     0.029 A 
ATOM     60  N   UNL A   1      44.331  29.856  28.415  1.00  0.00    -0.354 N 
ATOM     61  N   UNL A   1      47.043  29.333  27.431  1.00  0.00    -0.248 NA
ATOM     62  C   UNL A   1      49.215  30.051  26.943  1.00  0.00     0.031 C 
ATOM     63  C   UNL A   1      43.823  31.926  29.031  1.00  0.00     0.029 A 
ATOM     64  C   UNL A   1      44.850  31.134  28.541  1.00  0.00     0.049 A 
ATOM     65  H   UNL A   1      44.831  29.072  28.092  1.00  0.00     0.167 HD
ATOM     66  C   UNL A   1      47.149  30.686  27.720  1.00  0.00     0.074 A 
ATOM     67  C   UNL A   1      48.516  31.070  27.426  1.00  0.00     0.031 C 
ATOM     68  C   UNL A   1      46.205  31.518  28.224  1.00  0.00     0.034 A 
BRANCH  55  69
ATOM     69  C   UNL A   1      40.674  28.839  29.091  1.00  0.00     0.023 A 
ATOM     70  C   UNL A   1      40.269  28.872  30.439  1.00  0.00     0.031 A 
ATOM     71  C   UNL A   1      39.682  28.846  28.099  1.00  0.00     0.131 A 
ATOM     72  C   UNL A   1      38.907  28.827  30.758  1.00  0.00     0.055 A 
ATOM     73  C   UNL A   1      38.326  28.889  28.423  1.00  0.00     0.041 A 
ATOM     74  F   UNL A   1      40.013  28.777  26.800  1.00  0.00    -0.206 F 
ATOM     75  C   UNL A   1      37.931  28.863  29.758  1.00  0.00     0.022 A 
BRANCH  72  76
ATOM     76  S   UNL A   1      38.431  28.549  32.487  1.00  0.00     0.124 S 
ATOM     77  O   UNL A   1      39.417  29.360  33.198  1.00  0.00    -0.237 OA
ATOM     78  O   UNL A   1      37.058  29.038  32.521  1.00  0.00    -0.237 OA
ATOM     79  O   UNL A   1      38.585  27.106  32.656  1.00  0.00    -0.744 OA
ENDBRANCH  72  76
ENDBRANCH  55  69
BRANCH  56  80
ATOM     80  C   UNL A   1      50.127  27.324  26.289  1.00  0.00     0.023 A 
ATOM     81  C   UNL A   1      51.209  27.237  27.183  1.00  0.00     0.031 A 
ATOM     82  C   UNL A   1      50.404  27.191  24.916  1.00  0.00     0.131 A 
ATOM     83  C   UNL A   1      52.515  27.060  26.694  1.00  0.00     0.055 A 
ATOM     84  C   UNL A   1      51.702  26.983  24.436  1.00  0.00     0.041 A 
ATOM     85  F   UNL A   1      49.412  27.264  24.015  1.00  0.00    -0.206 F 
ATOM     86  C   UNL A   1      52.769  26.926  25.327  1.00  0.00     0.022 A 
BRANCH  83  87
ATOM     87  S   UNL A   1      53.897  27.075  27.872  1.00  0.00     0.124 S 
ATOM     88  O   UNL A   1      54.671  28.224  27.413  1.00  0.00    -0.237 OA
ATOM     89  O   UNL A   1      53.203  27.236  29.145  1.00  0.00    -0.237 OA
ATOM     90  O   UNL A   1      54.533  25.775  27.670  1.00  0.00    -0.744 OA
ENDBRANCH  83  87
ENDBRANCH  56  80
BRANCH  68  91
ATOM     91  C   UNL A   1      46.627  32.931  28.519  1.00  0.00     0.023 A 
ATOM     92  C   UNL A   1      46.764  33.884  27.498  1.00  0.00     0.031 A 
ATOM     93  C   UNL A   1      46.883  33.328  29.843  1.00  0.00     0.131 A 
ATOM     94  C   UNL A   1      47.196  35.179  27.811  1.00  0.00     0.055 A 
ATOM     95  C   UNL A   1      47.246  34.637  30.156  1.00  0.00     0.041 A 
ATOM     96  F   UNL A   1      46.774  32.451  30.854  1.00  0.00    -0.206 F 
ATOM     97  C   UNL A   1      47.414  35.569  29.135  1.00  0.00     0.022 A 
BRANCH  94  98
ATOM     98  S   UNL A   1      47.542  36.326  26.452  1.00  0.00     0.124 S 
ATOM     99  O   UNL A   1      48.626  37.130  27.006  1.00  0.00    -0.237 OA
ATOM    100  O   UNL A   1      47.910  35.423  25.366  1.00  0.00    -0.237 OA
ATOM    101  O   UNL A   1      46.275  37.031  26.268  1.00  0.00    -0.744 OA
ENDBRANCH  94  98
ENDBRANCH  68  91
ENDBRANCH  42  43
ENDBRANCH  35  37
ENDBRANCH  34  35
ENDBRANCH  33  34
ENDBRANCH  32  33
ENDBRANCH  31  32
ENDBRANCH  30  31
ENDBRANCH  29  30
ENDBRANCH  28  29
ENDBRANCH   1  28
TORSDOF 28
ENDMDL
MODEL 3
REMARK VINA RESULT:      -9.1      5.635     11.532
REMARK SMILES CC[C@]1(C(=O)OCCOCCOCCOCCOC(=O)c2ccc(-c3c4nc(c(-c5cc(S(=O)(=O)[O-])ccc5F)c5ccc([nH]5)c(-c5cc(S(=O)(=O)[O-])ccc5F)c5nc(c(-c6cc(S(=O)(=O)[O-])ccc6F)c6ccc3[nH]6)C=C5)C=C4)cc2)CC[N@@H+](Cc2ccc(CC(C)C)cc2)C1
REMARK SMILES IDX 11 1 10 2 9 3 8 4 7 5 6 6 4 7 5 8 3 9 84 10 98 11 85 12
REMARK SMILES IDX 86 13 2 15 1 16 87 17 88 18 89 19 97 20 90 21 96 22 91 23
REMARK SMILES IDX 92 24 93 25 94 26 95 27 12 28 13 29 14 30 15 31 16 32 17 33
REMARK SMILES IDX 18 34 19 35 20 36 21 37 22 38 83 39 23 40 82 41 24 42 25 43
REMARK SMILES IDX 26 44 76 45 27 46 81 47 75 48 77 49 28 50 80 51 74 52 73 53
REMARK SMILES IDX 29 55 61 56 41 57 60 58 42 59 45 60 59 61 78 62 43 63 44 64
REMARK SMILES IDX 58 66 79 67 46 68 30 69 31 70 39 71 32 72 38 73 40 74 37 75
REMARK SMILES IDX 33 76 34 77 35 78 36 79 62 80 63 81 71 82 64 83 70 84 72 85
REMARK SMILES IDX 69 86 65 87 66 88 67 89 68 90 47 91 48 92 56 93 49 94 55 95
REMARK SMILES IDX 57 96 54 97 50 98 51 99 52 100 53 101
REMARK H PARENT 86 14 77 54 45 65
REMARK Flexibility Score: inf
ROOT
ATOM      1  C   UNL A   1      33.739  27.236  26.268  1.00  0.00     0.188 C 
ENDROOT
BRANCH   1   2
ATOM      2  C   UNL A   1      34.244  26.336  25.135  1.00  0.00     0.188 C 
BRANCH   2   3
ATOM      3  O   UNL A   1      34.943  25.128  25.422  1.00  0.00    -0.376 OA
BRANCH   3   4
ATOM      4  C   UNL A   1      34.466  23.896  24.892  1.00  0.00     0.202 C 
BRANCH   4   5
ATOM      5  C   UNL A   1      34.663  22.585  25.674  1.00  0.00     0.261 C 
BRANCH   5   6
ATOM      6  O   UNL A   1      33.496  22.088  26.357  1.00  0.00    -0.463 OA
BRANCH   6   7
ATOM      7  C   UNL A   1      32.381  21.905  25.612  1.00  0.00     0.318 C 
ATOM      8  O   UNL A   1      32.272  21.033  24.754  1.00  0.00    -0.251 OA
BRANCH   7   9
ATOM      9  C   UNL A   1      31.235  22.877  25.925  1.00  0.00     0.122 C 
ATOM     10  C   UNL A   1      31.572  24.216  26.603  1.00  0.00     0.086 C 
ATOM     11  C   UNL A   1      30.755  23.377  24.527  1.00  0.00     0.281 C 
ATOM     12  C   UNL A   1      30.564  25.192  26.009  1.00  0.00     0.263 C 
ATOM     13  N   UNL A   1      30.438  24.818  24.601  1.00  0.00    -0.330 N 
ATOM     14  H   UNL A   1      29.487  24.991  24.275  1.00  0.00     0.348 HD
BRANCH   9  15
ATOM     15  C   UNL A   1      30.075  22.209  26.743  1.00  0.00     0.021 C 
ATOM     16  C   UNL A   1      28.949  23.091  27.269  1.00  0.00     0.005 C 
ENDBRANCH   9  15
BRANCH  13  17
ATOM     17  C   UNL A   1      31.225  25.665  23.666  1.00  0.00     0.299 C 
BRANCH  17  18
ATOM     18  C   UNL A   1      30.520  26.895  23.143  1.00  0.00     0.006 A 
ATOM     19  C   UNL A   1      29.157  27.091  23.428  1.00  0.00     0.010 A 
ATOM     20  C   UNL A   1      31.259  27.926  22.549  1.00  0.00     0.010 A 
ATOM     21  C   UNL A   1      28.615  28.364  23.362  1.00  0.00     0.004 A 
ATOM     22  C   UNL A   1      30.713  29.190  22.462  1.00  0.00     0.004 A 
ATOM     23  C   UNL A   1      29.438  29.419  22.978  1.00  0.00    -0.048 A 
BRANCH  23  24
ATOM     24  C   UNL A   1      29.049  30.819  23.277  1.00  0.00     0.038 C 
BRANCH  24  25
ATOM     25  C   UNL A   1      28.947  31.725  22.068  1.00  0.00    -0.013 C 
ATOM     26  C   UNL A   1      27.978  31.091  21.071  1.00  0.00     0.008 C 
ATOM     27  C   UNL A   1      28.572  33.067  22.687  1.00  0.00     0.008 C 
ENDBRANCH  24  25
ENDBRANCH  23  24
ENDBRANCH  17  18
ENDBRANCH  13  17
ENDBRANCH   7   9
ENDBRANCH   6   7
ENDBRANCH   5   6
ENDBRANCH   4   5
ENDBRANCH   3   4
ENDBRANCH   2   3
ENDBRANCH   1   2
BRANCH   1  28
ATOM     28  O   UNL A   1      32.779  28.172  25.855  1.00  0.00    -0.377 OA
BRANCH  28  29
ATOM     29  C   UNL A   1      32.223  29.044  26.818  1.00  0.00     0.188 C 
BRANCH  29  30
ATOM     30  C   UNL A   1      32.759  30.466  26.948  1.00  0.00     0.188 C 
BRANCH  30  31
ATOM     31  O   UNL A   1      31.830  31.462  26.540  1.00  0.00    -0.376 OA
BRANCH  31  32
ATOM     32  C   UNL A   1      31.827  32.688  27.257  1.00  0.00     0.202 C 
BRANCH  32  33
ATOM     33  C   UNL A   1      33.183  33.290  27.678  1.00  0.00     0.261 C 
BRANCH  33  34
ATOM     34  O   UNL A   1      33.239  34.663  28.121  1.00  0.00    -0.460 OA
BRANCH  34  35
ATOM     35  C   UNL A   1      33.541  34.941  29.416  1.00  0.00     0.338 C 
ATOM     36  O   UNL A   1      32.987  35.766  30.110  1.00  0.00    -0.246 OA
BRANCH  35  37
ATOM     37  C   UNL A   1      34.562  33.956  29.905  1.00  0.00     0.060 A 
ATOM     38  C   UNL A   1      34.246  33.082  30.958  1.00  0.00     0.016 A 
ATOM     39  C   UNL A   1      35.834  33.885  29.337  1.00  0.00     0.016 A 
ATOM     40  C   UNL A   1      35.183  32.127  31.426  1.00  0.00     0.010 A 
ATOM     41  C   UNL A   1      36.770  32.947  29.820  1.00  0.00     0.010 A 
ATOM     42  C   UNL A   1      36.460  32.026  30.852  1.00  0.00    -0.014 A 
BRANCH  42  43
ATOM     43  C   UNL A   1      37.588  31.212  31.446  1.00  0.00     0.031 A 
ATOM     44  C   UNL A   1      38.170  31.787  32.711  1.00  0.00     0.074 A 
ATOM     45  C   UNL A   1      38.189  30.105  30.930  1.00  0.00     0.049 A 
ATOM     46  N   UNL A   1      39.200  31.384  33.404  1.00  0.00    -0.248 NA
ATOM     47  C   UNL A   1      37.455  32.935  33.296  1.00  0.00     0.031 C 
ATOM     48  C   UNL A   1      37.712  29.222  29.872  1.00  0.00     0.029 A 
ATOM     49  N   UNL A   1      39.441  29.571  31.188  1.00  0.00    -0.354 N 
ATOM     50  C   UNL A   1      39.205  32.170  34.544  1.00  0.00     0.074 A 
ATOM     51  C   UNL A   1      38.150  33.148  34.399  1.00  0.00     0.031 C 
ATOM     52  C   UNL A   1      38.711  28.468  29.391  1.00  0.00     0.029 A 
ATOM     53  C   UNL A   1      39.878  28.677  30.224  1.00  0.00     0.049 A 
ATOM     54  H   UNL A   1      39.972  29.806  31.983  1.00  0.00     0.167 HD
ATOM     55  C   UNL A   1      39.979  32.047  35.645  1.00  0.00     0.034 A 
ATOM     56  C   UNL A   1      41.048  28.029  30.037  1.00  0.00     0.034 A 
ATOM     57  C   UNL A   1      41.076  31.123  35.749  1.00  0.00     0.049 A 
ATOM     58  C   UNL A   1      42.040  28.063  31.159  1.00  0.00     0.074 A 
ATOM     59  C   UNL A   1      41.928  30.919  36.817  1.00  0.00     0.029 A 
ATOM     60  N   UNL A   1      41.500  30.278  34.731  1.00  0.00    -0.354 N 
ATOM     61  N   UNL A   1      41.973  28.741  32.279  1.00  0.00    -0.248 NA
ATOM     62  C   UNL A   1      43.200  27.169  31.056  1.00  0.00     0.031 C 
ATOM     63  C   UNL A   1      42.924  30.025  36.414  1.00  0.00     0.029 A 
ATOM     64  C   UNL A   1      42.642  29.599  35.125  1.00  0.00     0.049 A 
ATOM     65  H   UNL A   1      41.056  30.177  33.859  1.00  0.00     0.167 HD
ATOM     66  C   UNL A   1      43.033  28.289  33.053  1.00  0.00     0.074 A 
ATOM     67  C   UNL A   1      43.739  27.303  32.260  1.00  0.00     0.031 C 
ATOM     68  C   UNL A   1      43.357  28.636  34.323  1.00  0.00     0.034 A 
BRANCH  55  69
ATOM     69  C   UNL A   1      39.670  32.978  36.785  1.00  0.00     0.023 A 
ATOM     70  C   UNL A   1      40.444  34.132  37.015  1.00  0.00     0.031 A 
ATOM     71  C   UNL A   1      38.650  32.669  37.698  1.00  0.00     0.131 A 
ATOM     72  C   UNL A   1      40.240  34.887  38.176  1.00  0.00     0.055 A 
ATOM     73  C   UNL A   1      38.395  33.476  38.807  1.00  0.00     0.041 A 
ATOM     74  F   UNL A   1      37.909  31.562  37.546  1.00  0.00    -0.206 F 
ATOM     75  C   UNL A   1      39.202  34.583  39.061  1.00  0.00     0.022 A 
BRANCH  72  76
ATOM     76  S   UNL A   1      41.453  36.168  38.600  1.00  0.00     0.124 S 
ATOM     77  O   UNL A   1      42.393  36.064  37.485  1.00  0.00    -0.237 OA
ATOM     78  O   UNL A   1      40.639  37.376  38.638  1.00  0.00    -0.237 OA
ATOM     79  O   UNL A   1      41.979  35.727  39.890  1.00  0.00    -0.744 OA
ENDBRANCH  72  76
ENDBRANCH  55  69
BRANCH  56  80
ATOM     80  C   UNL A   1      41.293  27.215  28.806  1.00  0.00     0.023 A 
ATOM     81  C   UNL A   1      42.234  27.600  27.837  1.00  0.00     0.031 A 
ATOM     82  C   UNL A   1      40.562  26.035  28.574  1.00  0.00     0.131 A 
ATOM     83  C   UNL A   1      42.393  26.838  26.666  1.00  0.00     0.055 A 
ATOM     84  C   UNL A   1      40.746  25.262  27.421  1.00  0.00     0.041 A 
ATOM     85  F   UNL A   1      39.650  25.616  29.465  1.00  0.00    -0.206 F 
ATOM     86  C   UNL A   1      41.660  25.668  26.454  1.00  0.00     0.022 A 
BRANCH  83  87
ATOM     87  S   UNL A   1      43.530  27.436  25.383  1.00  0.00     0.124 S 
ATOM     88  O   UNL A   1      44.274  28.468  26.097  1.00  0.00    -0.237 OA
ATOM     89  O   UNL A   1      44.271  26.223  25.051  1.00  0.00    -0.237 OA
ATOM     90  O   UNL A   1      42.637  27.923  24.335  1.00  0.00    -0.744 OA
ENDBRANCH  83  87
ENDBRANCH  56  80
BRANCH  68  91
ATOM     91  C   UNL A   1      44.521  27.918  34.950  1.00  0.00     0.023 A 
ATOM     92  C   UNL A   1      44.361  26.680  35.590  1.00  0.00     0.031 A 
ATOM     93  C   UNL A   1      45.809  28.479  34.892  1.00  0.00     0.131 A 
ATOM     94  C   UNL A   1      45.463  26.062  36.192  1.00  0.00     0.055 A 
ATOM     95  C   UNL A   1      46.915  27.827  35.435  1.00  0.00     0.041 A 
ATOM     96  F   UNL A   1      46.013  29.666  34.298  1.00  0.00    -0.206 F 
ATOM     97  C   UNL A   1      46.744  26.615  36.098  1.00  0.00     0.022 A 
BRANCH  94  98
ATOM     98  S   UNL A   1      45.186  24.562  37.169  1.00  0.00     0.124 S 
ATOM     99  O   UNL A   1      44.464  23.716  36.224  1.00  0.00    -0.237 OA
ATOM    100  O   UNL A   1      46.546  24.141  37.490  1.00  0.00    -0.237 OA
ATOM    101  O   UNL A   1      44.401  25.034  38.308  1.00  0.00    -0.744 OA
ENDBRANCH  94  98
ENDBRANCH  68  91
ENDBRANCH  42  43
ENDBRANCH  35  37
ENDBRANCH  34  35
ENDBRANCH  33  34
ENDBRANCH  32  33
ENDBRANCH  31  32
ENDBRANCH  30  31
ENDBRANCH  29  30
ENDBRANCH  28  29
ENDBRANCH   1  28
TORSDOF 28
ENDMDL
