MODEL 1
REMARK VINA RESULT:      -8.0      0.000      0.000
REMARK SMILES O=C(OCCOCCOCCOCCOC(=O)[C@H]1O[C@@H](Oc2c(-c3cc(O)c(O)c(O)c3)oc3cc(O)cc(O)c3c2=O)[C@H](O)[C@@H](O)[C@@H]1O)c1ccc(-c2c3nc(c(-c4cc(S(=O)(=O)[O-])ccc4F)c4ccc([nH]4)c(-c4cc(S(=O)(=O)[O-])ccc4F)c4nc(c(-c5cc(S(=O)(=O)[O-])ccc5F)c5ccc2[nH]5)C=C4)C=C3)cc1
REMARK SMILES IDX 10 1 9 2 8 3 7 4 6 5 5 6 4 7 3 8 2 9 1 10 50 11 51 12 112 13
REMARK SMILES IDX 52 14 111 15 53 16 54 17 55 18 105 19 56 20 110 21 104 22
REMARK SMILES IDX 106 23 57 24 109 25 103 26 102 27 58 29 90 30 70 31 89 32
REMARK SMILES IDX 71 33 74 34 88 35 107 36 72 37 73 38 87 40 108 41 75 42
REMARK SMILES IDX 59 43 60 44 68 45 61 46 67 47 69 48 66 49 62 50 63 51 64 52
REMARK SMILES IDX 65 53 91 54 92 55 100 56 93 57 99 58 101 59 98 60 94 61
REMARK SMILES IDX 95 62 96 63 97 64 76 65 77 66 85 67 78 68 84 69 86 70 83 71
REMARK SMILES IDX 79 72 80 73 81 74 82 75 11 76 12 77 13 78 14 79 15 80 16 81
REMARK SMILES IDX 17 82 18 83 19 84 48 85 20 86 46 87 44 88 49 89 21 91 22 92
REMARK SMILES IDX 23 93 42 94 33 95 41 96 43 97 34 98 39 99 35 100 38 101
REMARK SMILES IDX 36 102 24 103 25 104 32 105 26 106 30 107 28 108 27 109
REMARK SMILES IDX 31 111 29 113 40 115 37 117 47 119 45 121
REMARK H PARENT 106 28 74 39 49 90 27 110 31 112 29 114 40 116 37 118 47 120
REMARK H PARENT 45 122
REMARK Flexibility Score: inf
ROOT
ATOM      1  C   UNL A   1      51.369  31.140  28.923  1.00  0.00     0.188 C 
ENDROOT
BRANCH   1   2
ATOM      2  O   UNL A   1      52.134  32.235  28.427  1.00  0.00    -0.377 OA
BRANCH   2   3
ATOM      3  C   UNL A   1      53.548  32.059  28.472  1.00  0.00     0.188 C 
BRANCH   3   4
ATOM      4  C   UNL A   1      54.368  33.336  28.274  1.00  0.00     0.188 C 
BRANCH   4   5
ATOM      5  O   UNL A   1      55.098  33.662  29.450  1.00  0.00    -0.376 OA
BRANCH   5   6
ATOM      6  C   UNL A   1      54.586  33.256  30.716  1.00  0.00     0.202 C 
BRANCH   6   7
ATOM      7  C   UNL A   1      53.867  34.326  31.520  1.00  0.00     0.261 C 
BRANCH   7   8
ATOM      8  O   UNL A   1      53.006  33.820  32.541  1.00  0.00    -0.460 OA
BRANCH   8   9
ATOM      9  C   UNL A   1      51.840  34.329  32.997  1.00  0.00     0.338 C 
ATOM     10  O   UNL A   1      51.898  35.302  33.749  1.00  0.00    -0.246 OA
BRANCH   9  11
ATOM     11  C   UNL A   1      50.488  33.793  32.664  1.00  0.00     0.060 A 
ATOM     12  C   UNL A   1      50.144  33.056  31.530  1.00  0.00     0.016 A 
ATOM     13  C   UNL A   1      49.506  33.966  33.649  1.00  0.00     0.016 A 
ATOM     14  C   UNL A   1      48.886  32.521  31.344  1.00  0.00     0.010 A 
ATOM     15  C   UNL A   1      48.224  33.445  33.476  1.00  0.00     0.010 A 
ATOM     16  C   UNL A   1      47.920  32.743  32.306  1.00  0.00    -0.014 A 
BRANCH  16  17
ATOM     17  C   UNL A   1      46.537  32.471  31.917  1.00  0.00     0.031 A 
ATOM     18  C   UNL A   1      45.876  33.508  31.076  1.00  0.00     0.074 A 
ATOM     19  C   UNL A   1      45.978  31.285  32.192  1.00  0.00     0.049 A 
ATOM     20  N   UNL A   1      44.621  33.660  30.777  1.00  0.00    -0.248 NA
ATOM     21  C   UNL A   1      46.768  34.530  30.498  1.00  0.00     0.031 C 
ATOM     22  C   UNL A   1      46.665  30.150  32.814  1.00  0.00     0.029 A 
ATOM     23  N   UNL A   1      44.706  30.839  31.982  1.00  0.00    -0.354 N 
ATOM     24  C   UNL A   1      44.560  34.833  30.034  1.00  0.00     0.074 A 
ATOM     25  C   UNL A   1      45.904  35.347  29.926  1.00  0.00     0.031 C 
ATOM     26  C   UNL A   1      45.790  29.144  32.965  1.00  0.00     0.029 A 
ATOM     27  C   UNL A   1      44.473  29.610  32.548  1.00  0.00     0.049 A 
ATOM     28  H   UNL A   1      44.027  31.344  31.477  1.00  0.00     0.167 HD
ATOM     29  C   UNL A   1      43.453  35.421  29.526  1.00  0.00     0.034 A 
ATOM     30  C   UNL A   1      43.300  28.994  32.781  1.00  0.00     0.034 A 
ATOM     31  C   UNL A   1      42.148  34.841  29.712  1.00  0.00     0.049 A 
ATOM     32  C   UNL A   1      42.054  29.720  32.341  1.00  0.00     0.074 A 
ATOM     33  C   UNL A   1      40.912  35.333  29.349  1.00  0.00     0.029 A 
ATOM     34  N   UNL A   1      41.926  33.615  30.343  1.00  0.00    -0.354 N 
ATOM     35  N   UNL A   1      41.954  30.893  31.752  1.00  0.00    -0.248 NA
ATOM     36  C   UNL A   1      40.774  29.062  32.601  1.00  0.00     0.031 C 
ATOM     37  C   UNL A   1      39.942  34.446  29.831  1.00  0.00     0.029 A 
ATOM     38  C   UNL A   1      40.572  33.348  30.407  1.00  0.00     0.049 A 
ATOM     39  H   UNL A   1      42.631  33.025  30.692  1.00  0.00     0.167 HD
ATOM     40  C   UNL A   1      40.598  31.102  31.538  1.00  0.00     0.074 A 
ATOM     41  C   UNL A   1      39.921  29.932  32.072  1.00  0.00     0.031 C 
ATOM     42  C   UNL A   1      39.964  32.151  30.949  1.00  0.00     0.034 A 
BRANCH  29  43
ATOM     43  C   UNL A   1      43.639  36.783  28.900  1.00  0.00     0.023 A 
ATOM     44  C   UNL A   1      43.578  37.970  29.656  1.00  0.00     0.031 A 
ATOM     45  C   UNL A   1      43.702  36.903  27.500  1.00  0.00     0.131 A 
ATOM     46  C   UNL A   1      43.445  39.208  29.006  1.00  0.00     0.055 A 
ATOM     47  C   UNL A   1      43.683  38.146  26.864  1.00  0.00     0.041 A 
ATOM     48  F   UNL A   1      43.722  35.811  26.719  1.00  0.00    -0.206 F 
ATOM     49  C   UNL A   1      43.526  39.307  27.615  1.00  0.00     0.022 A 
BRANCH  46  50
ATOM     50  S   UNL A   1      42.930  40.649  29.987  1.00  0.00     0.124 S 
ATOM     51  O   UNL A   1      43.130  40.169  31.354  1.00  0.00    -0.237 OA
ATOM     52  O   UNL A   1      43.849  41.686  29.538  1.00  0.00    -0.237 OA
ATOM     53  O   UNL A   1      41.532  40.844  29.606  1.00  0.00    -0.744 OA
ENDBRANCH  46  50
ENDBRANCH  29  43
BRANCH  30  54
ATOM     54  C   UNL A   1      43.269  27.714  33.544  1.00  0.00     0.023 A 
ATOM     55  C   UNL A   1      42.585  27.601  34.761  1.00  0.00     0.031 A 
ATOM     56  C   UNL A   1      43.909  26.562  33.040  1.00  0.00     0.131 A 
ATOM     57  C   UNL A   1      42.567  26.370  35.442  1.00  0.00     0.055 A 
ATOM     58  C   UNL A   1      43.846  25.331  33.694  1.00  0.00     0.041 A 
ATOM     59  F   UNL A   1      44.580  26.611  31.878  1.00  0.00    -0.206 F 
ATOM     60  C   UNL A   1      43.176  25.232  34.908  1.00  0.00     0.022 A 
BRANCH  57  61
ATOM     61  S   UNL A   1      41.776  26.287  37.071  1.00  0.00     0.124 S 
ATOM     62  O   UNL A   1      41.031  27.542  37.105  1.00  0.00    -0.237 OA
ATOM     63  O   UNL A   1      40.978  25.070  36.960  1.00  0.00    -0.237 OA
ATOM     64  O   UNL A   1      42.905  26.207  37.996  1.00  0.00    -0.744 OA
ENDBRANCH  57  61
ENDBRANCH  30  54
BRANCH  42  65
ATOM     65  C   UNL A   1      38.474  32.032  30.783  1.00  0.00     0.023 A 
ATOM     66  C   UNL A   1      37.575  32.654  31.661  1.00  0.00     0.031 A 
ATOM     67  C   UNL A   1      37.960  31.334  29.675  1.00  0.00     0.131 A 
ATOM     68  C   UNL A   1      36.198  32.544  31.429  1.00  0.00     0.055 A 
ATOM     69  C   UNL A   1      36.594  31.281  29.416  1.00  0.00     0.041 A 
ATOM     70  F   UNL A   1      38.786  30.721  28.811  1.00  0.00    -0.206 F 
ATOM     71  C   UNL A   1      35.703  31.883  30.299  1.00  0.00     0.022 A 
BRANCH  68  72
ATOM     72  S   UNL A   1      35.053  33.230  32.653  1.00  0.00     0.124 S 
ATOM     73  O   UNL A   1      35.621  32.737  33.905  1.00  0.00    -0.237 OA
ATOM     74  O   UNL A   1      35.167  34.666  32.422  1.00  0.00    -0.237 OA
ATOM     75  O   UNL A   1      33.766  32.643  32.283  1.00  0.00    -0.744 OA
ENDBRANCH  68  72
ENDBRANCH  42  65
ENDBRANCH  16  17
ENDBRANCH   9  11
ENDBRANCH   8   9
ENDBRANCH   7   8
ENDBRANCH   6   7
ENDBRANCH   5   6
ENDBRANCH   4   5
ENDBRANCH   3   4
ENDBRANCH   2   3
ENDBRANCH   1   2
BRANCH   1  76
ATOM     76  C   UNL A   1      51.234  29.840  28.091  1.00  0.00     0.188 C 
BRANCH  76  77
ATOM     77  O   UNL A   1      50.310  28.922  28.649  1.00  0.00    -0.376 OA
BRANCH  77  78
ATOM     78  C   UNL A   1      49.359  28.304  27.794  1.00  0.00     0.202 C 
BRANCH  78  79
ATOM     79  C   UNL A   1      48.422  29.135  26.891  1.00  0.00     0.261 C 
BRANCH  79  80
ATOM     80  O   UNL A   1      47.081  28.648  26.781  1.00  0.00    -0.461 OA
BRANCH  80  81
ATOM     81  C   UNL A   1      46.119  29.437  26.247  1.00  0.00     0.338 C 
ATOM     82  O   UNL A   1      46.329  30.438  25.562  1.00  0.00    -0.249 OA
BRANCH  81  83
ATOM     83  C   UNL A   1      44.707  28.880  26.531  1.00  0.00     0.263 C 
ATOM     84  O   UNL A   1      44.713  27.499  26.971  1.00  0.00    -0.322 OA
ATOM     85  C   UNL A   1      43.997  29.782  27.556  1.00  0.00     0.186 C 
ATOM     86  C   UNL A   1      43.424  26.902  27.149  1.00  0.00     0.340 C 
ATOM     87  C   UNL A   1      42.547  29.341  27.653  1.00  0.00     0.181 C 
ATOM     88  C   UNL A   1      42.401  27.833  27.820  1.00  0.00     0.214 C 
BRANCH  85  89
ATOM     89  O   UNL A   1      44.058  31.172  27.219  1.00  0.00    -0.387 OA
ATOM     90  H   UNL A   1      44.291  31.685  28.008  1.00  0.00     0.211 HD
ENDBRANCH  85  89
BRANCH  86  91
ATOM     91  O   UNL A   1      43.396  25.538  27.710  1.00  0.00    -0.454 OA
BRANCH  91  92
ATOM     92  C   UNL A   1      43.488  24.314  27.039  1.00  0.00     0.214 A 
ATOM     93  C   UNL A   1      44.576  23.825  26.383  1.00  0.00     0.181 A 
ATOM     94  C   UNL A   1      42.443  23.263  27.376  1.00  0.00     0.239 A 
ATOM     95  O   UNL A   1      44.668  22.582  25.785  1.00  0.00    -0.452 OA
ATOM     96  C   UNL A   1      42.671  21.851  26.924  1.00  0.00     0.111 A 
ATOM     97  O   UNL A   1      41.439  23.588  28.000  1.00  0.00    -0.285 OA
ATOM     98  C   UNL A   1      43.762  21.615  26.099  1.00  0.00     0.146 A 
ATOM     99  C   UNL A   1      41.825  20.761  27.210  1.00  0.00     0.134 A 
ATOM    100  C   UNL A   1      43.991  20.358  25.522  1.00  0.00     0.094 A 
ATOM    101  C   UNL A   1      42.047  19.492  26.643  1.00  0.00     0.093 A 
ATOM    102  C   UNL A   1      43.124  19.309  25.785  1.00  0.00     0.123 A 
BRANCH  93 103
ATOM    103  C   UNL A   1      45.837  24.550  26.168  1.00  0.00     0.029 A 
ATOM    104  C   UNL A   1      46.834  24.474  27.160  1.00  0.00     0.062 A 
ATOM    105  C   UNL A   1      46.088  25.227  24.965  1.00  0.00     0.062 A 
ATOM    106  C   UNL A   1      48.121  24.888  26.848  1.00  0.00     0.162 A 
ATOM    107  C   UNL A   1      47.370  25.703  24.712  1.00  0.00     0.162 A 
ATOM    108  C   UNL A   1      48.390  25.509  25.636  1.00  0.00     0.200 A 
BRANCH 106 109
ATOM    109  O   UNL A   1      49.168  24.504  27.639  1.00  0.00    -0.504 OA
ATOM    110  H   UNL A   1      49.467  23.617  27.621  1.00  0.00     0.293 HD
ENDBRANCH 106 109
BRANCH 107 111
ATOM    111  O   UNL A   1      47.658  26.234  23.487  1.00  0.00    -0.504 OA
ATOM    112  H   UNL A   1      47.042  26.800  23.065  1.00  0.00     0.293 HD
ENDBRANCH 107 111
BRANCH 108 113
ATOM    113  O   UNL A   1      49.675  25.838  25.296  1.00  0.00    -0.502 OA
ATOM    114  H   UNL A   1      50.182  26.391  25.856  1.00  0.00     0.293 HD
ENDBRANCH 108 113
ENDBRANCH  93 103
BRANCH  99 115
ATOM    115  O   UNL A   1      40.742  20.912  28.027  1.00  0.00    -0.507 OA
ATOM    116  H   UNL A   1      40.508  21.764  28.342  1.00  0.00     0.293 HD
ENDBRANCH  99 115
BRANCH 102 117
ATOM    117  O   UNL A   1      43.352  18.124  25.152  1.00  0.00    -0.508 OA
ATOM    118  H   UNL A   1      42.954  17.951  24.322  1.00  0.00     0.293 HD
ENDBRANCH 102 117
ENDBRANCH  91  92
ENDBRANCH  86  91
BRANCH  87 119
ATOM    119  O   UNL A   1      41.892  30.004  28.772  1.00  0.00    -0.387 OA
ATOM    120  H   UNL A   1      42.536  30.558  29.240  1.00  0.00     0.211 HD
ENDBRANCH  87 119
BRANCH  88 121
ATOM    121  O   UNL A   1      41.066  27.517  27.402  1.00  0.00    -0.384 OA
ATOM    122  H   UNL A   1      40.975  27.696  26.453  1.00  0.00     0.211 HD
ENDBRANCH  88 121
ENDBRANCH  81  83
ENDBRANCH  80  81
ENDBRANCH  79  80
ENDBRANCH  78  79
ENDBRANCH  77  78
ENDBRANCH  76  77
ENDBRANCH   1  76
TORSDOF 34
ENDMDL
MODEL 2
REMARK VINA RESULT:      -8.0      4.380      6.879
REMARK SMILES O=C(OCCOCCOCCOCCOC(=O)[C@H]1O[C@@H](Oc2c(-c3cc(O)c(O)c(O)c3)oc3cc(O)cc(O)c3c2=O)[C@H](O)[C@@H](O)[C@@H]1O)c1ccc(-c2c3nc(c(-c4cc(S(=O)(=O)[O-])ccc4F)c4ccc([nH]4)c(-c4cc(S(=O)(=O)[O-])ccc4F)c4nc(c(-c5cc(S(=O)(=O)[O-])ccc5F)c5ccc2[nH]5)C=C4)C=C3)cc1
REMARK SMILES IDX 10 1 9 2 8 3 7 4 6 5 5 6 4 7 3 8 2 9 1 10 50 11 51 12 112 13
REMARK SMILES IDX 52 14 111 15 53 16 54 17 55 18 105 19 56 20 110 21 104 22
REMARK SMILES IDX 106 23 57 24 109 25 103 26 102 27 58 29 90 30 70 31 89 32
REMARK SMILES IDX 71 33 74 34 88 35 107 36 72 37 73 38 87 40 108 41 75 42
REMARK SMILES IDX 59 43 60 44 68 45 61 46 67 47 69 48 66 49 62 50 63 51 64 52
REMARK SMILES IDX 65 53 91 54 92 55 100 56 93 57 99 58 101 59 98 60 94 61
REMARK SMILES IDX 95 62 96 63 97 64 76 65 77 66 85 67 78 68 84 69 86 70 83 71
REMARK SMILES IDX 79 72 80 73 81 74 82 75 11 76 12 77 13 78 14 79 15 80 16 81
REMARK SMILES IDX 17 82 18 83 19 84 48 85 20 86 46 87 44 88 49 89 21 91 22 92
REMARK SMILES IDX 23 93 42 94 33 95 41 96 43 97 34 98 39 99 35 100 38 101
REMARK SMILES IDX 36 102 24 103 25 104 32 105 26 106 30 107 28 108 27 109
REMARK SMILES IDX 31 111 29 113 40 115 37 117 47 119 45 121
REMARK H PARENT 106 28 74 39 49 90 27 110 31 112 29 114 40 116 37 118 47 120
REMARK H PARENT 45 122
REMARK Flexibility Score: inf
ROOT
ATOM      1  C   UNL A   1      49.314  31.458  31.553  1.00  0.00     0.188 C 
ENDROOT
BRANCH   1   2
ATOM      2  O   UNL A   1      49.411  32.712  30.885  1.00  0.00    -0.377 OA
BRANCH   2   3
ATOM      3  C   UNL A   1      50.379  32.771  29.839  1.00  0.00     0.188 C 
BRANCH   3   4
ATOM      4  C   UNL A   1      49.852  33.279  28.495  1.00  0.00     0.188 C 
BRANCH   4   5
ATOM      5  O   UNL A   1      48.433  33.199  28.439  1.00  0.00    -0.376 OA
BRANCH   5   6
ATOM      6  C   UNL A   1      47.812  32.799  27.221  1.00  0.00     0.202 C 
BRANCH   6   7
ATOM      7  C   UNL A   1      47.127  33.898  26.427  1.00  0.00     0.261 C 
BRANCH   7   8
ATOM      8  O   UNL A   1      46.744  35.036  27.200  1.00  0.00    -0.460 OA
BRANCH   8   9
ATOM      9  C   UNL A   1      45.509  35.546  27.405  1.00  0.00     0.338 C 
ATOM     10  O   UNL A   1      45.079  36.349  26.576  1.00  0.00    -0.246 OA
BRANCH   9  11
ATOM     11  C   UNL A   1      44.632  35.215  28.565  1.00  0.00     0.060 A 
ATOM     12  C   UNL A   1      44.183  36.101  29.545  1.00  0.00     0.016 A 
ATOM     13  C   UNL A   1      44.136  33.904  28.598  1.00  0.00     0.016 A 
ATOM     14  C   UNL A   1      43.299  35.728  30.536  1.00  0.00     0.010 A 
ATOM     15  C   UNL A   1      43.252  33.502  29.599  1.00  0.00     0.010 A 
ATOM     16  C   UNL A   1      42.858  34.420  30.578  1.00  0.00    -0.014 A 
BRANCH  16  17
ATOM     17  C   UNL A   1      42.218  33.985  31.818  1.00  0.00     0.031 A 
ATOM     18  C   UNL A   1      40.728  33.985  31.822  1.00  0.00     0.074 A 
ATOM     19  C   UNL A   1      42.954  33.483  32.819  1.00  0.00     0.049 A 
ATOM     20  N   UNL A   1      39.900  33.879  32.817  1.00  0.00    -0.248 NA
ATOM     21  C   UNL A   1      40.083  34.139  30.506  1.00  0.00     0.031 C 
ATOM     22  C   UNL A   1      44.400  33.249  32.771  1.00  0.00     0.029 A 
ATOM     23  N   UNL A   1      42.585  33.077  34.068  1.00  0.00    -0.354 N 
ATOM     24  C   UNL A   1      38.636  34.024  32.259  1.00  0.00     0.074 A 
ATOM     25  C   UNL A   1      38.809  34.219  30.839  1.00  0.00     0.031 C 
ATOM     26  C   UNL A   1      44.801  32.771  33.959  1.00  0.00     0.029 A 
ATOM     27  C   UNL A   1      43.659  32.769  34.866  1.00  0.00     0.049 A 
ATOM     28  H   UNL A   1      41.649  33.013  34.366  1.00  0.00     0.167 HD
ATOM     29  C   UNL A   1      37.450  34.020  32.910  1.00  0.00     0.034 A 
ATOM     30  C   UNL A   1      43.703  32.603  36.200  1.00  0.00     0.034 A 
ATOM     31  C   UNL A   1      37.385  33.844  34.338  1.00  0.00     0.049 A 
ATOM     32  C   UNL A   1      42.399  32.742  36.943  1.00  0.00     0.074 A 
ATOM     33  C   UNL A   1      36.291  33.898  35.176  1.00  0.00     0.029 A 
ATOM     34  N   UNL A   1      38.497  33.587  35.141  1.00  0.00    -0.354 N 
ATOM     35  N   UNL A   1      41.204  33.008  36.458  1.00  0.00    -0.248 NA
ATOM     36  C   UNL A   1      42.439  32.575  38.396  1.00  0.00     0.031 C 
ATOM     37  C   UNL A   1      36.754  33.755  36.490  1.00  0.00     0.029 A 
ATOM     38  C   UNL A   1      38.122  33.510  36.468  1.00  0.00     0.049 A 
ATOM     39  H   UNL A   1      39.417  33.477  34.810  1.00  0.00     0.167 HD
ATOM     40  C   UNL A   1      40.339  33.008  37.545  1.00  0.00     0.074 A 
ATOM     41  C   UNL A   1      41.158  32.722  38.711  1.00  0.00     0.031 C 
ATOM     42  C   UNL A   1      38.995  33.212  37.585  1.00  0.00     0.034 A 
BRANCH  29  43
ATOM     43  C   UNL A   1      36.229  34.366  32.092  1.00  0.00     0.023 A 
ATOM     44  C   UNL A   1      35.527  35.574  32.267  1.00  0.00     0.031 A 
ATOM     45  C   UNL A   1      35.658  33.396  31.249  1.00  0.00     0.131 A 
ATOM     46  C   UNL A   1      34.241  35.723  31.721  1.00  0.00     0.055 A 
ATOM     47  C   UNL A   1      34.428  33.597  30.618  1.00  0.00     0.041 A 
ATOM     48  F   UNL A   1      36.255  32.206  31.070  1.00  0.00    -0.206 F 
ATOM     49  C   UNL A   1      33.698  34.754  30.874  1.00  0.00     0.022 A 
BRANCH  46  50
ATOM     50  S   UNL A   1      33.198  37.084  32.323  1.00  0.00     0.124 S 
ATOM     51  O   UNL A   1      32.041  36.364  32.852  1.00  0.00    -0.237 OA
ATOM     52  O   UNL A   1      34.052  37.727  33.313  1.00  0.00    -0.237 OA
ATOM     53  O   UNL A   1      32.931  37.872  31.121  1.00  0.00    -0.744 OA
ENDBRANCH  46  50
ENDBRANCH  29  43
BRANCH  30  54
ATOM     54  C   UNL A   1      45.013  32.411  36.885  1.00  0.00     0.023 A 
ATOM     55  C   UNL A   1      45.541  31.135  37.116  1.00  0.00     0.031 A 
ATOM     56  C   UNL A   1      45.778  33.523  37.294  1.00  0.00     0.131 A 
ATOM     57  C   UNL A   1      46.788  30.998  37.751  1.00  0.00     0.055 A 
ATOM     58  C   UNL A   1      47.037  33.384  37.879  1.00  0.00     0.041 A 
ATOM     59  F   UNL A   1      45.323  34.772  37.100  1.00  0.00    -0.206 F 
ATOM     60  C   UNL A   1      47.546  32.113  38.117  1.00  0.00     0.022 A 
BRANCH  57  61
ATOM     61  S   UNL A   1      47.388  29.333  38.144  1.00  0.00     0.124 S 
ATOM     62  O   UNL A   1      46.154  28.556  38.109  1.00  0.00    -0.237 OA
ATOM     63  O   UNL A   1      48.333  29.087  37.059  1.00  0.00    -0.237 OA
ATOM     64  O   UNL A   1      47.989  29.489  39.467  1.00  0.00    -0.744 OA
ENDBRANCH  57  61
ENDBRANCH  30  54
BRANCH  42  65
ATOM     65  C   UNL A   1      38.327  33.050  38.922  1.00  0.00     0.023 A 
ATOM     66  C   UNL A   1      38.468  34.000  39.945  1.00  0.00     0.031 A 
ATOM     67  C   UNL A   1      37.478  31.949  39.137  1.00  0.00     0.131 A 
ATOM     68  C   UNL A   1      37.784  33.816  41.154  1.00  0.00     0.055 A 
ATOM     69  C   UNL A   1      36.755  31.805  40.317  1.00  0.00     0.041 A 
ATOM     70  F   UNL A   1      37.318  31.015  38.185  1.00  0.00    -0.206 F 
ATOM     71  C   UNL A   1      36.911  32.739  41.337  1.00  0.00     0.022 A 
BRANCH  68  72
ATOM     72  S   UNL A   1      38.093  34.975  42.511  1.00  0.00     0.124 S 
ATOM     73  O   UNL A   1      38.385  36.211  41.791  1.00  0.00    -0.237 OA
ATOM     74  O   UNL A   1      36.832  34.946  43.244  1.00  0.00    -0.237 OA
ATOM     75  O   UNL A   1      39.231  34.383  43.213  1.00  0.00    -0.744 OA
ENDBRANCH  68  72
ENDBRANCH  42  65
ENDBRANCH  16  17
ENDBRANCH   9  11
ENDBRANCH   8   9
ENDBRANCH   7   8
ENDBRANCH   6   7
ENDBRANCH   5   6
ENDBRANCH   4   5
ENDBRANCH   3   4
ENDBRANCH   2   3
ENDBRANCH   1   2
BRANCH   1  76
ATOM     76  C   UNL A   1      48.595  30.264  30.875  1.00  0.00     0.188 C 
BRANCH  76  77
ATOM     77  O   UNL A   1      47.867  29.466  31.793  1.00  0.00    -0.376 OA
BRANCH  77  78
ATOM     78  C   UNL A   1      48.323  28.150  32.068  1.00  0.00     0.202 C 
BRANCH  78  79
ATOM     79  C   UNL A   1      47.359  27.044  32.549  1.00  0.00     0.261 C 
BRANCH  79  80
ATOM     80  O   UNL A   1      46.058  27.060  31.953  1.00  0.00    -0.461 OA
BRANCH  80  81
ATOM     81  C   UNL A   1      45.693  26.071  31.105  1.00  0.00     0.338 C 
ATOM     82  O   UNL A   1      45.158  25.015  31.442  1.00  0.00    -0.249 OA
BRANCH  81  83
ATOM     83  C   UNL A   1      45.954  26.461  29.633  1.00  0.00     0.263 C 
ATOM     84  O   UNL A   1      45.643  25.401  28.696  1.00  0.00    -0.322 OA
ATOM     85  C   UNL A   1      45.173  27.742  29.295  1.00  0.00     0.186 C 
ATOM     86  C   UNL A   1      45.965  25.672  27.327  1.00  0.00     0.340 C 
ATOM     87  C   UNL A   1      45.613  28.220  27.923  1.00  0.00     0.181 C 
ATOM     88  C   UNL A   1      45.620  27.104  26.885  1.00  0.00     0.214 C 
BRANCH  85  89
ATOM     89  O   UNL A   1      45.364  28.787  30.256  1.00  0.00    -0.387 OA
ATOM     90  H   UNL A   1      46.036  29.406  29.930  1.00  0.00     0.211 HD
ENDBRANCH  85  89
BRANCH  86  91
ATOM     91  O   UNL A   1      45.551  24.662  26.334  1.00  0.00    -0.454 OA
BRANCH  91  92
ATOM     92  C   UNL A   1      44.551  23.691  26.441  1.00  0.00     0.214 A 
ATOM     93  C   UNL A   1      43.209  23.907  26.521  1.00  0.00     0.181 A 
ATOM     94  C   UNL A   1      44.927  22.269  26.054  1.00  0.00     0.239 A 
ATOM     95  O   UNL A   1      42.233  22.929  26.556  1.00  0.00    -0.452 OA
ATOM     96  C   UNL A   1      43.832  21.263  25.859  1.00  0.00     0.111 A 
ATOM     97  O   UNL A   1      46.109  21.974  25.918  1.00  0.00    -0.285 OA
ATOM     98  C   UNL A   1      42.541  21.657  26.181  1.00  0.00     0.146 A 
ATOM     99  C   UNL A   1      44.021  19.929  25.444  1.00  0.00     0.134 A 
ATOM    100  C   UNL A   1      41.467  20.755  26.153  1.00  0.00     0.094 A 
ATOM    101  C   UNL A   1      42.950  19.016  25.405  1.00  0.00     0.093 A 
ATOM    102  C   UNL A   1      41.681  19.437  25.781  1.00  0.00     0.123 A 
BRANCH  93 103
ATOM    103  C   UNL A   1      42.564  25.225  26.616  1.00  0.00     0.029 A 
ATOM    104  C   UNL A   1      42.060  25.639  27.865  1.00  0.00     0.062 A 
ATOM    105  C   UNL A   1      42.530  26.096  25.517  1.00  0.00     0.062 A 
ATOM    106  C   UNL A   1      41.730  26.975  28.043  1.00  0.00     0.162 A 
ATOM    107  C   UNL A   1      42.119  27.411  25.709  1.00  0.00     0.162 A 
ATOM    108  C   UNL A   1      41.748  27.857  26.972  1.00  0.00     0.200 A 
BRANCH 106 109
ATOM    109  O   UNL A   1      41.587  27.475  29.307  1.00  0.00    -0.504 OA
ATOM    110  H   UNL A   1      41.076  28.246  29.451  1.00  0.00     0.293 HD
ENDBRANCH 106 109
BRANCH 107 111
ATOM    111  O   UNL A   1      42.220  28.302  24.678  1.00  0.00    -0.504 OA
ATOM    112  H   UNL A   1      42.173  28.001  23.793  1.00  0.00     0.293 HD
ENDBRANCH 107 111
BRANCH 108 113
ATOM    113  O   UNL A   1      41.507  29.191  27.168  1.00  0.00    -0.502 OA
ATOM    114  H   UNL A   1      41.923  29.644  27.874  1.00  0.00     0.293 HD
ENDBRANCH 108 113
ENDBRANCH  93 103
BRANCH  99 115
ATOM    115  O   UNL A   1      45.259  19.474  25.096  1.00  0.00    -0.507 OA
ATOM    116  H   UNL A   1      46.019  19.986  25.294  1.00  0.00     0.293 HD
ENDBRANCH  99 115
BRANCH 102 117
ATOM    117  O   UNL A   1      40.619  18.584  25.829  1.00  0.00    -0.508 OA
ATOM    118  H   UNL A   1      40.438  18.105  26.613  1.00  0.00     0.293 HD
ENDBRANCH 102 117
ENDBRANCH  91  92
ENDBRANCH  86  91
BRANCH  87 119
ATOM    119  O   UNL A   1      44.742  29.291  27.458  1.00  0.00    -0.387 OA
ATOM    120  H   UNL A   1      45.090  29.651  26.627  1.00  0.00     0.211 HD
ENDBRANCH  87 119
BRANCH  88 121
ATOM    121  O   UNL A   1      46.493  27.544  25.838  1.00  0.00    -0.384 OA
ATOM    122  H   UNL A   1      47.409  27.537  26.158  1.00  0.00     0.211 HD
ENDBRANCH  88 121
ENDBRANCH  81  83
ENDBRANCH  80  81
ENDBRANCH  79  80
ENDBRANCH  78  79
ENDBRANCH  77  78
ENDBRANCH  76  77
ENDBRANCH   1  76
TORSDOF 34
ENDMDL
MODEL 3
REMARK VINA RESULT:      -7.8      4.440      7.400
REMARK SMILES O=C(OCCOCCOCCOCCOC(=O)[C@H]1O[C@@H](Oc2c(-c3cc(O)c(O)c(O)c3)oc3cc(O)cc(O)c3c2=O)[C@H](O)[C@@H](O)[C@@H]1O)c1ccc(-c2c3nc(c(-c4cc(S(=O)(=O)[O-])ccc4F)c4ccc([nH]4)c(-c4cc(S(=O)(=O)[O-])ccc4F)c4nc(c(-c5cc(S(=O)(=O)[O-])ccc5F)c5ccc2[nH]5)C=C4)C=C3)cc1
REMARK SMILES IDX 10 1 9 2 8 3 7 4 6 5 5 6 4 7 3 8 2 9 1 10 50 11 51 12 112 13
REMARK SMILES IDX 52 14 111 15 53 16 54 17 55 18 105 19 56 20 110 21 104 22
REMARK SMILES IDX 106 23 57 24 109 25 103 26 102 27 58 29 90 30 70 31 89 32
REMARK SMILES IDX 71 33 74 34 88 35 107 36 72 37 73 38 87 40 108 41 75 42
REMARK SMILES IDX 59 43 60 44 68 45 61 46 67 47 69 48 66 49 62 50 63 51 64 52
REMARK SMILES IDX 65 53 91 54 92 55 100 56 93 57 99 58 101 59 98 60 94 61
REMARK SMILES IDX 95 62 96 63 97 64 76 65 77 66 85 67 78 68 84 69 86 70 83 71
REMARK SMILES IDX 79 72 80 73 81 74 82 75 11 76 12 77 13 78 14 79 15 80 16 81
REMARK SMILES IDX 17 82 18 83 19 84 48 85 20 86 46 87 44 88 49 89 21 91 22 92
REMARK SMILES IDX 23 93 42 94 33 95 41 96 43 97 34 98 39 99 35 100 38 101
REMARK SMILES IDX 36 102 24 103 25 104 32 105 26 106 30 107 28 108 27 109
REMARK SMILES IDX 31 111 29 113 40 115 37 117 47 119 45 121
REMARK H PARENT 106 28 74 39 49 90 27 110 31 112 29 114 40 116 37 118 47 120
REMARK H PARENT 45 122
REMARK Flexibility Score: inf
ROOT
ATOM      1  C   UNL A   1      48.288  31.473  31.371  1.00  0.00     0.188 C 
ENDROOT
BRANCH   1   2
ATOM      2  O   UNL A   1      48.635  32.450  30.394  1.00  0.00    -0.377 OA
BRANCH   2   3
ATOM      3  C   UNL A   1      49.634  32.048  29.459  1.00  0.00     0.188 C 
BRANCH   3   4
ATOM      4  C   UNL A   1      49.597  32.779  28.115  1.00  0.00     0.188 C 
BRANCH   4   5
ATOM      5  O   UNL A   1      48.338  33.409  27.910  1.00  0.00    -0.376 OA
BRANCH   5   6
ATOM      6  C   UNL A   1      47.744  33.359  26.616  1.00  0.00     0.202 C 
BRANCH   6   7
ATOM      7  C   UNL A   1      47.341  34.694  26.014  1.00  0.00     0.261 C 
BRANCH   7   8
ATOM      8  O   UNL A   1      46.995  35.695  26.972  1.00  0.00    -0.460 OA
BRANCH   8   9
ATOM      9  C   UNL A   1      45.780  36.213  27.258  1.00  0.00     0.338 C 
ATOM     10  O   UNL A   1      45.315  37.043  26.476  1.00  0.00    -0.246 OA
BRANCH   9  11
ATOM     11  C   UNL A   1      44.964  35.859  28.456  1.00  0.00     0.060 A 
ATOM     12  C   UNL A   1      44.226  36.741  29.246  1.00  0.00     0.016 A 
ATOM     13  C   UNL A   1      44.856  34.490  28.735  1.00  0.00     0.016 A 
ATOM     14  C   UNL A   1      43.425  36.315  30.286  1.00  0.00     0.010 A 
ATOM     15  C   UNL A   1      44.063  34.039  29.789  1.00  0.00     0.010 A 
ATOM     16  C   UNL A   1      43.369  34.965  30.573  1.00  0.00    -0.014 A 
BRANCH  16  17
ATOM     17  C   UNL A   1      42.805  34.597  31.871  1.00  0.00     0.031 A 
ATOM     18  C   UNL A   1      41.353  34.257  31.882  1.00  0.00     0.074 A 
ATOM     19  C   UNL A   1      43.602  34.441  32.935  1.00  0.00     0.049 A 
ATOM     20  N   UNL A   1      40.539  34.122  32.884  1.00  0.00    -0.248 NA
ATOM     21  C   UNL A   1      40.733  34.049  30.561  1.00  0.00     0.031 C 
ATOM     22  C   UNL A   1      45.064  34.540  32.919  1.00  0.00     0.029 A 
ATOM     23  N   UNL A   1      43.294  34.164  34.236  1.00  0.00    -0.354 N 
ATOM     24  C   UNL A   1      39.294  33.884  32.316  1.00  0.00     0.074 A 
ATOM     25  C   UNL A   1      39.464  33.887  30.883  1.00  0.00     0.031 C 
ATOM     26  C   UNL A   1      45.524  34.359  34.167  1.00  0.00     0.029 A 
ATOM     27  C   UNL A   1      44.384  34.239  35.067  1.00  0.00     0.049 A 
ATOM     28  H   UNL A   1      42.388  33.935  34.545  1.00  0.00     0.167 HD
ATOM     29  C   UNL A   1      38.119  33.712  32.965  1.00  0.00     0.034 A 
ATOM     30  C   UNL A   1      44.421  34.301  36.411  1.00  0.00     0.034 A 
ATOM     31  C   UNL A   1      38.049  33.752  34.402  1.00  0.00     0.049 A 
ATOM     32  C   UNL A   1      43.096  34.253  37.128  1.00  0.00     0.074 A 
ATOM     33  C   UNL A   1      36.945  33.686  35.226  1.00  0.00     0.029 A 
ATOM     34  N   UNL A   1      39.165  33.887  35.232  1.00  0.00    -0.354 N 
ATOM     35  N   UNL A   1      41.888  34.158  36.612  1.00  0.00    -0.248 NA
ATOM     36  C   UNL A   1      43.126  34.331  38.588  1.00  0.00     0.031 C 
ATOM     37  C   UNL A   1      37.386  33.862  36.544  1.00  0.00     0.029 A 
ATOM     38  C   UNL A   1      38.774  33.937  36.555  1.00  0.00     0.049 A 
ATOM     39  H   UNL A   1      40.096  33.940  34.919  1.00  0.00     0.167 HD
ATOM     40  C   UNL A   1      41.011  34.132  37.688  1.00  0.00     0.074 A 
ATOM     41  C   UNL A   1      41.835  34.228  38.882  1.00  0.00     0.031 C 
ATOM     42  C   UNL A   1      39.655  34.027  37.702  1.00  0.00     0.034 A 
BRANCH  29  43
ATOM     43  C   UNL A   1      36.879  33.635  32.107  1.00  0.00     0.023 A 
ATOM     44  C   UNL A   1      35.964  34.702  32.016  1.00  0.00     0.031 A 
ATOM     45  C   UNL A   1      36.518  32.413  31.512  1.00  0.00     0.131 A 
ATOM     46  C   UNL A   1      34.688  34.487  31.469  1.00  0.00     0.055 A 
ATOM     47  C   UNL A   1      35.290  32.239  30.870  1.00  0.00     0.041 A 
ATOM     48  F   UNL A   1      37.326  31.345  31.597  1.00  0.00    -0.206 F 
ATOM     49  C   UNL A   1      34.355  33.270  30.870  1.00  0.00     0.022 A 
BRANCH  46  50
ATOM     50  S   UNL A   1      33.398  35.732  31.764  1.00  0.00     0.124 S 
ATOM     51  O   UNL A   1      32.399  34.961  32.504  1.00  0.00    -0.237 OA
ATOM     52  O   UNL A   1      34.107  36.750  32.529  1.00  0.00    -0.237 OA
ATOM     53  O   UNL A   1      32.989  36.131  30.419  1.00  0.00    -0.744 OA
ENDBRANCH  46  50
ENDBRANCH  29  43
BRANCH  30  54
ATOM     54  C   UNL A   1      45.718  34.524  37.111  1.00  0.00     0.023 A 
ATOM     55  C   UNL A   1      46.523  33.456  37.524  1.00  0.00     0.031 A 
ATOM     56  C   UNL A   1      46.186  35.832  37.352  1.00  0.00     0.131 A 
ATOM     57  C   UNL A   1      47.747  33.710  38.168  1.00  0.00     0.055 A 
ATOM     58  C   UNL A   1      47.425  36.080  37.946  1.00  0.00     0.041 A 
ATOM     59  F   UNL A   1      45.457  36.896  36.979  1.00  0.00    -0.206 F 
ATOM     60  C   UNL A   1      48.211  35.013  38.365  1.00  0.00     0.022 A 
BRANCH  57  61
ATOM     61  S   UNL A   1      48.709  32.308  38.797  1.00  0.00     0.124 S 
ATOM     62  O   UNL A   1      48.085  32.077  40.095  1.00  0.00    -0.237 OA
ATOM     63  O   UNL A   1      48.466  31.291  37.778  1.00  0.00    -0.237 OA
ATOM     64  O   UNL A   1      50.076  32.825  38.844  1.00  0.00    -0.744 OA
ENDBRANCH  57  61
ENDBRANCH  30  54
BRANCH  42  65
ATOM     65  C   UNL A   1      38.999  33.929  39.050  1.00  0.00     0.023 A 
ATOM     66  C   UNL A   1      38.710  32.694  39.650  1.00  0.00     0.031 A 
ATOM     67  C   UNL A   1      38.725  35.107  39.769  1.00  0.00     0.131 A 
ATOM     68  C   UNL A   1      38.138  32.666  40.928  1.00  0.00     0.055 A 
ATOM     69  C   UNL A   1      38.214  35.070  41.063  1.00  0.00     0.041 A 
ATOM     70  F   UNL A   1      38.984  36.310  39.231  1.00  0.00    -0.206 F 
ATOM     71  C   UNL A   1      37.912  33.844  41.648  1.00  0.00     0.022 A 
BRANCH  68  72
ATOM     72  S   UNL A   1      37.639  31.069  41.622  1.00  0.00     0.124 S 
ATOM     73  O   UNL A   1      36.452  31.433  42.391  1.00  0.00    -0.237 OA
ATOM     74  O   UNL A   1      37.403  30.266  40.427  1.00  0.00    -0.237 OA
ATOM     75  O   UNL A   1      38.795  30.667  42.421  1.00  0.00    -0.744 OA
ENDBRANCH  68  72
ENDBRANCH  42  65
ENDBRANCH  16  17
ENDBRANCH   9  11
ENDBRANCH   8   9
ENDBRANCH   7   8
ENDBRANCH   6   7
ENDBRANCH   5   6
ENDBRANCH   4   5
ENDBRANCH   3   4
ENDBRANCH   2   3
ENDBRANCH   1   2
BRANCH   1  76
ATOM     76  C   UNL A   1      47.494  30.205  30.962  1.00  0.00     0.188 C 
BRANCH  76  77
ATOM     77  O   UNL A   1      47.958  29.631  29.753  1.00  0.00    -0.376 OA
BRANCH  77  78
ATOM     78  C   UNL A   1      47.034  28.935  28.928  1.00  0.00     0.202 C 
BRANCH  78  79
ATOM     79  C   UNL A   1      47.058  29.078  27.391  1.00  0.00     0.261 C 
BRANCH  79  80
ATOM     80  O   UNL A   1      46.422  28.020  26.665  1.00  0.00    -0.461 OA
BRANCH  80  81
ATOM     81  C   UNL A   1      45.200  27.581  27.045  1.00  0.00     0.338 C 
ATOM     82  O   UNL A   1      44.264  28.306  27.383  1.00  0.00    -0.249 OA
BRANCH  81  83
ATOM     83  C   UNL A   1      45.086  26.046  26.926  1.00  0.00     0.263 C 
ATOM     84  O   UNL A   1      44.004  25.489  27.712  1.00  0.00    -0.322 OA
ATOM     85  C   UNL A   1      44.951  25.654  25.445  1.00  0.00     0.186 C 
ATOM     86  C   UNL A   1      43.918  24.060  27.721  1.00  0.00     0.340 C 
ATOM     87  C   UNL A   1      45.058  24.142  25.341  1.00  0.00     0.181 C 
ATOM     88  C   UNL A   1      44.170  23.419  26.346  1.00  0.00     0.214 C 
BRANCH  85  89
ATOM     89  O   UNL A   1      45.937  26.268  24.609  1.00  0.00    -0.387 OA
ATOM     90  H   UNL A   1      46.715  25.691  24.550  1.00  0.00     0.211 HD
ENDBRANCH  85  89
BRANCH  86  91
ATOM     91  O   UNL A   1      42.757  23.468  28.412  1.00  0.00    -0.454 OA
BRANCH  91  92
ATOM     92  C   UNL A   1      41.535  23.055  27.872  1.00  0.00     0.214 A 
ATOM     93  C   UNL A   1      40.553  23.854  27.372  1.00  0.00     0.181 A 
ATOM     94  C   UNL A   1      41.429  21.600  27.442  1.00  0.00     0.239 A 
ATOM     95  O   UNL A   1      39.382  23.421  26.779  1.00  0.00    -0.452 OA
ATOM     96  C   UNL A   1      40.267  21.185  26.588  1.00  0.00     0.111 A 
ATOM     97  O   UNL A   1      42.283  20.800  27.805  1.00  0.00    -0.285 OA
ATOM     98  C   UNL A   1      39.278  22.131  26.356  1.00  0.00     0.146 A 
ATOM     99  C   UNL A   1      40.066  19.891  26.066  1.00  0.00     0.134 A 
ATOM    100  C   UNL A   1      38.095  21.807  25.677  1.00  0.00     0.094 A 
ATOM    101  C   UNL A   1      38.885  19.556  25.376  1.00  0.00     0.093 A 
ATOM    102  C   UNL A   1      37.899  20.518  25.206  1.00  0.00     0.123 A 
BRANCH  93 103
ATOM    103  C   UNL A   1      40.553  25.324  27.406  1.00  0.00     0.029 A 
ATOM    104  C   UNL A   1      40.134  25.970  28.586  1.00  0.00     0.062 A 
ATOM    105  C   UNL A   1      41.045  26.074  26.327  1.00  0.00     0.062 A 
ATOM    106  C   UNL A   1      40.410  27.320  28.744  1.00  0.00     0.162 A 
ATOM    107  C   UNL A   1      41.239  27.441  26.488  1.00  0.00     0.162 A 
ATOM    108  C   UNL A   1      40.951  28.058  27.700  1.00  0.00     0.200 A 
BRANCH 106 109
ATOM    109  O   UNL A   1      40.348  27.884  29.987  1.00  0.00    -0.504 OA
ATOM    110  H   UNL A   1      39.861  27.465  30.669  1.00  0.00     0.293 HD
ENDBRANCH 106 109
BRANCH 107 111
ATOM    111  O   UNL A   1      41.851  28.153  25.495  1.00  0.00    -0.504 OA
ATOM    112  H   UNL A   1      42.765  28.349  25.554  1.00  0.00     0.293 HD
ENDBRANCH 107 111
BRANCH 108 113
ATOM    113  O   UNL A   1      41.303  29.368  27.887  1.00  0.00    -0.502 OA
ATOM    114  H   UNL A   1      41.416  29.705  28.753  1.00  0.00     0.293 HD
ENDBRANCH 108 113
ENDBRANCH  93 103
BRANCH  99 115
ATOM    115  O   UNL A   1      41.002  18.914  26.240  1.00  0.00    -0.507 OA
ATOM    116  H   UNL A   1      41.161  18.290  25.559  1.00  0.00     0.293 HD
ENDBRANCH  99 115
BRANCH 102 117
ATOM    117  O   UNL A   1      36.707  20.236  24.607  1.00  0.00    -0.508 OA
ATOM    118  H   UNL A   1      36.642  20.230  23.673  1.00  0.00     0.293 HD
ENDBRANCH 102 117
ENDBRANCH  91  92
ENDBRANCH  86  91
BRANCH  87 119
ATOM    119  O   UNL A   1      44.706  23.703  23.998  1.00  0.00    -0.387 OA
ATOM    120  H   UNL A   1      43.997  23.043  24.051  1.00  0.00     0.211 HD
ENDBRANCH  87 119
BRANCH  88 121
ATOM    121  O   UNL A   1      44.722  22.103  26.485  1.00  0.00    -0.384 OA
ATOM    122  H   UNL A   1      45.558  22.051  25.996  1.00  0.00     0.211 HD
ENDBRANCH  88 121
ENDBRANCH  81  83
ENDBRANCH  80  81
ENDBRANCH  79  80
ENDBRANCH  78  79
ENDBRANCH  77  78
ENDBRANCH  76  77
ENDBRANCH   1  76
TORSDOF 34
ENDMDL
