MODEL 1
REMARK VINA RESULT:      -9.3      0.000      0.000
REMARK SMILES Cn1cc(Cl)cc1C(=O)N[C@H]1C=C[C@H](C(=O)OCCOCCOCCOCCOC(=O)c2ccc(-c3c4nc(c(-c5cc(S(=O)(=O)[O-])ccc5F)c5ccc([nH]5)c(-c5cc(S(=O)(=O)[O-])ccc5F)c5nc(c(-c6cc(S(=O)(=O)[O-])ccc6F)c6ccc3[nH]6)C=C5)C=C4)cc2)C1
REMARK SMILES IDX 24 1 23 2 22 3 21 4 20 5 19 6 18 7 17 8 15 9 16 10 14 11
REMARK SMILES IDX 11 12 12 13 95 14 13 15 10 16 8 17 9 18 7 20 1 21 2 22 3 23
REMARK SMILES IDX 4 24 6 25 5 26 25 27 26 28 27 29 28 30 29 31 30 32 31 33
REMARK SMILES IDX 32 34 33 35 94 36 34 37 93 38 35 39 36 40 37 41 87 42 38 43
REMARK SMILES IDX 92 44 86 45 88 46 39 47 91 48 85 49 84 50 40 52 72 53 52 54
REMARK SMILES IDX 71 55 53 56 56 57 70 58 89 59 54 60 55 61 69 63 90 64 57 65
REMARK SMILES IDX 41 66 42 67 50 68 43 69 49 70 51 71 48 72 44 73 45 74 46 75
REMARK SMILES IDX 47 76 73 77 74 78 82 79 75 80 81 81 83 82 80 83 76 84 77 85
REMARK SMILES IDX 78 86 79 87 58 88 59 89 67 90 60 91 66 92 68 93 65 94 61 95
REMARK SMILES IDX 62 96 63 97 64 98
REMARK H PARENT 10 19 88 51 56 62
REMARK Flexibility Score: inf
ROOT
ATOM      1  C   UNL A   1      34.766  29.353  26.819  1.00  0.00     0.188 C 
ENDROOT
BRANCH   1   2
ATOM      2  O   UNL A   1      33.579  28.588  26.992  1.00  0.00    -0.377 OA
BRANCH   2   3
ATOM      3  C   UNL A   1      32.720  28.438  25.883  1.00  0.00     0.188 C 
BRANCH   3   4
ATOM      4  C   UNL A   1      32.612  26.988  25.387  1.00  0.00     0.188 C 
BRANCH   4   5
ATOM      5  O   UNL A   1      33.143  25.920  26.161  1.00  0.00    -0.376 OA
BRANCH   5   6
ATOM      6  C   UNL A   1      32.934  24.563  25.776  1.00  0.00     0.202 C 
BRANCH   6   7
ATOM      7  C   UNL A   1      34.083  23.728  25.201  1.00  0.00     0.261 C 
BRANCH   7   8
ATOM      8  O   UNL A   1      35.298  23.831  25.965  1.00  0.00    -0.463 OA
BRANCH   8   9
ATOM      9  C   UNL A   1      36.121  22.761  25.913  1.00  0.00     0.312 C 
ATOM     10  O   UNL A   1      35.734  21.596  25.874  1.00  0.00    -0.252 OA
BRANCH   9  11
ATOM     11  C   UNL A   1      37.593  23.113  25.711  1.00  0.00     0.124 C 
ATOM     12  C   UNL A   1      39.773  22.253  26.452  1.00  0.00     0.106 C 
ATOM     13  C   UNL A   1      39.574  23.674  26.851  1.00  0.00    -0.006 C 
ATOM     14  C   UNL A   1      38.450  21.842  25.823  1.00  0.00     0.048 C 
ATOM     15  C   UNL A   1      38.349  24.109  26.542  1.00  0.00    -0.014 C 
BRANCH  12  16
ATOM     16  N   UNL A   1      41.029  22.113  25.752  1.00  0.00    -0.345 N 
ATOM     17  C   UNL A   1      42.330  22.505  25.834  1.00  0.00     0.268 C 
ATOM     18  O   UNL A   1      42.986  22.299  24.808  1.00  0.00    -0.268 OA
ATOM     19  H   UNL A   1      40.902  21.549  24.954  1.00  0.00     0.164 HD
BRANCH  17  20
ATOM     20  C   UNL A   1      42.933  23.182  26.961  1.00  0.00     0.108 A 
ATOM     21  C   UNL A   1      42.899  25.629  26.293  1.00  0.00     0.150 C 
ATOM     22  N   UNL A   1      43.261  24.512  27.137  1.00  0.00    -0.345 N 
ATOM     23  C   UNL A   1      43.772  24.710  28.402  1.00  0.00     0.106 A 
ATOM     24  C   UNL A   1      43.559  23.565  29.123  1.00  0.00     0.059 A 
ATOM     25  C   UNL A   1      43.038  22.611  28.231  1.00  0.00     0.054 A 
ATOM     26  Cl  UNL A   1      43.802  23.331  30.784  1.00  0.00    -0.083 Cl
ENDBRANCH  17  20
ENDBRANCH  12  16
ENDBRANCH   9  11
ENDBRANCH   8   9
ENDBRANCH   7   8
ENDBRANCH   6   7
ENDBRANCH   5   6
ENDBRANCH   4   5
ENDBRANCH   3   4
ENDBRANCH   2   3
ENDBRANCH   1   2
BRANCH   1  27
ATOM     27  C   UNL A   1      35.114  30.473  27.836  1.00  0.00     0.188 C 
BRANCH  27  28
ATOM     28  O   UNL A   1      34.643  31.775  27.496  1.00  0.00    -0.376 OA
BRANCH  28  29
ATOM     29  C   UNL A   1      33.694  32.422  28.337  1.00  0.00     0.202 C 
BRANCH  29  30
ATOM     30  C   UNL A   1      33.900  33.919  28.591  1.00  0.00     0.261 C 
BRANCH  30  31
ATOM     31  O   UNL A   1      34.858  34.202  29.593  1.00  0.00    -0.460 OA
BRANCH  31  32
ATOM     32  C   UNL A   1      34.915  33.301  30.590  1.00  0.00     0.338 C 
ATOM     33  O   UNL A   1      34.092  33.133  31.482  1.00  0.00    -0.246 OA
BRANCH  32  34
ATOM     34  C   UNL A   1      36.158  32.541  30.475  1.00  0.00     0.060 A 
ATOM     35  C   UNL A   1      36.200  31.377  31.241  1.00  0.00     0.016 A 
ATOM     36  C   UNL A   1      37.300  33.252  30.086  1.00  0.00     0.016 A 
ATOM     37  C   UNL A   1      37.334  31.172  31.976  1.00  0.00     0.010 A 
ATOM     38  C   UNL A   1      38.419  33.066  30.840  1.00  0.00     0.010 A 
ATOM     39  C   UNL A   1      38.355  32.117  31.857  1.00  0.00    -0.014 A 
BRANCH  39  40
ATOM     40  C   UNL A   1      39.393  32.108  32.848  1.00  0.00     0.031 A 
ATOM     41  C   UNL A   1      38.938  32.700  34.109  1.00  0.00     0.074 A 
ATOM     42  C   UNL A   1      40.574  31.511  32.618  1.00  0.00     0.049 A 
ATOM     43  N   UNL A   1      39.213  33.881  34.551  1.00  0.00    -0.248 NA
ATOM     44  C   UNL A   1      37.824  32.037  34.807  1.00  0.00     0.031 C 
ATOM     45  C   UNL A   1      40.983  30.687  31.478  1.00  0.00     0.029 A 
ATOM     46  N   UNL A   1      41.636  31.419  33.451  1.00  0.00    -0.354 N 
ATOM     47  C   UNL A   1      38.514  33.978  35.742  1.00  0.00     0.074 A 
ATOM     48  C   UNL A   1      37.471  32.996  35.661  1.00  0.00     0.031 C 
ATOM     49  C   UNL A   1      42.085  29.981  31.823  1.00  0.00     0.029 A 
ATOM     50  C   UNL A   1      42.502  30.376  33.160  1.00  0.00     0.049 A 
ATOM     51  H   UNL A   1      41.781  32.040  34.200  1.00  0.00     0.167 HD
ATOM     52  C   UNL A   1      39.060  34.607  36.816  1.00  0.00     0.034 A 
ATOM     53  C   UNL A   1      43.369  29.809  34.043  1.00  0.00     0.034 A 
ATOM     54  C   UNL A   1      40.190  35.423  36.407  1.00  0.00     0.049 A 
ATOM     55  C   UNL A   1      43.609  30.837  35.103  1.00  0.00     0.074 A 
ATOM     56  C   UNL A   1      40.350  36.445  35.489  1.00  0.00     0.029 A 
ATOM     57  N   UNL A   1      41.463  34.949  36.658  1.00  0.00    -0.354 N 
ATOM     58  N   UNL A   1      44.179  31.991  34.859  1.00  0.00    -0.248 NA
ATOM     59  C   UNL A   1      42.747  30.828  36.282  1.00  0.00     0.031 C 
ATOM     60  C   UNL A   1      41.610  36.193  34.872  1.00  0.00     0.029 A 
ATOM     61  C   UNL A   1      42.198  35.095  35.505  1.00  0.00     0.049 A 
ATOM     62  H   UNL A   1      41.787  34.576  37.510  1.00  0.00     0.167 HD
ATOM     63  C   UNL A   1      43.433  32.931  35.562  1.00  0.00     0.074 A 
ATOM     64  C   UNL A   1      42.620  32.143  36.490  1.00  0.00     0.031 C 
ATOM     65  C   UNL A   1      43.294  34.219  35.117  1.00  0.00     0.034 A 
BRANCH  52  66
ATOM     66  C   UNL A   1      38.851  34.164  38.248  1.00  0.00     0.023 A 
ATOM     67  C   UNL A   1      38.326  32.873  38.420  1.00  0.00     0.031 A 
ATOM     68  C   UNL A   1      38.856  34.977  39.408  1.00  0.00     0.131 A 
ATOM     69  C   UNL A   1      37.707  32.500  39.621  1.00  0.00     0.055 A 
ATOM     70  C   UNL A   1      38.301  34.575  40.624  1.00  0.00     0.041 A 
ATOM     71  F   UNL A   1      39.319  36.230  39.434  1.00  0.00    -0.206 F 
ATOM     72  C   UNL A   1      37.683  33.344  40.725  1.00  0.00     0.022 A 
BRANCH  69  73
ATOM     73  S   UNL A   1      36.762  30.961  39.634  1.00  0.00     0.124 S 
ATOM     74  O   UNL A   1      37.040  30.441  38.300  1.00  0.00    -0.237 OA
ATOM     75  O   UNL A   1      37.377  30.246  40.747  1.00  0.00    -0.237 OA
ATOM     76  O   UNL A   1      35.391  31.411  39.859  1.00  0.00    -0.744 OA
ENDBRANCH  69  73
ENDBRANCH  52  66
BRANCH  53  77
ATOM     77  C   UNL A   1      43.606  28.337  34.196  1.00  0.00     0.023 A 
ATOM     78  C   UNL A   1      42.769  27.494  34.958  1.00  0.00     0.031 A 
ATOM     79  C   UNL A   1      44.590  27.684  33.409  1.00  0.00     0.131 A 
ATOM     80  C   UNL A   1      42.948  26.085  34.927  1.00  0.00     0.055 A 
ATOM     81  C   UNL A   1      44.774  26.300  33.397  1.00  0.00     0.041 A 
ATOM     82  F   UNL A   1      45.365  28.358  32.548  1.00  0.00    -0.206 F 
ATOM     83  C   UNL A   1      43.948  25.491  34.153  1.00  0.00     0.022 A 
BRANCH  80  84
ATOM     84  S   UNL A   1      41.815  24.977  35.830  1.00  0.00     0.124 S 
ATOM     85  O   UNL A   1      42.026  23.703  35.152  1.00  0.00    -0.237 OA
ATOM     86  O   UNL A   1      42.305  25.074  37.199  1.00  0.00    -0.237 OA
ATOM     87  O   UNL A   1      40.500  25.581  35.609  1.00  0.00    -0.744 OA
ENDBRANCH  80  84
ENDBRANCH  53  77
BRANCH  65  88
ATOM     88  C   UNL A   1      44.179  34.712  33.983  1.00  0.00     0.023 A 
ATOM     89  C   UNL A   1      43.845  34.653  32.610  1.00  0.00     0.031 A 
ATOM     90  C   UNL A   1      45.342  35.423  34.334  1.00  0.00     0.131 A 
ATOM     91  C   UNL A   1      44.665  35.289  31.654  1.00  0.00     0.055 A 
ATOM     92  C   UNL A   1      46.137  36.070  33.389  1.00  0.00     0.041 A 
ATOM     93  F   UNL A   1      45.703  35.544  35.623  1.00  0.00    -0.206 F 
ATOM     94  C   UNL A   1      45.803  36.003  32.043  1.00  0.00     0.022 A 
BRANCH  91  95
ATOM     95  S   UNL A   1      44.270  35.195  29.877  1.00  0.00     0.124 S 
ATOM     96  O   UNL A   1      42.815  35.104  29.856  1.00  0.00    -0.237 OA
ATOM     97  O   UNL A   1      44.842  36.437  29.362  1.00  0.00    -0.237 OA
ATOM     98  O   UNL A   1      44.962  33.982  29.439  1.00  0.00    -0.744 OA
ENDBRANCH  91  95
ENDBRANCH  65  88
ENDBRANCH  39  40
ENDBRANCH  32  34
ENDBRANCH  31  32
ENDBRANCH  30  31
ENDBRANCH  29  30
ENDBRANCH  28  29
ENDBRANCH  27  28
ENDBRANCH   1  27
TORSDOF 25
ENDMDL
MODEL 2
REMARK VINA RESULT:      -9.1      3.353      8.063
REMARK SMILES Cn1cc(Cl)cc1C(=O)N[C@H]1C=C[C@H](C(=O)OCCOCCOCCOCCOC(=O)c2ccc(-c3c4nc(c(-c5cc(S(=O)(=O)[O-])ccc5F)c5ccc([nH]5)c(-c5cc(S(=O)(=O)[O-])ccc5F)c5nc(c(-c6cc(S(=O)(=O)[O-])ccc6F)c6ccc3[nH]6)C=C5)C=C4)cc2)C1
REMARK SMILES IDX 24 1 23 2 22 3 21 4 20 5 19 6 18 7 17 8 15 9 16 10 14 11
REMARK SMILES IDX 11 12 12 13 95 14 13 15 10 16 8 17 9 18 7 20 1 21 2 22 3 23
REMARK SMILES IDX 4 24 6 25 5 26 25 27 26 28 27 29 28 30 29 31 30 32 31 33
REMARK SMILES IDX 32 34 33 35 94 36 34 37 93 38 35 39 36 40 37 41 87 42 38 43
REMARK SMILES IDX 92 44 86 45 88 46 39 47 91 48 85 49 84 50 40 52 72 53 52 54
REMARK SMILES IDX 71 55 53 56 56 57 70 58 89 59 54 60 55 61 69 63 90 64 57 65
REMARK SMILES IDX 41 66 42 67 50 68 43 69 49 70 51 71 48 72 44 73 45 74 46 75
REMARK SMILES IDX 47 76 73 77 74 78 82 79 75 80 81 81 83 82 80 83 76 84 77 85
REMARK SMILES IDX 78 86 79 87 58 88 59 89 67 90 60 91 66 92 68 93 65 94 61 95
REMARK SMILES IDX 62 96 63 97 64 98
REMARK H PARENT 10 19 88 51 56 62
REMARK Flexibility Score: inf
ROOT
ATOM      1  C   UNL A   1      43.304  26.725  29.147  1.00  0.00     0.188 C 
ENDROOT
BRANCH   1   2
ATOM      2  O   UNL A   1      42.294  27.564  28.602  1.00  0.00    -0.377 OA
BRANCH   2   3
ATOM      3  C   UNL A   1      42.146  27.595  27.199  1.00  0.00     0.188 C 
BRANCH   3   4
ATOM      4  C   UNL A   1      43.159  28.514  26.498  1.00  0.00     0.188 C 
BRANCH   4   5
ATOM      5  O   UNL A   1      44.120  27.974  25.600  1.00  0.00    -0.376 OA
BRANCH   5   6
ATOM      6  C   UNL A   1      45.495  27.884  25.968  1.00  0.00     0.202 C 
BRANCH   6   7
ATOM      7  C   UNL A   1      46.439  26.926  25.234  1.00  0.00     0.261 C 
BRANCH   7   8
ATOM      8  O   UNL A   1      46.568  25.647  25.881  1.00  0.00    -0.463 OA
BRANCH   8   9
ATOM      9  C   UNL A   1      46.274  24.569  25.122  1.00  0.00     0.312 C 
ATOM     10  O   UNL A   1      47.013  24.119  24.251  1.00  0.00    -0.252 OA
BRANCH   9  11
ATOM     11  C   UNL A   1      45.019  23.818  25.561  1.00  0.00     0.124 C 
ATOM     12  C   UNL A   1      43.995  21.621  25.152  1.00  0.00     0.106 C 
ATOM     13  C   UNL A   1      43.090  22.736  24.757  1.00  0.00    -0.006 C 
ATOM     14  C   UNL A   1      45.293  22.305  25.557  1.00  0.00     0.048 C 
ATOM     15  C   UNL A   1      43.686  23.925  24.880  1.00  0.00    -0.014 C 
BRANCH  12  16
ATOM     16  N   UNL A   1      43.299  20.715  26.037  1.00  0.00    -0.345 N 
ATOM     17  C   UNL A   1      42.305  20.707  26.967  1.00  0.00     0.268 C 
ATOM     18  O   UNL A   1      42.248  19.672  27.638  1.00  0.00    -0.268 OA
ATOM     19  H   UNL A   1      43.664  19.807  25.934  1.00  0.00     0.164 HD
BRANCH  17  20
ATOM     20  C   UNL A   1      41.413  21.810  27.251  1.00  0.00     0.108 A 
ATOM     21  C   UNL A   1      42.842  23.423  28.588  1.00  0.00     0.150 C 
ATOM     22  N   UNL A   1      41.604  22.943  28.018  1.00  0.00    -0.345 N 
ATOM     23  C   UNL A   1      40.486  23.748  27.960  1.00  0.00     0.106 A 
ATOM     24  C   UNL A   1      39.668  23.257  26.977  1.00  0.00     0.059 A 
ATOM     25  C   UNL A   1      40.239  22.050  26.534  1.00  0.00     0.054 A 
ATOM     26  Cl  UNL A   1      38.267  23.973  26.347  1.00  0.00    -0.083 Cl
ENDBRANCH  17  20
ENDBRANCH  12  16
ENDBRANCH   9  11
ENDBRANCH   8   9
ENDBRANCH   7   8
ENDBRANCH   6   7
ENDBRANCH   5   6
ENDBRANCH   4   5
ENDBRANCH   3   4
ENDBRANCH   2   3
ENDBRANCH   1   2
BRANCH   1  27
ATOM     27  C   UNL A   1      44.408  27.337  30.050  1.00  0.00     0.188 C 
BRANCH  27  28
ATOM     28  O   UNL A   1      45.302  26.399  30.644  1.00  0.00    -0.376 OA
BRANCH  28  29
ATOM     29  C   UNL A   1      44.782  25.244  31.294  1.00  0.00     0.202 C 
BRANCH  29  30
ATOM     30  C   UNL A   1      45.194  25.025  32.754  1.00  0.00     0.261 C 
BRANCH  30  31
ATOM     31  O   UNL A   1      44.981  26.153  33.582  1.00  0.00    -0.460 OA
BRANCH  31  32
ATOM     32  C   UNL A   1      43.938  26.049  34.423  1.00  0.00     0.338 C 
ATOM     33  O   UNL A   1      43.090  25.164  34.443  1.00  0.00    -0.246 OA
BRANCH  32  34
ATOM     34  C   UNL A   1      43.939  27.196  35.329  1.00  0.00     0.060 A 
ATOM     35  C   UNL A   1      42.815  27.289  36.148  1.00  0.00     0.016 A 
ATOM     36  C   UNL A   1      44.714  28.300  34.950  1.00  0.00     0.016 A 
ATOM     37  C   UNL A   1      42.220  28.517  36.229  1.00  0.00     0.010 A 
ATOM     38  C   UNL A   1      44.105  29.517  35.003  1.00  0.00     0.010 A 
ATOM     39  C   UNL A   1      42.814  29.565  35.523  1.00  0.00    -0.014 A 
BRANCH  39  40
ATOM     40  C   UNL A   1      42.041  30.757  35.320  1.00  0.00     0.031 A 
ATOM     41  C   UNL A   1      41.333  30.727  34.036  1.00  0.00     0.074 A 
ATOM     42  C   UNL A   1      41.931  31.692  36.278  1.00  0.00     0.049 A 
ATOM     43  N   UNL A   1      41.663  31.355  32.959  1.00  0.00    -0.248 NA
ATOM     44  C   UNL A   1      40.337  29.662  33.835  1.00  0.00     0.031 C 
ATOM     45  C   UNL A   1      42.405  31.650  37.664  1.00  0.00     0.029 A 
ATOM     46  N   UNL A   1      41.241  32.854  36.232  1.00  0.00    -0.354 N 
ATOM     47  C   UNL A   1      40.719  30.963  32.025  1.00  0.00     0.074 A 
ATOM     48  C   UNL A   1      40.178  29.728  32.515  1.00  0.00     0.031 C 
ATOM     49  C   UNL A   1      41.760  32.605  38.374  1.00  0.00     0.029 A 
ATOM     50  C   UNL A   1      40.912  33.373  37.475  1.00  0.00     0.049 A 
ATOM     51  H   UNL A   1      40.992  33.293  35.387  1.00  0.00     0.167 HD
ATOM     52  C   UNL A   1      40.225  31.853  31.124  1.00  0.00     0.034 A 
ATOM     53  C   UNL A   1      39.899  34.250  37.714  1.00  0.00     0.034 A 
ATOM     54  C   UNL A   1      41.073  33.030  31.055  1.00  0.00     0.049 A 
ATOM     55  C   UNL A   1      39.634  34.939  36.412  1.00  0.00     0.074 A 
ATOM     56  C   UNL A   1      42.418  33.227  30.797  1.00  0.00     0.029 A 
ATOM     57  N   UNL A   1      40.646  34.182  31.686  1.00  0.00    -0.354 N 
ATOM     58  N   UNL A   1      40.521  35.698  35.816  1.00  0.00    -0.248 NA
ATOM     59  C   UNL A   1      38.632  34.366  35.519  1.00  0.00     0.031 C 
ATOM     60  C   UNL A   1      42.827  34.235  31.718  1.00  0.00     0.029 A 
ATOM     61  C   UNL A   1      41.701  34.672  32.420  1.00  0.00     0.049 A 
ATOM     62  H   UNL A   1      39.748  34.582  31.622  1.00  0.00     0.167 HD
ATOM     63  C   UNL A   1      40.458  35.354  34.470  1.00  0.00     0.074 A 
ATOM     64  C   UNL A   1      39.214  34.594  34.336  1.00  0.00     0.031 C 
ATOM     65  C   UNL A   1      41.557  35.429  33.655  1.00  0.00     0.034 A 
BRANCH  52  66
ATOM     66  C   UNL A   1      38.792  31.852  30.637  1.00  0.00     0.023 A 
ATOM     67  C   UNL A   1      37.875  32.561  31.428  1.00  0.00     0.031 A 
ATOM     68  C   UNL A   1      38.221  31.009  29.652  1.00  0.00     0.131 A 
ATOM     69  C   UNL A   1      36.498  32.309  31.339  1.00  0.00     0.055 A 
ATOM     70  C   UNL A   1      36.845  30.814  29.520  1.00  0.00     0.041 A 
ATOM     71  F   UNL A   1      38.938  30.262  28.808  1.00  0.00    -0.206 F 
ATOM     72  C   UNL A   1      35.974  31.433  30.395  1.00  0.00     0.022 A 
BRANCH  69  73
ATOM     73  S   UNL A   1      35.434  33.003  32.622  1.00  0.00     0.124 S 
ATOM     74  O   UNL A   1      35.775  34.419  32.543  1.00  0.00    -0.237 OA
ATOM     75  O   UNL A   1      34.109  32.630  32.141  1.00  0.00    -0.237 OA
ATOM     76  O   UNL A   1      35.877  32.318  33.833  1.00  0.00    -0.744 OA
ENDBRANCH  69  73
ENDBRANCH  52  66
BRANCH  53  77
ATOM     77  C   UNL A   1      38.937  34.166  38.860  1.00  0.00     0.023 A 
ATOM     78  C   UNL A   1      38.075  33.067  39.067  1.00  0.00     0.031 A 
ATOM     79  C   UNL A   1      38.988  35.117  39.911  1.00  0.00     0.131 A 
ATOM     80  C   UNL A   1      37.309  32.969  40.259  1.00  0.00     0.055 A 
ATOM     81  C   UNL A   1      38.219  35.025  41.073  1.00  0.00     0.041 A 
ATOM     82  F   UNL A   1      39.856  36.139  39.895  1.00  0.00    -0.206 F 
ATOM     83  C   UNL A   1      37.379  33.944  41.256  1.00  0.00     0.022 A 
BRANCH  80  84
ATOM     84  S   UNL A   1      36.265  31.509  40.583  1.00  0.00     0.124 S 
ATOM     85  O   UNL A   1      37.192  30.408  40.343  1.00  0.00    -0.237 OA
ATOM     86  O   UNL A   1      35.850  31.720  41.965  1.00  0.00    -0.237 OA
ATOM     87  O   UNL A   1      35.190  31.633  39.598  1.00  0.00    -0.744 OA
ENDBRANCH  80  84
ENDBRANCH  53  77
BRANCH  65  88
ATOM     88  C   UNL A   1      42.803  36.146  34.153  1.00  0.00     0.023 A 
ATOM     89  C   UNL A   1      43.002  37.546  34.114  1.00  0.00     0.031 A 
ATOM     90  C   UNL A   1      43.755  35.377  34.847  1.00  0.00     0.131 A 
ATOM     91  C   UNL A   1      44.121  38.118  34.753  1.00  0.00     0.055 A 
ATOM     92  C   UNL A   1      44.847  35.950  35.497  1.00  0.00     0.041 A 
ATOM     93  F   UNL A   1      43.612  34.045  34.949  1.00  0.00    -0.206 F 
ATOM     94  C   UNL A   1      45.038  37.324  35.450  1.00  0.00     0.022 A 
BRANCH  91  95
ATOM     95  S   UNL A   1      44.415  39.917  34.685  1.00  0.00     0.124 S 
ATOM     96  O   UNL A   1      45.739  40.023  34.084  1.00  0.00    -0.237 OA
ATOM     97  O   UNL A   1      43.299  40.386  33.866  1.00  0.00    -0.237 OA
ATOM     98  O   UNL A   1      44.349  40.325  36.090  1.00  0.00    -0.744 OA
ENDBRANCH  91  95
ENDBRANCH  65  88
ENDBRANCH  39  40
ENDBRANCH  32  34
ENDBRANCH  31  32
ENDBRANCH  30  31
ENDBRANCH  29  30
ENDBRANCH  28  29
ENDBRANCH  27  28
ENDBRANCH   1  27
TORSDOF 25
ENDMDL
MODEL 3
REMARK VINA RESULT:      -9.0      9.279     14.454
REMARK SMILES Cn1cc(Cl)cc1C(=O)N[C@H]1C=C[C@H](C(=O)OCCOCCOCCOCCOC(=O)c2ccc(-c3c4nc(c(-c5cc(S(=O)(=O)[O-])ccc5F)c5ccc([nH]5)c(-c5cc(S(=O)(=O)[O-])ccc5F)c5nc(c(-c6cc(S(=O)(=O)[O-])ccc6F)c6ccc3[nH]6)C=C5)C=C4)cc2)C1
REMARK SMILES IDX 24 1 23 2 22 3 21 4 20 5 19 6 18 7 17 8 15 9 16 10 14 11
REMARK SMILES IDX 11 12 12 13 95 14 13 15 10 16 8 17 9 18 7 20 1 21 2 22 3 23
REMARK SMILES IDX 4 24 6 25 5 26 25 27 26 28 27 29 28 30 29 31 30 32 31 33
REMARK SMILES IDX 32 34 33 35 94 36 34 37 93 38 35 39 36 40 37 41 87 42 38 43
REMARK SMILES IDX 92 44 86 45 88 46 39 47 91 48 85 49 84 50 40 52 72 53 52 54
REMARK SMILES IDX 71 55 53 56 56 57 70 58 89 59 54 60 55 61 69 63 90 64 57 65
REMARK SMILES IDX 41 66 42 67 50 68 43 69 49 70 51 71 48 72 44 73 45 74 46 75
REMARK SMILES IDX 47 76 73 77 74 78 82 79 75 80 81 81 83 82 80 83 76 84 77 85
REMARK SMILES IDX 78 86 79 87 58 88 59 89 67 90 60 91 66 92 68 93 65 94 61 95
REMARK SMILES IDX 62 96 63 97 64 98
REMARK H PARENT 10 19 88 51 56 62
REMARK Flexibility Score: inf
ROOT
ATOM      1  C   UNL A   1      44.844  40.780  26.128  1.00  0.00     0.188 C 
ENDROOT
BRANCH   1   2
ATOM      2  O   UNL A   1      43.743  41.081  25.279  1.00  0.00    -0.377 OA
BRANCH   2   3
ATOM      3  C   UNL A   1      43.745  42.321  24.606  1.00  0.00     0.188 C 
BRANCH   3   4
ATOM      4  C   UNL A   1      42.565  42.494  23.638  1.00  0.00     0.188 C 
BRANCH   4   5
ATOM      5  O   UNL A   1      42.648  43.415  22.558  1.00  0.00    -0.376 OA
BRANCH   5   6
ATOM      6  C   UNL A   1      41.942  43.180  21.341  1.00  0.00     0.202 C 
BRANCH   6   7
ATOM      7  C   UNL A   1      42.688  43.119  20.004  1.00  0.00     0.261 C 
BRANCH   7   8
ATOM      8  O   UNL A   1      42.758  44.389  19.333  1.00  0.00    -0.463 OA
BRANCH   8   9
ATOM      9  C   UNL A   1      43.046  44.346  18.014  1.00  0.00     0.312 C 
ATOM     10  O   UNL A   1      43.239  43.309  17.385  1.00  0.00    -0.252 OA
BRANCH   9  11
ATOM     11  C   UNL A   1      42.923  45.692  17.302  1.00  0.00     0.124 C 
ATOM     12  C   UNL A   1      43.042  48.071  17.905  1.00  0.00     0.106 C 
ATOM     13  C   UNL A   1      41.731  47.721  17.294  1.00  0.00    -0.006 C 
ATOM     14  C   UNL A   1      43.775  46.744  18.031  1.00  0.00     0.048 C 
ATOM     15  C   UNL A   1      41.626  46.409  17.062  1.00  0.00    -0.014 C 
BRANCH  12  16
ATOM     16  N   UNL A   1      43.619  49.201  17.214  1.00  0.00    -0.345 N 
ATOM     17  C   UNL A   1      44.830  49.745  16.912  1.00  0.00     0.268 C 
ATOM     18  O   UNL A   1      44.772  50.900  16.480  1.00  0.00    -0.268 OA
ATOM     19  H   UNL A   1      42.901  49.761  16.839  1.00  0.00     0.164 HD
BRANCH  17  20
ATOM     20  C   UNL A   1      46.112  49.112  17.131  1.00  0.00     0.108 A 
ATOM     21  C   UNL A   1      46.300  48.969  19.656  1.00  0.00     0.150 C 
ATOM     22  N   UNL A   1      46.794  48.849  18.303  1.00  0.00    -0.345 N 
ATOM     23  C   UNL A   1      47.967  48.178  18.029  1.00  0.00     0.106 A 
ATOM     24  C   UNL A   1      47.933  47.800  16.712  1.00  0.00     0.059 A 
ATOM     25  C   UNL A   1      46.783  48.379  16.149  1.00  0.00     0.054 A 
ATOM     26  Cl  UNL A   1      49.017  46.778  15.904  1.00  0.00    -0.083 Cl
ENDBRANCH  17  20
ENDBRANCH  12  16
ENDBRANCH   9  11
ENDBRANCH   8   9
ENDBRANCH   7   8
ENDBRANCH   6   7
ENDBRANCH   5   6
ENDBRANCH   4   5
ENDBRANCH   3   4
ENDBRANCH   2   3
ENDBRANCH   1   2
BRANCH   1  27
ATOM     27  C   UNL A   1      44.972  41.492  27.501  1.00  0.00     0.188 C 
BRANCH  27  28
ATOM     28  O   UNL A   1      43.836  41.379  28.356  1.00  0.00    -0.376 OA
BRANCH  28  29
ATOM     29  C   UNL A   1      43.863  40.464  29.446  1.00  0.00     0.202 C 
BRANCH  29  30
ATOM     30  C   UNL A   1      43.665  38.982  29.111  1.00  0.00     0.261 C 
BRANCH  30  31
ATOM     31  O   UNL A   1      43.743  38.128  30.237  1.00  0.00    -0.460 OA
BRANCH  31  32
ATOM     32  C   UNL A   1      44.951  37.578  30.447  1.00  0.00     0.338 C 
ATOM     33  O   UNL A   1      45.959  37.723  29.764  1.00  0.00    -0.246 OA
BRANCH  32  34
ATOM     34  C   UNL A   1      44.888  36.728  31.635  1.00  0.00     0.060 A 
ATOM     35  C   UNL A   1      45.378  35.436  31.450  1.00  0.00     0.016 A 
ATOM     36  C   UNL A   1      43.930  37.061  32.600  1.00  0.00     0.016 A 
ATOM     37  C   UNL A   1      44.602  34.416  31.927  1.00  0.00     0.010 A 
ATOM     38  C   UNL A   1      43.140  36.046  33.049  1.00  0.00     0.010 A 
ATOM     39  C   UNL A   1      43.422  34.763  32.587  1.00  0.00    -0.014 A 
BRANCH  39  40
ATOM     40  C   UNL A   1      42.444  33.733  32.793  1.00  0.00     0.031 A 
ATOM     41  C   UNL A   1      41.332  33.849  31.845  1.00  0.00     0.074 A 
ATOM     42  C   UNL A   1      42.642  32.749  33.686  1.00  0.00     0.049 A 
ATOM     43  N   UNL A   1      40.157  34.322  32.088  1.00  0.00    -0.248 NA
ATOM     44  C   UNL A   1      41.645  33.710  30.413  1.00  0.00     0.031 C 
ATOM     45  C   UNL A   1      43.842  32.445  34.470  1.00  0.00     0.029 A 
ATOM     46  N   UNL A   1      41.820  31.718  33.984  1.00  0.00    -0.354 N 
ATOM     47  C   UNL A   1      39.500  34.262  30.871  1.00  0.00     0.074 A 
ATOM     48  C   UNL A   1      40.531  34.203  29.875  1.00  0.00     0.031 C 
ATOM     49  C   UNL A   1      43.749  31.176  34.934  1.00  0.00     0.029 A 
ATOM     50  C   UNL A   1      42.454  30.628  34.560  1.00  0.00     0.049 A 
ATOM     51  H   UNL A   1      40.852  31.739  33.805  1.00  0.00     0.167 HD
ATOM     52  C   UNL A   1      38.186  33.918  30.810  1.00  0.00     0.034 A 
ATOM     53  C   UNL A   1      41.977  29.353  34.561  1.00  0.00     0.034 A 
ATOM     54  C   UNL A   1      37.570  34.027  32.121  1.00  0.00     0.049 A 
ATOM     55  C   UNL A   1      40.497  29.468  34.372  1.00  0.00     0.074 A 
ATOM     56  C   UNL A   1      37.454  35.052  33.042  1.00  0.00     0.029 A 
ATOM     57  N   UNL A   1      37.333  32.866  32.830  1.00  0.00    -0.354 N 
ATOM     58  N   UNL A   1      39.713  30.057  35.241  1.00  0.00    -0.248 NA
ATOM     59  C   UNL A   1      39.969  29.431  33.012  1.00  0.00     0.031 C 
ATOM     60  C   UNL A   1      37.659  34.435  34.310  1.00  0.00     0.029 A 
ATOM     61  C   UNL A   1      37.791  33.058  34.113  1.00  0.00     0.049 A 
ATOM     62  H   UNL A   1      36.910  32.047  32.481  1.00  0.00     0.167 HD
ATOM     63  C   UNL A   1      38.833  30.826  34.487  1.00  0.00     0.074 A 
ATOM     64  C   UNL A   1      38.982  30.328  33.118  1.00  0.00     0.031 C 
ATOM     65  C   UNL A   1      38.308  31.998  34.965  1.00  0.00     0.034 A 
BRANCH  52  66
ATOM     66  C   UNL A   1      37.580  33.099  29.691  1.00  0.00     0.023 A 
ATOM     67  C   UNL A   1      36.381  33.590  29.151  1.00  0.00     0.031 A 
ATOM     68  C   UNL A   1      37.918  31.775  29.317  1.00  0.00     0.131 A 
ATOM     69  C   UNL A   1      35.518  32.753  28.430  1.00  0.00     0.055 A 
ATOM     70  C   UNL A   1      37.087  30.967  28.538  1.00  0.00     0.041 A 
ATOM     71  F   UNL A   1      39.021  31.144  29.731  1.00  0.00    -0.206 F 
ATOM     72  C   UNL A   1      35.857  31.440  28.124  1.00  0.00     0.022 A 
BRANCH  69  73
ATOM     73  S   UNL A   1      33.857  33.368  28.076  1.00  0.00     0.124 S 
ATOM     74  O   UNL A   1      33.259  32.215  27.412  1.00  0.00    -0.237 OA
ATOM     75  O   UNL A   1      33.363  33.670  29.415  1.00  0.00    -0.237 OA
ATOM     76  O   UNL A   1      34.102  34.526  27.222  1.00  0.00    -0.744 OA
ENDBRANCH  69  73
ENDBRANCH  52  66
BRANCH  53  77
ATOM     77  C   UNL A   1      42.791  28.126  34.286  1.00  0.00     0.023 A 
ATOM     78  C   UNL A   1      42.664  26.931  35.026  1.00  0.00     0.031 A 
ATOM     79  C   UNL A   1      43.602  28.049  33.124  1.00  0.00     0.131 A 
ATOM     80  C   UNL A   1      43.340  25.753  34.611  1.00  0.00     0.055 A 
ATOM     81  C   UNL A   1      44.280  26.893  32.731  1.00  0.00     0.041 A 
ATOM     82  F   UNL A   1      43.705  29.076  32.268  1.00  0.00    -0.206 F 
ATOM     83  C   UNL A   1      44.147  25.735  33.471  1.00  0.00     0.022 A 
BRANCH  80  84
ATOM     84  S   UNL A   1      43.110  24.178  35.503  1.00  0.00     0.124 S 
ATOM     85  O   UNL A   1      44.244  24.175  36.420  1.00  0.00    -0.237 OA
ATOM     86  O   UNL A   1      41.791  24.345  36.099  1.00  0.00    -0.237 OA
ATOM     87  O   UNL A   1      43.177  23.173  34.441  1.00  0.00    -0.744 OA
ENDBRANCH  80  84
ENDBRANCH  53  77
BRANCH  65  88
ATOM     88  C   UNL A   1      38.474  32.339  36.437  1.00  0.00     0.023 A 
ATOM     89  C   UNL A   1      37.600  31.925  37.469  1.00  0.00     0.031 A 
ATOM     90  C   UNL A   1      39.668  32.977  36.821  1.00  0.00     0.131 A 
ATOM     91  C   UNL A   1      37.938  32.157  38.819  1.00  0.00     0.055 A 
ATOM     92  C   UNL A   1      40.010  33.184  38.157  1.00  0.00     0.041 A 
ATOM     93  F   UNL A   1      40.558  33.371  35.894  1.00  0.00    -0.206 F 
ATOM     94  C   UNL A   1      39.143  32.778  39.163  1.00  0.00     0.022 A 
BRANCH  91  95
ATOM     95  S   UNL A   1      36.808  31.661  40.161  1.00  0.00     0.124 S 
ATOM     96  O   UNL A   1      35.526  31.502  39.485  1.00  0.00    -0.237 OA
ATOM     97  O   UNL A   1      37.428  30.434  40.656  1.00  0.00    -0.237 OA
ATOM     98  O   UNL A   1      36.870  32.790  41.092  1.00  0.00    -0.744 OA
ENDBRANCH  91  95
ENDBRANCH  65  88
ENDBRANCH  39  40
ENDBRANCH  32  34
ENDBRANCH  31  32
ENDBRANCH  30  31
ENDBRANCH  29  30
ENDBRANCH  28  29
ENDBRANCH  27  28
ENDBRANCH   1  27
TORSDOF 25
ENDMDL
