MODEL 1
REMARK VINA RESULT:      -8.9      0.000      0.000
REMARK SMILES O=C(Cc1ccc(S(=O)(=O)N[C@H]2CC[C@@H](O)CC2)cc1)OCCOCCOCCOCCOC(=O)c1ccc(-c2c3nc(c(-c4cc(S(=O)(=O)[O-])ccc4F)c4ccc([nH]4)c(-c4cc(S(=O)(=O)[O-])ccc4F)c4nc(c(-c5cc(S(=O)(=O)[O-])ccc5F)c5ccc2[nH]5)C=C4)C=C3)cc1
REMARK SMILES IDX 26 1 25 2 24 3 23 4 22 5 21 6 2 7 1 8 3 9 4 10 5 11 20 12
REMARK SMILES IDX 6 13 19 14 7 15 8 16 9 17 10 18 11 19 12 21 13 22 18 23
REMARK SMILES IDX 14 24 17 25 15 26 16 27 27 29 28 30 29 31 30 32 31 33 32 34
REMARK SMILES IDX 33 35 34 36 35 37 36 38 37 39 98 40 38 41 97 42 39 43 40 44
REMARK SMILES IDX 41 45 91 46 42 47 96 48 90 49 92 50 43 51 95 52 89 53 88 54
REMARK SMILES IDX 44 56 76 57 56 58 75 59 57 60 60 61 74 62 93 63 58 64 59 65
REMARK SMILES IDX 73 67 94 68 61 69 45 70 46 71 54 72 47 73 53 74 55 75 52 76
REMARK SMILES IDX 48 77 49 78 50 79 51 80 77 81 78 82 86 83 79 84 85 85 87 86
REMARK SMILES IDX 84 87 80 88 81 89 82 90 83 91 62 92 63 93 71 94 64 95 70 96
REMARK SMILES IDX 72 97 69 98 65 99 66 100 67 101 68 102
REMARK H PARENT 11 20 16 28 92 55 60 66
REMARK Flexibility Score: inf
ROOT
ATOM      1  C   UNL A   1      39.627  22.439  26.848  1.00  0.00     0.188 C 
ENDROOT
BRANCH   1   2
ATOM      2  C   UNL A   1      38.390  22.705  25.985  1.00  0.00     0.188 C 
BRANCH   2   3
ATOM      3  O   UNL A   1      37.732  21.705  25.218  1.00  0.00    -0.376 OA
BRANCH   3   4
ATOM      4  C   UNL A   1      36.390  21.688  24.790  1.00  0.00     0.202 C 
BRANCH   4   5
ATOM      5  C   UNL A   1      35.226  21.955  25.733  1.00  0.00     0.261 C 
BRANCH   5   6
ATOM      6  O   UNL A   1      34.310  20.882  25.982  1.00  0.00    -0.463 OA
BRANCH   6   7
ATOM      7  C   UNL A   1      33.471  20.294  25.106  1.00  0.00     0.310 C 
ATOM      8  O   UNL A   1      33.884  19.347  24.436  1.00  0.00    -0.252 OA
BRANCH   7   9
ATOM      9  C   UNL A   1      32.074  20.841  24.878  1.00  0.00     0.158 C 
BRANCH   9  10
ATOM     10  C   UNL A   1      32.028  22.084  24.048  1.00  0.00    -0.037 A 
ATOM     11  C   UNL A   1      32.853  22.243  22.923  1.00  0.00     0.006 A 
ATOM     12  C   UNL A   1      31.174  23.112  24.444  1.00  0.00     0.006 A 
ATOM     13  C   UNL A   1      32.956  23.488  22.309  1.00  0.00     0.022 A 
ATOM     14  C   UNL A   1      31.216  24.322  23.784  1.00  0.00     0.022 A 
ATOM     15  C   UNL A   1      32.157  24.531  22.775  1.00  0.00     0.082 A 
BRANCH  15  16
ATOM     16  S   UNL A   1      32.422  26.177  22.191  1.00  0.00     0.240 S 
ATOM     17  O   UNL A   1      33.818  26.304  21.808  1.00  0.00    -0.207 OA
ATOM     18  O   UNL A   1      31.340  26.488  21.299  1.00  0.00    -0.207 OA
BRANCH  16  19
ATOM     19  N   UNL A   1      32.181  27.095  23.576  1.00  0.00    -0.208 NA
ATOM     20  H   UNL A   1      31.689  26.491  24.235  1.00  0.00     0.141 HD
BRANCH  19  21
ATOM     21  C   UNL A   1      33.298  27.694  24.324  1.00  0.00     0.070 C 
ATOM     22  C   UNL A   1      33.685  26.811  25.523  1.00  0.00     0.023 C 
ATOM     23  C   UNL A   1      32.866  29.081  24.806  1.00  0.00     0.023 C 
ATOM     24  C   UNL A   1      32.583  26.720  26.573  1.00  0.00     0.033 C 
ATOM     25  C   UNL A   1      31.768  29.013  25.871  1.00  0.00     0.033 C 
ATOM     26  C   UNL A   1      32.154  28.109  27.041  1.00  0.00     0.114 C 
BRANCH  26  27
ATOM     27  O   UNL A   1      31.055  27.984  27.937  1.00  0.00    -0.393 OA
ATOM     28  H   UNL A   1      30.225  28.029  27.438  1.00  0.00     0.210 HD
ENDBRANCH  26  27
ENDBRANCH  19  21
ENDBRANCH  16  19
ENDBRANCH  15  16
ENDBRANCH   9  10
ENDBRANCH   7   9
ENDBRANCH   6   7
ENDBRANCH   5   6
ENDBRANCH   4   5
ENDBRANCH   3   4
ENDBRANCH   2   3
ENDBRANCH   1   2
BRANCH   1  29
ATOM     29  O   UNL A   1      40.103  23.474  27.691  1.00  0.00    -0.377 OA
BRANCH  29  30
ATOM     30  C   UNL A   1      40.379  24.698  27.038  1.00  0.00     0.188 C 
BRANCH  30  31
ATOM     31  C   UNL A   1      41.744  24.695  26.328  1.00  0.00     0.188 C 
BRANCH  31  32
ATOM     32  O   UNL A   1      42.671  23.766  26.852  1.00  0.00    -0.376 OA
BRANCH  32  33
ATOM     33  C   UNL A   1      43.403  22.886  26.012  1.00  0.00     0.202 C 
BRANCH  33  34
ATOM     34  C   UNL A   1      44.411  23.275  24.909  1.00  0.00     0.261 C 
BRANCH  34  35
ATOM     35  O   UNL A   1      44.539  24.643  24.533  1.00  0.00    -0.460 OA
BRANCH  35  36
ATOM     36  C   UNL A   1      45.588  25.319  25.040  1.00  0.00     0.338 C 
ATOM     37  O   UNL A   1      46.731  25.304  24.625  1.00  0.00    -0.246 OA
BRANCH  36  38
ATOM     38  C   UNL A   1      45.048  26.282  26.025  1.00  0.00     0.060 A 
ATOM     39  C   UNL A   1      44.367  27.404  25.536  1.00  0.00     0.016 A 
ATOM     40  C   UNL A   1      45.173  26.071  27.403  1.00  0.00     0.016 A 
ATOM     41  C   UNL A   1      43.867  28.354  26.417  1.00  0.00     0.010 A 
ATOM     42  C   UNL A   1      44.704  27.046  28.289  1.00  0.00     0.010 A 
ATOM     43  C   UNL A   1      44.104  28.215  27.790  1.00  0.00    -0.014 A 
BRANCH  43  44
ATOM     44  C   UNL A   1      44.021  29.436  28.625  1.00  0.00     0.031 A 
ATOM     45  C   UNL A   1      45.226  30.341  28.637  1.00  0.00     0.074 A 
ATOM     46  C   UNL A   1      42.889  29.783  29.258  1.00  0.00     0.049 A 
ATOM     47  N   UNL A   1      45.403  31.486  29.240  1.00  0.00    -0.248 NA
ATOM     48  C   UNL A   1      46.388  29.886  27.857  1.00  0.00     0.031 C 
ATOM     49  C   UNL A   1      41.644  29.017  29.249  1.00  0.00     0.029 A 
ATOM     50  N   UNL A   1      42.602  30.885  30.022  1.00  0.00    -0.354 N 
ATOM     51  C   UNL A   1      46.697  31.883  28.917  1.00  0.00     0.074 A 
ATOM     52  C   UNL A   1      47.272  30.838  28.102  1.00  0.00     0.031 C 
ATOM     53  C   UNL A   1      40.723  29.679  29.971  1.00  0.00     0.029 A 
ATOM     54  C   UNL A   1      41.322  30.894  30.522  1.00  0.00     0.049 A 
ATOM     55  H   UNL A   1      43.254  31.604  30.195  1.00  0.00     0.167 HD
ATOM     56  C   UNL A   1      47.343  33.022  29.263  1.00  0.00     0.034 A 
ATOM     57  C   UNL A   1      40.718  31.778  31.340  1.00  0.00     0.034 A 
ATOM     58  C   UNL A   1      46.754  34.047  30.087  1.00  0.00     0.049 A 
ATOM     59  C   UNL A   1      41.494  32.995  31.795  1.00  0.00     0.074 A 
ATOM     60  C   UNL A   1      47.307  35.245  30.500  1.00  0.00     0.029 A 
ATOM     61  N   UNL A   1      45.479  33.986  30.639  1.00  0.00    -0.354 N 
ATOM     62  N   UNL A   1      42.715  33.365  31.483  1.00  0.00    -0.248 NA
ATOM     63  C   UNL A   1      40.799  33.918  32.700  1.00  0.00     0.031 C 
ATOM     64  C   UNL A   1      46.406  35.864  31.371  1.00  0.00     0.029 A 
ATOM     65  C   UNL A   1      45.246  35.106  31.421  1.00  0.00     0.049 A 
ATOM     66  H   UNL A   1      44.836  33.254  30.496  1.00  0.00     0.167 HD
ATOM     67  C   UNL A   1      42.917  34.588  32.121  1.00  0.00     0.074 A 
ATOM     68  C   UNL A   1      41.687  34.894  32.820  1.00  0.00     0.031 C 
ATOM     69  C   UNL A   1      44.013  35.392  32.120  1.00  0.00     0.034 A 
BRANCH  56  70
ATOM     70  C   UNL A   1      48.778  33.170  28.812  1.00  0.00     0.023 A 
ATOM     71  C   UNL A   1      49.117  33.688  27.549  1.00  0.00     0.031 A 
ATOM     72  C   UNL A   1      49.822  32.734  29.645  1.00  0.00     0.131 A 
ATOM     73  C   UNL A   1      50.456  33.685  27.129  1.00  0.00     0.055 A 
ATOM     74  C   UNL A   1      51.159  32.816  29.256  1.00  0.00     0.041 A 
ATOM     75  F   UNL A   1      49.560  32.198  30.848  1.00  0.00    -0.206 F 
ATOM     76  C   UNL A   1      51.483  33.279  27.984  1.00  0.00     0.022 A 
BRANCH  73  77
ATOM     77  S   UNL A   1      50.822  34.062  25.392  1.00  0.00     0.124 S 
ATOM     78  O   UNL A   1      51.957  34.973  25.520  1.00  0.00    -0.237 OA
ATOM     79  O   UNL A   1      51.117  32.746  24.839  1.00  0.00    -0.237 OA
ATOM     80  O   UNL A   1      49.588  34.682  24.909  1.00  0.00    -0.744 OA
ENDBRANCH  73  77
ENDBRANCH  56  70
BRANCH  57  81
ATOM     81  C   UNL A   1      39.321  31.549  31.812  1.00  0.00     0.023 A 
ATOM     82  C   UNL A   1      38.228  32.154  31.172  1.00  0.00     0.031 A 
ATOM     83  C   UNL A   1      39.064  30.771  32.956  1.00  0.00     0.131 A 
ATOM     84  C   UNL A   1      36.938  32.018  31.710  1.00  0.00     0.055 A 
ATOM     85  C   UNL A   1      37.772  30.590  33.453  1.00  0.00     0.041 A 
ATOM     86  F   UNL A   1      40.072  30.172  33.611  1.00  0.00    -0.206 F 
ATOM     87  C   UNL A   1      36.701  31.228  32.836  1.00  0.00     0.022 A 
BRANCH  84  88
ATOM     88  S   UNL A   1      35.584  32.972  30.970  1.00  0.00     0.124 S 
ATOM     89  O   UNL A   1      35.954  34.337  31.325  1.00  0.00    -0.237 OA
ATOM     90  O   UNL A   1      35.702  32.619  29.558  1.00  0.00    -0.237 OA
ATOM     91  O   UNL A   1      34.395  32.451  31.641  1.00  0.00    -0.744 OA
ENDBRANCH  84  88
ENDBRANCH  57  81
BRANCH  69  92
ATOM     92  C   UNL A   1      43.902  36.710  32.852  1.00  0.00     0.023 A 
ATOM     93  C   UNL A   1      43.540  37.900  32.197  1.00  0.00     0.031 A 
ATOM     94  C   UNL A   1      44.188  36.778  34.229  1.00  0.00     0.131 A 
ATOM     95  C   UNL A   1      43.550  39.115  32.898  1.00  0.00     0.055 A 
ATOM     96  C   UNL A   1      44.118  37.976  34.938  1.00  0.00     0.041 A 
ATOM     97  F   UNL A   1      44.543  35.675  34.908  1.00  0.00    -0.206 F 
ATOM     98  C   UNL A   1      43.815  39.158  34.269  1.00  0.00     0.022 A 
BRANCH  95  99
ATOM     99  S   UNL A   1      43.339  40.658  31.967  1.00  0.00     0.124 S 
ATOM    100  O   UNL A   1      44.419  41.482  32.501  1.00  0.00    -0.237 OA
ATOM    101  O   UNL A   1      43.499  40.214  30.587  1.00  0.00    -0.237 OA
ATOM    102  O   UNL A   1      41.991  41.094  32.326  1.00  0.00    -0.744 OA
ENDBRANCH  95  99
ENDBRANCH  69  92
ENDBRANCH  43  44
ENDBRANCH  36  38
ENDBRANCH  35  36
ENDBRANCH  34  35
ENDBRANCH  33  34
ENDBRANCH  32  33
ENDBRANCH  31  32
ENDBRANCH  30  31
ENDBRANCH  29  30
ENDBRANCH   1  29
TORSDOF 28
ENDMDL
MODEL 2
REMARK VINA RESULT:      -8.6      5.353      9.046
REMARK SMILES O=C(Cc1ccc(S(=O)(=O)N[C@H]2CC[C@@H](O)CC2)cc1)OCCOCCOCCOCCOC(=O)c1ccc(-c2c3nc(c(-c4cc(S(=O)(=O)[O-])ccc4F)c4ccc([nH]4)c(-c4cc(S(=O)(=O)[O-])ccc4F)c4nc(c(-c5cc(S(=O)(=O)[O-])ccc5F)c5ccc2[nH]5)C=C4)C=C3)cc1
REMARK SMILES IDX 26 1 25 2 24 3 23 4 22 5 21 6 2 7 1 8 3 9 4 10 5 11 20 12
REMARK SMILES IDX 6 13 19 14 7 15 8 16 9 17 10 18 11 19 12 21 13 22 18 23
REMARK SMILES IDX 14 24 17 25 15 26 16 27 27 29 28 30 29 31 30 32 31 33 32 34
REMARK SMILES IDX 33 35 34 36 35 37 36 38 37 39 98 40 38 41 97 42 39 43 40 44
REMARK SMILES IDX 41 45 91 46 42 47 96 48 90 49 92 50 43 51 95 52 89 53 88 54
REMARK SMILES IDX 44 56 76 57 56 58 75 59 57 60 60 61 74 62 93 63 58 64 59 65
REMARK SMILES IDX 73 67 94 68 61 69 45 70 46 71 54 72 47 73 53 74 55 75 52 76
REMARK SMILES IDX 48 77 49 78 50 79 51 80 77 81 78 82 86 83 79 84 85 85 87 86
REMARK SMILES IDX 84 87 80 88 81 89 82 90 83 91 62 92 63 93 71 94 64 95 70 96
REMARK SMILES IDX 72 97 69 98 65 99 66 100 67 101 68 102
REMARK H PARENT 11 20 16 28 92 55 60 66
REMARK Flexibility Score: inf
ROOT
ATOM      1  C   UNL A   1      39.411  22.766  26.367  1.00  0.00     0.188 C 
ENDROOT
BRANCH   1   2
ATOM      2  C   UNL A   1      38.746  23.997  26.990  1.00  0.00     0.188 C 
BRANCH   2   3
ATOM      3  O   UNL A   1      39.455  25.164  27.383  1.00  0.00    -0.376 OA
BRANCH   3   4
ATOM      4  C   UNL A   1      39.066  26.136  28.326  1.00  0.00     0.202 C 
BRANCH   4   5
ATOM      5  C   UNL A   1      39.886  27.388  28.596  1.00  0.00     0.261 C 
BRANCH   5   6
ATOM      6  O   UNL A   1      39.377  28.637  28.112  1.00  0.00    -0.463 OA
BRANCH   6   7
ATOM      7  C   UNL A   1      38.969  29.698  28.838  1.00  0.00     0.310 C 
ATOM      8  O   UNL A   1      39.532  29.935  29.907  1.00  0.00    -0.252 OA
BRANCH   7   9
ATOM      9  C   UNL A   1      37.781  30.532  28.398  1.00  0.00     0.158 C 
BRANCH   9  10
ATOM     10  C   UNL A   1      37.246  31.445  29.453  1.00  0.00    -0.037 A 
ATOM     11  C   UNL A   1      37.692  32.772  29.568  1.00  0.00     0.006 A 
ATOM     12  C   UNL A   1      36.319  30.936  30.361  1.00  0.00     0.006 A 
ATOM     13  C   UNL A   1      37.352  33.524  30.689  1.00  0.00     0.022 A 
ATOM     14  C   UNL A   1      35.917  31.710  31.430  1.00  0.00     0.022 A 
ATOM     15  C   UNL A   1      36.493  32.965  31.633  1.00  0.00     0.082 A 
BRANCH  15  16
ATOM     16  S   UNL A   1      36.224  33.779  33.177  1.00  0.00     0.240 S 
ATOM     17  O   UNL A   1      36.098  32.765  34.209  1.00  0.00    -0.207 OA
ATOM     18  O   UNL A   1      37.172  34.856  33.259  1.00  0.00    -0.207 OA
BRANCH  16  19
ATOM     19  N   UNL A   1      34.716  34.484  32.958  1.00  0.00    -0.208 NA
ATOM     20  H   UNL A   1      34.436  34.846  33.869  1.00  0.00     0.141 HD
BRANCH  19  21
ATOM     21  C   UNL A   1      34.493  35.576  31.996  1.00  0.00     0.070 C 
ATOM     22  C   UNL A   1      34.429  36.933  32.719  1.00  0.00     0.023 C 
ATOM     23  C   UNL A   1      33.179  35.309  31.258  1.00  0.00     0.023 C 
ATOM     24  C   UNL A   1      33.229  37.051  33.653  1.00  0.00     0.033 C 
ATOM     25  C   UNL A   1      31.959  35.434  32.174  1.00  0.00     0.033 C 
ATOM     26  C   UNL A   1      31.925  36.774  32.910  1.00  0.00     0.114 C 
BRANCH  26  27
ATOM     27  O   UNL A   1      30.844  36.789  33.835  1.00  0.00    -0.393 OA
ATOM     28  H   UNL A   1      31.191  36.727  34.739  1.00  0.00     0.210 HD
ENDBRANCH  26  27
ENDBRANCH  19  21
ENDBRANCH  16  19
ENDBRANCH  15  16
ENDBRANCH   9  10
ENDBRANCH   7   9
ENDBRANCH   6   7
ENDBRANCH   5   6
ENDBRANCH   4   5
ENDBRANCH   3   4
ENDBRANCH   2   3
ENDBRANCH   1   2
BRANCH   1  29
ATOM     29  O   UNL A   1      39.667  21.641  27.190  1.00  0.00    -0.377 OA
BRANCH  29  30
ATOM     30  C   UNL A   1      40.991  21.147  27.132  1.00  0.00     0.188 C 
BRANCH  30  31
ATOM     31  C   UNL A   1      41.126  19.924  26.207  1.00  0.00     0.188 C 
BRANCH  31  32
ATOM     32  O   UNL A   1      42.330  19.202  26.368  1.00  0.00    -0.376 OA
BRANCH  32  33
ATOM     33  C   UNL A   1      43.357  19.234  25.389  1.00  0.00     0.202 C 
BRANCH  33  34
ATOM     34  C   UNL A   1      44.416  20.341  25.186  1.00  0.00     0.261 C 
BRANCH  34  35
ATOM     35  O   UNL A   1      44.265  21.583  25.868  1.00  0.00    -0.460 OA
BRANCH  35  36
ATOM     36  C   UNL A   1      44.119  22.682  25.104  1.00  0.00     0.338 C 
ATOM     37  O   UNL A   1      43.946  22.713  23.900  1.00  0.00    -0.246 OA
BRANCH  36  38
ATOM     38  C   UNL A   1      43.943  23.829  26.023  1.00  0.00     0.060 A 
ATOM     39  C   UNL A   1      45.075  24.585  26.350  1.00  0.00     0.016 A 
ATOM     40  C   UNL A   1      42.684  24.181  26.524  1.00  0.00     0.016 A 
ATOM     41  C   UNL A   1      44.969  25.653  27.231  1.00  0.00     0.010 A 
ATOM     42  C   UNL A   1      42.583  25.232  27.441  1.00  0.00     0.010 A 
ATOM     43  C   UNL A   1      43.738  25.928  27.837  1.00  0.00    -0.014 A 
BRANCH  43  44
ATOM     44  C   UNL A   1      43.756  26.701  29.101  1.00  0.00     0.031 A 
ATOM     45  C   UNL A   1      44.156  25.961  30.351  1.00  0.00     0.074 A 
ATOM     46  C   UNL A   1      43.534  28.025  29.123  1.00  0.00     0.049 A 
ATOM     47  N   UNL A   1      44.300  26.402  31.572  1.00  0.00    -0.248 NA
ATOM     48  C   UNL A   1      44.436  24.524  30.194  1.00  0.00     0.031 C 
ATOM     49  C   UNL A   1      43.214  28.850  27.959  1.00  0.00     0.029 A 
ATOM     50  N   UNL A   1      43.561  28.912  30.169  1.00  0.00    -0.354 N 
ATOM     51  C   UNL A   1      44.678  25.296  32.328  1.00  0.00     0.074 A 
ATOM     52  C   UNL A   1      44.701  24.159  31.437  1.00  0.00     0.031 C 
ATOM     53  C   UNL A   1      43.079  30.127  28.357  1.00  0.00     0.029 A 
ATOM     54  C   UNL A   1      43.267  30.204  29.805  1.00  0.00     0.049 A 
ATOM     55  H   UNL A   1      43.771  28.646  31.094  1.00  0.00     0.167 HD
ATOM     56  C   UNL A   1      44.986  25.238  33.646  1.00  0.00     0.034 A 
ATOM     57  C   UNL A   1      43.153  31.313  30.564  1.00  0.00     0.034 A 
ATOM     58  C   UNL A   1      44.946  26.384  34.519  1.00  0.00     0.049 A 
ATOM     59  C   UNL A   1      43.406  31.204  32.052  1.00  0.00     0.074 A 
ATOM     60  C   UNL A   1      45.242  26.450  35.868  1.00  0.00     0.029 A 
ATOM     61  N   UNL A   1      44.570  27.665  34.131  1.00  0.00    -0.354 N 
ATOM     62  N   UNL A   1      43.766  30.156  32.758  1.00  0.00    -0.248 NA
ATOM     63  C   UNL A   1      43.251  32.433  32.838  1.00  0.00     0.031 C 
ATOM     64  C   UNL A   1      44.959  27.744  36.313  1.00  0.00     0.029 A 
ATOM     65  C   UNL A   1      44.588  28.517  35.224  1.00  0.00     0.049 A 
ATOM     66  H   UNL A   1      44.327  27.928  33.214  1.00  0.00     0.167 HD
ATOM     67  C   UNL A   1      43.922  30.614  34.066  1.00  0.00     0.074 A 
ATOM     68  C   UNL A   1      43.630  32.032  34.041  1.00  0.00     0.031 C 
ATOM     69  C   UNL A   1      44.285  29.930  35.183  1.00  0.00     0.034 A 
BRANCH  56  70
ATOM     70  C   UNL A   1      45.315  23.880  34.222  1.00  0.00     0.023 A 
ATOM     71  C   UNL A   1      46.640  23.434  34.379  1.00  0.00     0.031 A 
ATOM     72  C   UNL A   1      44.278  22.998  34.571  1.00  0.00     0.131 A 
ATOM     73  C   UNL A   1      46.888  22.117  34.798  1.00  0.00     0.055 A 
ATOM     74  C   UNL A   1      44.534  21.721  35.071  1.00  0.00     0.041 A 
ATOM     75  F   UNL A   1      42.994  23.354  34.411  1.00  0.00    -0.206 F 
ATOM     76  C   UNL A   1      45.845  21.266  35.172  1.00  0.00     0.022 A 
BRANCH  73  77
ATOM     77  S   UNL A   1      48.582  21.477  34.689  1.00  0.00     0.124 S 
ATOM     78  O   UNL A   1      48.861  21.137  36.082  1.00  0.00    -0.237 OA
ATOM     79  O   UNL A   1      48.436  20.352  33.773  1.00  0.00    -0.237 OA
ATOM     80  O   UNL A   1      49.345  22.611  34.168  1.00  0.00    -0.744 OA
ENDBRANCH  73  77
ENDBRANCH  56  70
BRANCH  57  81
ATOM     81  C   UNL A   1      42.757  32.616  29.955  1.00  0.00     0.023 A 
ATOM     82  C   UNL A   1      43.662  33.364  29.186  1.00  0.00     0.031 A 
ATOM     83  C   UNL A   1      41.484  33.166  30.191  1.00  0.00     0.131 A 
ATOM     84  C   UNL A   1      43.303  34.641  28.726  1.00  0.00     0.055 A 
ATOM     85  C   UNL A   1      41.110  34.410  29.681  1.00  0.00     0.041 A 
ATOM     86  F   UNL A   1      40.579  32.497  30.923  1.00  0.00    -0.206 F 
ATOM     87  C   UNL A   1      42.029  35.163  28.955  1.00  0.00     0.022 A 
BRANCH  84  88
ATOM     88  S   UNL A   1      44.563  35.655  27.906  1.00  0.00     0.124 S 
ATOM     89  O   UNL A   1      44.255  36.985  28.419  1.00  0.00    -0.237 OA
ATOM     90  O   UNL A   1      45.800  35.049  28.389  1.00  0.00    -0.237 OA
ATOM     91  O   UNL A   1      44.289  35.454  26.484  1.00  0.00    -0.744 OA
ENDBRANCH  84  88
ENDBRANCH  57  81
BRANCH  69  92
ATOM     92  C   UNL A   1      44.446  30.726  36.458  1.00  0.00     0.023 A 
ATOM     93  C   UNL A   1      43.352  31.053  37.278  1.00  0.00     0.031 A 
ATOM     94  C   UNL A   1      45.719  31.187  36.845  1.00  0.00     0.131 A 
ATOM     95  C   UNL A   1      43.538  31.879  38.396  1.00  0.00     0.055 A 
ATOM     96  C   UNL A   1      45.909  31.941  38.002  1.00  0.00     0.041 A 
ATOM     97  F   UNL A   1      46.802  30.910  36.100  1.00  0.00    -0.206 F 
ATOM     98  C   UNL A   1      44.812  32.307  38.776  1.00  0.00     0.022 A 
BRANCH  95  99
ATOM     99  S   UNL A   1      42.075  32.496  39.274  1.00  0.00     0.124 S 
ATOM    100  O   UNL A   1      42.484  33.853  39.625  1.00  0.00    -0.237 OA
ATOM    101  O   UNL A   1      41.033  32.386  38.260  1.00  0.00    -0.237 OA
ATOM    102  O   UNL A   1      41.941  31.577  40.404  1.00  0.00    -0.744 OA
ENDBRANCH  95  99
ENDBRANCH  69  92
ENDBRANCH  43  44
ENDBRANCH  36  38
ENDBRANCH  35  36
ENDBRANCH  34  35
ENDBRANCH  33  34
ENDBRANCH  32  33
ENDBRANCH  31  32
ENDBRANCH  30  31
ENDBRANCH  29  30
ENDBRANCH   1  29
TORSDOF 28
ENDMDL
MODEL 3
REMARK VINA RESULT:      -8.4      1.858      7.458
REMARK SMILES O=C(Cc1ccc(S(=O)(=O)N[C@H]2CC[C@@H](O)CC2)cc1)OCCOCCOCCOCCOC(=O)c1ccc(-c2c3nc(c(-c4cc(S(=O)(=O)[O-])ccc4F)c4ccc([nH]4)c(-c4cc(S(=O)(=O)[O-])ccc4F)c4nc(c(-c5cc(S(=O)(=O)[O-])ccc5F)c5ccc2[nH]5)C=C4)C=C3)cc1
REMARK SMILES IDX 26 1 25 2 24 3 23 4 22 5 21 6 2 7 1 8 3 9 4 10 5 11 20 12
REMARK SMILES IDX 6 13 19 14 7 15 8 16 9 17 10 18 11 19 12 21 13 22 18 23
REMARK SMILES IDX 14 24 17 25 15 26 16 27 27 29 28 30 29 31 30 32 31 33 32 34
REMARK SMILES IDX 33 35 34 36 35 37 36 38 37 39 98 40 38 41 97 42 39 43 40 44
REMARK SMILES IDX 41 45 91 46 42 47 96 48 90 49 92 50 43 51 95 52 89 53 88 54
REMARK SMILES IDX 44 56 76 57 56 58 75 59 57 60 60 61 74 62 93 63 58 64 59 65
REMARK SMILES IDX 73 67 94 68 61 69 45 70 46 71 54 72 47 73 53 74 55 75 52 76
REMARK SMILES IDX 48 77 49 78 50 79 51 80 77 81 78 82 86 83 79 84 85 85 87 86
REMARK SMILES IDX 84 87 80 88 81 89 82 90 83 91 62 92 63 93 71 94 64 95 70 96
REMARK SMILES IDX 72 97 69 98 65 99 66 100 67 101 68 102
REMARK H PARENT 11 20 16 28 92 55 60 66
REMARK Flexibility Score: inf
ROOT
ATOM      1  C   UNL A   1      39.696  22.885  26.788  1.00  0.00     0.188 C 
ENDROOT
BRANCH   1   2
ATOM      2  C   UNL A   1      38.345  23.049  26.085  1.00  0.00     0.188 C 
BRANCH   2   3
ATOM      3  O   UNL A   1      37.836  22.131  25.128  1.00  0.00    -0.376 OA
BRANCH   3   4
ATOM      4  C   UNL A   1      36.513  22.017  24.657  1.00  0.00     0.202 C 
BRANCH   4   5
ATOM      5  C   UNL A   1      35.303  22.232  25.555  1.00  0.00     0.261 C 
BRANCH   5   6
ATOM      6  O   UNL A   1      34.518  21.085  25.901  1.00  0.00    -0.463 OA
BRANCH   6   7
ATOM      7  C   UNL A   1      33.808  20.292  25.074  1.00  0.00     0.310 C 
ATOM      8  O   UNL A   1      34.368  19.328  24.553  1.00  0.00    -0.252 OA
BRANCH   7   9
ATOM      9  C   UNL A   1      32.372  20.628  24.715  1.00  0.00     0.158 C 
BRANCH   9  10
ATOM     10  C   UNL A   1      32.212  21.896  23.939  1.00  0.00    -0.037 A 
ATOM     11  C   UNL A   1      32.815  22.065  22.682  1.00  0.00     0.006 A 
ATOM     12  C   UNL A   1      31.483  22.936  24.514  1.00  0.00     0.006 A 
ATOM     13  C   UNL A   1      32.842  23.324  22.090  1.00  0.00     0.022 A 
ATOM     14  C   UNL A   1      31.441  24.164  23.887  1.00  0.00     0.022 A 
ATOM     15  C   UNL A   1      32.182  24.375  22.723  1.00  0.00     0.082 A 
BRANCH  15  16
ATOM     16  S   UNL A   1      32.387  26.030  22.140  1.00  0.00     0.240 S 
ATOM     17  O   UNL A   1      33.672  26.117  21.467  1.00  0.00    -0.207 OA
ATOM     18  O   UNL A   1      31.154  26.413  21.512  1.00  0.00    -0.207 OA
BRANCH  16  19
ATOM     19  N   UNL A   1      32.491  26.907  23.568  1.00  0.00    -0.208 NA
ATOM     20  H   UNL A   1      33.445  26.782  23.909  1.00  0.00     0.141 HD
BRANCH  19  21
ATOM     21  C   UNL A   1      32.221  28.353  23.621  1.00  0.00     0.070 C 
ATOM     22  C   UNL A   1      33.474  29.123  24.076  1.00  0.00     0.023 C 
ATOM     23  C   UNL A   1      31.069  28.593  24.600  1.00  0.00     0.023 C 
ATOM     24  C   UNL A   1      33.881  28.799  25.509  1.00  0.00     0.033 C 
ATOM     25  C   UNL A   1      31.460  28.286  26.048  1.00  0.00     0.033 C 
ATOM     26  C   UNL A   1      32.723  29.034  26.476  1.00  0.00     0.114 C 
BRANCH  26  27
ATOM     27  O   UNL A   1      33.109  28.621  27.782  1.00  0.00    -0.393 OA
ATOM     28  H   UNL A   1      33.710  27.861  27.716  1.00  0.00     0.210 HD
ENDBRANCH  26  27
ENDBRANCH  19  21
ENDBRANCH  16  19
ENDBRANCH  15  16
ENDBRANCH   9  10
ENDBRANCH   7   9
ENDBRANCH   6   7
ENDBRANCH   5   6
ENDBRANCH   4   5
ENDBRANCH   3   4
ENDBRANCH   2   3
ENDBRANCH   1   2
BRANCH   1  29
ATOM     29  O   UNL A   1      40.383  24.047  27.221  1.00  0.00    -0.377 OA
BRANCH  29  30
ATOM     30  C   UNL A   1      40.732  24.953  26.192  1.00  0.00     0.188 C 
BRANCH  30  31
ATOM     31  C   UNL A   1      42.064  24.591  25.511  1.00  0.00     0.188 C 
BRANCH  31  32
ATOM     32  O   UNL A   1      42.708  23.459  26.058  1.00  0.00    -0.376 OA
BRANCH  32  33
ATOM     33  C   UNL A   1      43.393  22.521  25.241  1.00  0.00     0.202 C 
BRANCH  33  34
ATOM     34  C   UNL A   1      44.585  22.802  24.299  1.00  0.00     0.261 C 
BRANCH  34  35
ATOM     35  O   UNL A   1      45.266  24.050  24.391  1.00  0.00    -0.460 OA
BRANCH  35  36
ATOM     36  C   UNL A   1      46.025  24.250  25.486  1.00  0.00     0.338 C 
ATOM     37  O   UNL A   1      47.058  23.672  25.769  1.00  0.00    -0.246 OA
BRANCH  36  38
ATOM     38  C   UNL A   1      45.523  25.475  26.145  1.00  0.00     0.060 A 
ATOM     39  C   UNL A   1      44.751  26.359  25.381  1.00  0.00     0.016 A 
ATOM     40  C   UNL A   1      45.770  25.735  27.498  1.00  0.00     0.016 A 
ATOM     41  C   UNL A   1      44.280  27.538  25.944  1.00  0.00     0.010 A 
ATOM     42  C   UNL A   1      45.329  26.939  28.056  1.00  0.00     0.010 A 
ATOM     43  C   UNL A   1      44.635  27.866  27.258  1.00  0.00    -0.014 A 
BRANCH  43  44
ATOM     44  C   UNL A   1      44.562  29.292  27.650  1.00  0.00     0.031 A 
ATOM     45  C   UNL A   1      43.310  29.748  28.352  1.00  0.00     0.074 A 
ATOM     46  C   UNL A   1      45.605  30.123  27.489  1.00  0.00     0.049 A 
ATOM     47  N   UNL A   1      43.006  30.921  28.841  1.00  0.00    -0.248 NA
ATOM     48  C   UNL A   1      42.257  28.733  28.526  1.00  0.00     0.031 C 
ATOM     49  C   UNL A   1      46.890  29.764  26.891  1.00  0.00     0.029 A 
ATOM     50  N   UNL A   1      45.750  31.442  27.835  1.00  0.00    -0.354 N 
ATOM     51  C   UNL A   1      41.727  30.786  29.373  1.00  0.00     0.074 A 
ATOM     52  C   UNL A   1      41.298  29.432  29.109  1.00  0.00     0.031 C 
ATOM     53  C   UNL A   1      47.696  30.840  26.917  1.00  0.00     0.029 A 
ATOM     54  C   UNL A   1      46.974  31.970  27.499  1.00  0.00     0.049 A 
ATOM     55  H   UNL A   1      45.043  31.962  28.281  1.00  0.00     0.167 HD
ATOM     56  C   UNL A   1      40.983  31.707  30.029  1.00  0.00     0.034 A 
ATOM     57  C   UNL A   1      47.442  33.227  27.637  1.00  0.00     0.034 A 
ATOM     58  C   UNL A   1      41.427  33.057  30.272  1.00  0.00     0.049 A 
ATOM     59  C   UNL A   1      46.554  34.266  28.285  1.00  0.00     0.074 A 
ATOM     60  C   UNL A   1      40.765  34.077  30.929  1.00  0.00     0.029 A 
ATOM     61  N   UNL A   1      42.644  33.579  29.849  1.00  0.00    -0.354 N 
ATOM     62  N   UNL A   1      45.348  34.130  28.788  1.00  0.00    -0.248 NA
ATOM     63  C   UNL A   1      47.101  35.623  28.395  1.00  0.00     0.031 C 
ATOM     64  C   UNL A   1      41.540  35.236  30.826  1.00  0.00     0.029 A 
ATOM     65  C   UNL A   1      42.734  34.918  30.197  1.00  0.00     0.049 A 
ATOM     66  H   UNL A   1      43.342  33.072  29.372  1.00  0.00     0.167 HD
ATOM     67  C   UNL A   1      45.012  35.377  29.314  1.00  0.00     0.074 A 
ATOM     68  C   UNL A   1      46.149  36.242  29.077  1.00  0.00     0.031 C 
ATOM     69  C   UNL A   1      43.874  35.770  29.945  1.00  0.00     0.034 A 
BRANCH  56  70
ATOM     70  C   UNL A   1      39.592  31.299  30.455  1.00  0.00     0.023 A 
ATOM     71  C   UNL A   1      38.471  31.480  29.624  1.00  0.00     0.031 A 
ATOM     72  C   UNL A   1      39.379  30.767  31.738  1.00  0.00     0.131 A 
ATOM     73  C   UNL A   1      37.185  31.204  30.115  1.00  0.00     0.055 A 
ATOM     74  C   UNL A   1      38.107  30.411  32.187  1.00  0.00     0.041 A 
ATOM     75  F   UNL A   1      40.404  30.602  32.588  1.00  0.00    -0.206 F 
ATOM     76  C   UNL A   1      36.997  30.644  31.381  1.00  0.00     0.022 A 
BRANCH  73  77
ATOM     77  S   UNL A   1      35.750  31.741  29.142  1.00  0.00     0.124 S 
ATOM     78  O   UNL A   1      36.368  32.653  28.183  1.00  0.00    -0.237 OA
ATOM     79  O   UNL A   1      35.249  30.485  28.599  1.00  0.00    -0.237 OA
ATOM     80  O   UNL A   1      34.886  32.383  30.132  1.00  0.00    -0.744 OA
ENDBRANCH  73  77
ENDBRANCH  56  70
BRANCH  57  81
ATOM     81  C   UNL A   1      48.799  33.594  27.135  1.00  0.00     0.023 A 
ATOM     82  C   UNL A   1      49.947  33.361  27.907  1.00  0.00     0.031 A 
ATOM     83  C   UNL A   1      48.959  34.248  25.900  1.00  0.00     0.131 A 
ATOM     84  C   UNL A   1      51.197  33.825  27.464  1.00  0.00     0.055 A 
ATOM     85  C   UNL A   1      50.211  34.655  25.436  1.00  0.00     0.041 A 
ATOM     86  F   UNL A   1      47.895  34.502  25.122  1.00  0.00    -0.206 F 
ATOM     87  C   UNL A   1      51.338  34.457  26.227  1.00  0.00     0.022 A 
BRANCH  84  88
ATOM     88  S   UNL A   1      52.622  33.678  28.575  1.00  0.00     0.124 S 
ATOM     89  O   UNL A   1      52.755  32.231  28.699  1.00  0.00    -0.237 OA
ATOM     90  O   UNL A   1      53.668  34.358  27.817  1.00  0.00    -0.237 OA
ATOM     91  O   UNL A   1      52.183  34.372  29.785  1.00  0.00    -0.744 OA
ENDBRANCH  84  88
ENDBRANCH  57  81
BRANCH  69  92
ATOM     92  C   UNL A   1      43.834  37.184  30.478  1.00  0.00     0.023 A 
ATOM     93  C   UNL A   1      44.010  37.473  31.843  1.00  0.00     0.031 A 
ATOM     94  C   UNL A   1      43.590  38.260  29.603  1.00  0.00     0.131 A 
ATOM     95  C   UNL A   1      43.864  38.791  32.302  1.00  0.00     0.055 A 
ATOM     96  C   UNL A   1      43.526  39.577  30.056  1.00  0.00     0.041 A 
ATOM     97  F   UNL A   1      43.410  38.046  28.290  1.00  0.00    -0.206 F 
ATOM     98  C   UNL A   1      43.645  39.847  31.415  1.00  0.00     0.022 A 
BRANCH  95  99
ATOM     99  S   UNL A   1      43.833  39.088  34.092  1.00  0.00     0.124 S 
ATOM    100  O   UNL A   1      42.673  38.306  34.508  1.00  0.00    -0.237 OA
ATOM    101  O   UNL A   1      45.132  38.576  34.516  1.00  0.00    -0.237 OA
ATOM    102  O   UNL A   1      43.674  40.538  34.195  1.00  0.00    -0.744 OA
ENDBRANCH  95  99
ENDBRANCH  69  92
ENDBRANCH  43  44
ENDBRANCH  36  38
ENDBRANCH  35  36
ENDBRANCH  34  35
ENDBRANCH  33  34
ENDBRANCH  32  33
ENDBRANCH  31  32
ENDBRANCH  30  31
ENDBRANCH  29  30
ENDBRANCH   1  29
TORSDOF 28
ENDMDL
