MODEL 1
REMARK VINA RESULT:     -10.4      0.000      0.000
REMARK SMILES Cc1ccc(-c2cnnc(-n3nc(C)c4c3NC(=O)C[C@@H]4c3ccc(C(=O)OCCOCCOCCOCCOC(=O)c4ccc(-c5c6nc(c(-c7cc(S(=O)(=O)[O-])ccc7F)c7ccc([nH]7)c(-c7cc(S(=O)(=O)[O-])ccc7F)c7nc(c(-c8cc(S(=O)(=O)[O-])ccc8F)c8ccc5[nH]8)C=C7)C=C6)cc4)cc3)n2)cc1
REMARK SMILES IDX 34 1 33 2 32 3 31 4 30 5 29 6 28 7 26 8 27 9 25 10 22 11
REMARK SMILES IDX 23 12 107 13 24 14 106 15 21 16 11 17 12 18 16 19 13 20
REMARK SMILES IDX 15 21 17 22 14 23 18 24 20 26 19 27 10 28 6 29 7 30 108 31
REMARK SMILES IDX 8 32 9 33 5 34 1 35 2 36 3 37 110 38 4 39 109 40 35 41 36 42
REMARK SMILES IDX 37 43 38 44 39 45 40 46 41 47 42 48 43 49 44 50 105 51 45 52
REMARK SMILES IDX 104 53 46 54 47 55 48 56 98 57 49 58 103 59 97 60 99 61
REMARK SMILES IDX 50 62 102 63 96 64 95 65 51 67 83 68 63 69 82 70 64 71 67 72
REMARK SMILES IDX 81 73 100 74 65 75 66 76 80 78 101 79 68 80 52 81 53 82
REMARK SMILES IDX 61 83 54 84 60 85 62 86 59 87 55 88 56 89 57 90 58 91 84 92
REMARK SMILES IDX 85 93 93 94 86 95 92 96 94 97 91 98 87 99 88 100 89 101
REMARK SMILES IDX 90 102 69 103 70 104 78 105 71 106 77 107 79 108 76 109
REMARK SMILES IDX 72 110 73 111 74 112 75 113
REMARK H PARENT 17 25 99 66 67 77
REMARK Flexibility Score: inf
ROOT
ATOM      1  O   UNL A   1      34.882  33.788  30.031  1.00  0.00    -0.377 OA
ENDROOT
BRANCH   1   2
ATOM      2  C   UNL A   1      33.866  33.866  29.044  1.00  0.00     0.188 C 
BRANCH   2   3
ATOM      3  C   UNL A   1      33.956  32.825  27.868  1.00  0.00     0.188 C 
BRANCH   3   4
ATOM      4  O   UNL A   1      33.041  31.553  27.689  1.00  0.00    -0.376 OA
BRANCH   4   5
ATOM      5  C   UNL A   1      32.008  31.053  26.483  1.00  0.00     0.202 C 
BRANCH   5   6
ATOM      6  C   UNL A   1      30.618  31.704  25.459  1.00  0.00     0.261 C 
BRANCH   6   7
ATOM      7  O   UNL A   1      29.502  30.937  24.213  1.00  0.00    -0.460 OA
BRANCH   7   8
ATOM      8  C   UNL A   1      29.233  29.734  23.210  1.00  0.00     0.338 C 
ATOM      9  O   UNL A   1      28.364  29.852  22.339  1.00  0.00    -0.246 OA
BRANCH   8  10
ATOM     10  C   UNL A   1      29.832  28.188  23.230  1.00  0.00     0.060 A 
ATOM     11  C   UNL A   1      31.406  25.750  23.692  1.00  0.00    -0.040 A 
ATOM     12  C   UNL A   1      30.390  26.204  24.578  1.00  0.00     0.005 A 
ATOM     13  C   UNL A   1      31.469  26.420  22.486  1.00  0.00     0.005 A 
ATOM     14  C   UNL A   1      29.645  27.409  24.371  1.00  0.00     0.016 A 
ATOM     15  C   UNL A   1      30.616  27.531  22.237  1.00  0.00     0.016 A 
BRANCH  11  16
ATOM     16  C   UNL A   1      32.232  24.517  24.035  1.00  0.00     0.064 C 
ATOM     17  N   UNL A   1      35.755  24.084  24.828  1.00  0.00    -0.180 N 
ATOM     18  N   UNL A   1      35.600  25.192  25.593  1.00  0.00    -0.168 NA
ATOM     19  C   UNL A   1      34.739  24.058  23.884  1.00  0.00     0.143 A 
ATOM     20  C   UNL A   1      34.334  25.580  25.391  1.00  0.00     0.066 A 
ATOM     21  C   UNL A   1      33.672  24.753  24.445  1.00  0.00     0.026 A 
ATOM     22  N   UNL A   1      34.637  23.509  22.624  1.00  0.00    -0.310 N 
ATOM     23  C   UNL A   1      33.886  26.787  26.115  1.00  0.00     0.069 C 
ATOM     24  C   UNL A   1      33.347  23.508  22.003  1.00  0.00     0.226 C 
ATOM     25  H   UNL A   1      35.423  23.130  22.167  1.00  0.00     0.171 HD
ATOM     26  C   UNL A   1      32.164  23.445  22.938  1.00  0.00     0.113 C 
ATOM     27  O   UNL A   1      33.309  23.376  20.791  1.00  0.00    -0.275 OA
BRANCH  17  28
ATOM     28  C   UNL A   1      36.624  23.020  25.261  1.00  0.00     0.272 A 
ATOM     29  C   UNL A   1      38.633  22.146  25.963  1.00  0.00     0.095 A 
ATOM     30  C   UNL A   1      38.226  20.890  25.542  1.00  0.00     0.164 A 
ATOM     31  N   UNL A   1      37.856  23.261  25.788  1.00  0.00    -0.208 NA
ATOM     32  N   UNL A   1      37.011  20.699  25.020  1.00  0.00    -0.153 NA
ATOM     33  N   UNL A   1      36.192  21.774  24.919  1.00  0.00    -0.109 NA
BRANCH  29  34
ATOM     34  C   UNL A   1      39.892  22.269  26.719  1.00  0.00     0.002 A 
ATOM     35  C   UNL A   1      43.400  22.669  29.247  1.00  0.00     0.044 C 
ATOM     36  C   UNL A   1      42.174  22.534  28.391  1.00  0.00    -0.051 A 
ATOM     37  C   UNL A   1      41.741  21.271  27.976  1.00  0.00     0.004 A 
ATOM     38  C   UNL A   1      41.458  23.661  27.979  1.00  0.00     0.004 A 
ATOM     39  C   UNL A   1      40.613  21.141  27.154  1.00  0.00     0.011 A 
ATOM     40  C   UNL A   1      40.334  23.528  27.151  1.00  0.00     0.011 A 
ENDBRANCH  29  34
ENDBRANCH  17  28
ENDBRANCH  11  16
ENDBRANCH   8  10
ENDBRANCH   7   8
ENDBRANCH   6   7
ENDBRANCH   5   6
ENDBRANCH   4   5
ENDBRANCH   3   4
ENDBRANCH   2   3
ENDBRANCH   1   2
BRANCH   1  41
ATOM     41  C   UNL A   1      34.904  32.506  30.632  1.00  0.00     0.188 C 
BRANCH  41  42
ATOM     42  C   UNL A   1      36.332  32.000  30.791  1.00  0.00     0.188 C 
BRANCH  42  43
ATOM     43  O   UNL A   1      36.831  31.416  29.594  1.00  0.00    -0.376 OA
BRANCH  43  44
ATOM     44  C   UNL A   1      36.214  30.284  29.047  1.00  0.00     0.202 C 
BRANCH  44  45
ATOM     45  C   UNL A   1      37.296  29.223  28.886  1.00  0.00     0.261 C 
BRANCH  45  46
ATOM     46  O   UNL A   1      37.828  28.868  30.194  1.00  0.00    -0.460 OA
BRANCH  46  47
ATOM     47  C   UNL A   1      38.937  28.051  30.176  1.00  0.00     0.338 C 
ATOM     48  O   UNL A   1      38.910  26.860  30.043  1.00  0.00    -0.246 OA
BRANCH  47  49
ATOM     49  C   UNL A   1      40.161  28.854  30.573  1.00  0.00     0.060 A 
ATOM     50  C   UNL A   1      40.755  29.706  29.648  1.00  0.00     0.016 A 
ATOM     51  C   UNL A   1      40.890  28.522  31.720  1.00  0.00     0.016 A 
ATOM     52  C   UNL A   1      42.121  30.040  29.793  1.00  0.00     0.010 A 
ATOM     53  C   UNL A   1      42.284  28.701  31.750  1.00  0.00     0.010 A 
ATOM     54  C   UNL A   1      42.964  29.346  30.704  1.00  0.00    -0.014 A 
BRANCH  54  55
ATOM     55  C   UNL A   1      44.622  29.321  30.699  1.00  0.00     0.031 A 
ATOM     56  C   UNL A   1      44.619  27.835  29.715  1.00  0.00     0.074 A 
ATOM     57  C   UNL A   1      45.822  30.086  31.594  1.00  0.00     0.049 A 
ATOM     58  N   UNL A   1      45.182  26.686  30.029  1.00  0.00    -0.248 NA
ATOM     59  C   UNL A   1      43.766  27.593  28.529  1.00  0.00     0.031 C 
ATOM     60  C   UNL A   1      47.474  29.944  31.757  1.00  0.00     0.029 A 
ATOM     61  N   UNL A   1      45.880  30.965  32.832  1.00  0.00    -0.354 N 
ATOM     62  C   UNL A   1      45.348  25.981  28.882  1.00  0.00     0.074 A 
ATOM     63  C   UNL A   1      44.185  26.381  28.130  1.00  0.00     0.031 C 
ATOM     64  C   UNL A   1      48.056  30.545  32.788  1.00  0.00     0.029 A 
ATOM     65  C   UNL A   1      47.008  30.810  33.676  1.00  0.00     0.049 A 
ATOM     66  H   UNL A   1      45.167  31.613  33.038  1.00  0.00     0.167 HD
ATOM     67  C   UNL A   1      46.574  25.454  28.547  1.00  0.00     0.034 A 
ATOM     68  C   UNL A   1      47.023  30.278  34.943  1.00  0.00     0.034 A 
ATOM     69  C   UNL A   1      47.682  25.783  29.527  1.00  0.00     0.049 A 
ATOM     70  C   UNL A   1      47.759  28.880  34.919  1.00  0.00     0.074 A 
ATOM     71  C   UNL A   1      48.829  26.566  29.395  1.00  0.00     0.029 A 
ATOM     72  N   UNL A   1      47.602  25.535  30.916  1.00  0.00    -0.354 N 
ATOM     73  N   UNL A   1      47.982  28.185  33.818  1.00  0.00    -0.248 NA
ATOM     74  C   UNL A   1      48.358  28.207  36.063  1.00  0.00     0.031 C 
ATOM     75  C   UNL A   1      49.368  26.856  30.688  1.00  0.00     0.029 A 
ATOM     76  C   UNL A   1      48.593  26.228  31.654  1.00  0.00     0.049 A 
ATOM     77  H   UNL A   1      46.930  24.944  31.328  1.00  0.00     0.167 HD
ATOM     78  C   UNL A   1      48.626  26.994  34.054  1.00  0.00     0.074 A 
ATOM     79  C   UNL A   1      48.919  27.120  35.485  1.00  0.00     0.031 C 
ATOM     80  C   UNL A   1      48.840  25.997  33.104  1.00  0.00     0.034 A 
BRANCH  67  81
ATOM     81  C   UNL A   1      46.819  25.054  27.079  1.00  0.00     0.023 A 
ATOM     82  C   UNL A   1      47.524  25.893  26.192  1.00  0.00     0.031 A 
ATOM     83  C   UNL A   1      46.337  23.863  26.489  1.00  0.00     0.131 A 
ATOM     84  C   UNL A   1      47.585  25.627  24.805  1.00  0.00     0.055 A 
ATOM     85  C   UNL A   1      46.334  23.627  25.105  1.00  0.00     0.041 A 
ATOM     86  F   UNL A   1      45.900  22.839  27.237  1.00  0.00    -0.206 F 
ATOM     87  C   UNL A   1      46.947  24.522  24.248  1.00  0.00     0.022 A 
BRANCH  84  88
ATOM     88  S   UNL A   1      48.551  26.725  23.727  1.00  0.00     0.124 S 
ATOM     89  O   UNL A   1      49.830  26.802  24.426  1.00  0.00    -0.237 OA
ATOM     90  O   UNL A   1      48.552  26.000  22.462  1.00  0.00    -0.237 OA
ATOM     91  O   UNL A   1      47.776  27.966  23.721  1.00  0.00    -0.744 OA
ENDBRANCH  84  88
ENDBRANCH  67  81
BRANCH  68  92
ATOM     92  C   UNL A   1      45.912  30.759  35.845  1.00  0.00     0.023 A 
ATOM     93  C   UNL A   1      44.583  30.679  35.347  1.00  0.00     0.031 A 
ATOM     94  C   UNL A   1      46.041  31.022  37.219  1.00  0.00     0.131 A 
ATOM     95  C   UNL A   1      43.466  30.738  36.203  1.00  0.00     0.055 A 
ATOM     96  C   UNL A   1      44.927  31.029  38.082  1.00  0.00     0.041 A 
ATOM     97  F   UNL A   1      47.254  31.145  37.777  1.00  0.00    -0.206 F 
ATOM     98  C   UNL A   1      43.635  30.861  37.581  1.00  0.00     0.022 A 
BRANCH  95  99
ATOM     99  S   UNL A   1      41.795  30.465  35.521  1.00  0.00     0.124 S 
ATOM    100  O   UNL A   1      41.932  30.985  34.167  1.00  0.00    -0.237 OA
ATOM    101  O   UNL A   1      41.634  29.018  35.633  1.00  0.00    -0.237 OA
ATOM    102  O   UNL A   1      40.938  31.254  36.404  1.00  0.00    -0.744 OA
ENDBRANCH  95  99
ENDBRANCH  68  92
BRANCH  80 103
ATOM    103  C   UNL A   1      49.458  24.642  33.436  1.00  0.00     0.023 A 
ATOM    104  C   UNL A   1      48.784  23.666  34.170  1.00  0.00     0.031 A 
ATOM    105  C   UNL A   1      50.748  24.267  32.971  1.00  0.00     0.131 A 
ATOM    106  C   UNL A   1      49.416  22.467  34.536  1.00  0.00     0.055 A 
ATOM    107  C   UNL A   1      51.324  23.019  33.227  1.00  0.00     0.041 A 
ATOM    108  F   UNL A   1      51.520  25.093  32.251  1.00  0.00    -0.206 F 
ATOM    109  C   UNL A   1      50.668  22.116  34.042  1.00  0.00     0.022 A 
BRANCH 106 110
ATOM    110  S   UNL A   1      48.599  21.451  35.788  1.00  0.00     0.124 S 
ATOM    111  O   UNL A   1      48.634  20.133  35.159  1.00  0.00    -0.237 OA
ATOM    112  O   UNL A   1      49.474  21.622  36.943  1.00  0.00    -0.237 OA
ATOM    113  O   UNL A   1      47.274  22.051  35.906  1.00  0.00    -0.744 OA
ENDBRANCH 106 110
ENDBRANCH  80 103
ENDBRANCH  54  55
ENDBRANCH  47  49
ENDBRANCH  46  47
ENDBRANCH  45  46
ENDBRANCH  44  45
ENDBRANCH  43  44
ENDBRANCH  42  43
ENDBRANCH  41  42
ENDBRANCH   1  41
TORSDOF 26
ENDMDL
MODEL 2
REMARK VINA RESULT:      -9.7      4.628     11.563
REMARK SMILES Cc1ccc(-c2cnnc(-n3nc(C)c4c3NC(=O)C[C@@H]4c3ccc(C(=O)OCCOCCOCCOCCOC(=O)c4ccc(-c5c6nc(c(-c7cc(S(=O)(=O)[O-])ccc7F)c7ccc([nH]7)c(-c7cc(S(=O)(=O)[O-])ccc7F)c7nc(c(-c8cc(S(=O)(=O)[O-])ccc8F)c8ccc5[nH]8)C=C7)C=C6)cc4)cc3)n2)cc1
REMARK SMILES IDX 34 1 33 2 32 3 31 4 30 5 29 6 28 7 26 8 27 9 25 10 22 11
REMARK SMILES IDX 23 12 107 13 24 14 106 15 21 16 11 17 12 18 16 19 13 20
REMARK SMILES IDX 15 21 17 22 14 23 18 24 20 26 19 27 10 28 6 29 7 30 108 31
REMARK SMILES IDX 8 32 9 33 5 34 1 35 2 36 3 37 110 38 4 39 109 40 35 41 36 42
REMARK SMILES IDX 37 43 38 44 39 45 40 46 41 47 42 48 43 49 44 50 105 51 45 52
REMARK SMILES IDX 104 53 46 54 47 55 48 56 98 57 49 58 103 59 97 60 99 61
REMARK SMILES IDX 50 62 102 63 96 64 95 65 51 67 83 68 63 69 82 70 64 71 67 72
REMARK SMILES IDX 81 73 100 74 65 75 66 76 80 78 101 79 68 80 52 81 53 82
REMARK SMILES IDX 61 83 54 84 60 85 62 86 59 87 55 88 56 89 57 90 58 91 84 92
REMARK SMILES IDX 85 93 93 94 86 95 92 96 94 97 91 98 87 99 88 100 89 101
REMARK SMILES IDX 90 102 69 103 70 104 78 105 71 106 77 107 79 108 76 109
REMARK SMILES IDX 72 110 73 111 74 112 75 113
REMARK H PARENT 17 25 99 66 67 77
REMARK Flexibility Score: inf
ROOT
ATOM      1  O   UNL A   1      50.785  22.139  33.863  1.00  0.00    -0.377 OA
ENDROOT
BRANCH   1   2
ATOM      2  C   UNL A   1      50.560  23.404  33.264  1.00  0.00     0.188 C 
BRANCH   2   3
ATOM      3  C   UNL A   1      51.643  23.888  32.230  1.00  0.00     0.188 C 
BRANCH   3   4
ATOM      4  O   UNL A   1      51.380  24.829  30.992  1.00  0.00    -0.376 OA
BRANCH   4   5
ATOM      5  C   UNL A   1      52.274  26.029  30.263  1.00  0.00     0.202 C 
BRANCH   5   6
ATOM      6  C   UNL A   1      52.150  27.223  28.861  1.00  0.00     0.261 C 
BRANCH   6   7
ATOM      7  O   UNL A   1      50.732  28.052  28.032  1.00  0.00    -0.460 OA
BRANCH   7   8
ATOM      8  C   UNL A   1      49.188  28.018  27.656  1.00  0.00     0.338 C 
ATOM      9  O   UNL A   1      48.422  28.849  28.159  1.00  0.00    -0.246 OA
BRANCH   8  10
ATOM     10  C   UNL A   1      48.337  26.894  26.783  1.00  0.00     0.060 A 
ATOM     11  C   UNL A   1      46.279  25.123  25.660  1.00  0.00    -0.040 A 
ATOM     12  C   UNL A   1      46.488  26.459  25.217  1.00  0.00     0.005 A 
ATOM     13  C   UNL A   1      47.246  24.636  26.516  1.00  0.00     0.005 A 
ATOM     14  C   UNL A   1      47.468  27.334  25.786  1.00  0.00     0.016 A 
ATOM     15  C   UNL A   1      48.303  25.480  26.959  1.00  0.00     0.016 A 
BRANCH  11  16
ATOM     16  C   UNL A   1      45.143  24.290  25.081  1.00  0.00     0.064 C 
ATOM     17  N   UNL A   1      42.199  22.791  26.602  1.00  0.00    -0.180 N 
ATOM     18  N   UNL A   1      42.082  23.970  27.261  1.00  0.00    -0.168 NA
ATOM     19  C   UNL A   1      43.511  22.658  26.172  1.00  0.00     0.143 A 
ATOM     20  C   UNL A   1      43.150  24.685  26.886  1.00  0.00     0.066 A 
ATOM     21  C   UNL A   1      44.001  23.951  26.018  1.00  0.00     0.026 A 
ATOM     22  N   UNL A   1      44.308  21.566  25.903  1.00  0.00    -0.310 N 
ATOM     23  C   UNL A   1      43.279  26.038  27.465  1.00  0.00     0.069 C 
ATOM     24  C   UNL A   1      45.573  21.807  25.278  1.00  0.00     0.226 C 
ATOM     25  H   UNL A   1      44.017  20.653  26.131  1.00  0.00     0.171 HD
ATOM     26  C   UNL A   1      45.648  23.019  24.383  1.00  0.00     0.113 C 
ATOM     27  O   UNL A   1      46.418  20.932  25.371  1.00  0.00    -0.275 OA
BRANCH  17  28
ATOM     28  C   UNL A   1      41.021  22.085  26.168  1.00  0.00     0.272 A 
ATOM     29  C   UNL A   1      38.770  21.883  25.736  1.00  0.00     0.095 A 
ATOM     30  C   UNL A   1      38.881  20.506  25.836  1.00  0.00     0.164 A 
ATOM     31  N   UNL A   1      39.836  22.718  25.949  1.00  0.00    -0.208 NA
ATOM     32  N   UNL A   1      40.062  19.925  26.062  1.00  0.00    -0.153 NA
ATOM     33  N   UNL A   1      41.146  20.728  26.188  1.00  0.00    -0.109 NA
BRANCH  29  34
ATOM     34  C   UNL A   1      37.494  22.464  25.281  1.00  0.00     0.002 A 
ATOM     35  C   UNL A   1      33.918  24.476  23.862  1.00  0.00     0.044 C 
ATOM     36  C   UNL A   1      35.166  23.799  24.349  1.00  0.00    -0.051 A 
ATOM     37  C   UNL A   1      35.851  22.905  23.520  1.00  0.00     0.004 A 
ATOM     38  C   UNL A   1      35.654  24.033  25.637  1.00  0.00     0.004 A 
ATOM     39  C   UNL A   1      37.001  22.249  23.979  1.00  0.00     0.011 A 
ATOM     40  C   UNL A   1      36.801  23.370  26.096  1.00  0.00     0.011 A 
ENDBRANCH  29  34
ENDBRANCH  17  28
ENDBRANCH  11  16
ENDBRANCH   8  10
ENDBRANCH   7   8
ENDBRANCH   6   7
ENDBRANCH   5   6
ENDBRANCH   4   5
ENDBRANCH   3   4
ENDBRANCH   2   3
ENDBRANCH   1   2
BRANCH   1  41
ATOM     41  C   UNL A   1      50.928  22.261  35.266  1.00  0.00     0.188 C 
BRANCH  41  42
ATOM     42  C   UNL A   1      51.092  23.720  35.674  1.00  0.00     0.188 C 
BRANCH  42  43
ATOM     43  O   UNL A   1      52.356  23.970  36.277  1.00  0.00    -0.376 OA
BRANCH  43  44
ATOM     44  C   UNL A   1      53.173  25.005  35.806  1.00  0.00     0.202 C 
BRANCH  44  45
ATOM     45  C   UNL A   1      52.265  26.002  35.097  1.00  0.00     0.261 C 
BRANCH  45  46
ATOM     46  O   UNL A   1      51.856  27.038  36.034  1.00  0.00    -0.460 OA
BRANCH  46  47
ATOM     47  C   UNL A   1      52.031  28.332  35.595  1.00  0.00     0.338 C 
ATOM     48  O   UNL A   1      52.866  29.088  36.002  1.00  0.00    -0.246 OA
BRANCH  47  49
ATOM     49  C   UNL A   1      50.875  28.719  34.692  1.00  0.00     0.060 A 
ATOM     50  C   UNL A   1      49.673  29.138  35.254  1.00  0.00     0.016 A 
ATOM     51  C   UNL A   1      50.875  28.360  33.340  1.00  0.00     0.016 A 
ATOM     52  C   UNL A   1      48.478  28.999  34.512  1.00  0.00     0.010 A 
ATOM     53  C   UNL A   1      49.669  28.048  32.689  1.00  0.00     0.010 A 
ATOM     54  C   UNL A   1      48.427  28.225  33.320  1.00  0.00    -0.014 A 
BRANCH  54  55
ATOM     55  C   UNL A   1      47.068  27.628  32.581  1.00  0.00     0.031 A 
ATOM     56  C   UNL A   1      46.706  29.234  31.899  1.00  0.00     0.074 A 
ATOM     57  C   UNL A   1      46.148  26.231  32.743  1.00  0.00     0.049 A 
ATOM     58  N   UNL A   1      45.600  29.928  32.073  1.00  0.00    -0.248 NA
ATOM     59  C   UNL A   1      47.691  30.136  31.259  1.00  0.00     0.031 C 
ATOM     60  C   UNL A   1      44.682  25.685  32.169  1.00  0.00     0.029 A 
ATOM     61  N   UNL A   1      46.093  25.054  33.702  1.00  0.00    -0.354 N 
ATOM     62  C   UNL A   1      45.524  30.840  31.073  1.00  0.00     0.074 A 
ATOM     63  C   UNL A   1      46.914  31.162  30.872  1.00  0.00     0.031 C 
ATOM     64  C   UNL A   1      44.140  24.619  32.747  1.00  0.00     0.029 A 
ATOM     65  C   UNL A   1      44.814  24.502  33.967  1.00  0.00     0.049 A 
ATOM     66  H   UNL A   1      46.908  24.691  34.119  1.00  0.00     0.167 HD
ATOM     67  C   UNL A   1      44.392  30.946  30.296  1.00  0.00     0.034 A 
ATOM     68  C   UNL A   1      44.119  24.563  35.151  1.00  0.00     0.034 A 
ATOM     69  C   UNL A   1      43.312  29.937  30.629  1.00  0.00     0.049 A 
ATOM     70  C   UNL A   1      42.870  25.516  34.980  1.00  0.00     0.074 A 
ATOM     71  C   UNL A   1      42.793  28.865  29.902  1.00  0.00     0.029 A 
ATOM     72  N   UNL A   1      42.786  29.749  31.928  1.00  0.00    -0.354 N 
ATOM     73  N   UNL A   1      42.737  26.384  33.993  1.00  0.00    -0.248 NA
ATOM     74  C   UNL A   1      41.675  25.520  35.813  1.00  0.00     0.031 C 
ATOM     75  C   UNL A   1      42.051  28.006  30.771  1.00  0.00     0.029 A 
ATOM     76  C   UNL A   1      42.055  28.541  32.052  1.00  0.00     0.049 A 
ATOM     77  H   UNL A   1      42.914  30.387  32.668  1.00  0.00     0.167 HD
ATOM     78  C   UNL A   1      41.571  27.108  34.067  1.00  0.00     0.074 A 
ATOM     79  C   UNL A   1      40.904  26.440  35.189  1.00  0.00     0.031 C 
ATOM     80  C   UNL A   1      41.250  28.196  33.257  1.00  0.00     0.034 A 
BRANCH  67  81
ATOM     81  C   UNL A   1      44.505  31.663  28.937  1.00  0.00     0.023 A 
ATOM     82  C   UNL A   1      44.164  33.023  28.788  1.00  0.00     0.031 A 
ATOM     83  C   UNL A   1      44.908  31.032  27.737  1.00  0.00     0.131 A 
ATOM     84  C   UNL A   1      44.079  33.634  27.516  1.00  0.00     0.055 A 
ATOM     85  C   UNL A   1      44.759  31.611  26.466  1.00  0.00     0.041 A 
ATOM     86  F   UNL A   1      45.525  29.842  27.745  1.00  0.00    -0.206 F 
ATOM     87  C   UNL A   1      44.325  32.919  26.348  1.00  0.00     0.022 A 
BRANCH  84  88
ATOM     88  S   UNL A   1      43.681  35.403  27.401  1.00  0.00     0.124 S 
ATOM     89  O   UNL A   1      42.729  35.580  28.492  1.00  0.00    -0.237 OA
ATOM     90  O   UNL A   1      44.987  36.029  27.579  1.00  0.00    -0.237 OA
ATOM     91  O   UNL A   1      43.115  35.540  26.059  1.00  0.00    -0.744 OA
ENDBRANCH  84  88
ENDBRANCH  67  81
BRANCH  68  92
ATOM     92  C   UNL A   1      44.943  24.277  36.385  1.00  0.00     0.023 A 
ATOM     93  C   UNL A   1      45.027  25.300  37.367  1.00  0.00     0.031 A 
ATOM     94  C   UNL A   1      45.404  23.009  36.773  1.00  0.00     0.131 A 
ATOM     95  C   UNL A   1      45.434  25.027  38.688  1.00  0.00     0.055 A 
ATOM     96  C   UNL A   1      45.762  22.724  38.106  1.00  0.00     0.041 A 
ATOM     97  F   UNL A   1      45.393  21.986  35.906  1.00  0.00    -0.206 F 
ATOM     98  C   UNL A   1      45.754  23.727  39.076  1.00  0.00     0.022 A 
BRANCH  95  99
ATOM     99  S   UNL A   1      45.364  26.351  39.943  1.00  0.00     0.124 S 
ATOM    100  O   UNL A   1      46.756  26.440  40.367  1.00  0.00    -0.237 OA
ATOM    101  O   UNL A   1      44.858  27.489  39.181  1.00  0.00    -0.237 OA
ATOM    102  O   UNL A   1      44.444  25.817  40.945  1.00  0.00    -0.744 OA
ENDBRANCH  95  99
ENDBRANCH  68  92
BRANCH  80 103
ATOM    103  C   UNL A   1      39.997  29.043  33.448  1.00  0.00     0.023 A 
ATOM    104  C   UNL A   1      39.838  29.924  34.517  1.00  0.00     0.031 A 
ATOM    105  C   UNL A   1      38.924  29.025  32.514  1.00  0.00     0.131 A 
ATOM    106  C   UNL A   1      38.634  30.619  34.714  1.00  0.00     0.055 A 
ATOM    107  C   UNL A   1      37.780  29.818  32.643  1.00  0.00     0.041 A 
ATOM    108  F   UNL A   1      38.927  28.234  31.433  1.00  0.00    -0.206 F 
ATOM    109  C   UNL A   1      37.615  30.604  33.769  1.00  0.00     0.022 A 
BRANCH 106 110
ATOM    110  S   UNL A   1      38.400  31.430  36.312  1.00  0.00     0.124 S 
ATOM    111  O   UNL A   1      37.474  32.504  35.959  1.00  0.00    -0.237 OA
ATOM    112  O   UNL A   1      37.838  30.356  37.124  1.00  0.00    -0.237 OA
ATOM    113  O   UNL A   1      39.745  31.861  36.680  1.00  0.00    -0.744 OA
ENDBRANCH 106 110
ENDBRANCH  80 103
ENDBRANCH  54  55
ENDBRANCH  47  49
ENDBRANCH  46  47
ENDBRANCH  45  46
ENDBRANCH  44  45
ENDBRANCH  43  44
ENDBRANCH  42  43
ENDBRANCH  41  42
ENDBRANCH   1  41
TORSDOF 26
ENDMDL
MODEL 3
REMARK VINA RESULT:      -9.7      1.769      2.038
REMARK SMILES Cc1ccc(-c2cnnc(-n3nc(C)c4c3NC(=O)C[C@@H]4c3ccc(C(=O)OCCOCCOCCOCCOC(=O)c4ccc(-c5c6nc(c(-c7cc(S(=O)(=O)[O-])ccc7F)c7ccc([nH]7)c(-c7cc(S(=O)(=O)[O-])ccc7F)c7nc(c(-c8cc(S(=O)(=O)[O-])ccc8F)c8ccc5[nH]8)C=C7)C=C6)cc4)cc3)n2)cc1
REMARK SMILES IDX 34 1 33 2 32 3 31 4 30 5 29 6 28 7 26 8 27 9 25 10 22 11
REMARK SMILES IDX 23 12 107 13 24 14 106 15 21 16 11 17 12 18 16 19 13 20
REMARK SMILES IDX 15 21 17 22 14 23 18 24 20 26 19 27 10 28 6 29 7 30 108 31
REMARK SMILES IDX 8 32 9 33 5 34 1 35 2 36 3 37 110 38 4 39 109 40 35 41 36 42
REMARK SMILES IDX 37 43 38 44 39 45 40 46 41 47 42 48 43 49 44 50 105 51 45 52
REMARK SMILES IDX 104 53 46 54 47 55 48 56 98 57 49 58 103 59 97 60 99 61
REMARK SMILES IDX 50 62 102 63 96 64 95 65 51 67 83 68 63 69 82 70 64 71 67 72
REMARK SMILES IDX 81 73 100 74 65 75 66 76 80 78 101 79 68 80 52 81 53 82
REMARK SMILES IDX 61 83 54 84 60 85 62 86 59 87 55 88 56 89 57 90 58 91 84 92
REMARK SMILES IDX 85 93 93 94 86 95 92 96 94 97 91 98 87 99 88 100 89 101
REMARK SMILES IDX 90 102 69 103 70 104 78 105 71 106 77 107 79 108 76 109
REMARK SMILES IDX 72 110 73 111 74 112 75 113
REMARK H PARENT 17 25 99 66 67 77
REMARK Flexibility Score: inf
ROOT
ATOM      1  O   UNL A   1      35.177  33.462  30.297  1.00  0.00    -0.377 OA
ENDROOT
BRANCH   1   2
ATOM      2  C   UNL A   1      34.043  33.747  29.495  1.00  0.00     0.188 C 
BRANCH   2   3
ATOM      3  C   UNL A   1      33.948  32.982  28.124  1.00  0.00     0.188 C 
BRANCH   3   4
ATOM      4  O   UNL A   1      33.082  31.694  27.844  1.00  0.00    -0.376 OA
BRANCH   4   5
ATOM      5  C   UNL A   1      32.135  31.214  26.562  1.00  0.00     0.202 C 
BRANCH   5   6
ATOM      6  C   UNL A   1      30.672  31.792  25.598  1.00  0.00     0.261 C 
BRANCH   6   7
ATOM      7  O   UNL A   1      29.651  31.025  24.272  1.00  0.00    -0.460 OA
BRANCH   7   8
ATOM      8  C   UNL A   1      29.483  29.850  23.216  1.00  0.00     0.338 C 
ATOM      9  O   UNL A   1      28.763  30.021  22.226  1.00  0.00    -0.246 OA
BRANCH   8  10
ATOM     10  C   UNL A   1      30.004  28.277  23.293  1.00  0.00     0.060 A 
ATOM     11  C   UNL A   1      31.516  25.797  23.736  1.00  0.00    -0.040 A 
ATOM     12  C   UNL A   1      30.685  26.393  24.725  1.00  0.00     0.005 A 
ATOM     13  C   UNL A   1      31.406  26.348  22.475  1.00  0.00     0.005 A 
ATOM     14  C   UNL A   1      29.974  27.619  24.522  1.00  0.00     0.016 A 
ATOM     15  C   UNL A   1      30.577  27.484  22.257  1.00  0.00     0.016 A 
BRANCH  11  16
ATOM     16  C   UNL A   1      32.327  24.550  24.063  1.00  0.00     0.064 C 
ATOM     17  N   UNL A   1      35.828  24.078  24.929  1.00  0.00    -0.180 N 
ATOM     18  N   UNL A   1      35.658  25.164  25.723  1.00  0.00    -0.168 NA
ATOM     19  C   UNL A   1      34.836  24.085  23.960  1.00  0.00     0.143 A 
ATOM     20  C   UNL A   1      34.400  25.563  25.500  1.00  0.00     0.066 A 
ATOM     21  C   UNL A   1      33.758  24.768  24.514  1.00  0.00     0.026 A 
ATOM     22  N   UNL A   1      34.763  23.573  22.682  1.00  0.00    -0.310 N 
ATOM     23  C   UNL A   1      33.938  26.750  26.249  1.00  0.00     0.069 C 
ATOM     24  C   UNL A   1      33.489  23.596  22.030  1.00  0.00     0.226 C 
ATOM     25  H   UNL A   1      35.559  23.205  22.234  1.00  0.00     0.171 HD
ATOM     26  C   UNL A   1      32.283  23.511  22.933  1.00  0.00     0.113 C 
ATOM     27  O   UNL A   1      33.481  23.501  20.814  1.00  0.00    -0.275 OA
BRANCH  17  28
ATOM     28  C   UNL A   1      36.682  22.999  25.352  1.00  0.00     0.272 A 
ATOM     29  C   UNL A   1      38.695  22.074  25.975  1.00  0.00     0.095 A 
ATOM     30  C   UNL A   1      38.222  20.822  25.621  1.00  0.00     0.164 A 
ATOM     31  N   UNL A   1      37.949  23.211  25.804  1.00  0.00    -0.208 NA
ATOM     32  N   UNL A   1      36.975  20.658  25.171  1.00  0.00    -0.153 NA
ATOM     33  N   UNL A   1      36.190  21.758  25.077  1.00  0.00    -0.109 NA
BRANCH  29  34
ATOM     34  C   UNL A   1      39.997  22.177  26.659  1.00  0.00     0.002 A 
ATOM     35  C   UNL A   1      43.660  22.396  28.980  1.00  0.00     0.044 C 
ATOM     36  C   UNL A   1      42.383  22.316  28.196  1.00  0.00    -0.051 A 
ATOM     37  C   UNL A   1      42.083  21.170  27.453  1.00  0.00     0.004 A 
ATOM     38  C   UNL A   1      41.483  23.385  28.178  1.00  0.00     0.004 A 
ATOM     39  C   UNL A   1      40.904  21.100  26.698  1.00  0.00     0.011 A 
ATOM     40  C   UNL A   1      40.308  23.316  27.416  1.00  0.00     0.011 A 
ENDBRANCH  29  34
ENDBRANCH  17  28
ENDBRANCH  11  16
ENDBRANCH   8  10
ENDBRANCH   7   8
ENDBRANCH   6   7
ENDBRANCH   5   6
ENDBRANCH   4   5
ENDBRANCH   3   4
ENDBRANCH   2   3
ENDBRANCH   1   2
BRANCH   1  41
ATOM     41  C   UNL A   1      35.308  32.068  30.508  1.00  0.00     0.188 C 
BRANCH  41  42
ATOM     42  C   UNL A   1      36.731  31.603  30.228  1.00  0.00     0.188 C 
BRANCH  42  43
ATOM     43  O   UNL A   1      36.930  31.276  28.858  1.00  0.00    -0.376 OA
BRANCH  43  44
ATOM     44  C   UNL A   1      36.317  30.144  28.304  1.00  0.00     0.202 C 
BRANCH  44  45
ATOM     45  C   UNL A   1      37.430  29.254  27.766  1.00  0.00     0.261 C 
BRANCH  45  46
ATOM     46  O   UNL A   1      38.101  28.592  28.875  1.00  0.00    -0.460 OA
BRANCH  46  47
ATOM     47  C   UNL A   1      39.351  28.085  28.589  1.00  0.00     0.338 C 
ATOM     48  O   UNL A   1      39.564  27.142  27.882  1.00  0.00    -0.246 OA
BRANCH  47  49
ATOM     49  C   UNL A   1      40.382  28.756  29.477  1.00  0.00     0.060 A 
ATOM     50  C   UNL A   1      41.084  29.860  29.003  1.00  0.00     0.016 A 
ATOM     51  C   UNL A   1      40.870  28.110  30.617  1.00  0.00     0.016 A 
ATOM     52  C   UNL A   1      42.349  30.163  29.555  1.00  0.00     0.010 A 
ATOM     53  C   UNL A   1      42.202  28.300  31.024  1.00  0.00     0.010 A 
ATOM     54  C   UNL A   1      43.033  29.245  30.398  1.00  0.00    -0.014 A 
BRANCH  54  55
ATOM     55  C   UNL A   1      44.647  29.256  30.776  1.00  0.00     0.031 A 
ATOM     56  C   UNL A   1      44.955  27.953  29.600  1.00  0.00     0.074 A 
ATOM     57  C   UNL A   1      45.566  29.889  32.033  1.00  0.00     0.049 A 
ATOM     58  N   UNL A   1      45.499  26.780  29.854  1.00  0.00    -0.248 NA
ATOM     59  C   UNL A   1      44.408  27.892  28.225  1.00  0.00     0.031 C 
ATOM     60  C   UNL A   1      47.144  29.758  32.552  1.00  0.00     0.029 A 
ATOM     61  N   UNL A   1      45.291  30.553  33.372  1.00  0.00    -0.354 N 
ATOM     62  C   UNL A   1      45.961  26.278  28.683  1.00  0.00     0.074 A 
ATOM     63  C   UNL A   1      44.978  26.771  27.751  1.00  0.00     0.031 C 
ATOM     64  C   UNL A   1      47.441  30.194  33.772  1.00  0.00     0.029 A 
ATOM     65  C   UNL A   1      46.206  30.286  34.421  1.00  0.00     0.049 A 
ATOM     66  H   UNL A   1      44.513  31.143  33.504  1.00  0.00     0.167 HD
ATOM     67  C   UNL A   1      47.261  25.840  28.565  1.00  0.00     0.034 A 
ATOM     68  C   UNL A   1      45.965  29.553  35.558  1.00  0.00     0.034 A 
ATOM     69  C   UNL A   1      48.097  26.027  29.814  1.00  0.00     0.049 A 
ATOM     70  C   UNL A   1      46.768  28.194  35.490  1.00  0.00     0.074 A 
ATOM     71  C   UNL A   1      49.195  26.845  30.077  1.00  0.00     0.029 A 
ATOM     72  N   UNL A   1      47.719  25.551  31.091  1.00  0.00    -0.354 N 
ATOM     73  N   UNL A   1      47.275  27.695  34.376  1.00  0.00    -0.248 NA
ATOM     74  C   UNL A   1      47.131  27.355  36.623  1.00  0.00     0.031 C 
ATOM     75  C   UNL A   1      49.409  26.930  31.488  1.00  0.00     0.029 A 
ATOM     76  C   UNL A   1      48.474  26.134  32.137  1.00  0.00     0.049 A 
ATOM     77  H   UNL A   1      47.007  24.886  31.238  1.00  0.00     0.167 HD
ATOM     78  C   UNL A   1      47.918  26.495  34.568  1.00  0.00     0.074 A 
ATOM     79  C   UNL A   1      47.872  26.391  36.030  1.00  0.00     0.031 C 
ATOM     80  C   UNL A   1      48.400  25.673  33.551  1.00  0.00     0.034 A 
BRANCH  67  81
ATOM     81  C   UNL A   1      47.855  25.692  27.150  1.00  0.00     0.023 A 
ATOM     82  C   UNL A   1      49.012  26.396  26.757  1.00  0.00     0.031 A 
ATOM     83  C   UNL A   1      47.288  24.894  26.130  1.00  0.00     0.131 A 
ATOM     84  C   UNL A   1      49.449  26.418  25.413  1.00  0.00     0.055 A 
ATOM     85  C   UNL A   1      47.675  24.966  24.781  1.00  0.00     0.041 A 
ATOM     86  F   UNL A   1      46.369  23.957  26.404  1.00  0.00    -0.206 F 
ATOM     87  C   UNL A   1      48.754  25.747  24.411  1.00  0.00     0.022 A 
BRANCH  84  88
ATOM     88  S   UNL A   1      50.975  27.307  24.986  1.00  0.00     0.124 S 
ATOM     89  O   UNL A   1      50.486  28.655  24.715  1.00  0.00    -0.237 OA
ATOM     90  O   UNL A   1      51.779  27.145  26.192  1.00  0.00    -0.237 OA
ATOM     91  O   UNL A   1      51.475  26.584  23.816  1.00  0.00    -0.744 OA
ENDBRANCH  84  88
ENDBRANCH  67  81
BRANCH  68  92
ATOM     92  C   UNL A   1      44.651  29.855  36.240  1.00  0.00     0.023 A 
ATOM     93  C   UNL A   1      44.602  30.993  37.091  1.00  0.00     0.031 A 
ATOM     94  C   UNL A   1      43.414  29.283  35.903  1.00  0.00     0.131 A 
ATOM     95  C   UNL A   1      43.379  31.580  37.472  1.00  0.00     0.055 A 
ATOM     96  C   UNL A   1      42.193  29.899  36.241  1.00  0.00     0.041 A 
ATOM     97  F   UNL A   1      43.359  28.189  35.129  1.00  0.00    -0.206 F 
ATOM     98  C   UNL A   1      42.171  31.066  37.006  1.00  0.00     0.022 A 
BRANCH  95  99
ATOM     99  S   UNL A   1      43.388  33.134  38.431  1.00  0.00     0.124 S 
ATOM    100  O   UNL A   1      43.073  34.122  37.408  1.00  0.00    -0.237 OA
ATOM    101  O   UNL A   1      42.349  32.900  39.430  1.00  0.00    -0.237 OA
ATOM    102  O   UNL A   1      44.751  33.198  38.955  1.00  0.00    -0.744 OA
ENDBRANCH  95  99
ENDBRANCH  68  92
BRANCH  80 103
ATOM    103  C   UNL A   1      49.005  24.296  33.803  1.00  0.00     0.023 A 
ATOM    104  C   UNL A   1      50.344  24.002  33.544  1.00  0.00     0.031 A 
ATOM    105  C   UNL A   1      48.251  23.233  34.370  1.00  0.00     0.131 A 
ATOM    106  C   UNL A   1      50.845  22.699  33.700  1.00  0.00     0.055 A 
ATOM    107  C   UNL A   1      48.788  21.972  34.648  1.00  0.00     0.041 A 
ATOM    108  F   UNL A   1      46.953  23.358  34.678  1.00  0.00    -0.206 F 
ATOM    109  C   UNL A   1      50.091  21.688  34.284  1.00  0.00     0.022 A 
BRANCH 106 110
ATOM    110  S   UNL A   1      52.468  22.348  32.987  1.00  0.00     0.124 S 
ATOM    111  O   UNL A   1      53.218  21.926  34.168  1.00  0.00    -0.237 OA
ATOM    112  O   UNL A   1      52.161  21.293  32.026  1.00  0.00    -0.237 OA
ATOM    113  O   UNL A   1      52.876  23.626  32.412  1.00  0.00    -0.744 OA
ENDBRANCH 106 110
ENDBRANCH  80 103
ENDBRANCH  54  55
ENDBRANCH  47  49
ENDBRANCH  46  47
ENDBRANCH  45  46
ENDBRANCH  44  45
ENDBRANCH  43  44
ENDBRANCH  42  43
ENDBRANCH  41  42
ENDBRANCH   1  41
TORSDOF 26
ENDMDL
