MODEL 1
REMARK VINA RESULT:     -10.9      0.000      0.000
REMARK SMILES Cc1ccc(-c2cc(Cl)cc3c2O[C@H](C(F)(F)F)C(C(=O)OCCOCCOCCOCCOC(=O)c2ccc(-c4c5nc(c(-c6cc(S(=O)(=O)[O-])ccc6F)c6ccc([nH]6)c(-c6cc(S(=O)(=O)[O-])ccc6F)c6nc(c(-c7cc(S(=O)(=O)[O-])ccc7F)c7ccc4[nH]7)C=C6)C=C5)cc2)=C3)cc1F
REMARK SMILES IDX 29 1 28 2 27 3 26 4 25 5 24 6 23 7 22 8 20 9 21 10 19 11
REMARK SMILES IDX 6 12 7 13 12 14 8 15 11 16 13 17 9 18 10 19 100 20 14 21
REMARK SMILES IDX 5 22 1 23 2 24 3 25 102 26 4 27 101 28 103 29 15 30 16 31
REMARK SMILES IDX 17 32 18 33 30 34 31 35 32 36 33 37 34 38 35 39 36 40 37 41
REMARK SMILES IDX 38 42 99 43 39 44 98 45 40 46 41 47 42 48 92 49 43 50 97 51
REMARK SMILES IDX 91 52 93 53 44 54 96 55 90 56 89 57 45 59 77 60 57 61 76 62
REMARK SMILES IDX 58 63 61 64 75 65 94 66 59 67 60 68 74 70 95 71 62 72 46 73
REMARK SMILES IDX 47 74 55 75 48 76 54 77 56 78 53 79 49 80 50 81 51 82 52 83
REMARK SMILES IDX 78 84 79 85 87 86 80 87 86 88 88 89 85 90 81 91 82 92 83 93
REMARK SMILES IDX 84 94 63 95 64 96 72 97 65 98 71 99 73 100 70 101 66 102
REMARK SMILES IDX 67 103 68 104 69 105
REMARK H PARENT 93 58 61 69
REMARK Flexibility Score: inf
ROOT
ATOM      1  C   UNL A   1      41.319  29.003  28.025  1.00  0.00     0.188 C 
ENDROOT
BRANCH   1   2
ATOM      2  O   UNL A   1      43.173  29.283  27.233  1.00  0.00    -0.377 OA
BRANCH   2   3
ATOM      3  C   UNL A   1      44.144  30.721  26.994  1.00  0.00     0.188 C 
BRANCH   3   4
ATOM      4  C   UNL A   1      45.751  30.879  26.223  1.00  0.00     0.188 C 
BRANCH   4   5
ATOM      5  O   UNL A   1      46.605  29.965  25.461  1.00  0.00    -0.376 OA
BRANCH   5   6
ATOM      6  C   UNL A   1      46.318  28.597  25.043  1.00  0.00     0.202 C 
BRANCH   6   7
ATOM      7  C   UNL A   1      47.312  27.615  24.266  1.00  0.00     0.261 C 
BRANCH   7   8
ATOM      8  O   UNL A   1      46.950  26.200  24.121  1.00  0.00    -0.460 OA
BRANCH   8   9
ATOM      9  C   UNL A   1      47.260  25.393  25.152  1.00  0.00     0.338 C 
ATOM     10  O   UNL A   1      48.356  25.417  25.703  1.00  0.00    -0.246 OA
BRANCH   9  11
ATOM     11  C   UNL A   1      46.092  24.654  25.749  1.00  0.00     0.087 C 
ATOM     12  C   UNL A   1      42.994  22.794  27.991  1.00  0.00     0.026 A 
ATOM     13  C   UNL A   1      43.129  22.820  29.397  1.00  0.00     0.033 A 
ATOM     14  C   UNL A   1      43.946  23.514  27.231  1.00  0.00     0.135 A 
ATOM     15  C   UNL A   1      44.134  23.561  30.016  1.00  0.00     0.042 A 
ATOM     16  C   UNL A   1      45.005  24.172  27.865  1.00  0.00     0.019 A 
ATOM     17  O   UNL A   1      43.783  23.624  25.876  1.00  0.00    -0.475 OA
ATOM     18  Cl  UNL A   1      44.264  23.578  31.731  1.00  0.00    -0.084 Cl
ATOM     19  C   UNL A   1      45.066  24.246  29.255  1.00  0.00     0.032 A 
ATOM     20  C   UNL A   1      46.083  24.750  27.089  1.00  0.00     0.027 C 
ATOM     21  C   UNL A   1      44.928  24.000  25.026  1.00  0.00     0.316 C 
BRANCH  12  22
ATOM     22  C   UNL A   1      41.934  21.937  27.402  1.00  0.00    -0.012 A 
ATOM     23  C   UNL A   1      38.933  19.500  25.412  1.00  0.00     0.047 C 
ATOM     24  C   UNL A   1      39.986  20.324  26.088  1.00  0.00    -0.015 A 
ATOM     25  C   UNL A   1      41.140  19.746  26.622  1.00  0.00     0.007 A 
ATOM     26  C   UNL A   1      39.819  21.702  26.218  1.00  0.00     0.126 A 
ATOM     27  C   UNL A   1      42.097  20.543  27.268  1.00  0.00     0.009 A 
ATOM     28  C   UNL A   1      40.769  22.499  26.858  1.00  0.00     0.048 A 
ATOM     29  F   UNL A   1      38.734  22.290  25.691  1.00  0.00    -0.207 F 
ENDBRANCH  12  22
BRANCH  21  30
ATOM     30  C   UNL A   1      45.291  22.723  24.284  1.00  0.00     0.430 C 
ATOM     31  F   UNL A   1      44.855  21.628  24.954  1.00  0.00    -0.167 F 
ATOM     32  F   UNL A   1      44.755  22.680  23.048  1.00  0.00    -0.167 F 
ATOM     33  F   UNL A   1      46.634  22.590  24.161  1.00  0.00    -0.167 F 
ENDBRANCH  21  30
ENDBRANCH   9  11
ENDBRANCH   8   9
ENDBRANCH   7   8
ENDBRANCH   6   7
ENDBRANCH   5   6
ENDBRANCH   4   5
ENDBRANCH   3   4
ENDBRANCH   2   3
ENDBRANCH   1   2
BRANCH   1  34
ATOM     34  C   UNL A   1      39.767  28.990  27.248  1.00  0.00     0.188 C 
BRANCH  34  35
ATOM     35  O   UNL A   1      38.477  29.582  27.459  1.00  0.00    -0.376 OA
BRANCH  35  36
ATOM     36  C   UNL A   1      37.538  29.069  28.399  1.00  0.00     0.202 C 
BRANCH  36  37
ATOM     37  C   UNL A   1      36.335  29.893  28.905  1.00  0.00     0.261 C 
BRANCH  37  38
ATOM     38  O   UNL A   1      36.642  31.059  29.665  1.00  0.00    -0.460 OA
BRANCH  38  39
ATOM     39  C   UNL A   1      37.033  32.158  28.972  1.00  0.00     0.338 C 
ATOM     40  O   UNL A   1      36.424  32.672  28.047  1.00  0.00    -0.246 OA
BRANCH  39  41
ATOM     41  C   UNL A   1      38.083  32.858  29.785  1.00  0.00     0.060 A 
ATOM     42  C   UNL A   1      38.104  34.263  29.929  1.00  0.00     0.016 A 
ATOM     43  C   UNL A   1      39.269  32.119  29.925  1.00  0.00     0.016 A 
ATOM     44  C   UNL A   1      39.337  34.926  30.017  1.00  0.00     0.010 A 
ATOM     45  C   UNL A   1      40.485  32.781  30.016  1.00  0.00     0.010 A 
ATOM     46  C   UNL A   1      40.526  34.180  29.973  1.00  0.00    -0.014 A 
BRANCH  46  47
ATOM     47  C   UNL A   1      41.855  34.776  30.096  1.00  0.00     0.031 A 
ATOM     48  C   UNL A   1      42.314  35.424  28.855  1.00  0.00     0.074 A 
ATOM     49  C   UNL A   1      42.531  34.855  31.273  1.00  0.00     0.049 A 
ATOM     50  N   UNL A   1      43.537  35.653  28.545  1.00  0.00    -0.248 NA
ATOM     51  C   UNL A   1      41.375  35.836  27.802  1.00  0.00     0.031 C 
ATOM     52  C   UNL A   1      43.711  35.631  31.641  1.00  0.00     0.029 A 
ATOM     53  N   UNL A   1      42.411  34.016  32.386  1.00  0.00    -0.354 N 
ATOM     54  C   UNL A   1      43.476  36.642  27.584  1.00  0.00     0.074 A 
ATOM     55  C   UNL A   1      42.173  36.531  26.990  1.00  0.00     0.031 C 
ATOM     56  C   UNL A   1      44.415  34.957  32.578  1.00  0.00     0.029 A 
ATOM     57  C   UNL A   1      43.743  33.675  32.736  1.00  0.00     0.049 A 
ATOM     58  H   UNL A   1      41.582  33.724  32.831  1.00  0.00     0.167 HD
ATOM     59  C   UNL A   1      44.402  37.641  27.640  1.00  0.00     0.034 A 
ATOM     60  C   UNL A   1      44.260  32.429  32.472  1.00  0.00     0.034 A 
ATOM     61  C   UNL A   1      45.399  37.343  28.668  1.00  0.00     0.049 A 
ATOM     62  C   UNL A   1      45.512  32.532  31.626  1.00  0.00     0.074 A 
ATOM     63  C   UNL A   1      45.646  37.834  29.940  1.00  0.00     0.029 A 
ATOM     64  N   UNL A   1      46.100  36.154  28.578  1.00  0.00    -0.354 N 
ATOM     65  N   UNL A   1      45.704  33.551  30.831  1.00  0.00    -0.248 NA
ATOM     66  C   UNL A   1      46.666  31.631  31.621  1.00  0.00     0.031 C 
ATOM     67  C   UNL A   1      46.530  36.938  30.602  1.00  0.00     0.029 A 
ATOM     68  C   UNL A   1      46.764  35.874  29.751  1.00  0.00     0.049 A 
ATOM     69  H   UNL A   1      46.119  35.581  27.778  1.00  0.00     0.167 HD
ATOM     70  C   UNL A   1      46.998  33.568  30.402  1.00  0.00     0.074 A 
ATOM     71  C   UNL A   1      47.520  32.279  30.804  1.00  0.00     0.031 C 
ATOM     72  C   UNL A   1      47.558  34.666  29.819  1.00  0.00     0.034 A 
BRANCH  59  73
ATOM     73  C   UNL A   1      44.239  39.002  27.002  1.00  0.00     0.023 A 
ATOM     74  C   UNL A   1      45.208  39.641  26.197  1.00  0.00     0.031 A 
ATOM     75  C   UNL A   1      43.036  39.725  27.186  1.00  0.00     0.131 A 
ATOM     76  C   UNL A   1      44.950  40.892  25.598  1.00  0.00     0.055 A 
ATOM     77  C   UNL A   1      42.791  40.970  26.608  1.00  0.00     0.041 A 
ATOM     78  F   UNL A   1      42.022  39.252  27.919  1.00  0.00    -0.206 F 
ATOM     79  C   UNL A   1      43.746  41.560  25.805  1.00  0.00     0.022 A 
BRANCH  76  80
ATOM     80  S   UNL A   1      46.147  41.690  24.491  1.00  0.00     0.124 S 
ATOM     81  O   UNL A   1      45.342  42.744  23.874  1.00  0.00    -0.237 OA
ATOM     82  O   UNL A   1      47.169  42.156  25.423  1.00  0.00    -0.237 OA
ATOM     83  O   UNL A   1      46.555  40.621  23.585  1.00  0.00    -0.744 OA
ENDBRANCH  76  80
ENDBRANCH  59  73
BRANCH  60  84
ATOM     84  C   UNL A   1      43.231  31.324  32.558  1.00  0.00     0.023 A 
ATOM     85  C   UNL A   1      42.318  30.840  33.930  1.00  0.00     0.031 A 
ATOM     86  C   UNL A   1      43.370  30.172  31.201  1.00  0.00     0.131 A 
ATOM     87  C   UNL A   1      41.503  29.262  34.025  1.00  0.00     0.055 A 
ATOM     88  C   UNL A   1      42.580  28.488  31.210  1.00  0.00     0.041 A 
ATOM     89  F   UNL A   1      43.216  30.917  30.143  1.00  0.00    -0.206 F 
ATOM     90  C   UNL A   1      41.612  28.057  32.699  1.00  0.00     0.022 A 
BRANCH  87  91
ATOM     91  S   UNL A   1      41.520  28.599  35.765  1.00  0.00     0.124 S 
ATOM     92  O   UNL A   1      41.370  27.167  35.554  1.00  0.00    -0.237 OA
ATOM     93  O   UNL A   1      42.822  29.050  36.251  1.00  0.00    -0.237 OA
ATOM     94  O   UNL A   1      40.383  29.282  36.380  1.00  0.00    -0.744 OA
ENDBRANCH  87  91
ENDBRANCH  60  84
BRANCH  72  95
ATOM     95  C   UNL A   1      48.905  34.697  29.180  1.00  0.00     0.023 A 
ATOM     96  C   UNL A   1      48.966  34.602  27.774  1.00  0.00     0.031 A 
ATOM     97  C   UNL A   1      50.119  34.825  29.856  1.00  0.00     0.131 A 
ATOM     98  C   UNL A   1      50.177  34.492  27.104  1.00  0.00     0.055 A 
ATOM     99  C   UNL A   1      51.338  34.650  29.196  1.00  0.00     0.041 A 
ATOM    100  F   UNL A   1      50.160  35.159  31.156  1.00  0.00    -0.206 F 
ATOM    101  C   UNL A   1      51.369  34.451  27.817  1.00  0.00     0.022 A 
BRANCH  98 102
ATOM    102  S   UNL A   1      50.214  34.449  25.296  1.00  0.00     0.124 S 
ATOM    103  O   UNL A   1      48.792  34.537  24.971  1.00  0.00    -0.237 OA
ATOM    104  O   UNL A   1      51.005  35.636  24.986  1.00  0.00    -0.237 OA
ATOM    105  O   UNL A   1      50.847  33.173  24.984  1.00  0.00    -0.744 OA
ENDBRANCH  98 102
ENDBRANCH  72  95
ENDBRANCH  46  47
ENDBRANCH  39  41
ENDBRANCH  38  39
ENDBRANCH  37  38
ENDBRANCH  36  37
ENDBRANCH  35  36
ENDBRANCH  34  35
ENDBRANCH   1  34
TORSDOF 25
ENDMDL
MODEL 2
REMARK VINA RESULT:     -10.8      7.470     12.702
REMARK SMILES Cc1ccc(-c2cc(Cl)cc3c2O[C@H](C(F)(F)F)C(C(=O)OCCOCCOCCOCCOC(=O)c2ccc(-c4c5nc(c(-c6cc(S(=O)(=O)[O-])ccc6F)c6ccc([nH]6)c(-c6cc(S(=O)(=O)[O-])ccc6F)c6nc(c(-c7cc(S(=O)(=O)[O-])ccc7F)c7ccc4[nH]7)C=C6)C=C5)cc2)=C3)cc1F
REMARK SMILES IDX 29 1 28 2 27 3 26 4 25 5 24 6 23 7 22 8 20 9 21 10 19 11
REMARK SMILES IDX 6 12 7 13 12 14 8 15 11 16 13 17 9 18 10 19 100 20 14 21
REMARK SMILES IDX 5 22 1 23 2 24 3 25 102 26 4 27 101 28 103 29 15 30 16 31
REMARK SMILES IDX 17 32 18 33 30 34 31 35 32 36 33 37 34 38 35 39 36 40 37 41
REMARK SMILES IDX 38 42 99 43 39 44 98 45 40 46 41 47 42 48 92 49 43 50 97 51
REMARK SMILES IDX 91 52 93 53 44 54 96 55 90 56 89 57 45 59 77 60 57 61 76 62
REMARK SMILES IDX 58 63 61 64 75 65 94 66 59 67 60 68 74 70 95 71 62 72 46 73
REMARK SMILES IDX 47 74 55 75 48 76 54 77 56 78 53 79 49 80 50 81 51 82 52 83
REMARK SMILES IDX 78 84 79 85 87 86 80 87 86 88 88 89 85 90 81 91 82 92 83 93
REMARK SMILES IDX 84 94 63 95 64 96 72 97 65 98 71 99 73 100 70 101 66 102
REMARK SMILES IDX 67 103 68 104 69 105
REMARK H PARENT 93 58 61 69
REMARK Flexibility Score: inf
ROOT
ATOM      1  C   UNL A   1      43.561  24.725  25.188  1.00  0.00     0.188 C 
ENDROOT
BRANCH   1   2
ATOM      2  O   UNL A   1      42.185  23.746  26.325  1.00  0.00    -0.377 OA
BRANCH   2   3
ATOM      3  C   UNL A   1      41.430  22.174  26.162  1.00  0.00     0.188 C 
BRANCH   3   4
ATOM      4  C   UNL A   1      39.734  21.701  26.484  1.00  0.00     0.188 C 
BRANCH   4   5
ATOM      5  O   UNL A   1      38.473  21.896  25.767  1.00  0.00    -0.376 OA
BRANCH   5   6
ATOM      6  C   UNL A   1      37.646  20.893  25.104  1.00  0.00     0.202 C 
BRANCH   6   7
ATOM      7  C   UNL A   1      36.064  20.960  24.891  1.00  0.00     0.261 C 
BRANCH   7   8
ATOM      8  O   UNL A   1      35.467  22.191  24.356  1.00  0.00    -0.460 OA
BRANCH   8   9
ATOM      9  C   UNL A   1      34.123  22.229  24.299  1.00  0.00     0.338 C 
ATOM     10  O   UNL A   1      33.424  21.241  24.504  1.00  0.00    -0.246 OA
BRANCH   9  11
ATOM     11  C   UNL A   1      33.534  23.613  24.229  1.00  0.00     0.087 C 
ATOM     12  C   UNL A   1      32.333  27.687  24.433  1.00  0.00     0.026 A 
ATOM     13  C   UNL A   1      32.950  28.478  25.427  1.00  0.00     0.033 A 
ATOM     14  C   UNL A   1      32.807  26.364  24.265  1.00  0.00     0.135 A 
ATOM     15  C   UNL A   1      34.014  27.992  26.185  1.00  0.00     0.042 A 
ATOM     16  C   UNL A   1      33.809  25.862  25.101  1.00  0.00     0.019 A 
ATOM     17  O   UNL A   1      32.330  25.604  23.232  1.00  0.00    -0.475 OA
ATOM     18  Cl  UNL A   1      34.748  28.986  27.382  1.00  0.00    -0.084 Cl
ATOM     19  C   UNL A   1      34.453  26.690  26.018  1.00  0.00     0.032 A 
ATOM     20  C   UNL A   1      34.167  24.458  25.059  1.00  0.00     0.027 C 
ATOM     21  C   UNL A   1      32.484  24.137  23.266  1.00  0.00     0.316 C 
BRANCH  12  22
ATOM     22  C   UNL A   1      31.170  28.254  23.705  1.00  0.00    -0.012 A 
ATOM     23  C   UNL A   1      27.665  30.017  21.830  1.00  0.00     0.047 C 
ATOM     24  C   UNL A   1      28.881  29.434  22.482  1.00  0.00    -0.015 A 
ATOM     25  C   UNL A   1      30.118  30.081  22.441  1.00  0.00     0.007 A 
ATOM     26  C   UNL A   1      28.802  28.203  23.134  1.00  0.00     0.126 A 
ATOM     27  C   UNL A   1      31.243  29.497  23.044  1.00  0.00     0.009 A 
ATOM     28  C   UNL A   1      29.918  27.620  23.737  1.00  0.00     0.048 A 
ATOM     29  F   UNL A   1      27.623  27.571  23.214  1.00  0.00    -0.207 F 
ENDBRANCH  12  22
BRANCH  21  30
ATOM     30  C   UNL A   1      31.081  23.609  23.524  1.00  0.00     0.430 C 
ATOM     31  F   UNL A   1      30.149  24.568  23.299  1.00  0.00    -0.167 F 
ATOM     32  F   UNL A   1      30.778  22.559  22.735  1.00  0.00    -0.167 F 
ATOM     33  F   UNL A   1      30.930  23.220  24.813  1.00  0.00    -0.167 F 
ENDBRANCH  21  30
ENDBRANCH   9  11
ENDBRANCH   8   9
ENDBRANCH   7   8
ENDBRANCH   6   7
ENDBRANCH   5   6
ENDBRANCH   4   5
ENDBRANCH   3   4
ENDBRANCH   2   3
ENDBRANCH   1   2
BRANCH   1  34
ATOM     34  C   UNL A   1      45.277  24.875  25.400  1.00  0.00     0.188 C 
BRANCH  34  35
ATOM     35  O   UNL A   1      46.460  24.632  24.626  1.00  0.00    -0.376 OA
BRANCH  35  36
ATOM     36  C   UNL A   1      47.654  25.395  24.781  1.00  0.00     0.202 C 
BRANCH  36  37
ATOM     37  C   UNL A   1      47.796  26.508  25.839  1.00  0.00     0.261 C 
BRANCH  37  38
ATOM     38  O   UNL A   1      48.753  26.282  26.871  1.00  0.00    -0.460 OA
BRANCH  38  39
ATOM     39  C   UNL A   1      48.447  25.340  27.797  1.00  0.00     0.338 C 
ATOM     40  O   UNL A   1      49.018  24.270  27.941  1.00  0.00    -0.246 OA
BRANCH  39  41
ATOM     41  C   UNL A   1      47.600  25.994  28.849  1.00  0.00     0.060 A 
ATOM     42  C   UNL A   1      48.159  26.798  29.866  1.00  0.00     0.016 A 
ATOM     43  C   UNL A   1      46.369  25.351  29.057  1.00  0.00     0.016 A 
ATOM     44  C   UNL A   1      47.579  26.791  31.144  1.00  0.00     0.010 A 
ATOM     45  C   UNL A   1      45.798  25.352  30.322  1.00  0.00     0.010 A 
ATOM     46  C   UNL A   1      46.447  25.996  31.383  1.00  0.00    -0.014 A 
BRANCH  46  47
ATOM     47  C   UNL A   1      45.751  25.952  32.667  1.00  0.00     0.031 A 
ATOM     48  C   UNL A   1      45.065  27.214  32.996  1.00  0.00     0.074 A 
ATOM     49  C   UNL A   1      45.624  24.820  33.410  1.00  0.00     0.049 A 
ATOM     50  N   UNL A   1      44.741  27.599  34.174  1.00  0.00    -0.248 NA
ATOM     51  C   UNL A   1      44.723  28.201  31.962  1.00  0.00     0.031 C 
ATOM     52  C   UNL A   1      44.761  24.521  34.548  1.00  0.00     0.029 A 
ATOM     53  N   UNL A   1      46.475  23.708  33.426  1.00  0.00    -0.354 N 
ATOM     54  C   UNL A   1      43.756  28.546  33.977  1.00  0.00     0.074 A 
ATOM     55  C   UNL A   1      43.966  29.057  32.650  1.00  0.00     0.031 C 
ATOM     56  C   UNL A   1      45.383  23.637  35.360  1.00  0.00     0.029 A 
ATOM     57  C   UNL A   1      46.713  23.448  34.801  1.00  0.00     0.049 A 
ATOM     58  H   UNL A   1      46.831  23.214  32.652  1.00  0.00     0.167 HD
ATOM     59  C   UNL A   1      42.689  28.540  34.824  1.00  0.00     0.034 A 
ATOM     60  C   UNL A   1      47.914  23.754  35.393  1.00  0.00     0.034 A 
ATOM     61  C   UNL A   1      42.913  27.581  35.906  1.00  0.00     0.049 A 
ATOM     62  C   UNL A   1      47.712  24.677  36.577  1.00  0.00     0.074 A 
ATOM     63  C   UNL A   1      42.409  26.323  36.195  1.00  0.00     0.029 A 
ATOM     64  N   UNL A   1      44.044  27.726  36.688  1.00  0.00    -0.354 N 
ATOM     65  N   UNL A   1      46.678  25.474  36.639  1.00  0.00    -0.248 NA
ATOM     66  C   UNL A   1      48.521  24.764  37.794  1.00  0.00     0.031 C 
ATOM     67  C   UNL A   1      43.237  25.727  37.186  1.00  0.00     0.029 A 
ATOM     68  C   UNL A   1      44.276  26.599  37.445  1.00  0.00     0.049 A 
ATOM     69  H   UNL A   1      44.611  28.530  36.700  1.00  0.00     0.167 HD
ATOM     70  C   UNL A   1      46.560  25.984  37.898  1.00  0.00     0.074 A 
ATOM     71  C   UNL A   1      47.807  25.628  38.541  1.00  0.00     0.031 C 
ATOM     72  C   UNL A   1      45.420  26.593  38.333  1.00  0.00     0.034 A 
BRANCH  59  73
ATOM     73  C   UNL A   1      41.342  29.155  34.517  1.00  0.00     0.023 A 
ATOM     74  C   UNL A   1      40.539  28.831  33.400  1.00  0.00     0.031 A 
ATOM     75  C   UNL A   1      40.796  30.123  35.392  1.00  0.00     0.131 A 
ATOM     76  C   UNL A   1      39.269  29.418  33.221  1.00  0.00     0.055 A 
ATOM     77  C   UNL A   1      39.548  30.716  35.201  1.00  0.00     0.041 A 
ATOM     78  F   UNL A   1      41.434  30.533  36.495  1.00  0.00    -0.206 F 
ATOM     79  C   UNL A   1      38.773  30.363  34.115  1.00  0.00     0.022 A 
BRANCH  76  80
ATOM     80  S   UNL A   1      38.185  28.952  31.840  1.00  0.00     0.124 S 
ATOM     81  O   UNL A   1      36.860  29.008  32.456  1.00  0.00    -0.237 OA
ATOM     82  O   UNL A   1      38.460  30.001  30.863  1.00  0.00    -0.237 OA
ATOM     83  O   UNL A   1      38.637  27.612  31.476  1.00  0.00    -0.744 OA
ENDBRANCH  76  80
ENDBRANCH  59  73
BRANCH  60  84
ATOM     84  C   UNL A   1      49.096  23.613  34.460  1.00  0.00     0.023 A 
ATOM     85  C   UNL A   1      49.879  22.166  33.966  1.00  0.00     0.031 A 
ATOM     86  C   UNL A   1      49.983  25.150  34.264  1.00  0.00     0.131 A 
ATOM     87  C   UNL A   1      51.510  22.159  33.255  1.00  0.00     0.055 A 
ATOM     88  C   UNL A   1      51.701  25.251  33.557  1.00  0.00     0.041 A 
ATOM     89  F   UNL A   1      49.082  25.973  33.807  1.00  0.00    -0.206 F 
ATOM     90  C   UNL A   1      52.456  23.669  33.040  1.00  0.00     0.022 A 
BRANCH  87  91
ATOM     91  S   UNL A   1      52.458  20.639  33.761  1.00  0.00     0.124 S 
ATOM     92  O   UNL A   1      51.399  19.743  34.200  1.00  0.00    -0.237 OA
ATOM     93  O   UNL A   1      53.142  20.278  32.522  1.00  0.00    -0.237 OA
ATOM     94  O   UNL A   1      53.345  21.147  34.807  1.00  0.00    -0.744 OA
ENDBRANCH  87  91
ENDBRANCH  60  84
BRANCH  72  95
ATOM     95  C   UNL A   1      45.283  27.316  39.630  1.00  0.00     0.023 A 
ATOM     96  C   UNL A   1      45.613  28.687  39.654  1.00  0.00     0.031 A 
ATOM     97  C   UNL A   1      44.841  26.754  40.827  1.00  0.00     0.131 A 
ATOM     98  C   UNL A   1      45.641  29.408  40.840  1.00  0.00     0.055 A 
ATOM     99  C   UNL A   1      44.929  27.455  42.033  1.00  0.00     0.041 A 
ATOM    100  F   UNL A   1      44.281  25.534  40.859  1.00  0.00    -0.206 F 
ATOM    101  C   UNL A   1      45.360  28.780  42.046  1.00  0.00     0.022 A 
BRANCH  98 102
ATOM    102  S   UNL A   1      45.995  31.182  40.816  1.00  0.00     0.124 S 
ATOM    103  O   UNL A   1      46.821  31.301  39.616  1.00  0.00    -0.237 OA
ATOM    104  O   UNL A   1      44.655  31.753  40.717  1.00  0.00    -0.237 OA
ATOM    105  O   UNL A   1      46.688  31.423  42.076  1.00  0.00    -0.744 OA
ENDBRANCH  98 102
ENDBRANCH  72  95
ENDBRANCH  46  47
ENDBRANCH  39  41
ENDBRANCH  38  39
ENDBRANCH  37  38
ENDBRANCH  36  37
ENDBRANCH  35  36
ENDBRANCH  34  35
ENDBRANCH   1  34
TORSDOF 25
ENDMDL
MODEL 3
REMARK VINA RESULT:     -10.3      4.876      9.144
REMARK SMILES Cc1ccc(-c2cc(Cl)cc3c2O[C@H](C(F)(F)F)C(C(=O)OCCOCCOCCOCCOC(=O)c2ccc(-c4c5nc(c(-c6cc(S(=O)(=O)[O-])ccc6F)c6ccc([nH]6)c(-c6cc(S(=O)(=O)[O-])ccc6F)c6nc(c(-c7cc(S(=O)(=O)[O-])ccc7F)c7ccc4[nH]7)C=C6)C=C5)cc2)=C3)cc1F
REMARK SMILES IDX 29 1 28 2 27 3 26 4 25 5 24 6 23 7 22 8 20 9 21 10 19 11
REMARK SMILES IDX 6 12 7 13 12 14 8 15 11 16 13 17 9 18 10 19 100 20 14 21
REMARK SMILES IDX 5 22 1 23 2 24 3 25 102 26 4 27 101 28 103 29 15 30 16 31
REMARK SMILES IDX 17 32 18 33 30 34 31 35 32 36 33 37 34 38 35 39 36 40 37 41
REMARK SMILES IDX 38 42 99 43 39 44 98 45 40 46 41 47 42 48 92 49 43 50 97 51
REMARK SMILES IDX 91 52 93 53 44 54 96 55 90 56 89 57 45 59 77 60 57 61 76 62
REMARK SMILES IDX 58 63 61 64 75 65 94 66 59 67 60 68 74 70 95 71 62 72 46 73
REMARK SMILES IDX 47 74 55 75 48 76 54 77 56 78 53 79 49 80 50 81 51 82 52 83
REMARK SMILES IDX 78 84 79 85 87 86 80 87 86 88 88 89 85 90 81 91 82 92 83 93
REMARK SMILES IDX 84 94 63 95 64 96 72 97 65 98 71 99 73 100 70 101 66 102
REMARK SMILES IDX 67 103 68 104 69 105
REMARK H PARENT 93 58 61 69
REMARK Flexibility Score: inf
ROOT
ATOM      1  C   UNL A   1      35.070  33.353  28.705  1.00  0.00     0.188 C 
ENDROOT
BRANCH   1   2
ATOM      2  O   UNL A   1      37.066  32.964  28.805  1.00  0.00    -0.377 OA
BRANCH   2   3
ATOM      3  C   UNL A   1      38.463  34.013  28.924  1.00  0.00     0.188 C 
BRANCH   3   4
ATOM      4  C   UNL A   1      39.991  33.755  29.819  1.00  0.00     0.188 C 
BRANCH   4   5
ATOM      5  O   UNL A   1      41.162  34.590  30.090  1.00  0.00    -0.376 OA
BRANCH   5   6
ATOM      6  C   UNL A   1      42.510  34.462  29.545  1.00  0.00     0.202 C 
BRANCH   6   7
ATOM      7  C   UNL A   1      43.584  33.341  29.928  1.00  0.00     0.261 C 
BRANCH   7   8
ATOM      8  O   UNL A   1      43.987  32.361  28.912  1.00  0.00    -0.460 OA
BRANCH   8   9
ATOM      9  C   UNL A   1      45.252  31.909  28.985  1.00  0.00     0.338 C 
ATOM     10  O   UNL A   1      46.186  32.615  29.352  1.00  0.00    -0.246 OA
BRANCH   9  11
ATOM     11  C   UNL A   1      45.398  30.417  28.840  1.00  0.00     0.087 C 
ATOM     12  C   UNL A   1      46.313  26.264  28.816  1.00  0.00     0.026 A 
ATOM     13  C   UNL A   1      47.550  25.887  29.384  1.00  0.00     0.033 A 
ATOM     14  C   UNL A   1      45.933  27.623  28.926  1.00  0.00     0.135 A 
ATOM     15  C   UNL A   1      48.347  26.806  30.063  1.00  0.00     0.042 A 
ATOM     16  C   UNL A   1      46.790  28.551  29.526  1.00  0.00     0.019 A 
ATOM     17  O   UNL A   1      44.688  28.010  28.506  1.00  0.00    -0.475 OA
ATOM     18  Cl  UNL A   1      49.845  26.311  30.750  1.00  0.00    -0.084 Cl
ATOM     19  C   UNL A   1      47.967  28.135  30.146  1.00  0.00     0.032 A 
ATOM     20  C   UNL A   1      46.493  29.968  29.475  1.00  0.00     0.027 C 
ATOM     21  C   UNL A   1      44.415  29.433  28.231  1.00  0.00     0.316 C 
BRANCH  12  22
ATOM     22  C   UNL A   1      45.546  25.243  28.059  1.00  0.00    -0.012 A 
ATOM     23  C   UNL A   1      43.556  22.144  25.747  1.00  0.00     0.047 C 
ATOM     24  C   UNL A   1      44.252  23.193  26.559  1.00  0.00    -0.015 A 
ATOM     25  C   UNL A   1      44.449  23.047  27.935  1.00  0.00     0.007 A 
ATOM     26  C   UNL A   1      44.705  24.363  25.950  1.00  0.00     0.126 A 
ATOM     27  C   UNL A   1      45.087  24.058  28.670  1.00  0.00     0.009 A 
ATOM     28  C   UNL A   1      45.340  25.370  26.677  1.00  0.00     0.048 A 
ATOM     29  F   UNL A   1      44.555  24.520  24.627  1.00  0.00    -0.207 F 
ENDBRANCH  12  22
BRANCH  21  30
ATOM     30  C   UNL A   1      44.305  29.517  26.717  1.00  0.00     0.430 C 
ATOM     31  F   UNL A   1      45.522  29.399  26.131  1.00  0.00    -0.167 F 
ATOM     32  F   UNL A   1      43.516  28.551  26.207  1.00  0.00    -0.167 F 
ATOM     33  F   UNL A   1      43.804  30.714  26.325  1.00  0.00    -0.167 F 
ENDBRANCH  21  30
ENDBRANCH   9  11
ENDBRANCH   8   9
ENDBRANCH   7   8
ENDBRANCH   6   7
ENDBRANCH   5   6
ENDBRANCH   4   5
ENDBRANCH   3   4
ENDBRANCH   2   3
ENDBRANCH   1   2
BRANCH   1  34
ATOM     34  C   UNL A   1      34.162  34.686  29.346  1.00  0.00     0.188 C 
BRANCH  34  35
ATOM     35  O   UNL A   1      32.789  35.097  29.401  1.00  0.00    -0.376 OA
BRANCH  35  36
ATOM     36  C   UNL A   1      32.222  35.746  30.536  1.00  0.00     0.202 C 
BRANCH  36  37
ATOM     37  C   UNL A   1      33.056  36.129  31.776  1.00  0.00     0.261 C 
BRANCH  37  38
ATOM     38  O   UNL A   1      33.380  35.070  32.673  1.00  0.00    -0.460 OA
BRANCH  38  39
ATOM     39  C   UNL A   1      34.392  35.294  33.548  1.00  0.00     0.338 C 
ATOM     40  O   UNL A   1      34.403  36.149  34.421  1.00  0.00    -0.246 OA
BRANCH  39  41
ATOM     41  C   UNL A   1      35.277  34.083  33.540  1.00  0.00     0.060 A 
ATOM     42  C   UNL A   1      35.898  33.602  34.715  1.00  0.00     0.016 A 
ATOM     43  C   UNL A   1      35.842  33.809  32.284  1.00  0.00     0.016 A 
ATOM     44  C   UNL A   1      37.174  33.024  34.630  1.00  0.00     0.010 A 
ATOM     45  C   UNL A   1      37.102  33.234  32.207  1.00  0.00     0.010 A 
ATOM     46  C   UNL A   1      37.804  32.924  33.379  1.00  0.00    -0.014 A 
BRANCH  46  47
ATOM     47  C   UNL A   1      39.113  32.304  33.185  1.00  0.00     0.031 A 
ATOM     48  C   UNL A   1      39.035  30.971  32.562  1.00  0.00     0.074 A 
ATOM     49  C   UNL A   1      40.287  32.950  33.416  1.00  0.00     0.049 A 
ATOM     50  N   UNL A   1      39.930  30.058  32.645  1.00  0.00    -0.248 NA
ATOM     51  C   UNL A   1      37.852  30.540  31.802  1.00  0.00     0.031 C 
ATOM     52  C   UNL A   1      41.653  32.606  33.035  1.00  0.00     0.029 A 
ATOM     53  N   UNL A   1      40.520  34.009  34.302  1.00  0.00    -0.354 N 
ATOM     54  C   UNL A   1      39.672  29.215  31.582  1.00  0.00     0.074 A 
ATOM     55  C   UNL A   1      38.280  29.394  31.271  1.00  0.00     0.031 C 
ATOM     56  C   UNL A   1      42.510  33.076  33.970  1.00  0.00     0.029 A 
ATOM     57  C   UNL A   1      41.679  33.632  35.028  1.00  0.00     0.049 A 
ATOM     58  H   UNL A   1      39.994  34.835  34.401  1.00  0.00     0.167 HD
ATOM     59  C   UNL A   1      40.736  28.725  30.886  1.00  0.00     0.034 A 
ATOM     60  C   UNL A   1      41.605  33.208  36.333  1.00  0.00     0.034 A 
ATOM     61  C   UNL A   1      41.984  29.098  31.549  1.00  0.00     0.049 A 
ATOM     62  C   UNL A   1      42.213  31.830  36.489  1.00  0.00     0.074 A 
ATOM     63  C   UNL A   1      42.978  30.026  31.280  1.00  0.00     0.029 A 
ATOM     64  N   UNL A   1      42.164  28.724  32.869  1.00  0.00    -0.354 N 
ATOM     65  N   UNL A   1      42.253  30.996  35.484  1.00  0.00    -0.248 NA
ATOM     66  C   UNL A   1      42.886  31.276  37.665  1.00  0.00     0.031 C 
ATOM     67  C   UNL A   1      43.776  30.180  32.447  1.00  0.00     0.029 A 
ATOM     68  C   UNL A   1      43.223  29.394  33.440  1.00  0.00     0.049 A 
ATOM     69  H   UNL A   1      41.605  28.064  33.340  1.00  0.00     0.167 HD
ATOM     70  C   UNL A   1      43.085  29.956  35.777  1.00  0.00     0.074 A 
ATOM     71  C   UNL A   1      43.343  30.098  37.194  1.00  0.00     0.031 C 
ATOM     72  C   UNL A   1      43.554  29.106  34.819  1.00  0.00     0.034 A 
BRANCH  59  73
ATOM     73  C   UNL A   1      40.667  28.190  29.473  1.00  0.00     0.023 A 
ATOM     74  C   UNL A   1      40.670  26.821  29.124  1.00  0.00     0.031 A 
ATOM     75  C   UNL A   1      40.579  29.090  28.385  1.00  0.00     0.131 A 
ATOM     76  C   UNL A   1      40.549  26.411  27.780  1.00  0.00     0.055 A 
ATOM     77  C   UNL A   1      40.480  28.681  27.055  1.00  0.00     0.041 A 
ATOM     78  F   UNL A   1      40.562  30.417  28.553  1.00  0.00    -0.206 F 
ATOM     79  C   UNL A   1      40.460  27.337  26.744  1.00  0.00     0.022 A 
BRANCH  76  80
ATOM     80  S   UNL A   1      40.464  24.657  27.316  1.00  0.00     0.124 S 
ATOM     81  O   UNL A   1      41.182  24.013  28.416  1.00  0.00    -0.237 OA
ATOM     82  O   UNL A   1      39.026  24.413  27.288  1.00  0.00    -0.237 OA
ATOM     83  O   UNL A   1      41.142  24.602  26.025  1.00  0.00    -0.744 OA
ENDBRANCH  76  80
ENDBRANCH  59  73
BRANCH  60  84
ATOM     84  C   UNL A   1      40.500  33.878  37.118  1.00  0.00     0.023 A 
ATOM     85  C   UNL A   1      40.477  35.476  37.749  1.00  0.00     0.031 A 
ATOM     86  C   UNL A   1      39.351  32.696  37.803  1.00  0.00     0.131 A 
ATOM     87  C   UNL A   1      39.345  35.981  39.026  1.00  0.00     0.055 A 
ATOM     88  C   UNL A   1      38.145  33.113  39.157  1.00  0.00     0.041 A 
ATOM     89  F   UNL A   1      38.904  32.055  36.759  1.00  0.00    -0.206 F 
ATOM     90  C   UNL A   1      38.173  34.838  39.760  1.00  0.00     0.022 A 
BRANCH  87  91
ATOM     91  S   UNL A   1      40.129  37.227  40.165  1.00  0.00     0.124 S 
ATOM     92  O   UNL A   1      40.949  38.011  39.253  1.00  0.00    -0.237 OA
ATOM     93  O   UNL A   1      38.963  37.901  40.731  1.00  0.00    -0.237 OA
ATOM     94  O   UNL A   1      40.852  36.383  41.116  1.00  0.00    -0.744 OA
ENDBRANCH  87  91
ENDBRANCH  60  84
BRANCH  72  95
ATOM     95  C   UNL A   1      44.325  27.858  35.092  1.00  0.00     0.023 A 
ATOM     96  C   UNL A   1      43.668  26.626  34.894  1.00  0.00     0.031 A 
ATOM     97  C   UNL A   1      45.652  27.804  35.515  1.00  0.00     0.131 A 
ATOM     98  C   UNL A   1      44.262  25.421  35.245  1.00  0.00     0.055 A 
ATOM     99  C   UNL A   1      46.232  26.602  35.930  1.00  0.00     0.041 A 
ATOM    100  F   UNL A   1      46.433  28.897  35.502  1.00  0.00    -0.206 F 
ATOM    101  C   UNL A   1      45.524  25.406  35.825  1.00  0.00     0.022 A 
BRANCH  98 102
ATOM    102  S   UNL A   1      43.415  23.859  34.905  1.00  0.00     0.124 S 
ATOM    103  O   UNL A   1      43.714  23.665  33.488  1.00  0.00    -0.237 OA
ATOM    104  O   UNL A   1      44.091  22.947  35.822  1.00  0.00    -0.237 OA
ATOM    105  O   UNL A   1      42.018  24.138  35.214  1.00  0.00    -0.744 OA
ENDBRANCH  98 102
ENDBRANCH  72  95
ENDBRANCH  46  47
ENDBRANCH  39  41
ENDBRANCH  38  39
ENDBRANCH  37  38
ENDBRANCH  36  37
ENDBRANCH  35  36
ENDBRANCH  34  35
ENDBRANCH   1  34
TORSDOF 25
ENDMDL
