MODEL 1
REMARK VINA RESULT:      -9.3      0.000      0.000
REMARK SMILES O=C(Cc1ccccc1C(=O)OCCOCCOCCOCCOC(=O)c1ccc(-c2c3nc(c(-c4cc(S(=O)(=O)[O-])ccc4F)c4ccc([nH]4)c(-c4cc(S(=O)(=O)[O-])ccc4F)c4nc(c(-c5cc(S(=O)(=O)[O-])ccc5F)c5ccc2[nH]5)C=C4)C=C3)cc1)Nc1cccc(OC[C@@H]2CCCO2)c1
REMARK SMILES IDX 16 1 15 2 14 3 13 4 12 5 10 6 11 7 9 8 4 9 5 10 6 11 8 12
REMARK SMILES IDX 7 13 3 14 2 15 1 16 90 17 91 19 92 20 103 21 93 22 95 23
REMARK SMILES IDX 94 24 96 25 97 26 98 27 99 28 102 29 100 30 101 31 17 32
REMARK SMILES IDX 18 33 19 34 20 35 21 36 22 37 23 38 24 39 25 40 26 41 27 42
REMARK SMILES IDX 28 43 89 44 29 45 88 46 30 47 31 48 32 49 82 50 33 51 87 52
REMARK SMILES IDX 81 53 83 54 34 55 86 56 80 57 79 58 35 60 67 61 47 62 66 63
REMARK SMILES IDX 48 64 51 65 65 66 84 67 49 68 50 69 64 71 85 72 52 73 36 74
REMARK SMILES IDX 37 75 45 76 38 77 44 78 46 79 43 80 39 81 40 82 41 83 42 84
REMARK SMILES IDX 68 85 69 86 77 87 70 88 76 89 78 90 75 91 71 92 72 93 73 94
REMARK SMILES IDX 74 95 53 96 54 97 62 98 55 99 61 100 63 101 60 102 56 103
REMARK SMILES IDX 57 104 58 105 59 106
REMARK H PARENT 90 18 83 59 51 70
REMARK Flexibility Score: inf
ROOT
ATOM      1  C   UNL A   1      34.420  27.468  25.626  1.00  0.00     0.188 C 
ENDROOT
BRANCH   1   2
ATOM      2  O   UNL A   1      33.853  27.299  24.339  1.00  0.00    -0.376 OA
BRANCH   2   3
ATOM      3  C   UNL A   1      34.151  28.243  23.326  1.00  0.00     0.202 C 
BRANCH   3   4
ATOM      4  C   UNL A   1      32.982  28.937  22.621  1.00  0.00     0.261 C 
BRANCH   4   5
ATOM      5  O   UNL A   1      31.728  28.260  22.750  1.00  0.00    -0.460 OA
BRANCH   5   6
ATOM      6  C   UNL A   1      30.751  28.844  23.468  1.00  0.00     0.338 C 
ATOM      7  O   UNL A   1      29.708  29.303  23.034  1.00  0.00    -0.246 OA
BRANCH   6   8
ATOM      8  C   UNL A   1      31.048  28.653  24.920  1.00  0.00     0.063 A 
ATOM      9  C   UNL A   1      30.867  27.436  25.617  1.00  0.00    -0.024 A 
ATOM     10  C   UNL A   1      31.079  27.427  27.010  1.00  0.00     0.005 A 
ATOM     11  C   UNL A   1      31.481  28.578  27.689  1.00  0.00     0.000 A 
ATOM     12  C   UNL A   1      31.440  29.809  25.619  1.00  0.00     0.016 A 
ATOM     13  C   UNL A   1      31.653  29.770  26.997  1.00  0.00     0.001 A 
BRANCH   9  14
ATOM     14  C   UNL A   1      30.352  26.198  24.907  1.00  0.00     0.136 C 
BRANCH  14  15
ATOM     15  C   UNL A   1      31.391  25.175  24.525  1.00  0.00     0.228 C 
ATOM     16  O   UNL A   1      31.630  24.933  23.345  1.00  0.00    -0.274 OA
ATOM     17  N   UNL A   1      31.980  24.536  25.611  1.00  0.00    -0.326 N 
ATOM     18  H   UNL A   1      31.621  24.703  26.512  1.00  0.00     0.169 HD
BRANCH  17  19
ATOM     19  C   UNL A   1      33.068  23.658  25.466  1.00  0.00     0.044 A 
ATOM     20  C   UNL A   1      34.300  23.986  26.023  1.00  0.00     0.026 A 
ATOM     21  C   UNL A   1      32.906  22.442  24.802  1.00  0.00     0.072 A 
ATOM     22  C   UNL A   1      35.328  23.041  26.006  1.00  0.00     0.006 A 
ATOM     23  C   UNL A   1      33.907  21.476  24.815  1.00  0.00     0.121 A 
ATOM     24  C   UNL A   1      35.123  21.784  25.423  1.00  0.00     0.046 A 
BRANCH  23  25
ATOM     25  O   UNL A   1      33.775  20.203  24.323  1.00  0.00    -0.491 OA
BRANCH  25  26
ATOM     26  C   UNL A   1      34.130  19.121  25.203  1.00  0.00     0.261 C 
BRANCH  26  27
ATOM     27  C   UNL A   1      33.672  17.747  24.698  1.00  0.00     0.156 C 
ATOM     28  C   UNL A   1      32.687  17.024  25.597  1.00  0.00     0.038 C 
ATOM     29  O   UNL A   1      34.800  16.864  24.570  1.00  0.00    -0.375 OA
ATOM     30  C   UNL A   1      32.871  15.599  25.127  1.00  0.00     0.031 C 
ATOM     31  C   UNL A   1      34.366  15.530  24.869  1.00  0.00     0.161 C 
ENDBRANCH  26  27
ENDBRANCH  25  26
ENDBRANCH  23  25
ENDBRANCH  17  19
ENDBRANCH  14  15
ENDBRANCH   9  14
ENDBRANCH   6   8
ENDBRANCH   5   6
ENDBRANCH   4   5
ENDBRANCH   3   4
ENDBRANCH   2   3
ENDBRANCH   1   2
BRANCH   1  32
ATOM     32  C   UNL A   1      34.784  28.926  25.984  1.00  0.00     0.188 C 
BRANCH  32  33
ATOM     33  O   UNL A   1      35.096  29.290  27.321  1.00  0.00    -0.377 OA
BRANCH  33  34
ATOM     34  C   UNL A   1      35.422  30.640  27.636  1.00  0.00     0.188 C 
BRANCH  34  35
ATOM     35  C   UNL A   1      34.402  31.537  28.373  1.00  0.00     0.188 C 
BRANCH  35  36
ATOM     36  O   UNL A   1      33.897  32.613  27.595  1.00  0.00    -0.376 OA
BRANCH  36  37
ATOM     37  C   UNL A   1      34.216  33.924  28.028  1.00  0.00     0.202 C 
BRANCH  37  38
ATOM     38  C   UNL A   1      33.062  34.800  28.536  1.00  0.00     0.261 C 
BRANCH  38  39
ATOM     39  O   UNL A   1      32.719  34.668  29.923  1.00  0.00    -0.460 OA
BRANCH  39  40
ATOM     40  C   UNL A   1      33.508  35.285  30.831  1.00  0.00     0.338 C 
ATOM     41  O   UNL A   1      33.270  36.324  31.422  1.00  0.00    -0.246 OA
BRANCH  40  42
ATOM     42  C   UNL A   1      34.633  34.370  31.116  1.00  0.00     0.060 A 
ATOM     43  C   UNL A   1      34.389  33.146  31.753  1.00  0.00     0.016 A 
ATOM     44  C   UNL A   1      35.925  34.711  30.709  1.00  0.00     0.016 A 
ATOM     45  C   UNL A   1      35.443  32.261  31.991  1.00  0.00     0.010 A 
ATOM     46  C   UNL A   1      36.982  33.835  30.972  1.00  0.00     0.010 A 
ATOM     47  C   UNL A   1      36.749  32.614  31.631  1.00  0.00    -0.014 A 
BRANCH  47  48
ATOM     48  C   UNL A   1      37.904  31.807  32.095  1.00  0.00     0.031 A 
ATOM     49  C   UNL A   1      38.522  32.149  33.422  1.00  0.00     0.074 A 
ATOM     50  C   UNL A   1      38.402  30.801  31.354  1.00  0.00     0.049 A 
ATOM     51  N   UNL A   1      39.597  31.670  33.990  1.00  0.00    -0.248 NA
ATOM     52  C   UNL A   1      37.831  33.183  34.206  1.00  0.00     0.031 C 
ATOM     53  C   UNL A   1      37.857  30.342  30.079  1.00  0.00     0.029 A 
ATOM     54  N   UNL A   1      39.491  29.991  31.567  1.00  0.00    -0.354 N 
ATOM     55  C   UNL A   1      39.718  32.349  35.198  1.00  0.00     0.074 A 
ATOM     56  C   UNL A   1      38.628  33.299  35.257  1.00  0.00     0.031 C 
ATOM     57  C   UNL A   1      38.622  29.336  29.616  1.00  0.00     0.029 A 
ATOM     58  C   UNL A   1      39.737  29.115  30.537  1.00  0.00     0.049 A 
ATOM     59  H   UNL A   1      40.044  30.035  32.381  1.00  0.00     0.167 HD
ATOM     60  C   UNL A   1      40.650  32.188  36.169  1.00  0.00     0.034 A 
ATOM     61  C   UNL A   1      40.764  28.261  30.344  1.00  0.00     0.034 A 
ATOM     62  C   UNL A   1      41.745  31.254  36.080  1.00  0.00     0.049 A 
ATOM     63  C   UNL A   1      41.860  28.185  31.383  1.00  0.00     0.074 A 
ATOM     64  C   UNL A   1      42.745  31.007  37.005  1.00  0.00     0.029 A 
ATOM     65  N   UNL A   1      41.996  30.423  34.995  1.00  0.00    -0.354 N 
ATOM     66  N   UNL A   1      41.969  28.831  32.522  1.00  0.00    -0.248 NA
ATOM     67  C   UNL A   1      42.973  27.265  31.108  1.00  0.00     0.031 C 
ATOM     68  C   UNL A   1      43.644  30.093  36.445  1.00  0.00     0.029 A 
ATOM     69  C   UNL A   1      43.158  29.695  35.209  1.00  0.00     0.049 A 
ATOM     70  H   UNL A   1      41.432  30.360  34.190  1.00  0.00     0.167 HD
ATOM     71  C   UNL A   1      43.145  28.370  33.111  1.00  0.00     0.074 A 
ATOM     72  C   UNL A   1      43.703  27.384  32.208  1.00  0.00     0.031 C 
ATOM     73  C   UNL A   1      43.711  28.723  34.294  1.00  0.00     0.034 A 
BRANCH  60  74
ATOM     74  C   UNL A   1      40.550  33.091  37.376  1.00  0.00     0.023 A 
ATOM     75  C   UNL A   1      39.804  32.728  38.512  1.00  0.00     0.031 A 
ATOM     76  C   UNL A   1      41.169  34.354  37.372  1.00  0.00     0.131 A 
ATOM     77  C   UNL A   1      39.627  33.649  39.556  1.00  0.00     0.055 A 
ATOM     78  C   UNL A   1      41.063  35.230  38.454  1.00  0.00     0.041 A 
ATOM     79  F   UNL A   1      41.871  34.768  36.305  1.00  0.00    -0.206 F 
ATOM     80  C   UNL A   1      40.274  34.886  39.548  1.00  0.00     0.022 A 
BRANCH  77  81
ATOM     81  S   UNL A   1      38.406  33.271  40.842  1.00  0.00     0.124 S 
ATOM     82  O   UNL A   1      38.986  32.082  41.462  1.00  0.00    -0.237 OA
ATOM     83  O   UNL A   1      38.415  34.483  41.652  1.00  0.00    -0.237 OA
ATOM     84  O   UNL A   1      37.177  33.033  40.088  1.00  0.00    -0.744 OA
ENDBRANCH  77  81
ENDBRANCH  60  74
BRANCH  61  85
ATOM     85  C   UNL A   1      40.843  27.436  29.102  1.00  0.00     0.023 A 
ATOM     86  C   UNL A   1      41.738  27.760  28.071  1.00  0.00     0.031 A 
ATOM     87  C   UNL A   1      39.980  26.342  28.905  1.00  0.00     0.131 A 
ATOM     88  C   UNL A   1      41.723  27.027  26.873  1.00  0.00     0.055 A 
ATOM     89  C   UNL A   1      40.011  25.578  27.736  1.00  0.00     0.041 A 
ATOM     90  F   UNL A   1      39.090  25.999  29.849  1.00  0.00    -0.206 F 
ATOM     91  C   UNL A   1      40.879  25.927  26.707  1.00  0.00     0.022 A 
BRANCH  88  92
ATOM     92  S   UNL A   1      42.762  27.590  25.496  1.00  0.00     0.124 S 
ATOM     93  O   UNL A   1      42.752  26.423  24.620  1.00  0.00    -0.237 OA
ATOM     94  O   UNL A   1      42.027  28.757  25.019  1.00  0.00    -0.237 OA
ATOM     95  O   UNL A   1      44.044  27.882  26.133  1.00  0.00    -0.744 OA
ENDBRANCH  88  92
ENDBRANCH  61  85
BRANCH  73  96
ATOM     96  C   UNL A   1      44.973  28.001  34.706  1.00  0.00     0.023 A 
ATOM     97  C   UNL A   1      44.941  26.750  35.346  1.00  0.00     0.031 A 
ATOM     98  C   UNL A   1      46.231  28.575  34.443  1.00  0.00     0.131 A 
ATOM     99  C   UNL A   1      46.140  26.136  35.745  1.00  0.00     0.055 A 
ATOM    100  C   UNL A   1      47.421  27.931  34.783  1.00  0.00     0.041 A 
ATOM    101  F   UNL A   1      46.323  29.771  33.838  1.00  0.00    -0.206 F 
ATOM    102  C   UNL A   1      47.380  26.709  35.448  1.00  0.00     0.022 A 
BRANCH  99 103
ATOM    103  S   UNL A   1      46.059  24.617  36.733  1.00  0.00     0.124 S 
ATOM    104  O   UNL A   1      46.924  24.944  37.862  1.00  0.00    -0.237 OA
ATOM    105  O   UNL A   1      44.634  24.511  37.029  1.00  0.00    -0.237 OA
ATOM    106  O   UNL A   1      46.582  23.592  35.830  1.00  0.00    -0.744 OA
ENDBRANCH  99 103
ENDBRANCH  73  96
ENDBRANCH  47  48
ENDBRANCH  40  42
ENDBRANCH  39  40
ENDBRANCH  38  39
ENDBRANCH  37  38
ENDBRANCH  36  37
ENDBRANCH  35  36
ENDBRANCH  34  35
ENDBRANCH  33  34
ENDBRANCH  32  33
ENDBRANCH   1  32
TORSDOF 29
ENDMDL
MODEL 2
REMARK VINA RESULT:      -9.0      6.153     12.465
REMARK SMILES O=C(Cc1ccccc1C(=O)OCCOCCOCCOCCOC(=O)c1ccc(-c2c3nc(c(-c4cc(S(=O)(=O)[O-])ccc4F)c4ccc([nH]4)c(-c4cc(S(=O)(=O)[O-])ccc4F)c4nc(c(-c5cc(S(=O)(=O)[O-])ccc5F)c5ccc2[nH]5)C=C4)C=C3)cc1)Nc1cccc(OC[C@@H]2CCCO2)c1
REMARK SMILES IDX 16 1 15 2 14 3 13 4 12 5 10 6 11 7 9 8 4 9 5 10 6 11 8 12
REMARK SMILES IDX 7 13 3 14 2 15 1 16 90 17 91 19 92 20 103 21 93 22 95 23
REMARK SMILES IDX 94 24 96 25 97 26 98 27 99 28 102 29 100 30 101 31 17 32
REMARK SMILES IDX 18 33 19 34 20 35 21 36 22 37 23 38 24 39 25 40 26 41 27 42
REMARK SMILES IDX 28 43 89 44 29 45 88 46 30 47 31 48 32 49 82 50 33 51 87 52
REMARK SMILES IDX 81 53 83 54 34 55 86 56 80 57 79 58 35 60 67 61 47 62 66 63
REMARK SMILES IDX 48 64 51 65 65 66 84 67 49 68 50 69 64 71 85 72 52 73 36 74
REMARK SMILES IDX 37 75 45 76 38 77 44 78 46 79 43 80 39 81 40 82 41 83 42 84
REMARK SMILES IDX 68 85 69 86 77 87 70 88 76 89 78 90 75 91 71 92 72 93 73 94
REMARK SMILES IDX 74 95 53 96 54 97 62 98 55 99 61 100 63 101 60 102 56 103
REMARK SMILES IDX 57 104 58 105 59 106
REMARK H PARENT 90 18 83 59 51 70
REMARK Flexibility Score: inf
ROOT
ATOM      1  C   UNL A   1      40.205  28.849  29.873  1.00  0.00     0.188 C 
ENDROOT
BRANCH   1   2
ATOM      2  O   UNL A   1      40.883  28.089  28.889  1.00  0.00    -0.376 OA
BRANCH   2   3
ATOM      3  C   UNL A   1      40.348  26.837  28.495  1.00  0.00     0.202 C 
BRANCH   3   4
ATOM      4  C   UNL A   1      40.128  26.585  27.001  1.00  0.00     0.261 C 
BRANCH   4   5
ATOM      5  O   UNL A   1      40.294  25.221  26.601  1.00  0.00    -0.460 OA
BRANCH   5   6
ATOM      6  C   UNL A   1      39.296  24.351  26.848  1.00  0.00     0.338 C 
ATOM      7  O   UNL A   1      38.102  24.598  26.847  1.00  0.00    -0.246 OA
BRANCH   6   8
ATOM      8  C   UNL A   1      39.873  22.974  26.917  1.00  0.00     0.063 A 
ATOM      9  C   UNL A   1      39.478  21.903  26.081  1.00  0.00    -0.024 A 
ATOM     10  C   UNL A   1      40.022  20.627  26.330  1.00  0.00     0.005 A 
ATOM     11  C   UNL A   1      40.946  20.422  27.356  1.00  0.00     0.000 A 
ATOM     12  C   UNL A   1      40.793  22.749  27.955  1.00  0.00     0.016 A 
ATOM     13  C   UNL A   1      41.324  21.479  28.174  1.00  0.00     0.001 A 
BRANCH   9  14
ATOM     14  C   UNL A   1      38.415  22.094  25.014  1.00  0.00     0.136 C 
BRANCH  14  15
ATOM     15  C   UNL A   1      37.002  21.773  25.427  1.00  0.00     0.228 C 
ATOM     16  O   UNL A   1      36.639  20.609  25.576  1.00  0.00    -0.274 OA
ATOM     17  N   UNL A   1      36.185  22.891  25.562  1.00  0.00    -0.326 N 
ATOM     18  H   UNL A   1      36.533  23.770  25.286  1.00  0.00     0.169 HD
BRANCH  17  19
ATOM     19  C   UNL A   1      34.879  22.809  26.075  1.00  0.00     0.044 A 
ATOM     20  C   UNL A   1      34.669  22.299  27.352  1.00  0.00     0.026 A 
ATOM     21  C   UNL A   1      33.799  23.276  25.326  1.00  0.00     0.072 A 
ATOM     22  C   UNL A   1      33.391  22.365  27.910  1.00  0.00     0.006 A 
ATOM     23  C   UNL A   1      32.530  23.388  25.885  1.00  0.00     0.121 A 
ATOM     24  C   UNL A   1      32.332  22.927  27.186  1.00  0.00     0.046 A 
BRANCH  23  25
ATOM     25  O   UNL A   1      31.452  23.976  25.275  1.00  0.00    -0.491 OA
BRANCH  25  26
ATOM     26  C   UNL A   1      30.458  24.568  26.130  1.00  0.00     0.261 C 
BRANCH  26  27
ATOM     27  C   UNL A   1      30.299  26.080  25.927  1.00  0.00     0.156 C 
ATOM     28  C   UNL A   1      30.769  26.605  24.583  1.00  0.00     0.038 C 
ATOM     29  O   UNL A   1      31.064  26.796  26.911  1.00  0.00    -0.375 OA
ATOM     30  C   UNL A   1      30.976  28.067  24.909  1.00  0.00     0.031 C 
ATOM     31  C   UNL A   1      31.542  28.010  26.316  1.00  0.00     0.161 C 
ENDBRANCH  26  27
ENDBRANCH  25  26
ENDBRANCH  23  25
ENDBRANCH  17  19
ENDBRANCH  14  15
ENDBRANCH   9  14
ENDBRANCH   6   8
ENDBRANCH   5   6
ENDBRANCH   4   5
ENDBRANCH   3   4
ENDBRANCH   2   3
ENDBRANCH   1   2
BRANCH   1  32
ATOM     32  C   UNL A   1      39.404  28.012  30.895  1.00  0.00     0.188 C 
BRANCH  32  33
ATOM     33  O   UNL A   1      39.614  28.176  32.291  1.00  0.00    -0.377 OA
BRANCH  33  34
ATOM     34  C   UNL A   1      40.191  29.379  32.790  1.00  0.00     0.188 C 
BRANCH  34  35
ATOM     35  C   UNL A   1      41.082  29.352  34.052  1.00  0.00     0.188 C 
BRANCH  35  36
ATOM     36  O   UNL A   1      40.825  28.264  34.928  1.00  0.00    -0.376 OA
BRANCH  36  37
ATOM     37  C   UNL A   1      41.587  28.207  36.121  1.00  0.00     0.202 C 
BRANCH  37  38
ATOM     38  C   UNL A   1      42.015  26.819  36.620  1.00  0.00     0.261 C 
BRANCH  38  39
ATOM     39  O   UNL A   1      42.006  25.759  35.654  1.00  0.00    -0.460 OA
BRANCH  39  40
ATOM     40  C   UNL A   1      43.062  24.915  35.631  1.00  0.00     0.338 C 
ATOM     41  O   UNL A   1      43.201  23.899  36.290  1.00  0.00    -0.246 OA
BRANCH  40  42
ATOM     42  C   UNL A   1      43.937  25.348  34.522  1.00  0.00     0.060 A 
ATOM     43  C   UNL A   1      43.554  26.430  33.717  1.00  0.00     0.016 A 
ATOM     44  C   UNL A   1      45.161  24.708  34.312  1.00  0.00     0.016 A 
ATOM     45  C   UNL A   1      44.395  26.868  32.691  1.00  0.00     0.010 A 
ATOM     46  C   UNL A   1      45.988  25.132  33.268  1.00  0.00     0.010 A 
ATOM     47  C   UNL A   1      45.601  26.201  32.441  1.00  0.00    -0.014 A 
BRANCH  47  48
ATOM     48  C   UNL A   1      46.382  26.489  31.213  1.00  0.00     0.031 A 
ATOM     49  C   UNL A   1      46.025  25.748  29.954  1.00  0.00     0.074 A 
ATOM     50  C   UNL A   1      47.391  27.378  31.212  1.00  0.00     0.049 A 
ATOM     51  N   UNL A   1      46.622  25.740  28.792  1.00  0.00    -0.248 NA
ATOM     52  C   UNL A   1      44.832  24.890  30.029  1.00  0.00     0.031 C 
ATOM     53  C   UNL A   1      47.796  28.194  32.354  1.00  0.00     0.029 A 
ATOM     54  N   UNL A   1      48.268  27.731  30.216  1.00  0.00    -0.354 N 
ATOM     55  C   UNL A   1      45.883  24.872  27.995  1.00  0.00     0.074 A 
ATOM     56  C   UNL A   1      44.820  24.344  28.823  1.00  0.00     0.031 C 
ATOM     57  C   UNL A   1      48.852  28.948  31.996  1.00  0.00     0.029 A 
ATOM     58  C   UNL A   1      49.227  28.631  30.618  1.00  0.00     0.049 A 
ATOM     59  H   UNL A   1      48.215  27.372  29.300  1.00  0.00     0.167 HD
ATOM     60  C   UNL A   1      46.073  24.551  26.692  1.00  0.00     0.034 A 
ATOM     61  C   UNL A   1      50.302  29.112  29.960  1.00  0.00     0.034 A 
ATOM     62  C   UNL A   1      47.155  25.068  25.891  1.00  0.00     0.049 A 
ATOM     63  C   UNL A   1      50.566  28.647  28.546  1.00  0.00     0.074 A 
ATOM     64  C   UNL A   1      47.441  24.812  24.561  1.00  0.00     0.029 A 
ATOM     65  N   UNL A   1      48.142  25.933  26.349  1.00  0.00    -0.354 N 
ATOM     66  N   UNL A   1      49.864  27.824  27.799  1.00  0.00    -0.248 NA
ATOM     67  C   UNL A   1      51.769  29.174  27.887  1.00  0.00     0.031 C 
ATOM     68  C   UNL A   1      48.643  25.451  24.240  1.00  0.00     0.029 A 
ATOM     69  C   UNL A   1      49.060  26.185  25.340  1.00  0.00     0.049 A 
ATOM     70  H   UNL A   1      48.183  26.311  27.256  1.00  0.00     0.167 HD
ATOM     71  C   UNL A   1      50.526  27.764  26.573  1.00  0.00     0.074 A 
ATOM     72  C   UNL A   1      51.674  28.641  26.678  1.00  0.00     0.031 C 
ATOM     73  C   UNL A   1      50.210  27.053  25.460  1.00  0.00     0.034 A 
BRANCH  60  74
ATOM     74  C   UNL A   1      45.120  23.549  26.084  1.00  0.00     0.023 A 
ATOM     75  C   UNL A   1      45.476  22.199  25.913  1.00  0.00     0.031 A 
ATOM     76  C   UNL A   1      43.856  23.959  25.622  1.00  0.00     0.131 A 
ATOM     77  C   UNL A   1      44.615  21.330  25.224  1.00  0.00     0.055 A 
ATOM     78  C   UNL A   1      42.968  23.068  25.018  1.00  0.00     0.041 A 
ATOM     79  F   UNL A   1      43.471  25.240  25.733  1.00  0.00    -0.206 F 
ATOM     80  C   UNL A   1      43.353  21.749  24.801  1.00  0.00     0.022 A 
BRANCH  77  81
ATOM     81  S   UNL A   1      45.241  19.698  24.743  1.00  0.00     0.124 S 
ATOM     82  O   UNL A   1      44.555  18.826  25.694  1.00  0.00    -0.237 OA
ATOM     83  O   UNL A   1      44.811  19.592  23.353  1.00  0.00    -0.237 OA
ATOM     84  O   UNL A   1      46.684  19.811  24.943  1.00  0.00    -0.744 OA
ENDBRANCH  77  81
ENDBRANCH  60  74
BRANCH  61  85
ATOM     85  C   UNL A   1      51.244  30.056  30.632  1.00  0.00     0.023 A 
ATOM     86  C   UNL A   1      51.123  31.444  30.466  1.00  0.00     0.031 A 
ATOM     87  C   UNL A   1      52.318  29.577  31.406  1.00  0.00     0.131 A 
ATOM     88  C   UNL A   1      52.080  32.304  31.028  1.00  0.00     0.055 A 
ATOM     89  C   UNL A   1      53.232  30.439  32.014  1.00  0.00     0.041 A 
ATOM     90  F   UNL A   1      52.493  28.258  31.582  1.00  0.00    -0.206 F 
ATOM     91  C   UNL A   1      53.123  31.812  31.816  1.00  0.00     0.022 A 
BRANCH  88  92
ATOM     92  S   UNL A   1      51.996  34.074  30.637  1.00  0.00     0.124 S 
ATOM     93  O   UNL A   1      53.385  34.483  30.813  1.00  0.00    -0.237 OA
ATOM     94  O   UNL A   1      51.500  34.058  29.265  1.00  0.00    -0.237 OA
ATOM     95  O   UNL A   1      51.061  34.598  31.629  1.00  0.00    -0.744 OA
ENDBRANCH  88  92
ENDBRANCH  61  85
BRANCH  73  96
ATOM     96  C   UNL A   1      51.090  27.234  24.245  1.00  0.00     0.023 A 
ATOM     97  C   UNL A   1      50.829  28.218  23.275  1.00  0.00     0.031 A 
ATOM     98  C   UNL A   1      52.217  26.411  24.062  1.00  0.00     0.131 A 
ATOM     99  C   UNL A   1      51.654  28.322  22.143  1.00  0.00     0.055 A 
ATOM    100  C   UNL A   1      53.071  26.562  22.969  1.00  0.00     0.041 A 
ATOM    101  F   UNL A   1      52.514  25.451  24.953  1.00  0.00    -0.206 F 
ATOM    102  C   UNL A   1      52.785  27.514  21.995  1.00  0.00     0.022 A 
BRANCH  99 103
ATOM    103  S   UNL A   1      51.184  29.472  20.821  1.00  0.00     0.124 S 
ATOM    104  O   UNL A   1      52.126  30.568  21.024  1.00  0.00    -0.237 OA
ATOM    105  O   UNL A   1      51.390  28.669  19.620  1.00  0.00    -0.237 OA
ATOM    106  O   UNL A   1      49.790  29.790  21.122  1.00  0.00    -0.744 OA
ENDBRANCH  99 103
ENDBRANCH  73  96
ENDBRANCH  47  48
ENDBRANCH  40  42
ENDBRANCH  39  40
ENDBRANCH  38  39
ENDBRANCH  37  38
ENDBRANCH  36  37
ENDBRANCH  35  36
ENDBRANCH  34  35
ENDBRANCH  33  34
ENDBRANCH  32  33
ENDBRANCH   1  32
TORSDOF 29
ENDMDL
MODEL 3
REMARK VINA RESULT:      -8.8      4.771      8.211
REMARK SMILES O=C(Cc1ccccc1C(=O)OCCOCCOCCOCCOC(=O)c1ccc(-c2c3nc(c(-c4cc(S(=O)(=O)[O-])ccc4F)c4ccc([nH]4)c(-c4cc(S(=O)(=O)[O-])ccc4F)c4nc(c(-c5cc(S(=O)(=O)[O-])ccc5F)c5ccc2[nH]5)C=C4)C=C3)cc1)Nc1cccc(OC[C@@H]2CCCO2)c1
REMARK SMILES IDX 16 1 15 2 14 3 13 4 12 5 10 6 11 7 9 8 4 9 5 10 6 11 8 12
REMARK SMILES IDX 7 13 3 14 2 15 1 16 90 17 91 19 92 20 103 21 93 22 95 23
REMARK SMILES IDX 94 24 96 25 97 26 98 27 99 28 102 29 100 30 101 31 17 32
REMARK SMILES IDX 18 33 19 34 20 35 21 36 22 37 23 38 24 39 25 40 26 41 27 42
REMARK SMILES IDX 28 43 89 44 29 45 88 46 30 47 31 48 32 49 82 50 33 51 87 52
REMARK SMILES IDX 81 53 83 54 34 55 86 56 80 57 79 58 35 60 67 61 47 62 66 63
REMARK SMILES IDX 48 64 51 65 65 66 84 67 49 68 50 69 64 71 85 72 52 73 36 74
REMARK SMILES IDX 37 75 45 76 38 77 44 78 46 79 43 80 39 81 40 82 41 83 42 84
REMARK SMILES IDX 68 85 69 86 77 87 70 88 76 89 78 90 75 91 71 92 72 93 73 94
REMARK SMILES IDX 74 95 53 96 54 97 62 98 55 99 61 100 63 101 60 102 56 103
REMARK SMILES IDX 57 104 58 105 59 106
REMARK H PARENT 90 18 83 59 51 70
REMARK Flexibility Score: inf
ROOT
ATOM      1  C   UNL A   1      33.111  27.750  25.678  1.00  0.00     0.188 C 
ENDROOT
BRANCH   1   2
ATOM      2  O   UNL A   1      33.704  27.007  24.629  1.00  0.00    -0.376 OA
BRANCH   2   3
ATOM      3  C   UNL A   1      33.006  26.867  23.404  1.00  0.00     0.202 C 
BRANCH   3   4
ATOM      4  C   UNL A   1      33.310  25.640  22.538  1.00  0.00     0.261 C 
BRANCH   4   5
ATOM      5  O   UNL A   1      33.997  24.589  23.223  1.00  0.00    -0.460 OA
BRANCH   5   6
ATOM      6  C   UNL A   1      33.374  23.406  23.380  1.00  0.00     0.338 C 
ATOM      7  O   UNL A   1      33.111  22.603  22.502  1.00  0.00    -0.246 OA
BRANCH   6   8
ATOM      8  C   UNL A   1      33.240  23.130  24.843  1.00  0.00     0.063 A 
ATOM      9  C   UNL A   1      34.151  22.349  25.592  1.00  0.00    -0.024 A 
ATOM     10  C   UNL A   1      33.843  22.074  26.940  1.00  0.00     0.005 A 
ATOM     11  C   UNL A   1      32.684  22.576  27.534  1.00  0.00     0.000 A 
ATOM     12  C   UNL A   1      32.070  23.617  25.451  1.00  0.00     0.016 A 
ATOM     13  C   UNL A   1      31.794  23.339  26.789  1.00  0.00     0.001 A 
BRANCH   9  14
ATOM     14  C   UNL A   1      35.372  21.730  24.938  1.00  0.00     0.136 C 
BRANCH  14  15
ATOM     15  C   UNL A   1      36.648  22.526  25.036  1.00  0.00     0.228 C 
ATOM     16  O   UNL A   1      36.900  23.412  24.222  1.00  0.00    -0.274 OA
ATOM     17  N   UNL A   1      37.486  22.126  26.071  1.00  0.00    -0.326 N 
ATOM     18  H   UNL A   1      37.257  21.316  26.582  1.00  0.00     0.169 HD
BRANCH  17  19
ATOM     19  C   UNL A   1      38.650  22.836  26.411  1.00  0.00     0.044 A 
ATOM     20  C   UNL A   1      38.547  24.084  27.016  1.00  0.00     0.026 A 
ATOM     21  C   UNL A   1      39.907  22.276  26.183  1.00  0.00     0.072 A 
ATOM     22  C   UNL A   1      39.702  24.710  27.489  1.00  0.00     0.006 A 
ATOM     23  C   UNL A   1      41.061  22.867  26.687  1.00  0.00     0.121 A 
ATOM     24  C   UNL A   1      40.951  24.093  27.342  1.00  0.00     0.046 A 
BRANCH  23  25
ATOM     25  O   UNL A   1      42.313  22.310  26.642  1.00  0.00    -0.491 OA
BRANCH  25  26
ATOM     26  C   UNL A   1      43.401  23.172  26.264  1.00  0.00     0.261 C 
BRANCH  26  27
ATOM     27  C   UNL A   1      44.330  22.558  25.209  1.00  0.00     0.156 C 
ATOM     28  C   UNL A   1      45.414  21.648  25.754  1.00  0.00     0.038 C 
ATOM     29  O   UNL A   1      45.019  23.596  24.492  1.00  0.00    -0.375 OA
ATOM     30  C   UNL A   1      46.402  21.670  24.609  1.00  0.00     0.031 C 
ATOM     31  C   UNL A   1      46.323  23.112  24.138  1.00  0.00     0.161 C 
ENDBRANCH  26  27
ENDBRANCH  25  26
ENDBRANCH  23  25
ENDBRANCH  17  19
ENDBRANCH  14  15
ENDBRANCH   9  14
ENDBRANCH   6   8
ENDBRANCH   5   6
ENDBRANCH   4   5
ENDBRANCH   3   4
ENDBRANCH   2   3
ENDBRANCH   1   2
BRANCH   1  32
ATOM     32  C   UNL A   1      34.109  28.546  26.548  1.00  0.00     0.188 C 
BRANCH  32  33
ATOM     33  O   UNL A   1      33.757  29.814  27.082  1.00  0.00    -0.377 OA
BRANCH  33  34
ATOM     34  C   UNL A   1      34.715  30.572  27.814  1.00  0.00     0.188 C 
BRANCH  34  35
ATOM     35  C   UNL A   1      34.368  31.991  28.318  1.00  0.00     0.188 C 
BRANCH  35  36
ATOM     36  O   UNL A   1      35.477  32.874  28.397  1.00  0.00    -0.376 OA
BRANCH  36  37
ATOM     37  C   UNL A   1      35.920  33.235  29.694  1.00  0.00     0.202 C 
BRANCH  37  38
ATOM     38  C   UNL A   1      34.983  32.930  30.871  1.00  0.00     0.261 C 
BRANCH  38  39
ATOM     39  O   UNL A   1      35.356  31.834  31.719  1.00  0.00    -0.460 OA
BRANCH  39  40
ATOM     40  C   UNL A   1      36.063  32.112  32.838  1.00  0.00     0.338 C 
ATOM     41  O   UNL A   1      35.635  32.589  33.875  1.00  0.00    -0.246 OA
BRANCH  40  42
ATOM     42  C   UNL A   1      37.418  31.557  32.640  1.00  0.00     0.060 A 
ATOM     43  C   UNL A   1      38.505  32.114  33.327  1.00  0.00     0.016 A 
ATOM     44  C   UNL A   1      37.600  30.451  31.806  1.00  0.00     0.016 A 
ATOM     45  C   UNL A   1      39.782  31.568  33.173  1.00  0.00     0.010 A 
ATOM     46  C   UNL A   1      38.882  29.924  31.633  1.00  0.00     0.010 A 
ATOM     47  C   UNL A   1      39.982  30.491  32.301  1.00  0.00    -0.014 A 
BRANCH  47  48
ATOM     48  C   UNL A   1      41.355  30.062  31.936  1.00  0.00     0.031 A 
ATOM     49  C   UNL A   1      42.086  30.843  30.879  1.00  0.00     0.074 A 
ATOM     50  C   UNL A   1      41.938  28.999  32.518  1.00  0.00     0.049 A 
ATOM     51  N   UNL A   1      43.238  30.603  30.312  1.00  0.00    -0.248 NA
ATOM     52  C   UNL A   1      41.410  32.055  30.392  1.00  0.00     0.031 C 
ATOM     53  C   UNL A   1      41.353  28.197  33.590  1.00  0.00     0.029 A 
ATOM     54  N   UNL A   1      43.153  28.406  32.277  1.00  0.00    -0.354 N 
ATOM     55  C   UNL A   1      43.426  31.632  29.394  1.00  0.00     0.074 A 
ATOM     56  C   UNL A   1      42.248  32.471  29.456  1.00  0.00     0.031 C 
ATOM     57  C   UNL A   1      42.207  27.207  33.907  1.00  0.00     0.029 A 
ATOM     58  C   UNL A   1      43.374  27.276  33.029  1.00  0.00     0.049 A 
ATOM     59  H   UNL A   1      43.803  28.756  31.626  1.00  0.00     0.167 HD
ATOM     60  C   UNL A   1      44.487  31.856  28.581  1.00  0.00     0.034 A 
ATOM     61  C   UNL A   1      44.385  26.383  32.985  1.00  0.00     0.034 A 
ATOM     62  C   UNL A   1      45.641  30.993  28.515  1.00  0.00     0.049 A 
ATOM     63  C   UNL A   1      45.500  26.585  31.984  1.00  0.00     0.074 A 
ATOM     64  C   UNL A   1      46.772  31.126  27.729  1.00  0.00     0.029 A 
ATOM     65  N   UNL A   1      45.804  29.825  29.250  1.00  0.00    -0.354 N 
ATOM     66  N   UNL A   1      45.671  27.558  31.118  1.00  0.00    -0.248 NA
ATOM     67  C   UNL A   1      46.557  25.564  31.954  1.00  0.00     0.031 C 
ATOM     68  C   UNL A   1      47.577  29.998  27.924  1.00  0.00     0.029 A 
ATOM     69  C   UNL A   1      46.996  29.206  28.904  1.00  0.00     0.049 A 
ATOM     70  H   UNL A   1      45.166  29.486  29.918  1.00  0.00     0.167 HD
ATOM     71  C   UNL A   1      46.871  27.281  30.465  1.00  0.00     0.074 A 
ATOM     72  C   UNL A   1      47.386  26.059  31.045  1.00  0.00     0.031 C 
ATOM     73  C   UNL A   1      47.495  27.979  29.481  1.00  0.00     0.034 A 
BRANCH  60  74
ATOM     74  C   UNL A   1      44.408  33.050  27.658  1.00  0.00     0.023 A 
ATOM     75  C   UNL A   1      44.623  34.360  28.123  1.00  0.00     0.031 A 
ATOM     76  C   UNL A   1      44.063  32.881  26.305  1.00  0.00     0.131 A 
ATOM     77  C   UNL A   1      44.411  35.450  27.266  1.00  0.00     0.055 A 
ATOM     78  C   UNL A   1      43.941  33.965  25.435  1.00  0.00     0.041 A 
ATOM     79  F   UNL A   1      43.818  31.657  25.810  1.00  0.00    -0.206 F 
ATOM     80  C   UNL A   1      44.098  35.261  25.918  1.00  0.00     0.022 A 
BRANCH  77  81
ATOM     81  S   UNL A   1      44.382  37.117  27.980  1.00  0.00     0.124 S 
ATOM     82  O   UNL A   1      43.833  37.902  26.876  1.00  0.00    -0.237 OA
ATOM     83  O   UNL A   1      43.514  36.949  29.139  1.00  0.00    -0.237 OA
ATOM     84  O   UNL A   1      45.787  37.383  28.284  1.00  0.00    -0.744 OA
ENDBRANCH  77  81
ENDBRANCH  60  74
BRANCH  61  85
ATOM     85  C   UNL A   1      44.381  25.188  33.880  1.00  0.00     0.023 A 
ATOM     86  C   UNL A   1      44.731  25.294  35.235  1.00  0.00     0.031 A 
ATOM     87  C   UNL A   1      44.085  23.908  33.376  1.00  0.00     0.131 A 
ATOM     88  C   UNL A   1      44.815  24.140  36.031  1.00  0.00     0.055 A 
ATOM     89  C   UNL A   1      44.110  22.771  34.186  1.00  0.00     0.041 A 
ATOM     90  F   UNL A   1      43.763  23.744  32.083  1.00  0.00    -0.206 F 
ATOM     91  C   UNL A   1      44.489  22.882  35.520  1.00  0.00     0.022 A 
BRANCH  88  92
ATOM     92  S   UNL A   1      45.448  24.296  37.724  1.00  0.00     0.124 S 
ATOM     93  O   UNL A   1      45.649  22.899  38.095  1.00  0.00    -0.237 OA
ATOM     94  O   UNL A   1      46.658  25.087  37.525  1.00  0.00    -0.237 OA
ATOM     95  O   UNL A   1      44.368  24.980  38.430  1.00  0.00    -0.744 OA
ENDBRANCH  88  92
ENDBRANCH  61  85
BRANCH  73  96
ATOM     96  C   UNL A   1      48.832  27.463  29.002  1.00  0.00     0.023 A 
ATOM     97  C   UNL A   1      50.047  27.953  29.514  1.00  0.00     0.031 A 
ATOM     98  C   UNL A   1      48.890  26.454  28.022  1.00  0.00     0.131 A 
ATOM     99  C   UNL A   1      51.265  27.470  29.010  1.00  0.00     0.055 A 
ATOM    100  C   UNL A   1      50.102  25.932  27.571  1.00  0.00     0.041 A 
ATOM    101  F   UNL A   1      47.762  25.951  27.493  1.00  0.00    -0.206 F 
ATOM    102  C   UNL A   1      51.300  26.448  28.057  1.00  0.00     0.022 A 
BRANCH  99 103
ATOM    103  S   UNL A   1      52.809  28.253  29.553  1.00  0.00     0.124 S 
ATOM    104  O   UNL A   1      52.321  29.470  30.193  1.00  0.00    -0.237 OA
ATOM    105  O   UNL A   1      53.375  27.246  30.444  1.00  0.00    -0.237 OA
ATOM    106  O   UNL A   1      53.545  28.461  28.307  1.00  0.00    -0.744 OA
ENDBRANCH  99 103
ENDBRANCH  73  96
ENDBRANCH  47  48
ENDBRANCH  40  42
ENDBRANCH  39  40
ENDBRANCH  38  39
ENDBRANCH  37  38
ENDBRANCH  36  37
ENDBRANCH  35  36
ENDBRANCH  34  35
ENDBRANCH  33  34
ENDBRANCH  32  33
ENDBRANCH   1  32
TORSDOF 29
ENDMDL
