MODEL 1
REMARK VINA RESULT:      -8.6      0.000      0.000
REMARK SMILES O=C(OCCOCCOCCOCCOC(=O)c1ccc([C@@H]2CC(O)=Nc3c2ncn3-c2cccc(Cl)c2)cc1)c1ccc(-c2c3nc(c(-c4cc(S(=O)(=O)[O-])ccc4F)c4ccc([nH]4)c(-c4cc(S(=O)(=O)[O-])ccc4F)c4nc(c(-c5cc(S(=O)(=O)[O-])ccc5F)c5ccc2[nH]5)C=C4)C=C3)cc1
REMARK SMILES IDX 8 1 7 2 6 3 5 4 4 5 3 6 2 7 1 8 41 9 42 10 103 11 43 12
REMARK SMILES IDX 102 13 44 14 45 15 46 16 96 17 47 18 101 19 95 20 97 21
REMARK SMILES IDX 48 22 100 23 94 24 93 25 49 27 81 28 61 29 80 30 62 31 65 32
REMARK SMILES IDX 79 33 98 34 63 35 64 36 78 38 99 39 66 40 50 41 51 42 59 43
REMARK SMILES IDX 52 44 58 45 60 46 57 47 53 48 54 49 55 50 56 51 82 52 83 53
REMARK SMILES IDX 91 54 84 55 90 56 92 57 89 58 85 59 86 60 87 61 88 62 67 63
REMARK SMILES IDX 68 64 76 65 69 66 75 67 77 68 74 69 70 70 71 71 72 72 73 73
REMARK SMILES IDX 9 74 10 75 11 76 12 77 13 78 14 79 15 80 16 81 17 82 18 83
REMARK SMILES IDX 19 84 40 85 20 86 39 87 21 88 22 89 23 90 28 91 24 92 27 93
REMARK SMILES IDX 29 94 26 95 31 96 30 97 25 98 32 100 33 101 38 102 34 103
REMARK SMILES IDX 36 104 35 105 37 106
REMARK H PARENT 97 26 65 37 25 99
REMARK Flexibility Score: inf
ROOT
ATOM      1  C   UNL A   1      33.143  35.988  30.195  1.00  0.00     0.188 C 
ENDROOT
BRANCH   1   2
ATOM      2  C   UNL A   1      33.294  35.154  28.915  1.00  0.00     0.188 C 
BRANCH   2   3
ATOM      3  O   UNL A   1      34.090  33.982  28.769  1.00  0.00    -0.376 OA
BRANCH   3   4
ATOM      4  C   UNL A   1      33.666  32.662  28.511  1.00  0.00     0.202 C 
BRANCH   4   5
ATOM      5  C   UNL A   1      34.394  31.775  27.496  1.00  0.00     0.261 C 
BRANCH   5   6
ATOM      6  O   UNL A   1      35.721  31.378  27.830  1.00  0.00    -0.460 OA
BRANCH   6   7
ATOM      7  C   UNL A   1      36.185  30.152  28.153  1.00  0.00     0.338 C 
ATOM      8  O   UNL A   1      35.468  29.181  27.909  1.00  0.00    -0.246 OA
BRANCH   7   9
ATOM      9  C   UNL A   1      37.441  29.918  28.919  1.00  0.00     0.060 A 
ATOM     10  C   UNL A   1      38.622  30.652  28.790  1.00  0.00     0.016 A 
ATOM     11  C   UNL A   1      37.412  28.830  29.813  1.00  0.00     0.016 A 
ATOM     12  C   UNL A   1      39.779  30.246  29.417  1.00  0.00     0.010 A 
ATOM     13  C   UNL A   1      38.567  28.415  30.453  1.00  0.00     0.010 A 
ATOM     14  C   UNL A   1      39.758  29.076  30.159  1.00  0.00    -0.014 A 
BRANCH  14  15
ATOM     15  C   UNL A   1      41.053  28.467  30.400  1.00  0.00     0.031 A 
ATOM     16  C   UNL A   1      41.549  28.443  31.798  1.00  0.00     0.074 A 
ATOM     17  C   UNL A   1      41.716  27.961  29.343  1.00  0.00     0.049 A 
ATOM     18  N   UNL A   1      42.709  28.800  32.247  1.00  0.00    -0.248 NA
ATOM     19  C   UNL A   1      40.601  28.041  32.848  1.00  0.00     0.031 C 
ATOM     20  C   UNL A   1      41.208  27.794  27.974  1.00  0.00     0.029 A 
ATOM     21  N   UNL A   1      42.928  27.347  29.300  1.00  0.00    -0.354 N 
ATOM     22  C   UNL A   1      42.713  28.477  33.601  1.00  0.00     0.074 A 
ATOM     23  C   UNL A   1      41.355  28.140  33.941  1.00  0.00     0.031 C 
ATOM     24  C   UNL A   1      41.963  26.882  27.334  1.00  0.00     0.029 A 
ATOM     25  C   UNL A   1      43.068  26.514  28.199  1.00  0.00     0.049 A 
ATOM     26  H   UNL A   1      43.629  27.480  29.977  1.00  0.00     0.167 HD
ATOM     27  C   UNL A   1      43.869  28.311  34.299  1.00  0.00     0.034 A 
ATOM     28  C   UNL A   1      43.939  25.485  28.068  1.00  0.00     0.034 A 
ATOM     29  C   UNL A   1      44.959  29.041  33.703  1.00  0.00     0.049 A 
ATOM     30  C   UNL A   1      45.052  25.732  29.014  1.00  0.00     0.074 A 
ATOM     31  C   UNL A   1      45.193  30.378  33.441  1.00  0.00     0.029 A 
ATOM     32  N   UNL A   1      45.904  28.357  32.976  1.00  0.00    -0.354 N 
ATOM     33  N   UNL A   1      45.865  26.751  28.917  1.00  0.00    -0.248 NA
ATOM     34  C   UNL A   1      44.996  25.117  30.332  1.00  0.00     0.031 C 
ATOM     35  C   UNL A   1      45.912  30.395  32.211  1.00  0.00     0.029 A 
ATOM     36  C   UNL A   1      46.111  29.070  31.819  1.00  0.00     0.049 A 
ATOM     37  H   UNL A   1      46.349  27.517  33.233  1.00  0.00     0.167 HD
ATOM     38  C   UNL A   1      46.084  27.164  30.221  1.00  0.00     0.074 A 
ATOM     39  C   UNL A   1      45.627  26.052  31.050  1.00  0.00     0.031 C 
ATOM     40  C   UNL A   1      46.348  28.472  30.520  1.00  0.00     0.034 A 
BRANCH  27  41
ATOM     41  C   UNL A   1      44.074  27.229  35.338  1.00  0.00     0.023 A 
ATOM     42  C   UNL A   1      44.666  26.020  34.922  1.00  0.00     0.031 A 
ATOM     43  C   UNL A   1      43.470  27.207  36.616  1.00  0.00     0.131 A 
ATOM     44  C   UNL A   1      44.565  24.858  35.708  1.00  0.00     0.055 A 
ATOM     45  C   UNL A   1      43.434  26.067  37.424  1.00  0.00     0.041 A 
ATOM     46  F   UNL A   1      42.799  28.250  37.120  1.00  0.00    -0.206 F 
ATOM     47  C   UNL A   1      43.954  24.873  36.958  1.00  0.00     0.022 A 
BRANCH  44  48
ATOM     48  S   UNL A   1      45.067  23.275  34.980  1.00  0.00     0.124 S 
ATOM     49  O   UNL A   1      46.037  22.791  35.956  1.00  0.00    -0.237 OA
ATOM     50  O   UNL A   1      43.798  22.558  34.923  1.00  0.00    -0.237 OA
ATOM     51  O   UNL A   1      45.626  23.661  33.687  1.00  0.00    -0.744 OA
ENDBRANCH  44  48
ENDBRANCH  27  41
BRANCH  28  52
ATOM     52  C   UNL A   1      43.577  24.171  27.479  1.00  0.00     0.023 A 
ATOM     53  C   UNL A   1      44.267  23.615  26.390  1.00  0.00     0.031 A 
ATOM     54  C   UNL A   1      42.613  23.348  28.112  1.00  0.00     0.131 A 
ATOM     55  C   UNL A   1      43.960  22.305  25.958  1.00  0.00     0.055 A 
ATOM     56  C   UNL A   1      42.294  22.068  27.664  1.00  0.00     0.041 A 
ATOM     57  F   UNL A   1      41.994  23.737  29.239  1.00  0.00    -0.206 F 
ATOM     58  C   UNL A   1      42.971  21.537  26.582  1.00  0.00     0.022 A 
BRANCH  55  59
ATOM     59  S   UNL A   1      44.924  21.546  24.617  1.00  0.00     0.124 S 
ATOM     60  O   UNL A   1      46.228  21.358  25.240  1.00  0.00    -0.237 OA
ATOM     61  O   UNL A   1      44.161  20.336  24.333  1.00  0.00    -0.237 OA
ATOM     62  O   UNL A   1      44.886  22.554  23.556  1.00  0.00    -0.744 OA
ENDBRANCH  55  59
ENDBRANCH  28  52
BRANCH  40  63
ATOM     63  C   UNL A   1      46.643  29.427  29.381  1.00  0.00     0.023 A 
ATOM     64  C   UNL A   1      45.647  30.046  28.593  1.00  0.00     0.031 A 
ATOM     65  C   UNL A   1      47.972  29.848  29.202  1.00  0.00     0.131 A 
ATOM     66  C   UNL A   1      45.999  31.044  27.663  1.00  0.00     0.055 A 
ATOM     67  C   UNL A   1      48.315  30.846  28.288  1.00  0.00     0.041 A 
ATOM     68  F   UNL A   1      48.957  29.332  29.954  1.00  0.00    -0.206 F 
ATOM     69  C   UNL A   1      47.330  31.445  27.512  1.00  0.00     0.022 A 
BRANCH  66  70
ATOM     70  S   UNL A   1      44.720  31.854  26.647  1.00  0.00     0.124 S 
ATOM     71  O   UNL A   1      44.477  33.111  27.343  1.00  0.00    -0.237 OA
ATOM     72  O   UNL A   1      45.369  31.955  25.342  1.00  0.00    -0.237 OA
ATOM     73  O   UNL A   1      43.602  30.908  26.692  1.00  0.00    -0.744 OA
ENDBRANCH  66  70
ENDBRANCH  40  63
ENDBRANCH  14  15
ENDBRANCH   7   9
ENDBRANCH   6   7
ENDBRANCH   5   6
ENDBRANCH   4   5
ENDBRANCH   3   4
ENDBRANCH   2   3
ENDBRANCH   1   2
BRANCH   1  74
ATOM     74  O   UNL A   1      32.907  35.252  31.383  1.00  0.00    -0.377 OA
BRANCH  74  75
ATOM     75  C   UNL A   1      32.534  36.036  32.491  1.00  0.00     0.188 C 
BRANCH  75  76
ATOM     76  C   UNL A   1      33.720  36.695  33.227  1.00  0.00     0.188 C 
BRANCH  76  77
ATOM     77  O   UNL A   1      35.018  36.114  33.257  1.00  0.00    -0.376 OA
BRANCH  77  78
ATOM     78  C   UNL A   1      35.266  34.929  33.991  1.00  0.00     0.202 C 
BRANCH  78  79
ATOM     79  C   UNL A   1      34.554  33.641  33.556  1.00  0.00     0.261 C 
BRANCH  79  80
ATOM     80  O   UNL A   1      35.326  32.436  33.679  1.00  0.00    -0.460 OA
BRANCH  80  81
ATOM     81  C   UNL A   1      35.889  31.967  32.541  1.00  0.00     0.338 C 
ATOM     82  O   UNL A   1      35.332  31.714  31.483  1.00  0.00    -0.246 OA
BRANCH  81  83
ATOM     83  C   UNL A   1      37.358  31.954  32.695  1.00  0.00     0.060 A 
ATOM     84  C   UNL A   1      37.906  31.225  33.755  1.00  0.00     0.016 A 
ATOM     85  C   UNL A   1      38.191  32.630  31.804  1.00  0.00     0.016 A 
ATOM     86  C   UNL A   1      39.289  31.150  33.909  1.00  0.00     0.005 A 
ATOM     87  C   UNL A   1      39.578  32.605  32.001  1.00  0.00     0.005 A 
ATOM     88  C   UNL A   1      40.147  31.859  33.051  1.00  0.00    -0.038 A 
BRANCH  88  89
ATOM     89  C   UNL A   1      41.626  31.885  33.419  1.00  0.00     0.081 C 
ATOM     90  C   UNL A   1      41.826  32.692  34.718  1.00  0.00     0.111 C 
ATOM     91  C   UNL A   1      42.403  32.477  32.307  1.00  0.00     0.093 A 
ATOM     92  C   UNL A   1      42.286  34.123  34.493  1.00  0.00     0.188 C 
ATOM     93  C   UNL A   1      42.994  33.716  32.426  1.00  0.00     0.164 A 
ATOM     94  N   UNL A   1      42.588  31.940  31.066  1.00  0.00    -0.238 NA
ATOM     95  N   UNL A   1      42.902  34.594  33.457  1.00  0.00    -0.198 NA
ATOM     96  N   UNL A   1      43.546  33.972  31.185  1.00  0.00    -0.283 N 
ATOM     97  C   UNL A   1      43.240  32.875  30.403  1.00  0.00     0.206 A 
BRANCH  92  98
ATOM     98  O   UNL A   1      42.072  34.946  35.538  1.00  0.00    -0.496 OA
ATOM     99  H   UNL A   1      41.714  35.801  35.395  1.00  0.00     0.294 HD
ENDBRANCH  92  98
BRANCH  96 100
ATOM    100  C   UNL A   1      44.234  35.139  30.780  1.00  0.00     0.050 A 
ATOM    101  C   UNL A   1      43.517  36.243  30.304  1.00  0.00     0.027 A 
ATOM    102  C   UNL A   1      45.629  35.196  30.891  1.00  0.00     0.047 A 
ATOM    103  C   UNL A   1      44.197  37.420  29.984  1.00  0.00     0.004 A 
ATOM    104  C   UNL A   1      46.300  36.359  30.522  1.00  0.00     0.043 A 
ATOM    105  C   UNL A   1      45.589  37.476  30.086  1.00  0.00     0.020 A 
ATOM    106  Cl  UNL A   1      48.018  36.416  30.595  1.00  0.00    -0.084 Cl
ENDBRANCH  96 100
ENDBRANCH  88  89
ENDBRANCH  81  83
ENDBRANCH  80  81
ENDBRANCH  79  80
ENDBRANCH  78  79
ENDBRANCH  77  78
ENDBRANCH  76  77
ENDBRANCH  75  76
ENDBRANCH  74  75
ENDBRANCH   1  74
TORSDOF 26
ENDMDL
MODEL 2
REMARK VINA RESULT:      -8.6      2.633      3.606
REMARK SMILES O=C(OCCOCCOCCOCCOC(=O)c1ccc([C@@H]2CC(O)=Nc3c2ncn3-c2cccc(Cl)c2)cc1)c1ccc(-c2c3nc(c(-c4cc(S(=O)(=O)[O-])ccc4F)c4ccc([nH]4)c(-c4cc(S(=O)(=O)[O-])ccc4F)c4nc(c(-c5cc(S(=O)(=O)[O-])ccc5F)c5ccc2[nH]5)C=C4)C=C3)cc1
REMARK SMILES IDX 8 1 7 2 6 3 5 4 4 5 3 6 2 7 1 8 41 9 42 10 103 11 43 12
REMARK SMILES IDX 102 13 44 14 45 15 46 16 96 17 47 18 101 19 95 20 97 21
REMARK SMILES IDX 48 22 100 23 94 24 93 25 49 27 81 28 61 29 80 30 62 31 65 32
REMARK SMILES IDX 79 33 98 34 63 35 64 36 78 38 99 39 66 40 50 41 51 42 59 43
REMARK SMILES IDX 52 44 58 45 60 46 57 47 53 48 54 49 55 50 56 51 82 52 83 53
REMARK SMILES IDX 91 54 84 55 90 56 92 57 89 58 85 59 86 60 87 61 88 62 67 63
REMARK SMILES IDX 68 64 76 65 69 66 75 67 77 68 74 69 70 70 71 71 72 72 73 73
REMARK SMILES IDX 9 74 10 75 11 76 12 77 13 78 14 79 15 80 16 81 17 82 18 83
REMARK SMILES IDX 19 84 40 85 20 86 39 87 21 88 22 89 23 90 28 91 24 92 27 93
REMARK SMILES IDX 29 94 26 95 31 96 30 97 25 98 32 100 33 101 38 102 34 103
REMARK SMILES IDX 36 104 35 105 37 106
REMARK H PARENT 97 26 65 37 25 99
REMARK Flexibility Score: inf
ROOT
ATOM      1  C   UNL A   1      33.268  36.423  31.065  1.00  0.00     0.188 C 
ENDROOT
BRANCH   1   2
ATOM      2  C   UNL A   1      33.033  36.274  29.555  1.00  0.00     0.188 C 
BRANCH   2   3
ATOM      3  O   UNL A   1      32.530  35.116  28.896  1.00  0.00    -0.376 OA
BRANCH   3   4
ATOM      4  C   UNL A   1      33.209  34.241  28.025  1.00  0.00     0.202 C 
BRANCH   4   5
ATOM      5  C   UNL A   1      34.318  33.312  28.532  1.00  0.00     0.261 C 
BRANCH   5   6
ATOM      6  O   UNL A   1      34.969  32.503  27.556  1.00  0.00    -0.460 OA
BRANCH   6   7
ATOM      7  C   UNL A   1      35.359  31.213  27.645  1.00  0.00     0.338 C 
ATOM      8  O   UNL A   1      34.649  30.359  27.113  1.00  0.00    -0.246 OA
BRANCH   7   9
ATOM      9  C   UNL A   1      36.509  30.752  28.470  1.00  0.00     0.060 A 
ATOM     10  C   UNL A   1      37.489  31.573  29.032  1.00  0.00     0.016 A 
ATOM     11  C   UNL A   1      36.608  29.358  28.645  1.00  0.00     0.016 A 
ATOM     12  C   UNL A   1      38.605  31.032  29.631  1.00  0.00     0.010 A 
ATOM     13  C   UNL A   1      37.723  28.803  29.249  1.00  0.00     0.010 A 
ATOM     14  C   UNL A   1      38.754  29.655  29.641  1.00  0.00    -0.014 A 
BRANCH  14  15
ATOM     15  C   UNL A   1      40.107  29.175  29.853  1.00  0.00     0.031 A 
ATOM     16  C   UNL A   1      40.619  29.162  31.245  1.00  0.00     0.074 A 
ATOM     17  C   UNL A   1      40.807  28.770  28.775  1.00  0.00     0.049 A 
ATOM     18  N   UNL A   1      41.742  29.623  31.695  1.00  0.00    -0.248 NA
ATOM     19  C   UNL A   1      39.730  28.635  32.290  1.00  0.00     0.031 C 
ATOM     20  C   UNL A   1      40.302  28.591  27.406  1.00  0.00     0.029 A 
ATOM     21  N   UNL A   1      42.074  28.285  28.704  1.00  0.00    -0.354 N 
ATOM     22  C   UNL A   1      41.794  29.263  33.038  1.00  0.00     0.074 A 
ATOM     23  C   UNL A   1      40.482  28.778  33.379  1.00  0.00     0.031 C 
ATOM     24  C   UNL A   1      41.139  27.780  26.733  1.00  0.00     0.029 A 
ATOM     25  C   UNL A   1      42.286  27.503  27.577  1.00  0.00     0.049 A 
ATOM     26  H   UNL A   1      42.766  28.469  29.379  1.00  0.00     0.167 HD
ATOM     27  C   UNL A   1      42.969  29.196  33.722  1.00  0.00     0.034 A 
ATOM     28  C   UNL A   1      43.256  26.573  27.408  1.00  0.00     0.034 A 
ATOM     29  C   UNL A   1      43.972  30.050  33.138  1.00  0.00     0.049 A 
ATOM     30  C   UNL A   1      44.349  26.904  28.352  1.00  0.00     0.074 A 
ATOM     31  C   UNL A   1      44.065  31.411  32.913  1.00  0.00     0.029 A 
ATOM     32  N   UNL A   1      44.974  29.488  32.382  1.00  0.00    -0.354 N 
ATOM     33  N   UNL A   1      45.052  28.004  28.278  1.00  0.00    -0.248 NA
ATOM     34  C   UNL A   1      44.370  26.249  29.652  1.00  0.00     0.031 C 
ATOM     35  C   UNL A   1      44.765  31.537  31.679  1.00  0.00     0.029 A 
ATOM     36  C   UNL A   1      45.093  30.251  31.246  1.00  0.00     0.049 A 
ATOM     37  H   UNL A   1      45.505  28.690  32.611  1.00  0.00     0.167 HD
ATOM     38  C   UNL A   1      45.243  28.399  29.593  1.00  0.00     0.074 A 
ATOM     39  C   UNL A   1      44.911  27.223  30.391  1.00  0.00     0.031 C 
ATOM     40  C   UNL A   1      45.375  29.718  29.928  1.00  0.00     0.034 A 
BRANCH  27  41
ATOM     41  C   UNL A   1      43.295  28.111  34.726  1.00  0.00     0.023 A 
ATOM     42  C   UNL A   1      43.848  26.910  34.241  1.00  0.00     0.031 A 
ATOM     43  C   UNL A   1      42.834  28.078  36.062  1.00  0.00     0.131 A 
ATOM     44  C   UNL A   1      43.844  25.743  35.027  1.00  0.00     0.055 A 
ATOM     45  C   UNL A   1      42.896  26.934  36.863  1.00  0.00     0.041 A 
ATOM     46  F   UNL A   1      42.214  29.112  36.641  1.00  0.00    -0.206 F 
ATOM     47  C   UNL A   1      43.373  25.747  36.336  1.00  0.00     0.022 A 
BRANCH  44  48
ATOM     48  S   UNL A   1      44.277  24.168  34.240  1.00  0.00     0.124 S 
ATOM     49  O   UNL A   1      45.634  23.952  34.729  1.00  0.00    -0.237 OA
ATOM     50  O   UNL A   1      43.251  23.278  34.771  1.00  0.00    -0.237 OA
ATOM     51  O   UNL A   1      44.171  24.464  32.813  1.00  0.00    -0.744 OA
ENDBRANCH  44  48
ENDBRANCH  27  41
BRANCH  28  52
ATOM     52  C   UNL A   1      43.023  25.245  26.784  1.00  0.00     0.023 A 
ATOM     53  C   UNL A   1      41.985  24.392  27.188  1.00  0.00     0.031 A 
ATOM     54  C   UNL A   1      43.752  24.864  25.630  1.00  0.00     0.131 A 
ATOM     55  C   UNL A   1      41.734  23.200  26.470  1.00  0.00     0.055 A 
ATOM     56  C   UNL A   1      43.519  23.674  24.943  1.00  0.00     0.041 A 
ATOM     57  F   UNL A   1      44.675  25.674  25.087  1.00  0.00    -0.206 F 
ATOM     58  C   UNL A   1      42.503  22.835  25.360  1.00  0.00     0.022 A 
BRANCH  55  59
ATOM     59  S   UNL A   1      40.325  22.147  26.928  1.00  0.00     0.124 S 
ATOM     60  O   UNL A   1      39.253  23.121  27.098  1.00  0.00    -0.237 OA
ATOM     61  O   UNL A   1      40.216  21.257  25.778  1.00  0.00    -0.237 OA
ATOM     62  O   UNL A   1      40.771  21.499  28.162  1.00  0.00    -0.744 OA
ENDBRANCH  55  59
ENDBRANCH  28  52
BRANCH  40  63
ATOM     63  C   UNL A   1      45.558  30.730  28.815  1.00  0.00     0.023 A 
ATOM     64  C   UNL A   1      46.812  31.251  28.420  1.00  0.00     0.031 A 
ATOM     65  C   UNL A   1      44.442  31.046  28.022  1.00  0.00     0.131 A 
ATOM     66  C   UNL A   1      46.912  32.061  27.271  1.00  0.00     0.055 A 
ATOM     67  C   UNL A   1      44.547  31.839  26.878  1.00  0.00     0.041 A 
ATOM     68  F   UNL A   1      43.233  30.543  28.317  1.00  0.00    -0.206 F 
ATOM     69  C   UNL A   1      45.782  32.353  26.500  1.00  0.00     0.022 A 
BRANCH  66  70
ATOM     70  S   UNL A   1      48.525  32.731  26.751  1.00  0.00     0.124 S 
ATOM     71  O   UNL A   1      49.339  31.540  26.546  1.00  0.00    -0.237 OA
ATOM     72  O   UNL A   1      48.181  33.490  25.550  1.00  0.00    -0.237 OA
ATOM     73  O   UNL A   1      48.932  33.558  27.889  1.00  0.00    -0.744 OA
ENDBRANCH  66  70
ENDBRANCH  40  63
ENDBRANCH  14  15
ENDBRANCH   7   9
ENDBRANCH   6   7
ENDBRANCH   5   6
ENDBRANCH   4   5
ENDBRANCH   3   4
ENDBRANCH   2   3
ENDBRANCH   1   2
BRANCH   1  74
ATOM     74  O   UNL A   1      32.799  35.353  31.867  1.00  0.00    -0.377 OA
BRANCH  74  75
ATOM     75  C   UNL A   1      33.773  34.787  32.713  1.00  0.00     0.188 C 
BRANCH  75  76
ATOM     76  C   UNL A   1      34.501  33.567  32.112  1.00  0.00     0.188 C 
BRANCH  76  77
ATOM     77  O   UNL A   1      35.852  33.254  32.424  1.00  0.00    -0.376 OA
BRANCH  77  78
ATOM     78  C   UNL A   1      36.735  34.249  32.909  1.00  0.00     0.202 C 
BRANCH  78  79
ATOM     79  C   UNL A   1      38.033  34.512  32.134  1.00  0.00     0.261 C 
BRANCH  79  80
ATOM     80  O   UNL A   1      39.205  34.709  32.939  1.00  0.00    -0.460 OA
BRANCH  80  81
ATOM     81  C   UNL A   1      40.079  33.676  32.984  1.00  0.00     0.338 C 
ATOM     82  O   UNL A   1      40.010  32.670  33.674  1.00  0.00    -0.246 OA
BRANCH  81  83
ATOM     83  C   UNL A   1      41.094  33.850  31.925  1.00  0.00     0.060 A 
ATOM     84  C   UNL A   1      42.056  34.853  32.089  1.00  0.00     0.016 A 
ATOM     85  C   UNL A   1      41.117  33.034  30.796  1.00  0.00     0.016 A 
ATOM     86  C   UNL A   1      43.057  35.021  31.135  1.00  0.00     0.005 A 
ATOM     87  C   UNL A   1      42.088  33.250  29.808  1.00  0.00     0.005 A 
ATOM     88  C   UNL A   1      43.075  34.240  29.966  1.00  0.00    -0.038 A 
BRANCH  88  89
ATOM     89  C   UNL A   1      44.080  34.632  28.889  1.00  0.00     0.081 C 
ATOM     90  C   UNL A   1      45.476  34.816  29.520  1.00  0.00     0.111 C 
ATOM     91  C   UNL A   1      43.634  35.879  28.227  1.00  0.00     0.093 A 
ATOM     92  C   UNL A   1      45.843  36.263  29.801  1.00  0.00     0.188 C 
ATOM     93  C   UNL A   1      44.310  37.067  28.407  1.00  0.00     0.164 A 
ATOM     94  N   UNL A   1      42.532  36.033  27.438  1.00  0.00    -0.238 NA
ATOM     95  N   UNL A   1      45.358  37.319  29.231  1.00  0.00    -0.198 NA
ATOM     96  N   UNL A   1      43.568  38.009  27.720  1.00  0.00    -0.283 N 
ATOM     97  C   UNL A   1      42.494  37.326  27.183  1.00  0.00     0.206 A 
BRANCH  92  98
ATOM     98  O   UNL A   1      46.834  36.420  30.700  1.00  0.00    -0.496 OA
ATOM     99  H   UNL A   1      47.386  35.695  30.921  1.00  0.00     0.294 HD
ENDBRANCH  92  98
BRANCH  96 100
ATOM    100  C   UNL A   1      43.823  39.397  27.630  1.00  0.00     0.050 A 
ATOM    101  C   UNL A   1      43.956  40.160  28.796  1.00  0.00     0.027 A 
ATOM    102  C   UNL A   1      43.977  39.994  26.372  1.00  0.00     0.047 A 
ATOM    103  C   UNL A   1      44.289  41.513  28.699  1.00  0.00     0.004 A 
ATOM    104  C   UNL A   1      44.261  41.355  26.289  1.00  0.00     0.043 A 
ATOM    105  C   UNL A   1      44.435  42.112  27.446  1.00  0.00     0.020 A 
ATOM    106  Cl  UNL A   1      44.389  42.110  24.748  1.00  0.00    -0.084 Cl
ENDBRANCH  96 100
ENDBRANCH  88  89
ENDBRANCH  81  83
ENDBRANCH  80  81
ENDBRANCH  79  80
ENDBRANCH  78  79
ENDBRANCH  77  78
ENDBRANCH  76  77
ENDBRANCH  75  76
ENDBRANCH  74  75
ENDBRANCH   1  74
TORSDOF 26
ENDMDL
MODEL 3
REMARK VINA RESULT:      -8.5      5.108      9.002
REMARK SMILES O=C(OCCOCCOCCOCCOC(=O)c1ccc([C@@H]2CC(O)=Nc3c2ncn3-c2cccc(Cl)c2)cc1)c1ccc(-c2c3nc(c(-c4cc(S(=O)(=O)[O-])ccc4F)c4ccc([nH]4)c(-c4cc(S(=O)(=O)[O-])ccc4F)c4nc(c(-c5cc(S(=O)(=O)[O-])ccc5F)c5ccc2[nH]5)C=C4)C=C3)cc1
REMARK SMILES IDX 8 1 7 2 6 3 5 4 4 5 3 6 2 7 1 8 41 9 42 10 103 11 43 12
REMARK SMILES IDX 102 13 44 14 45 15 46 16 96 17 47 18 101 19 95 20 97 21
REMARK SMILES IDX 48 22 100 23 94 24 93 25 49 27 81 28 61 29 80 30 62 31 65 32
REMARK SMILES IDX 79 33 98 34 63 35 64 36 78 38 99 39 66 40 50 41 51 42 59 43
REMARK SMILES IDX 52 44 58 45 60 46 57 47 53 48 54 49 55 50 56 51 82 52 83 53
REMARK SMILES IDX 91 54 84 55 90 56 92 57 89 58 85 59 86 60 87 61 88 62 67 63
REMARK SMILES IDX 68 64 76 65 69 66 75 67 77 68 74 69 70 70 71 71 72 72 73 73
REMARK SMILES IDX 9 74 10 75 11 76 12 77 13 78 14 79 15 80 16 81 17 82 18 83
REMARK SMILES IDX 19 84 40 85 20 86 39 87 21 88 22 89 23 90 28 91 24 92 27 93
REMARK SMILES IDX 29 94 26 95 31 96 30 97 25 98 32 100 33 101 38 102 34 103
REMARK SMILES IDX 36 104 35 105 37 106
REMARK H PARENT 97 26 65 37 25 99
REMARK Flexibility Score: inf
ROOT
ATOM      1  C   UNL A   1      35.389  30.062  27.898  1.00  0.00     0.188 C 
ENDROOT
BRANCH   1   2
ATOM      2  C   UNL A   1      34.630  31.368  27.622  1.00  0.00     0.188 C 
BRANCH   2   3
ATOM      3  O   UNL A   1      35.186  32.680  27.642  1.00  0.00    -0.376 OA
BRANCH   3   4
ATOM      4  C   UNL A   1      36.509  33.065  27.934  1.00  0.00     0.202 C 
BRANCH   4   5
ATOM      5  C   UNL A   1      36.872  33.725  29.269  1.00  0.00     0.261 C 
BRANCH   5   6
ATOM      6  O   UNL A   1      36.486  33.028  30.451  1.00  0.00    -0.460 OA
BRANCH   6   7
ATOM      7  C   UNL A   1      36.754  31.754  30.813  1.00  0.00     0.338 C 
ATOM      8  O   UNL A   1      35.996  31.213  31.619  1.00  0.00    -0.246 OA
BRANCH   7   9
ATOM      9  C   UNL A   1      37.986  31.022  30.411  1.00  0.00     0.060 A 
ATOM     10  C   UNL A   1      38.065  29.659  30.120  1.00  0.00     0.016 A 
ATOM     11  C   UNL A   1      39.163  31.795  30.370  1.00  0.00     0.016 A 
ATOM     12  C   UNL A   1      39.284  29.047  29.928  1.00  0.00     0.010 A 
ATOM     13  C   UNL A   1      40.394  31.192  30.174  1.00  0.00     0.010 A 
ATOM     14  C   UNL A   1      40.437  29.804  30.057  1.00  0.00    -0.014 A 
BRANCH  14  15
ATOM     15  C   UNL A   1      41.654  29.051  30.301  1.00  0.00     0.031 A 
ATOM     16  C   UNL A   1      42.125  28.946  31.704  1.00  0.00     0.074 A 
ATOM     17  C   UNL A   1      42.272  28.495  29.242  1.00  0.00     0.049 A 
ATOM     18  N   UNL A   1      43.310  29.164  32.174  1.00  0.00    -0.248 NA
ATOM     19  C   UNL A   1      41.124  28.631  32.734  1.00  0.00     0.031 C 
ATOM     20  C   UNL A   1      41.768  28.412  27.863  1.00  0.00     0.029 A 
ATOM     21  N   UNL A   1      43.409  27.753  29.201  1.00  0.00    -0.354 N 
ATOM     22  C   UNL A   1      43.259  28.817  33.521  1.00  0.00     0.074 A 
ATOM     23  C   UNL A   1      41.869  28.625  33.838  1.00  0.00     0.031 C 
ATOM     24  C   UNL A   1      42.427  27.434  27.214  1.00  0.00     0.029 A 
ATOM     25  C   UNL A   1      43.472  26.931  28.084  1.00  0.00     0.049 A 
ATOM     26  H   UNL A   1      44.111  27.794  29.888  1.00  0.00     0.167 HD
ATOM     27  C   UNL A   1      44.380  28.510  34.229  1.00  0.00     0.034 A 
ATOM     28  C   UNL A   1      44.226  25.815  27.942  1.00  0.00     0.034 A 
ATOM     29  C   UNL A   1      45.552  29.127  33.661  1.00  0.00     0.049 A 
ATOM     30  C   UNL A   1      45.347  25.918  28.906  1.00  0.00     0.074 A 
ATOM     31  C   UNL A   1      45.936  30.434  33.429  1.00  0.00     0.029 A 
ATOM     32  N   UNL A   1      46.427  28.357  32.931  1.00  0.00    -0.354 N 
ATOM     33  N   UNL A   1      46.268  26.843  28.840  1.00  0.00    -0.248 NA
ATOM     34  C   UNL A   1      45.204  25.288  30.211  1.00  0.00     0.031 C 
ATOM     35  C   UNL A   1      46.670  30.396  32.209  1.00  0.00     0.029 A 
ATOM     36  C   UNL A   1      46.727  29.064  31.792  1.00  0.00     0.049 A 
ATOM     37  H   UNL A   1      46.772  27.468  33.176  1.00  0.00     0.167 HD
ATOM     38  C   UNL A   1      46.513  27.204  30.155  1.00  0.00     0.074 A 
ATOM     39  C   UNL A   1      45.925  26.134  30.955  1.00  0.00     0.031 C 
ATOM     40  C   UNL A   1      46.915  28.469  30.484  1.00  0.00     0.034 A 
BRANCH  27  41
ATOM     41  C   UNL A   1      44.450  27.393  35.248  1.00  0.00     0.023 A 
ATOM     42  C   UNL A   1      44.545  26.071  34.770  1.00  0.00     0.031 A 
ATOM     43  C   UNL A   1      44.142  27.527  36.621  1.00  0.00     0.131 A 
ATOM     44  C   UNL A   1      44.254  24.978  35.605  1.00  0.00     0.055 A 
ATOM     45  C   UNL A   1      43.923  26.434  37.465  1.00  0.00     0.041 A 
ATOM     46  F   UNL A   1      43.941  28.713  37.207  1.00  0.00    -0.206 F 
ATOM     47  C   UNL A   1      43.945  25.150  36.951  1.00  0.00     0.022 A 
BRANCH  44  48
ATOM     48  S   UNL A   1      44.087  23.335  34.855  1.00  0.00     0.124 S 
ATOM     49  O   UNL A   1      42.639  23.214  34.720  1.00  0.00    -0.237 OA
ATOM     50  O   UNL A   1      44.839  23.496  33.616  1.00  0.00    -0.237 OA
ATOM     51  O   UNL A   1      44.694  22.449  35.845  1.00  0.00    -0.744 OA
ENDBRANCH  44  48
ENDBRANCH  27  41
BRANCH  28  52
ATOM     52  C   UNL A   1      43.730  24.560  27.322  1.00  0.00     0.023 A 
ATOM     53  C   UNL A   1      44.473  23.841  26.373  1.00  0.00     0.031 A 
ATOM     54  C   UNL A   1      42.542  23.952  27.798  1.00  0.00     0.131 A 
ATOM     55  C   UNL A   1      44.005  22.587  25.917  1.00  0.00     0.055 A 
ATOM     56  C   UNL A   1      42.071  22.729  27.324  1.00  0.00     0.041 A 
ATOM     57  F   UNL A   1      41.831  24.496  28.799  1.00  0.00    -0.206 F 
ATOM     58  C   UNL A   1      42.806  22.037  26.378  1.00  0.00     0.022 A 
BRANCH  55  59
ATOM     59  S   UNL A   1      45.018  21.608  24.768  1.00  0.00     0.124 S 
ATOM     60  O   UNL A   1      44.810  20.249  25.253  1.00  0.00    -0.237 OA
ATOM     61  O   UNL A   1      44.424  21.933  23.476  1.00  0.00    -0.237 OA
ATOM     62  O   UNL A   1      46.369  22.134  24.969  1.00  0.00    -0.744 OA
ENDBRANCH  55  59
ENDBRANCH  28  52
BRANCH  40  63
ATOM     63  C   UNL A   1      47.330  29.407  29.368  1.00  0.00     0.023 A 
ATOM     64  C   UNL A   1      46.424  30.200  28.628  1.00  0.00     0.031 A 
ATOM     65  C   UNL A   1      48.703  29.625  29.167  1.00  0.00     0.131 A 
ATOM     66  C   UNL A   1      46.906  31.165  27.721  1.00  0.00     0.055 A 
ATOM     67  C   UNL A   1      49.177  30.590  28.276  1.00  0.00     0.041 A 
ATOM     68  F   UNL A   1      49.613  28.937  29.875  1.00  0.00    -0.206 F 
ATOM     69  C   UNL A   1      48.280  31.361  27.546  1.00  0.00     0.022 A 
BRANCH  66  70
ATOM     70  S   UNL A   1      45.746  32.197  26.766  1.00  0.00     0.124 S 
ATOM     71  O   UNL A   1      46.525  33.391  26.459  1.00  0.00    -0.237 OA
ATOM     72  O   UNL A   1      45.413  31.337  25.633  1.00  0.00    -0.237 OA
ATOM     73  O   UNL A   1      44.640  32.417  27.701  1.00  0.00    -0.744 OA
ENDBRANCH  66  70
ENDBRANCH  40  63
ENDBRANCH  14  15
ENDBRANCH   7   9
ENDBRANCH   6   7
ENDBRANCH   5   6
ENDBRANCH   4   5
ENDBRANCH   3   4
ENDBRANCH   2   3
ENDBRANCH   1   2
BRANCH   1  74
ATOM     74  O   UNL A   1      35.163  29.014  26.972  1.00  0.00    -0.377 OA
BRANCH  74  75
ATOM     75  C   UNL A   1      34.023  29.184  26.163  1.00  0.00     0.188 C 
BRANCH  75  76
ATOM     76  C   UNL A   1      32.691  29.185  26.941  1.00  0.00     0.188 C 
BRANCH  76  77
ATOM     77  O   UNL A   1      31.427  29.248  26.292  1.00  0.00    -0.376 OA
BRANCH  77  78
ATOM     78  C   UNL A   1      31.186  30.188  25.262  1.00  0.00     0.202 C 
BRANCH  78  79
ATOM     79  C   UNL A   1      30.617  29.680  23.930  1.00  0.00     0.261 C 
BRANCH  79  80
ATOM     80  O   UNL A   1      30.184  28.311  23.925  1.00  0.00    -0.460 OA
BRANCH  80  81
ATOM     81  C   UNL A   1      30.790  27.496  23.030  1.00  0.00     0.338 C 
ATOM     82  O   UNL A   1      30.679  27.510  21.813  1.00  0.00    -0.246 OA
BRANCH  81  83
ATOM     83  C   UNL A   1      31.777  26.651  23.733  1.00  0.00     0.060 A 
ATOM     84  C   UNL A   1      32.945  26.292  23.052  1.00  0.00     0.016 A 
ATOM     85  C   UNL A   1      31.574  26.230  25.046  1.00  0.00     0.016 A 
ATOM     86  C   UNL A   1      33.922  25.533  23.693  1.00  0.00     0.005 A 
ATOM     87  C   UNL A   1      32.530  25.413  25.665  1.00  0.00     0.005 A 
ATOM     88  C   UNL A   1      33.720  25.059  25.001  1.00  0.00    -0.038 A 
BRANCH  88  89
ATOM     89  C   UNL A   1      34.745  24.071  25.543  1.00  0.00     0.081 C 
ATOM     90  C   UNL A   1      35.966  24.016  24.602  1.00  0.00     0.111 C 
ATOM     91  C   UNL A   1      34.122  22.733  25.674  1.00  0.00     0.093 A 
ATOM     92  C   UNL A   1      35.956  22.838  23.642  1.00  0.00     0.188 C 
ATOM     93  C   UNL A   1      34.482  21.692  24.846  1.00  0.00     0.164 A 
ATOM     94  N   UNL A   1      33.130  22.379  26.540  1.00  0.00    -0.238 NA
ATOM     95  N   UNL A   1      35.326  21.717  23.785  1.00  0.00    -0.198 NA
ATOM     96  N   UNL A   1      33.646  20.649  25.199  1.00  0.00    -0.283 N 
ATOM     97  C   UNL A   1      32.836  21.138  26.205  1.00  0.00     0.206 A 
BRANCH  92  98
ATOM     98  O   UNL A   1      36.756  22.989  22.568  1.00  0.00    -0.496 OA
ATOM     99  H   UNL A   1      37.088  22.235  22.121  1.00  0.00     0.294 HD
ENDBRANCH  92  98
BRANCH  96 100
ATOM    100  C   UNL A   1      33.591  19.363  24.613  1.00  0.00     0.050 A 
ATOM    101  C   UNL A   1      32.719  19.118  23.546  1.00  0.00     0.027 A 
ATOM    102  C   UNL A   1      34.437  18.350  25.082  1.00  0.00     0.047 A 
ATOM    103  C   UNL A   1      32.730  17.870  22.920  1.00  0.00     0.004 A 
ATOM    104  C   UNL A   1      34.404  17.095  24.481  1.00  0.00     0.043 A 
ATOM    105  C   UNL A   1      33.567  16.855  23.392  1.00  0.00     0.020 A 
ATOM    106  Cl  UNL A   1      35.393  15.826  25.091  1.00  0.00    -0.084 Cl
ENDBRANCH  96 100
ENDBRANCH  88  89
ENDBRANCH  81  83
ENDBRANCH  80  81
ENDBRANCH  79  80
ENDBRANCH  78  79
ENDBRANCH  77  78
ENDBRANCH  76  77
ENDBRANCH  75  76
ENDBRANCH  74  75
ENDBRANCH   1  74
TORSDOF 26
ENDMDL
