MODEL 1
REMARK VINA RESULT:      -8.5      0.000      0.000
REMARK SMILES C[C@@H](C(=O)OCCOCCOCCOCCOC(=O)c1ccc(-c2c3nc(c(-c4cc(S(=O)(=O)[O-])ccc4F)c4ccc([nH]4)c(-c4cc(S(=O)(=O)[O-])ccc4F)c4nc(c(-c5cc(S(=O)(=O)[O-])ccc5F)c5ccc2[nH]5)C=C4)C=C3)cc1)c1ccc(C[C@H]2CCC[C@@H]2O)cc1Br
REMARK SMILES IDX 10 1 9 2 8 3 7 4 6 5 5 6 3 7 4 8 2 9 1 10 83 11 84 12 95 13
REMARK SMILES IDX 85 14 94 15 96 16 86 17 87 18 88 19 89 20 92 21 90 22 91 23
REMARK SMILES IDX 93 24 11 26 12 27 13 28 14 29 15 30 16 31 17 32 18 33 19 34
REMARK SMILES IDX 20 35 21 36 82 37 22 38 81 39 23 40 24 41 25 42 75 43 26 44
REMARK SMILES IDX 80 45 74 46 76 47 27 48 79 49 73 50 72 51 28 53 60 54 40 55
REMARK SMILES IDX 59 56 41 57 44 58 58 59 77 60 42 61 43 62 57 64 78 65 45 66
REMARK SMILES IDX 29 67 30 68 38 69 31 70 37 71 39 72 36 73 32 74 33 75 34 76
REMARK SMILES IDX 35 77 61 78 62 79 70 80 63 81 69 82 71 83 68 84 64 85 65 86
REMARK SMILES IDX 66 87 67 88 46 89 47 90 55 91 48 92 54 93 56 94 53 95 49 96
REMARK SMILES IDX 50 97 51 98 52 99
REMARK H PARENT 93 25 76 52 44 63
REMARK Flexibility Score: inf
ROOT
ATOM      1  C   UNL A   1      35.714  30.113  28.272  1.00  0.00     0.188 C 
ENDROOT
BRANCH   1   2
ATOM      2  C   UNL A   1      34.505  30.910  27.747  1.00  0.00     0.188 C 
BRANCH   2   3
ATOM      3  O   UNL A   1      33.695  30.375  26.710  1.00  0.00    -0.376 OA
BRANCH   3   4
ATOM      4  C   UNL A   1      32.478  29.715  27.024  1.00  0.00     0.202 C 
BRANCH   4   5
ATOM      5  C   UNL A   1      32.332  28.179  26.947  1.00  0.00     0.261 C 
BRANCH   5   6
ATOM      6  O   UNL A   1      31.352  27.647  26.033  1.00  0.00    -0.463 OA
BRANCH   6   7
ATOM      7  C   UNL A   1      31.697  27.610  24.725  1.00  0.00     0.313 C 
ATOM      8  O   UNL A   1      30.878  27.643  23.810  1.00  0.00    -0.252 OA
BRANCH   7   9
ATOM      9  C   UNL A   1      33.224  27.540  24.466  1.00  0.00     0.127 C 
ATOM     10  C   UNL A   1      33.866  28.643  23.616  1.00  0.00     0.025 C 
BRANCH   9  11
ATOM     11  C   UNL A   1      33.667  26.080  24.277  1.00  0.00    -0.020 A 
ATOM     12  C   UNL A   1      34.315  25.523  25.409  1.00  0.00     0.006 A 
ATOM     13  C   UNL A   1      33.426  25.200  23.205  1.00  0.00     0.022 A 
ATOM     14  C   UNL A   1      34.729  24.193  25.466  1.00  0.00     0.004 A 
ATOM     15  C   UNL A   1      33.752  23.840  23.314  1.00  0.00     0.019 A 
ATOM     16  Br  UNL A   1      32.851  25.643  21.452  1.00  0.00    -0.050 Br
ATOM     17  C   UNL A   1      34.481  23.346  24.395  1.00  0.00    -0.047 A 
BRANCH  17  18
ATOM     18  C   UNL A   1      35.118  21.984  24.298  1.00  0.00     0.041 C 
BRANCH  18  19
ATOM     19  C   UNL A   1      34.335  20.889  25.058  1.00  0.00     0.022 C 
ATOM     20  C   UNL A   1      32.798  21.030  25.089  1.00  0.00     0.007 C 
ATOM     21  C   UNL A   1      34.581  19.462  24.552  1.00  0.00     0.117 C 
ATOM     22  C   UNL A   1      32.229  19.628  24.868  1.00  0.00     0.003 C 
ATOM     23  C   UNL A   1      33.394  18.684  25.099  1.00  0.00     0.032 C 
BRANCH  21  24
ATOM     24  O   UNL A   1      35.796  18.933  25.052  1.00  0.00    -0.393 OA
ATOM     25  H   UNL A   1      36.522  19.542  24.846  1.00  0.00     0.210 HD
ENDBRANCH  21  24
ENDBRANCH  18  19
ENDBRANCH  17  18
ENDBRANCH   9  11
ENDBRANCH   7   9
ENDBRANCH   6   7
ENDBRANCH   5   6
ENDBRANCH   4   5
ENDBRANCH   3   4
ENDBRANCH   2   3
ENDBRANCH   1   2
BRANCH   1  26
ATOM     26  O   UNL A   1      36.588  30.834  29.109  1.00  0.00    -0.377 OA
BRANCH  26  27
ATOM     27  C   UNL A   1      37.062  32.068  28.601  1.00  0.00     0.188 C 
BRANCH  27  28
ATOM     28  C   UNL A   1      36.749  33.348  29.400  1.00  0.00     0.188 C 
BRANCH  28  29
ATOM     29  O   UNL A   1      35.392  33.476  29.818  1.00  0.00    -0.376 OA
BRANCH  29  30
ATOM     30  C   UNL A   1      34.657  34.625  29.420  1.00  0.00     0.202 C 
BRANCH  30  31
ATOM     31  C   UNL A   1      33.321  34.886  30.136  1.00  0.00     0.261 C 
BRANCH  31  32
ATOM     32  O   UNL A   1      33.261  34.496  31.513  1.00  0.00    -0.460 OA
BRANCH  32  33
ATOM     33  C   UNL A   1      33.697  35.390  32.427  1.00  0.00     0.338 C 
ATOM     34  O   UNL A   1      33.109  36.387  32.812  1.00  0.00    -0.246 OA
BRANCH  33  35
ATOM     35  C   UNL A   1      34.920  34.838  33.043  1.00  0.00     0.060 A 
ATOM     36  C   UNL A   1      36.166  35.273  32.573  1.00  0.00     0.016 A 
ATOM     37  C   UNL A   1      34.837  33.931  34.103  1.00  0.00     0.016 A 
ATOM     38  C   UNL A   1      37.337  34.781  33.146  1.00  0.00     0.010 A 
ATOM     39  C   UNL A   1      36.012  33.415  34.655  1.00  0.00     0.010 A 
ATOM     40  C   UNL A   1      37.265  33.815  34.157  1.00  0.00    -0.014 A 
BRANCH  40  41
ATOM     41  C   UNL A   1      38.485  33.056  34.522  1.00  0.00     0.031 A 
ATOM     42  C   UNL A   1      38.869  31.890  33.654  1.00  0.00     0.074 A 
ATOM     43  C   UNL A   1      39.251  33.414  35.568  1.00  0.00     0.049 A 
ATOM     44  N   UNL A   1      39.856  31.044  33.783  1.00  0.00    -0.248 NA
ATOM     45  C   UNL A   1      38.015  31.647  32.480  1.00  0.00     0.031 C 
ATOM     46  C   UNL A   1      39.010  34.564  36.437  1.00  0.00     0.029 A 
ATOM     47  N   UNL A   1      40.389  32.839  36.077  1.00  0.00    -0.354 N 
ATOM     48  C   UNL A   1      39.738  30.163  32.713  1.00  0.00     0.074 A 
ATOM     49  C   UNL A   1      38.563  30.558  31.967  1.00  0.00     0.031 C 
ATOM     50  C   UNL A   1      39.970  34.606  37.379  1.00  0.00     0.029 A 
ATOM     51  C   UNL A   1      40.866  33.462  37.206  1.00  0.00     0.049 A 
ATOM     52  H   UNL A   1      40.822  32.054  35.671  1.00  0.00     0.167 HD
ATOM     53  C   UNL A   1      40.543  29.125  32.381  1.00  0.00     0.034 A 
ATOM     54  C   UNL A   1      41.890  33.127  38.018  1.00  0.00     0.034 A 
ATOM     55  C   UNL A   1      41.699  28.738  33.149  1.00  0.00     0.049 A 
ATOM     56  C   UNL A   1      42.708  31.897  37.689  1.00  0.00     0.074 A 
ATOM     57  C   UNL A   1      42.590  27.709  32.904  1.00  0.00     0.029 A 
ATOM     58  N   UNL A   1      42.117  29.353  34.323  1.00  0.00    -0.354 N 
ATOM     59  N   UNL A   1      42.592  31.073  36.672  1.00  0.00    -0.248 NA
ATOM     60  C   UNL A   1      43.798  31.559  38.614  1.00  0.00     0.031 C 
ATOM     61  C   UNL A   1      43.490  27.646  33.972  1.00  0.00     0.029 A 
ATOM     62  C   UNL A   1      43.225  28.698  34.835  1.00  0.00     0.049 A 
ATOM     63  H   UNL A   1      41.687  30.139  34.731  1.00  0.00     0.167 HD
ATOM     64  C   UNL A   1      43.619  30.141  36.818  1.00  0.00     0.074 A 
ATOM     65  C   UNL A   1      44.349  30.515  38.012  1.00  0.00     0.031 C 
ATOM     66  C   UNL A   1      43.938  29.079  36.033  1.00  0.00     0.034 A 
BRANCH  53  67
ATOM     67  C   UNL A   1      40.151  28.301  31.178  1.00  0.00     0.023 A 
ATOM     68  C   UNL A   1      40.756  28.480  29.922  1.00  0.00     0.031 A 
ATOM     69  C   UNL A   1      39.125  27.343  31.283  1.00  0.00     0.131 A 
ATOM     70  C   UNL A   1      40.284  27.767  28.809  1.00  0.00     0.055 A 
ATOM     71  C   UNL A   1      38.719  26.576  30.190  1.00  0.00     0.041 A 
ATOM     72  F   UNL A   1      38.488  27.150  32.449  1.00  0.00    -0.206 F 
ATOM     73  C   UNL A   1      39.288  26.796  28.940  1.00  0.00     0.022 A 
BRANCH  70  74
ATOM     74  S   UNL A   1      40.879  28.237  27.161  1.00  0.00     0.124 S 
ATOM     75  O   UNL A   1      42.206  28.767  27.467  1.00  0.00    -0.237 OA
ATOM     76  O   UNL A   1      40.848  26.970  26.441  1.00  0.00    -0.237 OA
ATOM     77  O   UNL A   1      39.906  29.233  26.717  1.00  0.00    -0.744 OA
ENDBRANCH  70  74
ENDBRANCH  53  67
BRANCH  54  78
ATOM     78  C   UNL A   1      42.184  33.926  39.245  1.00  0.00     0.023 A 
ATOM     79  C   UNL A   1      41.498  33.691  40.448  1.00  0.00     0.031 A 
ATOM     80  C   UNL A   1      43.108  34.986  39.213  1.00  0.00     0.131 A 
ATOM     81  C   UNL A   1      41.708  34.534  41.551  1.00  0.00     0.055 A 
ATOM     82  C   UNL A   1      43.358  35.783  40.332  1.00  0.00     0.041 A 
ATOM     83  F   UNL A   1      43.786  35.264  38.088  1.00  0.00    -0.206 F 
ATOM     84  C   UNL A   1      42.645  35.568  41.506  1.00  0.00     0.022 A 
BRANCH  81  85
ATOM     85  S   UNL A   1      40.659  34.324  43.016  1.00  0.00     0.124 S 
ATOM     86  O   UNL A   1      40.396  32.890  42.989  1.00  0.00    -0.237 OA
ATOM     87  O   UNL A   1      41.535  34.796  44.085  1.00  0.00    -0.237 OA
ATOM     88  O   UNL A   1      39.508  35.178  42.736  1.00  0.00    -0.744 OA
ENDBRANCH  81  85
ENDBRANCH  54  78
BRANCH  66  89
ATOM     89  C   UNL A   1      45.163  28.279  36.412  1.00  0.00     0.023 A 
ATOM     90  C   UNL A   1      45.103  27.205  37.317  1.00  0.00     0.031 A 
ATOM     91  C   UNL A   1      46.414  28.603  35.855  1.00  0.00     0.131 A 
ATOM     92  C   UNL A   1      46.279  26.532  37.682  1.00  0.00     0.055 A 
ATOM     93  C   UNL A   1      47.568  27.883  36.166  1.00  0.00     0.041 A 
ATOM     94  F   UNL A   1      46.534  29.621  34.988  1.00  0.00    -0.206 F 
ATOM     95  C   UNL A   1      47.507  26.850  37.096  1.00  0.00     0.022 A 
BRANCH  92  96
ATOM     96  S   UNL A   1      46.201  25.303  39.013  1.00  0.00     0.124 S 
ATOM     97  O   UNL A   1      47.234  25.778  39.926  1.00  0.00    -0.237 OA
ATOM     98  O   UNL A   1      44.826  25.437  39.482  1.00  0.00    -0.237 OA
ATOM     99  O   UNL A   1      46.504  24.043  38.335  1.00  0.00    -0.744 OA
ENDBRANCH  92  96
ENDBRANCH  66  89
ENDBRANCH  40  41
ENDBRANCH  33  35
ENDBRANCH  32  33
ENDBRANCH  31  32
ENDBRANCH  30  31
ENDBRANCH  29  30
ENDBRANCH  28  29
ENDBRANCH  27  28
ENDBRANCH  26  27
ENDBRANCH   1  26
TORSDOF 27
ENDMDL
MODEL 2
REMARK VINA RESULT:      -7.9      2.821      7.574
REMARK SMILES C[C@@H](C(=O)OCCOCCOCCOCCOC(=O)c1ccc(-c2c3nc(c(-c4cc(S(=O)(=O)[O-])ccc4F)c4ccc([nH]4)c(-c4cc(S(=O)(=O)[O-])ccc4F)c4nc(c(-c5cc(S(=O)(=O)[O-])ccc5F)c5ccc2[nH]5)C=C4)C=C3)cc1)c1ccc(C[C@H]2CCC[C@@H]2O)cc1Br
REMARK SMILES IDX 10 1 9 2 8 3 7 4 6 5 5 6 3 7 4 8 2 9 1 10 83 11 84 12 95 13
REMARK SMILES IDX 85 14 94 15 96 16 86 17 87 18 88 19 89 20 92 21 90 22 91 23
REMARK SMILES IDX 93 24 11 26 12 27 13 28 14 29 15 30 16 31 17 32 18 33 19 34
REMARK SMILES IDX 20 35 21 36 82 37 22 38 81 39 23 40 24 41 25 42 75 43 26 44
REMARK SMILES IDX 80 45 74 46 76 47 27 48 79 49 73 50 72 51 28 53 60 54 40 55
REMARK SMILES IDX 59 56 41 57 44 58 58 59 77 60 42 61 43 62 57 64 78 65 45 66
REMARK SMILES IDX 29 67 30 68 38 69 31 70 37 71 39 72 36 73 32 74 33 75 34 76
REMARK SMILES IDX 35 77 61 78 62 79 70 80 63 81 69 82 71 83 68 84 64 85 65 86
REMARK SMILES IDX 66 87 67 88 46 89 47 90 55 91 48 92 54 93 56 94 53 95 49 96
REMARK SMILES IDX 50 97 51 98 52 99
REMARK H PARENT 93 25 76 52 44 63
REMARK Flexibility Score: inf
ROOT
ATOM      1  C   UNL A   1      35.486  29.566  28.251  1.00  0.00     0.188 C 
ENDROOT
BRANCH   1   2
ATOM      2  C   UNL A   1      34.571  30.709  27.773  1.00  0.00     0.188 C 
BRANCH   2   3
ATOM      3  O   UNL A   1      33.783  30.548  26.603  1.00  0.00    -0.376 OA
BRANCH   3   4
ATOM      4  C   UNL A   1      32.483  29.985  26.692  1.00  0.00     0.202 C 
BRANCH   4   5
ATOM      5  C   UNL A   1      32.200  28.511  26.327  1.00  0.00     0.261 C 
BRANCH   5   6
ATOM      6  O   UNL A   1      31.085  28.240  25.454  1.00  0.00    -0.463 OA
BRANCH   6   7
ATOM      7  C   UNL A   1      31.373  27.681  24.256  1.00  0.00     0.313 C 
ATOM      8  O   UNL A   1      30.527  27.162  23.532  1.00  0.00    -0.252 OA
BRANCH   7   9
ATOM      9  C   UNL A   1      32.868  27.761  23.853  1.00  0.00     0.127 C 
ATOM     10  C   UNL A   1      33.299  28.873  22.889  1.00  0.00     0.025 C 
BRANCH   9  11
ATOM     11  C   UNL A   1      33.455  26.349  23.697  1.00  0.00    -0.020 A 
ATOM     12  C   UNL A   1      34.199  25.908  24.821  1.00  0.00     0.006 A 
ATOM     13  C   UNL A   1      33.270  25.409  22.667  1.00  0.00     0.022 A 
ATOM     14  C   UNL A   1      34.753  24.631  24.908  1.00  0.00     0.004 A 
ATOM     15  C   UNL A   1      33.742  24.095  22.810  1.00  0.00     0.019 A 
ATOM     16  Br  UNL A   1      32.588  25.720  20.924  1.00  0.00    -0.050 Br
ATOM     17  C   UNL A   1      34.557  23.722  23.877  1.00  0.00    -0.047 A 
BRANCH  17  18
ATOM     18  C   UNL A   1      35.331  22.431  23.803  1.00  0.00     0.041 C 
BRANCH  18  19
ATOM     19  C   UNL A   1      34.789  21.339  24.754  1.00  0.00     0.022 C 
ATOM     20  C   UNL A   1      35.091  21.516  26.257  1.00  0.00     0.007 C 
ATOM     21  C   UNL A   1      33.271  21.131  24.687  1.00  0.00     0.117 C 
ATOM     22  C   UNL A   1      33.811  21.141  27.003  1.00  0.00     0.003 C 
ATOM     23  C   UNL A   1      32.957  20.407  25.987  1.00  0.00     0.032 C 
BRANCH  21  24
ATOM     24  O   UNL A   1      32.902  20.338  23.573  1.00  0.00    -0.393 OA
ATOM     25  H   UNL A   1      32.158  20.755  23.111  1.00  0.00     0.210 HD
ENDBRANCH  21  24
ENDBRANCH  18  19
ENDBRANCH  17  18
ENDBRANCH   9  11
ENDBRANCH   7   9
ENDBRANCH   6   7
ENDBRANCH   5   6
ENDBRANCH   4   5
ENDBRANCH   3   4
ENDBRANCH   2   3
ENDBRANCH   1   2
BRANCH   1  26
ATOM     26  O   UNL A   1      36.555  29.963  29.080  1.00  0.00    -0.377 OA
BRANCH  26  27
ATOM     27  C   UNL A   1      37.296  31.088  28.646  1.00  0.00     0.188 C 
BRANCH  27  28
ATOM     28  C   UNL A   1      37.237  32.368  29.502  1.00  0.00     0.188 C 
BRANCH  28  29
ATOM     29  O   UNL A   1      35.950  32.670  30.039  1.00  0.00    -0.376 OA
BRANCH  29  30
ATOM     30  C   UNL A   1      35.502  34.018  30.028  1.00  0.00     0.202 C 
BRANCH  30  31
ATOM     31  C   UNL A   1      34.287  34.360  30.907  1.00  0.00     0.261 C 
BRANCH  31  32
ATOM     32  O   UNL A   1      34.475  34.215  32.320  1.00  0.00    -0.460 OA
BRANCH  32  33
ATOM     33  C   UNL A   1      35.226  35.150  32.941  1.00  0.00     0.338 C 
ATOM     34  O   UNL A   1      34.936  36.322  33.117  1.00  0.00    -0.246 OA
BRANCH  33  35
ATOM     35  C   UNL A   1      36.371  34.459  33.566  1.00  0.00     0.060 A 
ATOM     36  C   UNL A   1      36.134  33.607  34.651  1.00  0.00     0.016 A 
ATOM     37  C   UNL A   1      37.664  34.619  33.057  1.00  0.00     0.016 A 
ATOM     38  C   UNL A   1      37.193  32.929  35.251  1.00  0.00     0.010 A 
ATOM     39  C   UNL A   1      38.729  33.964  33.680  1.00  0.00     0.010 A 
ATOM     40  C   UNL A   1      38.501  33.142  34.797  1.00  0.00    -0.014 A 
BRANCH  40  41
ATOM     41  C   UNL A   1      39.640  32.696  35.636  1.00  0.00     0.031 A 
ATOM     42  C   UNL A   1      39.991  33.528  36.837  1.00  0.00     0.074 A 
ATOM     43  C   UNL A   1      40.316  31.566  35.362  1.00  0.00     0.049 A 
ATOM     44  N   UNL A   1      40.963  33.382  37.698  1.00  0.00    -0.248 NA
ATOM     45  C   UNL A   1      39.125  34.690  37.097  1.00  0.00     0.031 C 
ATOM     46  C   UNL A   1      40.021  30.649  34.263  1.00  0.00     0.029 A 
ATOM     47  N   UNL A   1      41.397  31.002  35.992  1.00  0.00    -0.354 N 
ATOM     48  C   UNL A   1      40.831  34.435  38.597  1.00  0.00     0.074 A 
ATOM     49  C   UNL A   1      39.706  35.230  38.155  1.00  0.00     0.031 C 
ATOM     50  C   UNL A   1      40.907  29.637  34.292  1.00  0.00     0.029 A 
ATOM     51  C   UNL A   1      41.857  29.857  35.382  1.00  0.00     0.049 A 
ATOM     52  H   UNL A   1      41.805  31.380  36.803  1.00  0.00     0.167 HD
ATOM     53  C   UNL A   1      41.576  34.706  39.696  1.00  0.00     0.034 A 
ATOM     54  C   UNL A   1      42.936  29.098  35.659  1.00  0.00     0.034 A 
ATOM     55  C   UNL A   1      42.703  33.909  40.108  1.00  0.00     0.049 A 
ATOM     56  C   UNL A   1      43.820  29.484  36.825  1.00  0.00     0.074 A 
ATOM     57  C   UNL A   1      43.526  34.085  41.206  1.00  0.00     0.029 A 
ATOM     58  N   UNL A   1      43.179  32.793  39.431  1.00  0.00    -0.354 N 
ATOM     59  N   UNL A   1      43.684  30.479  37.673  1.00  0.00    -0.248 NA
ATOM     60  C   UNL A   1      44.996  28.640  37.074  1.00  0.00     0.031 C 
ATOM     61  C   UNL A   1      44.548  33.134  41.143  1.00  0.00     0.029 A 
ATOM     62  C   UNL A   1      44.309  32.298  40.063  1.00  0.00     0.049 A 
ATOM     63  H   UNL A   1      42.774  32.411  38.620  1.00  0.00     0.167 HD
ATOM     64  C   UNL A   1      44.738  30.355  38.577  1.00  0.00     0.074 A 
ATOM     65  C   UNL A   1      45.490  29.183  38.177  1.00  0.00     0.031 C 
ATOM     66  C   UNL A   1      45.052  31.132  39.646  1.00  0.00     0.034 A 
BRANCH  53  67
ATOM     67  C   UNL A   1      41.233  35.953  40.476  1.00  0.00     0.023 A 
ATOM     68  C   UNL A   1      41.788  37.205  40.162  1.00  0.00     0.031 A 
ATOM     69  C   UNL A   1      40.360  35.877  41.577  1.00  0.00     0.131 A 
ATOM     70  C   UNL A   1      41.523  38.314  40.982  1.00  0.00     0.055 A 
ATOM     71  C   UNL A   1      40.033  37.002  42.336  1.00  0.00     0.041 A 
ATOM     72  F   UNL A   1      39.823  34.703  41.944  1.00  0.00    -0.206 F 
ATOM     73  C   UNL A   1      40.628  38.227  42.050  1.00  0.00     0.022 A 
BRANCH  70  74
ATOM     74  S   UNL A   1      42.485  39.830  40.728  1.00  0.00     0.124 S 
ATOM     75  O   UNL A   1      43.397  39.796  41.870  1.00  0.00    -0.237 OA
ATOM     76  O   UNL A   1      43.091  39.605  39.421  1.00  0.00    -0.237 OA
ATOM     77  O   UNL A   1      41.478  40.887  40.776  1.00  0.00    -0.744 OA
ENDBRANCH  70  74
ENDBRANCH  53  67
BRANCH  54  78
ATOM     78  C   UNL A   1      43.282  27.923  34.803  1.00  0.00     0.023 A 
ATOM     79  C   UNL A   1      42.930  26.617  35.184  1.00  0.00     0.031 A 
ATOM     80  C   UNL A   1      44.033  28.083  33.624  1.00  0.00     0.131 A 
ATOM     81  C   UNL A   1      43.371  25.523  34.423  1.00  0.00     0.055 A 
ATOM     82  C   UNL A   1      44.416  26.995  32.838  1.00  0.00     0.041 A 
ATOM     83  F   UNL A   1      44.406  29.307  33.216  1.00  0.00    -0.206 F 
ATOM     84  C   UNL A   1      44.098  25.704  33.244  1.00  0.00     0.022 A 
BRANCH  81  85
ATOM     85  S   UNL A   1      43.069  23.849  35.053  1.00  0.00     0.124 S 
ATOM     86  O   UNL A   1      44.121  23.715  36.054  1.00  0.00    -0.237 OA
ATOM     87  O   UNL A   1      41.706  23.960  35.564  1.00  0.00    -0.237 OA
ATOM     88  O   UNL A   1      43.221  23.007  33.869  1.00  0.00    -0.744 OA
ENDBRANCH  81  85
ENDBRANCH  54  78
BRANCH  66  89
ATOM     89  C   UNL A   1      46.230  30.704  40.492  1.00  0.00     0.023 A 
ATOM     90  C   UNL A   1      46.095  29.795  41.556  1.00  0.00     0.031 A 
ATOM     91  C   UNL A   1      47.512  31.221  40.225  1.00  0.00     0.131 A 
ATOM     92  C   UNL A   1      47.208  29.476  42.349  1.00  0.00     0.055 A 
ATOM     93  C   UNL A   1      48.629  30.844  40.972  1.00  0.00     0.041 A 
ATOM     94  F   UNL A   1      47.702  32.095  39.225  1.00  0.00    -0.206 F 
ATOM     95  C   UNL A   1      48.477  29.977  42.050  1.00  0.00     0.022 A 
BRANCH  92  96
ATOM     96  S   UNL A   1      46.956  28.478  43.842  1.00  0.00     0.124 S 
ATOM     97  O   UNL A   1      45.663  27.858  43.577  1.00  0.00    -0.237 OA
ATOM     98  O   UNL A   1      48.108  27.584  43.819  1.00  0.00    -0.237 OA
ATOM     99  O   UNL A   1      46.960  29.467  44.919  1.00  0.00    -0.744 OA
ENDBRANCH  92  96
ENDBRANCH  66  89
ENDBRANCH  40  41
ENDBRANCH  33  35
ENDBRANCH  32  33
ENDBRANCH  31  32
ENDBRANCH  30  31
ENDBRANCH  29  30
ENDBRANCH  28  29
ENDBRANCH  27  28
ENDBRANCH  26  27
ENDBRANCH   1  26
TORSDOF 27
ENDMDL
MODEL 3
REMARK VINA RESULT:      -7.9      2.052      2.497
REMARK SMILES C[C@@H](C(=O)OCCOCCOCCOCCOC(=O)c1ccc(-c2c3nc(c(-c4cc(S(=O)(=O)[O-])ccc4F)c4ccc([nH]4)c(-c4cc(S(=O)(=O)[O-])ccc4F)c4nc(c(-c5cc(S(=O)(=O)[O-])ccc5F)c5ccc2[nH]5)C=C4)C=C3)cc1)c1ccc(C[C@H]2CCC[C@@H]2O)cc1Br
REMARK SMILES IDX 10 1 9 2 8 3 7 4 6 5 5 6 3 7 4 8 2 9 1 10 83 11 84 12 95 13
REMARK SMILES IDX 85 14 94 15 96 16 86 17 87 18 88 19 89 20 92 21 90 22 91 23
REMARK SMILES IDX 93 24 11 26 12 27 13 28 14 29 15 30 16 31 17 32 18 33 19 34
REMARK SMILES IDX 20 35 21 36 82 37 22 38 81 39 23 40 24 41 25 42 75 43 26 44
REMARK SMILES IDX 80 45 74 46 76 47 27 48 79 49 73 50 72 51 28 53 60 54 40 55
REMARK SMILES IDX 59 56 41 57 44 58 58 59 77 60 42 61 43 62 57 64 78 65 45 66
REMARK SMILES IDX 29 67 30 68 38 69 31 70 37 71 39 72 36 73 32 74 33 75 34 76
REMARK SMILES IDX 35 77 61 78 62 79 70 80 63 81 69 82 71 83 68 84 64 85 65 86
REMARK SMILES IDX 66 87 67 88 46 89 47 90 55 91 48 92 54 93 56 94 53 95 49 96
REMARK SMILES IDX 50 97 51 98 52 99
REMARK H PARENT 93 25 76 52 44 63
REMARK Flexibility Score: inf
ROOT
ATOM      1  C   UNL A   1      35.823  29.744  28.309  1.00  0.00     0.188 C 
ENDROOT
BRANCH   1   2
ATOM      2  C   UNL A   1      34.765  30.756  27.832  1.00  0.00     0.188 C 
BRANCH   2   3
ATOM      3  O   UNL A   1      33.889  30.421  26.766  1.00  0.00    -0.376 OA
BRANCH   3   4
ATOM      4  C   UNL A   1      32.620  29.845  27.041  1.00  0.00     0.202 C 
BRANCH   4   5
ATOM      5  C   UNL A   1      32.300  28.369  26.720  1.00  0.00     0.261 C 
BRANCH   5   6
ATOM      6  O   UNL A   1      31.237  28.104  25.783  1.00  0.00    -0.463 OA
BRANCH   6   7
ATOM      7  C   UNL A   1      31.588  27.528  24.610  1.00  0.00     0.313 C 
ATOM      8  O   UNL A   1      30.775  27.065  23.815  1.00  0.00    -0.252 OA
BRANCH   7   9
ATOM      9  C   UNL A   1      33.114  27.513  24.336  1.00  0.00     0.127 C 
ATOM     10  C   UNL A   1      33.695  28.593  23.416  1.00  0.00     0.025 C 
BRANCH   9  11
ATOM     11  C   UNL A   1      33.622  26.066  24.223  1.00  0.00    -0.020 A 
ATOM     12  C   UNL A   1      34.259  25.586  25.396  1.00  0.00     0.006 A 
ATOM     13  C   UNL A   1      33.449  25.132  23.185  1.00  0.00     0.022 A 
ATOM     14  C   UNL A   1      34.724  24.278  25.523  1.00  0.00     0.004 A 
ATOM     15  C   UNL A   1      33.827  23.792  23.363  1.00  0.00     0.019 A 
ATOM     16  Br  UNL A   1      32.908  25.474  21.399  1.00  0.00    -0.050 Br
ATOM     17  C   UNL A   1      34.543  23.377  24.484  1.00  0.00    -0.047 A 
BRANCH  17  18
ATOM     18  C   UNL A   1      35.238  22.040  24.465  1.00  0.00     0.041 C 
BRANCH  18  19
ATOM     19  C   UNL A   1      34.429  20.922  25.161  1.00  0.00     0.022 C 
ATOM     20  C   UNL A   1      32.906  21.141  25.286  1.00  0.00     0.007 C 
ATOM     21  C   UNL A   1      34.567  19.537  24.515  1.00  0.00     0.117 C 
ATOM     22  C   UNL A   1      32.246  19.800  24.967  1.00  0.00     0.003 C 
ATOM     23  C   UNL A   1      33.363  18.777  25.049  1.00  0.00     0.032 C 
BRANCH  21  24
ATOM     24  O   UNL A   1      35.771  18.899  24.900  1.00  0.00    -0.393 OA
ATOM     25  H   UNL A   1      35.598  17.962  25.078  1.00  0.00     0.210 HD
ENDBRANCH  21  24
ENDBRANCH  18  19
ENDBRANCH  17  18
ENDBRANCH   9  11
ENDBRANCH   7   9
ENDBRANCH   6   7
ENDBRANCH   5   6
ENDBRANCH   4   5
ENDBRANCH   3   4
ENDBRANCH   2   3
ENDBRANCH   1   2
BRANCH   1  26
ATOM     26  O   UNL A   1      36.876  30.292  29.069  1.00  0.00    -0.377 OA
BRANCH  26  27
ATOM     27  C   UNL A   1      37.466  31.473  28.557  1.00  0.00     0.188 C 
BRANCH  27  28
ATOM     28  C   UNL A   1      37.276  32.781  29.349  1.00  0.00     0.188 C 
BRANCH  28  29
ATOM     29  O   UNL A   1      35.992  32.934  29.951  1.00  0.00    -0.376 OA
BRANCH  29  30
ATOM     30  C   UNL A   1      35.259  34.127  29.709  1.00  0.00     0.202 C 
BRANCH  30  31
ATOM     31  C   UNL A   1      34.119  34.460  30.685  1.00  0.00     0.261 C 
BRANCH  31  32
ATOM     32  O   UNL A   1      34.398  34.241  32.074  1.00  0.00    -0.460 OA
BRANCH  32  33
ATOM     33  C   UNL A   1      35.191  35.142  32.693  1.00  0.00     0.338 C 
ATOM     34  O   UNL A   1      34.895  36.285  33.001  1.00  0.00    -0.246 OA
BRANCH  33  35
ATOM     35  C   UNL A   1      36.411  34.437  33.130  1.00  0.00     0.060 A 
ATOM     36  C   UNL A   1      37.643  34.819  32.583  1.00  0.00     0.016 A 
ATOM     37  C   UNL A   1      36.346  33.434  34.102  1.00  0.00     0.016 A 
ATOM     38  C   UNL A   1      38.814  34.181  32.988  1.00  0.00     0.010 A 
ATOM     39  C   UNL A   1      37.516  32.774  34.484  1.00  0.00     0.010 A 
ATOM     40  C   UNL A   1      38.749  33.125  33.905  1.00  0.00    -0.014 A 
BRANCH  40  41
ATOM     41  C   UNL A   1      39.927  32.240  34.074  1.00  0.00     0.031 A 
ATOM     42  C   UNL A   1      40.166  31.186  33.029  1.00  0.00     0.074 A 
ATOM     43  C   UNL A   1      40.780  32.391  35.102  1.00  0.00     0.049 A 
ATOM     44  N   UNL A   1      41.090  30.265  32.969  1.00  0.00    -0.248 NA
ATOM     45  C   UNL A   1      39.225  31.172  31.896  1.00  0.00     0.031 C 
ATOM     46  C   UNL A   1      40.683  33.420  36.137  1.00  0.00     0.029 A 
ATOM     47  N   UNL A   1      41.899  31.673  35.444  1.00  0.00    -0.354 N 
ATOM     48  C   UNL A   1      40.839  29.556  31.799  1.00  0.00     0.074 A 
ATOM     49  C   UNL A   1      39.655  30.133  31.200  1.00  0.00     0.031 C 
ATOM     50  C   UNL A   1      41.699  33.260  37.004  1.00  0.00     0.029 A 
ATOM     51  C   UNL A   1      42.491  32.095  36.612  1.00  0.00     0.049 A 
ATOM     52  H   UNL A   1      42.244  30.926  34.905  1.00  0.00     0.167 HD
ATOM     53  C   UNL A   1      41.538  28.523  31.270  1.00  0.00     0.034 A 
ATOM     54  C   UNL A   1      43.533  31.577  37.295  1.00  0.00     0.034 A 
ATOM     55  C   UNL A   1      42.705  27.952  31.893  1.00  0.00     0.049 A 
ATOM     56  C   UNL A   1      44.231  30.354  36.742  1.00  0.00     0.074 A 
ATOM     57  C   UNL A   1      43.497  26.910  31.446  1.00  0.00     0.029 A 
ATOM     58  N   UNL A   1      43.240  28.364  33.108  1.00  0.00    -0.354 N 
ATOM     59  N   UNL A   1      43.990  29.693  35.632  1.00  0.00    -0.248 NA
ATOM     60  C   UNL A   1      45.346  29.813  37.531  1.00  0.00     0.031 C 
ATOM     61  C   UNL A   1      44.452  26.634  32.428  1.00  0.00     0.029 A 
ATOM     62  C   UNL A   1      44.323  27.568  33.445  1.00  0.00     0.049 A 
ATOM     63  H   UNL A   1      42.899  29.110  33.650  1.00  0.00     0.167 HD
ATOM     64  C   UNL A   1      44.949  28.682  35.575  1.00  0.00     0.074 A 
ATOM     65  C   UNL A   1      45.776  28.831  36.754  1.00  0.00     0.031 C 
ATOM     66  C   UNL A   1      45.135  27.724  34.630  1.00  0.00     0.034 A 
BRANCH  53  67
ATOM     67  C   UNL A   1      41.010  27.908  29.996  1.00  0.00     0.023 A 
ATOM     68  C   UNL A   1      41.727  27.966  28.788  1.00  0.00     0.031 A 
ATOM     69  C   UNL A   1      39.749  27.285  29.984  1.00  0.00     0.131 A 
ATOM     70  C   UNL A   1      41.148  27.476  27.607  1.00  0.00     0.055 A 
ATOM     71  C   UNL A   1      39.217  26.722  28.822  1.00  0.00     0.041 A 
ATOM     72  F   UNL A   1      39.005  27.227  31.099  1.00  0.00    -0.206 F 
ATOM     73  C   UNL A   1      39.910  26.829  27.621  1.00  0.00     0.022 A 
BRANCH  70  74
ATOM     74  S   UNL A   1      41.965  27.834  26.027  1.00  0.00     0.124 S 
ATOM     75  O   UNL A   1      41.571  26.679  25.223  1.00  0.00    -0.237 OA
ATOM     76  O   UNL A   1      41.370  29.110  25.646  1.00  0.00    -0.237 OA
ATOM     77  O   UNL A   1      43.382  27.885  26.378  1.00  0.00    -0.744 OA
ENDBRANCH  70  74
ENDBRANCH  53  67
BRANCH  54  78
ATOM     78  C   UNL A   1      43.962  32.171  38.596  1.00  0.00     0.023 A 
ATOM     79  C   UNL A   1      43.415  31.731  39.813  1.00  0.00     0.031 A 
ATOM     80  C   UNL A   1      44.878  33.239  38.638  1.00  0.00     0.131 A 
ATOM     81  C   UNL A   1      43.747  32.386  41.009  1.00  0.00     0.055 A 
ATOM     82  C   UNL A   1      45.251  33.847  39.837  1.00  0.00     0.041 A 
ATOM     83  F   UNL A   1      45.426  33.708  37.505  1.00  0.00    -0.206 F 
ATOM     84  C   UNL A   1      44.674  33.431  41.032  1.00  0.00     0.022 A 
BRANCH  81  85
ATOM     85  S   UNL A   1      42.868  31.921  42.527  1.00  0.00     0.124 S 
ATOM     86  O   UNL A   1      41.733  32.836  42.504  1.00  0.00    -0.237 OA
ATOM     87  O   UNL A   1      42.565  30.515  42.282  1.00  0.00    -0.237 OA
ATOM     88  O   UNL A   1      43.852  32.170  43.578  1.00  0.00    -0.744 OA
ENDBRANCH  81  85
ENDBRANCH  54  78
BRANCH  66  89
ATOM     89  C   UNL A   1      46.315  26.796  34.807  1.00  0.00     0.023 A 
ATOM     90  C   UNL A   1      47.586  27.097  34.286  1.00  0.00     0.031 A 
ATOM     91  C   UNL A   1      46.160  25.587  35.510  1.00  0.00     0.131 A 
ATOM     92  C   UNL A   1      48.635  26.174  34.425  1.00  0.00     0.055 A 
ATOM     93  C   UNL A   1      47.225  24.708  35.709  1.00  0.00     0.041 A 
ATOM     94  F   UNL A   1      44.969  25.245  36.027  1.00  0.00    -0.206 F 
ATOM     95  C   UNL A   1      48.468  24.993  35.152  1.00  0.00     0.022 A 
BRANCH  92  96
ATOM     96  S   UNL A   1      50.193  26.490  33.554  1.00  0.00     0.124 S 
ATOM     97  O   UNL A   1      50.631  27.743  34.160  1.00  0.00    -0.237 OA
ATOM     98  O   UNL A   1      50.984  25.310  33.889  1.00  0.00    -0.237 OA
ATOM     99  O   UNL A   1      49.788  26.587  32.152  1.00  0.00    -0.744 OA
ENDBRANCH  92  96
ENDBRANCH  66  89
ENDBRANCH  40  41
ENDBRANCH  33  35
ENDBRANCH  32  33
ENDBRANCH  31  32
ENDBRANCH  30  31
ENDBRANCH  29  30
ENDBRANCH  28  29
ENDBRANCH  27  28
ENDBRANCH  26  27
ENDBRANCH   1  26
TORSDOF 27
ENDMDL
