MODEL 1
REMARK VINA RESULT:      -6.7      0.000      0.000
REMARK SMILES Cc1ccc(N2C(=O)S/C(=C/c3cccc(O[C@H](C)C(=O)OCCOCCOCCOCCOC(=O)c4ccc(-c5c6nc(c(-c7cc(S(=O)(=O)[O-])ccc7F)c7ccc([nH]7)c(-c7cc(S(=O)(=O)[O-])ccc7F)c7nc(c(-c8cc(S(=O)(=O)[O-])ccc8F)c8ccc5[nH]8)C=C7)C=C6)cc4)c3)C2=O)c(C)c1
REMARK SMILES IDX 27 1 26 2 25 3 24 4 23 5 22 6 20 7 21 8 18 9 19 10 17 11
REMARK SMILES IDX 16 12 12 13 13 14 100 15 14 16 15 17 11 18 6 19 7 20 101 21
REMARK SMILES IDX 8 22 9 23 10 24 102 25 5 26 1 27 2 28 3 29 105 30 4 31
REMARK SMILES IDX 103 32 104 33 28 34 29 35 30 36 31 37 32 38 33 39 34 40
REMARK SMILES IDX 35 41 36 42 37 43 38 44 99 45 39 46 98 47 40 48 41 49 42 50
REMARK SMILES IDX 92 51 43 52 97 53 91 54 93 55 44 56 96 57 90 58 89 59 45 61
REMARK SMILES IDX 77 62 57 63 76 64 58 65 61 66 75 67 94 68 59 69 60 70 74 72
REMARK SMILES IDX 95 73 62 74 46 75 47 76 55 77 48 78 54 79 56 80 53 81 49 82
REMARK SMILES IDX 50 83 51 84 52 85 78 86 79 87 87 88 80 89 86 90 88 91 85 92
REMARK SMILES IDX 81 93 82 94 83 95 84 96 63 97 64 98 72 99 65 100 71 101
REMARK SMILES IDX 73 102 70 103 66 104 67 105 68 106 69 107
REMARK H PARENT 93 60 61 71
REMARK Flexibility Score: inf
ROOT
ATOM      1  C   UNL A   1      49.779  24.918  35.877  1.00  0.00     0.188 C 
ENDROOT
BRANCH   1   2
ATOM      2  C   UNL A   1      48.392  24.687  35.240  1.00  0.00     0.188 C 
BRANCH   2   3
ATOM      3  O   UNL A   1      48.110  23.615  34.348  1.00  0.00    -0.376 OA
BRANCH   3   4
ATOM      4  C   UNL A   1      47.715  22.327  34.777  1.00  0.00     0.202 C 
BRANCH   4   5
ATOM      5  C   UNL A   1      46.731  22.144  35.934  1.00  0.00     0.261 C 
BRANCH   5   6
ATOM      6  O   UNL A   1      45.332  22.337  35.710  1.00  0.00    -0.461 OA
BRANCH   6   7
ATOM      7  C   UNL A   1      44.864  23.608  35.736  1.00  0.00     0.347 C 
ATOM      8  O   UNL A   1      45.119  24.440  36.604  1.00  0.00    -0.248 OA
BRANCH   7   9
ATOM      9  C   UNL A   1      43.818  23.865  34.657  1.00  0.00     0.279 C 
ATOM     10  C   UNL A   1      42.372  23.630  35.126  1.00  0.00     0.066 C 
BRANCH   9  11
ATOM     11  O   UNL A   1      43.910  25.060  33.878  1.00  0.00    -0.479 OA
BRANCH  11  12
ATOM     12  C   UNL A   1      44.650  25.131  32.735  1.00  0.00     0.121 A 
ATOM     13  C   UNL A   1      44.700  24.504  30.388  1.00  0.00    -0.021 A 
ATOM     14  C   UNL A   1      45.876  25.223  30.190  1.00  0.00     0.008 A 
ATOM     15  C   UNL A   1      44.095  24.463  31.654  1.00  0.00     0.054 A 
ATOM     16  C   UNL A   1      46.486  25.819  31.278  1.00  0.00     0.004 A 
ATOM     17  C   UNL A   1      45.904  25.707  32.543  1.00  0.00     0.046 A 
BRANCH  13  18
ATOM     18  C   UNL A   1      44.087  23.791  29.274  1.00  0.00     0.029 C 
ATOM     19  N   UNL A   1      41.259  25.639  27.917  1.00  0.00    -0.236 N 
ATOM     20  C   UNL A   1      40.943  24.499  27.208  1.00  0.00     0.298 C 
ATOM     21  C   UNL A   1      42.328  25.548  28.783  1.00  0.00     0.272 C 
ATOM     22  O   UNL A   1      39.964  24.256  26.531  1.00  0.00    -0.260 OA
ATOM     23  S   UNL A   1      42.219  23.303  27.406  1.00  0.00    -0.022 SA
ATOM     24  C   UNL A   1      43.022  24.240  28.600  1.00  0.00     0.083 C 
ATOM     25  O   UNL A   1      42.640  26.373  29.634  1.00  0.00    -0.268 OA
BRANCH  19  26
ATOM     26  C   UNL A   1      40.448  26.804  27.888  1.00  0.00     0.056 A 
ATOM     27  C   UNL A   1      37.937  30.317  27.957  1.00  0.00     0.044 C 
ATOM     28  C   UNL A   1      38.815  29.103  27.964  1.00  0.00    -0.051 A 
ATOM     29  C   UNL A   1      38.579  28.044  28.840  1.00  0.00     0.005 A 
ATOM     30  C   UNL A   1      39.870  29.008  27.051  1.00  0.00     0.009 A 
ATOM     31  C   UNL A   1      39.382  26.905  28.797  1.00  0.00     0.027 A 
ATOM     32  C   UNL A   1      40.692  27.868  26.991  1.00  0.00    -0.026 A 
ATOM     33  C   UNL A   1      41.753  27.863  25.919  1.00  0.00     0.046 C 
ENDBRANCH  19  26
ENDBRANCH  13  18
ENDBRANCH  11  12
ENDBRANCH   9  11
ENDBRANCH   7   9
ENDBRANCH   6   7
ENDBRANCH   5   6
ENDBRANCH   4   5
ENDBRANCH   3   4
ENDBRANCH   2   3
ENDBRANCH   1   2
BRANCH   1  34
ATOM     34  O   UNL A   1      50.082  24.085  36.977  1.00  0.00    -0.377 OA
BRANCH  34  35
ATOM     35  C   UNL A   1      51.228  23.248  36.871  1.00  0.00     0.188 C 
BRANCH  35  36
ATOM     36  C   UNL A   1      51.250  22.202  35.740  1.00  0.00     0.188 C 
BRANCH  36  37
ATOM     37  O   UNL A   1      51.898  22.650  34.561  1.00  0.00    -0.376 OA
BRANCH  37  38
ATOM     38  C   UNL A   1      51.260  22.577  33.300  1.00  0.00     0.202 C 
BRANCH  38  39
ATOM     39  C   UNL A   1      51.573  23.632  32.228  1.00  0.00     0.261 C 
BRANCH  39  40
ATOM     40  O   UNL A   1      50.708  24.771  32.148  1.00  0.00    -0.460 OA
BRANCH  40  41
ATOM     41  C   UNL A   1      51.176  25.958  32.593  1.00  0.00     0.338 C 
ATOM     42  O   UNL A   1      52.285  26.181  33.038  1.00  0.00    -0.246 OA
BRANCH  41  43
ATOM     43  C   UNL A   1      50.173  26.987  32.237  1.00  0.00     0.060 A 
ATOM     44  C   UNL A   1      49.796  27.138  30.894  1.00  0.00     0.016 A 
ATOM     45  C   UNL A   1      49.596  27.787  33.225  1.00  0.00     0.016 A 
ATOM     46  C   UNL A   1      48.875  28.121  30.532  1.00  0.00     0.010 A 
ATOM     47  C   UNL A   1      48.698  28.792  32.858  1.00  0.00     0.010 A 
ATOM     48  C   UNL A   1      48.366  28.988  31.506  1.00  0.00    -0.014 A 
BRANCH  48  49
ATOM     49  C   UNL A   1      47.694  30.242  31.085  1.00  0.00     0.031 A 
ATOM     50  C   UNL A   1      46.217  30.367  31.344  1.00  0.00     0.074 A 
ATOM     51  C   UNL A   1      48.376  31.254  30.519  1.00  0.00     0.049 A 
ATOM     52  N   UNL A   1      45.388  31.320  31.011  1.00  0.00    -0.248 NA
ATOM     53  C   UNL A   1      45.591  29.252  32.075  1.00  0.00     0.031 C 
ATOM     54  C   UNL A   1      49.817  31.272  30.280  1.00  0.00     0.029 A 
ATOM     55  N   UNL A   1      47.937  32.462  30.036  1.00  0.00    -0.354 N 
ATOM     56  C   UNL A   1      44.143  30.920  31.483  1.00  0.00     0.074 A 
ATOM     57  C   UNL A   1      44.320  29.618  32.090  1.00  0.00     0.031 C 
ATOM     58  C   UNL A   1      50.143  32.432  29.682  1.00  0.00     0.029 A 
ATOM     59  C   UNL A   1      48.929  33.216  29.455  1.00  0.00     0.049 A 
ATOM     60  H   UNL A   1      47.001  32.759  30.099  1.00  0.00     0.167 HD
ATOM     61  C   UNL A   1      42.962  31.581  31.423  1.00  0.00     0.034 A 
ATOM     62  C   UNL A   1      48.855  34.388  28.789  1.00  0.00     0.034 A 
ATOM     63  C   UNL A   1      42.804  32.872  30.800  1.00  0.00     0.049 A 
ATOM     64  C   UNL A   1      47.508  35.059  28.640  1.00  0.00     0.074 A 
ATOM     65  C   UNL A   1      41.657  33.637  30.684  1.00  0.00     0.029 A 
ATOM     66  N   UNL A   1      43.820  33.583  30.174  1.00  0.00    -0.354 N 
ATOM     67  N   UNL A   1      46.335  34.672  29.088  1.00  0.00    -0.248 NA
ATOM     68  C   UNL A   1      47.477  36.329  27.901  1.00  0.00     0.031 C 
ATOM     69  C   UNL A   1      41.960  34.765  29.915  1.00  0.00     0.029 A 
ATOM     70  C   UNL A   1      43.318  34.757  29.636  1.00  0.00     0.049 A 
ATOM     71  H   UNL A   1      44.761  33.295  30.121  1.00  0.00     0.167 HD
ATOM     72  C   UNL A   1      45.436  35.672  28.718  1.00  0.00     0.074 A 
ATOM     73  C   UNL A   1      46.207  36.682  28.022  1.00  0.00     0.031 C 
ATOM     74  C   UNL A   1      44.098  35.754  28.938  1.00  0.00     0.034 A 
BRANCH  61  75
ATOM     75  C   UNL A   1      41.746  30.888  31.988  1.00  0.00     0.023 A 
ATOM     76  C   UNL A   1      41.319  31.098  33.312  1.00  0.00     0.031 A 
ATOM     77  C   UNL A   1      41.020  29.977  31.200  1.00  0.00     0.131 A 
ATOM     78  C   UNL A   1      40.245  30.355  33.827  1.00  0.00     0.055 A 
ATOM     79  C   UNL A   1      39.899  29.306  31.691  1.00  0.00     0.041 A 
ATOM     80  F   UNL A   1      41.398  29.712  29.940  1.00  0.00    -0.206 F 
ATOM     81  C   UNL A   1      39.514  29.482  33.017  1.00  0.00     0.022 A 
BRANCH  78  82
ATOM     82  S   UNL A   1      39.914  30.431  35.608  1.00  0.00     0.124 S 
ATOM     83  O   UNL A   1      40.632  29.254  36.092  1.00  0.00    -0.237 OA
ATOM     84  O   UNL A   1      40.481  31.722  35.980  1.00  0.00    -0.237 OA
ATOM     85  O   UNL A   1      38.457  30.341  35.690  1.00  0.00    -0.744 OA
ENDBRANCH  78  82
ENDBRANCH  61  75
BRANCH  62  86
ATOM     86  C   UNL A   1      50.075  34.988  28.171  1.00  0.00     0.023 A 
ATOM     87  C   UNL A   1      50.455  34.670  26.858  1.00  0.00     0.031 A 
ATOM     88  C   UNL A   1      50.920  35.836  28.912  1.00  0.00     0.131 A 
ATOM     89  C   UNL A   1      51.669  35.152  26.343  1.00  0.00     0.055 A 
ATOM     90  C   UNL A   1      52.096  36.363  28.373  1.00  0.00     0.041 A 
ATOM     91  F   UNL A   1      50.613  36.169  30.175  1.00  0.00    -0.206 F 
ATOM     92  C   UNL A   1      52.484  36.009  27.086  1.00  0.00     0.022 A 
BRANCH  89  93
ATOM     93  S   UNL A   1      52.221  34.556  24.721  1.00  0.00     0.124 S 
ATOM     94  O   UNL A   1      53.525  33.986  25.043  1.00  0.00    -0.237 OA
ATOM     95  O   UNL A   1      51.171  33.603  24.376  1.00  0.00    -0.237 OA
ATOM     96  O   UNL A   1      52.252  35.769  23.906  1.00  0.00    -0.744 OA
ENDBRANCH  89  93
ENDBRANCH  62  86
BRANCH  74  97
ATOM     97  C   UNL A   1      43.392  37.006  28.469  1.00  0.00     0.023 A 
ATOM     98  C   UNL A   1      43.401  38.193  29.221  1.00  0.00     0.031 A 
ATOM     99  C   UNL A   1      42.698  37.007  27.244  1.00  0.00     0.131 A 
ATOM    100  C   UNL A   1      42.678  39.310  28.773  1.00  0.00     0.055 A 
ATOM    101  C   UNL A   1      42.042  38.143  26.769  1.00  0.00     0.041 A 
ATOM    102  F   UNL A   1      42.652  35.901  26.484  1.00  0.00    -0.206 F 
ATOM    103  C   UNL A   1      42.017  39.300  27.542  1.00  0.00     0.022 A 
BRANCH 100 104
ATOM    104  S   UNL A   1      42.520  40.744  29.873  1.00  0.00     0.124 S 
ATOM    105  O   UNL A   1      43.448  41.693  29.268  1.00  0.00    -0.237 OA
ATOM    106  O   UNL A   1      41.104  41.074  29.756  1.00  0.00    -0.237 OA
ATOM    107  O   UNL A   1      42.930  40.223  31.176  1.00  0.00    -0.744 OA
ENDBRANCH 100 104
ENDBRANCH  74  97
ENDBRANCH  48  49
ENDBRANCH  41  43
ENDBRANCH  40  41
ENDBRANCH  39  40
ENDBRANCH  38  39
ENDBRANCH  37  38
ENDBRANCH  36  37
ENDBRANCH  35  36
ENDBRANCH  34  35
ENDBRANCH   1  34
TORSDOF 27
ENDMDL
MODEL 2
REMARK VINA RESULT:      -6.6      7.102     10.773
REMARK SMILES Cc1ccc(N2C(=O)S/C(=C/c3cccc(O[C@H](C)C(=O)OCCOCCOCCOCCOC(=O)c4ccc(-c5c6nc(c(-c7cc(S(=O)(=O)[O-])ccc7F)c7ccc([nH]7)c(-c7cc(S(=O)(=O)[O-])ccc7F)c7nc(c(-c8cc(S(=O)(=O)[O-])ccc8F)c8ccc5[nH]8)C=C7)C=C6)cc4)c3)C2=O)c(C)c1
REMARK SMILES IDX 27 1 26 2 25 3 24 4 23 5 22 6 20 7 21 8 18 9 19 10 17 11
REMARK SMILES IDX 16 12 12 13 13 14 100 15 14 16 15 17 11 18 6 19 7 20 101 21
REMARK SMILES IDX 8 22 9 23 10 24 102 25 5 26 1 27 2 28 3 29 105 30 4 31
REMARK SMILES IDX 103 32 104 33 28 34 29 35 30 36 31 37 32 38 33 39 34 40
REMARK SMILES IDX 35 41 36 42 37 43 38 44 99 45 39 46 98 47 40 48 41 49 42 50
REMARK SMILES IDX 92 51 43 52 97 53 91 54 93 55 44 56 96 57 90 58 89 59 45 61
REMARK SMILES IDX 77 62 57 63 76 64 58 65 61 66 75 67 94 68 59 69 60 70 74 72
REMARK SMILES IDX 95 73 62 74 46 75 47 76 55 77 48 78 54 79 56 80 53 81 49 82
REMARK SMILES IDX 50 83 51 84 52 85 78 86 79 87 87 88 80 89 86 90 88 91 85 92
REMARK SMILES IDX 81 93 82 94 83 95 84 96 63 97 64 98 72 99 65 100 71 101
REMARK SMILES IDX 73 102 70 103 66 104 67 105 68 106 69 107
REMARK H PARENT 93 60 61 71
REMARK Flexibility Score: inf
ROOT
ATOM      1  C   UNL A   1      43.251  27.074  30.149  1.00  0.00     0.188 C 
ENDROOT
BRANCH   1   2
ATOM      2  C   UNL A   1      44.372  26.218  30.777  1.00  0.00     0.188 C 
BRANCH   2   3
ATOM      3  O   UNL A   1      45.057  25.189  30.072  1.00  0.00    -0.376 OA
BRANCH   3   4
ATOM      4  C   UNL A   1      46.034  25.440  29.080  1.00  0.00     0.202 C 
BRANCH   4   5
ATOM      5  C   UNL A   1      45.637  25.895  27.675  1.00  0.00     0.261 C 
BRANCH   5   6
ATOM      6  O   UNL A   1      46.406  25.466  26.548  1.00  0.00    -0.461 OA
BRANCH   6   7
ATOM      7  C   UNL A   1      45.729  25.067  25.445  1.00  0.00     0.347 C 
ATOM      8  O   UNL A   1      46.239  24.769  24.368  1.00  0.00    -0.248 OA
BRANCH   7   9
ATOM      9  C   UNL A   1      44.219  25.198  25.612  1.00  0.00     0.279 C 
ATOM     10  C   UNL A   1      43.639  26.491  25.012  1.00  0.00     0.066 C 
BRANCH   9  11
ATOM     11  O   UNL A   1      43.390  24.077  25.297  1.00  0.00    -0.479 OA
BRANCH  11  12
ATOM     12  C   UNL A   1      42.688  23.397  26.248  1.00  0.00     0.121 A 
ATOM     13  C   UNL A   1      41.194  21.517  26.613  1.00  0.00    -0.021 A 
ATOM     14  C   UNL A   1      41.238  21.712  27.991  1.00  0.00     0.008 A 
ATOM     15  C   UNL A   1      41.917  22.357  25.752  1.00  0.00     0.054 A 
ATOM     16  C   UNL A   1      41.931  22.799  28.491  1.00  0.00     0.004 A 
ATOM     17  C   UNL A   1      42.586  23.664  27.611  1.00  0.00     0.046 A 
BRANCH  13  18
ATOM     18  C   UNL A   1      40.396  20.432  26.058  1.00  0.00     0.029 C 
ATOM     19  N   UNL A   1      36.995  21.521  25.345  1.00  0.00    -0.236 N 
ATOM     20  C   UNL A   1      36.681  20.191  25.166  1.00  0.00     0.298 C 
ATOM     21  C   UNL A   1      38.284  21.799  25.750  1.00  0.00     0.272 C 
ATOM     22  O   UNL A   1      35.597  19.669  24.992  1.00  0.00    -0.260 OA
ATOM     23  S   UNL A   1      38.147  19.219  25.225  1.00  0.00    -0.022 SA
ATOM     24  C   UNL A   1      39.108  20.555  25.718  1.00  0.00     0.083 C 
ATOM     25  O   UNL A   1      38.698  22.881  26.150  1.00  0.00    -0.268 OA
BRANCH  19  26
ATOM     26  C   UNL A   1      36.022  22.551  25.276  1.00  0.00     0.056 A 
ATOM     27  C   UNL A   1      33.073  25.707  25.226  1.00  0.00     0.044 C 
ATOM     28  C   UNL A   1      34.111  24.628  25.266  1.00  0.00    -0.051 A 
ATOM     29  C   UNL A   1      34.369  23.916  26.437  1.00  0.00     0.005 A 
ATOM     30  C   UNL A   1      34.811  24.297  24.101  1.00  0.00     0.009 A 
ATOM     31  C   UNL A   1      35.308  22.885  26.439  1.00  0.00     0.027 A 
ATOM     32  C   UNL A   1      35.762  23.261  24.082  1.00  0.00    -0.026 A 
ATOM     33  C   UNL A   1      36.399  22.962  22.748  1.00  0.00     0.046 C 
ENDBRANCH  19  26
ENDBRANCH  13  18
ENDBRANCH  11  12
ENDBRANCH   9  11
ENDBRANCH   7   9
ENDBRANCH   6   7
ENDBRANCH   5   6
ENDBRANCH   4   5
ENDBRANCH   3   4
ENDBRANCH   2   3
ENDBRANCH   1   2
BRANCH   1  34
ATOM     34  O   UNL A   1      42.236  26.345  29.489  1.00  0.00    -0.377 OA
BRANCH  34  35
ATOM     35  C   UNL A   1      41.374  27.064  28.615  1.00  0.00     0.188 C 
BRANCH  35  36
ATOM     36  C   UNL A   1      39.972  27.434  29.135  1.00  0.00     0.188 C 
BRANCH  36  37
ATOM     37  O   UNL A   1      39.180  28.135  28.190  1.00  0.00    -0.376 OA
BRANCH  37  38
ATOM     38  C   UNL A   1      38.446  29.287  28.560  1.00  0.00     0.202 C 
BRANCH  38  39
ATOM     39  C   UNL A   1      37.789  29.357  29.947  1.00  0.00     0.261 C 
BRANCH  39  40
ATOM     40  O   UNL A   1      37.440  30.652  30.450  1.00  0.00    -0.460 OA
BRANCH  40  41
ATOM     41  C   UNL A   1      36.846  30.726  31.661  1.00  0.00     0.338 C 
ATOM     42  O   UNL A   1      35.928  30.038  32.063  1.00  0.00    -0.246 OA
BRANCH  41  43
ATOM     43  C   UNL A   1      37.656  31.645  32.494  1.00  0.00     0.060 A 
ATOM     44  C   UNL A   1      38.929  31.237  32.919  1.00  0.00     0.016 A 
ATOM     45  C   UNL A   1      37.169  32.907  32.837  1.00  0.00     0.016 A 
ATOM     46  C   UNL A   1      39.698  32.074  33.728  1.00  0.00     0.010 A 
ATOM     47  C   UNL A   1      37.925  33.731  33.673  1.00  0.00     0.010 A 
ATOM     48  C   UNL A   1      39.174  33.300  34.154  1.00  0.00    -0.014 A 
BRANCH  48  49
ATOM     49  C   UNL A   1      39.814  34.010  35.289  1.00  0.00     0.031 A 
ATOM     50  C   UNL A   1      39.304  33.720  36.675  1.00  0.00     0.074 A 
ATOM     51  C   UNL A   1      40.837  34.863  35.102  1.00  0.00     0.049 A 
ATOM     52  N   UNL A   1      39.640  34.256  37.818  1.00  0.00    -0.248 NA
ATOM     53  C   UNL A   1      38.264  32.683  36.778  1.00  0.00     0.031 C 
ATOM     54  C   UNL A   1      41.455  35.171  33.815  1.00  0.00     0.029 A 
ATOM     55  N   UNL A   1      41.529  35.632  36.004  1.00  0.00    -0.354 N 
ATOM     56  C   UNL A   1      38.849  33.630  38.775  1.00  0.00     0.074 A 
ATOM     57  C   UNL A   1      37.990  32.703  38.073  1.00  0.00     0.031 C 
ATOM     58  C   UNL A   1      42.431  36.077  34.009  1.00  0.00     0.029 A 
ATOM     59  C   UNL A   1      42.473  36.447  35.423  1.00  0.00     0.049 A 
ATOM     60  H   UNL A   1      41.364  35.605  36.974  1.00  0.00     0.167 HD
ATOM     61  C   UNL A   1      38.848  33.808  40.118  1.00  0.00     0.034 A 
ATOM     62  C   UNL A   1      43.256  37.400  35.971  1.00  0.00     0.034 A 
ATOM     63  C   UNL A   1      39.703  34.749  40.798  1.00  0.00     0.049 A 
ATOM     64  C   UNL A   1      43.161  37.658  37.458  1.00  0.00     0.074 A 
ATOM     65  C   UNL A   1      39.789  35.009  42.154  1.00  0.00     0.029 A 
ATOM     66  N   UNL A   1      40.610  35.595  40.173  1.00  0.00    -0.354 N 
ATOM     67  N   UNL A   1      42.409  37.062  38.356  1.00  0.00    -0.248 NA
ATOM     68  C   UNL A   1      44.027  38.711  38.006  1.00  0.00     0.031 C 
ATOM     69  C   UNL A   1      40.682  36.070  42.339  1.00  0.00     0.029 A 
ATOM     70  C   UNL A   1      41.230  36.405  41.111  1.00  0.00     0.049 A 
ATOM     71  H   UNL A   1      40.787  35.616  39.204  1.00  0.00     0.167 HD
ATOM     72  C   UNL A   1      42.742  37.644  39.579  1.00  0.00     0.074 A 
ATOM     73  C   UNL A   1      43.770  38.625  39.302  1.00  0.00     0.031 C 
ATOM     74  C   UNL A   1      42.250  37.386  40.820  1.00  0.00     0.034 A 
BRANCH  61  75
ATOM     75  C   UNL A   1      37.847  33.014  40.923  1.00  0.00     0.023 A 
ATOM     76  C   UNL A   1      36.528  33.461  41.118  1.00  0.00     0.031 A 
ATOM     77  C   UNL A   1      38.228  31.805  41.532  1.00  0.00     0.131 A 
ATOM     78  C   UNL A   1      35.663  32.742  41.959  1.00  0.00     0.055 A 
ATOM     79  C   UNL A   1      37.336  31.049  42.295  1.00  0.00     0.041 A 
ATOM     80  F   UNL A   1      39.482  31.342  41.407  1.00  0.00    -0.206 F 
ATOM     81  C   UNL A   1      36.048  31.525  42.524  1.00  0.00     0.022 A 
BRANCH  78  82
ATOM     82  S   UNL A   1      34.081  33.498  42.423  1.00  0.00     0.124 S 
ATOM     83  O   UNL A   1      33.312  32.333  42.852  1.00  0.00    -0.237 OA
ATOM     84  O   UNL A   1      34.472  34.428  43.476  1.00  0.00    -0.237 OA
ATOM     85  O   UNL A   1      33.620  34.118  41.182  1.00  0.00    -0.744 OA
ENDBRANCH  78  82
ENDBRANCH  61  75
BRANCH  62  86
ATOM     86  C   UNL A   1      44.165  38.219  35.115  1.00  0.00     0.023 A 
ATOM     87  C   UNL A   1      43.705  39.375  34.465  1.00  0.00     0.031 A 
ATOM     88  C   UNL A   1      45.493  37.818  34.878  1.00  0.00     0.131 A 
ATOM     89  C   UNL A   1      44.545  40.058  33.571  1.00  0.00     0.055 A 
ATOM     90  C   UNL A   1      46.345  38.537  34.036  1.00  0.00     0.041 A 
ATOM     91  F   UNL A   1      45.987  36.717  35.467  1.00  0.00    -0.206 F 
ATOM     92  C   UNL A   1      45.866  39.656  33.364  1.00  0.00     0.022 A 
BRANCH  89  93
ATOM     93  S   UNL A   1      43.850  41.423  32.598  1.00  0.00     0.124 S 
ATOM     94  O   UNL A   1      44.322  42.586  33.341  1.00  0.00    -0.237 OA
ATOM     95  O   UNL A   1      44.462  41.204  31.291  1.00  0.00    -0.237 OA
ATOM     96  O   UNL A   1      42.410  41.183  32.658  1.00  0.00    -0.744 OA
ENDBRANCH  89  93
ENDBRANCH  62  86
BRANCH  74  97
ATOM     97  C   UNL A   1      42.860  38.140  41.979  1.00  0.00     0.023 A 
ATOM     98  C   UNL A   1      42.339  39.364  42.430  1.00  0.00     0.031 A 
ATOM     99  C   UNL A   1      43.987  37.619  42.643  1.00  0.00     0.131 A 
ATOM    100  C   UNL A   1      42.979  40.057  43.470  1.00  0.00     0.055 A 
ATOM    101  C   UNL A   1      44.575  38.277  43.724  1.00  0.00     0.041 A 
ATOM    102  F   UNL A   1      44.532  36.455  42.255  1.00  0.00    -0.206 F 
ATOM    103  C   UNL A   1      44.080  39.511  44.134  1.00  0.00     0.022 A 
BRANCH 100 104
ATOM    104  S   UNL A   1      42.419  41.735  43.873  1.00  0.00     0.124 S 
ATOM    105  O   UNL A   1      41.205  41.474  44.639  1.00  0.00    -0.237 OA
ATOM    106  O   UNL A   1      43.548  42.268  44.629  1.00  0.00    -0.237 OA
ATOM    107  O   UNL A   1      42.205  42.348  42.563  1.00  0.00    -0.744 OA
ENDBRANCH 100 104
ENDBRANCH  74  97
ENDBRANCH  48  49
ENDBRANCH  41  43
ENDBRANCH  40  41
ENDBRANCH  39  40
ENDBRANCH  38  39
ENDBRANCH  37  38
ENDBRANCH  36  37
ENDBRANCH  35  36
ENDBRANCH  34  35
ENDBRANCH   1  34
TORSDOF 27
ENDMDL
MODEL 3
REMARK VINA RESULT:      -6.4      7.502     13.004
REMARK SMILES Cc1ccc(N2C(=O)S/C(=C/c3cccc(O[C@H](C)C(=O)OCCOCCOCCOCCOC(=O)c4ccc(-c5c6nc(c(-c7cc(S(=O)(=O)[O-])ccc7F)c7ccc([nH]7)c(-c7cc(S(=O)(=O)[O-])ccc7F)c7nc(c(-c8cc(S(=O)(=O)[O-])ccc8F)c8ccc5[nH]8)C=C7)C=C6)cc4)c3)C2=O)c(C)c1
REMARK SMILES IDX 27 1 26 2 25 3 24 4 23 5 22 6 20 7 21 8 18 9 19 10 17 11
REMARK SMILES IDX 16 12 12 13 13 14 100 15 14 16 15 17 11 18 6 19 7 20 101 21
REMARK SMILES IDX 8 22 9 23 10 24 102 25 5 26 1 27 2 28 3 29 105 30 4 31
REMARK SMILES IDX 103 32 104 33 28 34 29 35 30 36 31 37 32 38 33 39 34 40
REMARK SMILES IDX 35 41 36 42 37 43 38 44 99 45 39 46 98 47 40 48 41 49 42 50
REMARK SMILES IDX 92 51 43 52 97 53 91 54 93 55 44 56 96 57 90 58 89 59 45 61
REMARK SMILES IDX 77 62 57 63 76 64 58 65 61 66 75 67 94 68 59 69 60 70 74 72
REMARK SMILES IDX 95 73 62 74 46 75 47 76 55 77 48 78 54 79 56 80 53 81 49 82
REMARK SMILES IDX 50 83 51 84 52 85 78 86 79 87 87 88 80 89 86 90 88 91 85 92
REMARK SMILES IDX 81 93 82 94 83 95 84 96 63 97 64 98 72 99 65 100 71 101
REMARK SMILES IDX 73 102 70 103 66 104 67 105 68 106 69 107
REMARK H PARENT 93 60 61 71
REMARK Flexibility Score: inf
ROOT
ATOM      1  C   UNL A   1      41.248  35.205  29.502  1.00  0.00     0.188 C 
ENDROOT
BRANCH   1   2
ATOM      2  C   UNL A   1      40.284  34.036  29.796  1.00  0.00     0.188 C 
BRANCH   2   3
ATOM      3  O   UNL A   1      40.697  32.815  30.400  1.00  0.00    -0.376 OA
BRANCH   3   4
ATOM      4  C   UNL A   1      39.806  31.767  30.731  1.00  0.00     0.202 C 
BRANCH   4   5
ATOM      5  C   UNL A   1      39.170  30.896  29.646  1.00  0.00     0.261 C 
BRANCH   5   6
ATOM      6  O   UNL A   1      39.737  29.619  29.342  1.00  0.00    -0.461 OA
BRANCH   6   7
ATOM      7  C   UNL A   1      38.880  28.599  29.094  1.00  0.00     0.347 C 
ATOM      8  O   UNL A   1      37.878  28.669  28.387  1.00  0.00    -0.248 OA
BRANCH   7   9
ATOM      9  C   UNL A   1      39.183  27.368  29.943  1.00  0.00     0.279 C 
ATOM     10  C   UNL A   1      38.552  27.413  31.346  1.00  0.00     0.066 C 
BRANCH   9  11
ATOM     11  O   UNL A   1      39.028  26.073  29.358  1.00  0.00    -0.479 OA
BRANCH  11  12
ATOM     12  C   UNL A   1      39.820  25.632  28.340  1.00  0.00     0.121 A 
ATOM     13  C   UNL A   1      40.224  23.766  26.836  1.00  0.00    -0.021 A 
ATOM     14  C   UNL A   1      41.193  24.493  26.148  1.00  0.00     0.008 A 
ATOM     15  C   UNL A   1      39.545  24.338  27.924  1.00  0.00     0.054 A 
ATOM     16  C   UNL A   1      41.538  25.750  26.609  1.00  0.00     0.004 A 
ATOM     17  C   UNL A   1      40.898  26.273  27.736  1.00  0.00     0.046 A 
BRANCH  13  18
ATOM     18  C   UNL A   1      39.908  22.405  26.425  1.00  0.00     0.029 C 
ATOM     19  N   UNL A   1      36.533  22.179  25.079  1.00  0.00    -0.236 N 
ATOM     20  C   UNL A   1      36.673  20.809  25.144  1.00  0.00     0.298 C 
ATOM     21  C   UNL A   1      37.579  22.929  25.575  1.00  0.00     0.272 C 
ATOM     22  O   UNL A   1      35.849  19.938  24.949  1.00  0.00    -0.260 OA
ATOM     23  S   UNL A   1      38.326  20.400  25.590  1.00  0.00    -0.022 SA
ATOM     24  C   UNL A   1      38.730  22.039  25.908  1.00  0.00     0.083 C 
ATOM     25  O   UNL A   1      37.566  24.135  25.788  1.00  0.00    -0.268 OA
BRANCH  19  26
ATOM     26  C   UNL A   1      35.325  22.804  24.673  1.00  0.00     0.056 A 
ATOM     27  C   UNL A   1      31.673  24.647  23.286  1.00  0.00     0.044 C 
ATOM     28  C   UNL A   1      32.934  23.983  23.747  1.00  0.00    -0.051 A 
ATOM     29  C   UNL A   1      33.960  23.678  22.853  1.00  0.00     0.005 A 
ATOM     30  C   UNL A   1      33.109  23.697  25.105  1.00  0.00     0.009 A 
ATOM     31  C   UNL A   1      35.144  23.102  23.312  1.00  0.00     0.027 A 
ATOM     32  C   UNL A   1      34.295  23.116  25.589  1.00  0.00    -0.026 A 
ATOM     33  C   UNL A   1      34.383  22.918  27.082  1.00  0.00     0.046 C 
ENDBRANCH  19  26
ENDBRANCH  13  18
ENDBRANCH  11  12
ENDBRANCH   9  11
ENDBRANCH   7   9
ENDBRANCH   6   7
ENDBRANCH   5   6
ENDBRANCH   4   5
ENDBRANCH   3   4
ENDBRANCH   2   3
ENDBRANCH   1   2
BRANCH   1  34
ATOM     34  O   UNL A   1      41.887  35.156  28.244  1.00  0.00    -0.377 OA
BRANCH  34  35
ATOM     35  C   UNL A   1      42.829  36.179  27.945  1.00  0.00     0.188 C 
BRANCH  35  36
ATOM     36  C   UNL A   1      44.323  35.800  27.935  1.00  0.00     0.188 C 
BRANCH  36  37
ATOM     37  O   UNL A   1      45.185  36.866  28.295  1.00  0.00    -0.376 OA
BRANCH  37  38
ATOM     38  C   UNL A   1      45.574  37.072  29.640  1.00  0.00     0.202 C 
BRANCH  38  39
ATOM     39  C   UNL A   1      44.578  37.688  30.634  1.00  0.00     0.261 C 
BRANCH  39  40
ATOM     40  O   UNL A   1      45.031  38.792  31.426  1.00  0.00    -0.460 OA
BRANCH  40  41
ATOM     41  C   UNL A   1      45.864  38.535  32.459  1.00  0.00     0.338 C 
ATOM     42  O   UNL A   1      47.052  38.783  32.514  1.00  0.00    -0.246 OA
BRANCH  41  43
ATOM     43  C   UNL A   1      45.026  38.096  33.600  1.00  0.00     0.060 A 
ATOM     44  C   UNL A   1      45.301  36.867  34.215  1.00  0.00     0.016 A 
ATOM     45  C   UNL A   1      43.987  38.903  34.068  1.00  0.00     0.016 A 
ATOM     46  C   UNL A   1      44.508  36.420  35.271  1.00  0.00     0.010 A 
ATOM     47  C   UNL A   1      43.174  38.441  35.105  1.00  0.00     0.010 A 
ATOM     48  C   UNL A   1      43.406  37.180  35.682  1.00  0.00    -0.014 A 
BRANCH  48  49
ATOM     49  C   UNL A   1      42.363  36.552  36.530  1.00  0.00     0.031 A 
ATOM     50  C   UNL A   1      42.405  36.823  38.009  1.00  0.00     0.074 A 
ATOM     51  C   UNL A   1      41.389  35.789  36.003  1.00  0.00     0.049 A 
ATOM     52  N   UNL A   1      41.659  36.342  38.968  1.00  0.00    -0.248 NA
ATOM     53  C   UNL A   1      43.440  37.766  38.466  1.00  0.00     0.031 C 
ATOM     54  C   UNL A   1      41.210  35.512  34.579  1.00  0.00     0.029 A 
ATOM     55  N   UNL A   1      40.369  35.103  36.612  1.00  0.00    -0.354 N 
ATOM     56  C   UNL A   1      42.138  36.914  40.142  1.00  0.00     0.074 A 
ATOM     57  C   UNL A   1      43.263  37.747  39.777  1.00  0.00     0.031 C 
ATOM     58  C   UNL A   1      40.149  34.700  34.426  1.00  0.00     0.029 A 
ATOM     59  C   UNL A   1      39.603  34.364  35.740  1.00  0.00     0.049 A 
ATOM     60  H   UNL A   1      40.202  35.135  37.582  1.00  0.00     0.167 HD
ATOM     61  C   UNL A   1      41.676  36.764  41.406  1.00  0.00     0.034 A 
ATOM     62  C   UNL A   1      38.600  33.495  35.984  1.00  0.00     0.034 A 
ATOM     63  C   UNL A   1      40.561  35.916  41.751  1.00  0.00     0.049 A 
ATOM     64  C   UNL A   1      38.169  33.260  37.415  1.00  0.00     0.074 A 
ATOM     65  C   UNL A   1      40.003  35.691  42.997  1.00  0.00     0.029 A 
ATOM     66  N   UNL A   1      39.842  35.141  40.849  1.00  0.00    -0.354 N 
ATOM     67  N   UNL A   1      38.628  33.804  38.519  1.00  0.00    -0.248 NA
ATOM     68  C   UNL A   1      37.078  32.299  37.630  1.00  0.00     0.031 C 
ATOM     69  C   UNL A   1      39.009  34.718  42.861  1.00  0.00     0.029 A 
ATOM     70  C   UNL A   1      38.874  34.408  41.517  1.00  0.00     0.049 A 
ATOM     71  H   UNL A   1      39.997  35.117  39.876  1.00  0.00     0.167 HD
ATOM     72  C   UNL A   1      37.855  33.279  39.554  1.00  0.00     0.074 A 
ATOM     73  C   UNL A   1      36.894  32.387  38.939  1.00  0.00     0.031 C 
ATOM     74  C   UNL A   1      37.925  33.516  40.890  1.00  0.00     0.034 A 
BRANCH  61  75
ATOM     75  C   UNL A   1      42.417  37.481  42.508  1.00  0.00     0.023 A 
ATOM     76  C   UNL A   1      42.087  38.792  42.895  1.00  0.00     0.031 A 
ATOM     77  C   UNL A   1      43.493  36.855  43.161  1.00  0.00     0.131 A 
ATOM     78  C   UNL A   1      42.869  39.457  43.853  1.00  0.00     0.055 A 
ATOM     79  C   UNL A   1      44.212  37.490  44.176  1.00  0.00     0.041 A 
ATOM     80  F   UNL A   1      43.875  35.615  42.815  1.00  0.00    -0.206 F 
ATOM     81  C   UNL A   1      43.911  38.805  44.517  1.00  0.00     0.022 A 
BRANCH  78  82
ATOM     82  S   UNL A   1      42.602  41.233  44.107  1.00  0.00     0.124 S 
ATOM     83  O   UNL A   1      41.613  41.533  43.076  1.00  0.00    -0.237 OA
ATOM     84  O   UNL A   1      42.126  41.286  45.484  1.00  0.00    -0.237 OA
ATOM     85  O   UNL A   1      43.925  41.814  43.881  1.00  0.00    -0.744 OA
ENDBRANCH  78  82
ENDBRANCH  61  75
BRANCH  62  86
ATOM     86  C   UNL A   1      37.958  32.743  34.865  1.00  0.00     0.023 A 
ATOM     87  C   UNL A   1      36.895  33.297  34.134  1.00  0.00     0.031 A 
ATOM     88  C   UNL A   1      38.353  31.428  34.555  1.00  0.00     0.131 A 
ATOM     89  C   UNL A   1      36.230  32.523  33.169  1.00  0.00     0.055 A 
ATOM     90  C   UNL A   1      37.729  30.685  33.551  1.00  0.00     0.041 A 
ATOM     91  F   UNL A   1      39.359  30.844  35.225  1.00  0.00    -0.206 F 
ATOM     92  C   UNL A   1      36.650  31.227  32.861  1.00  0.00     0.022 A 
BRANCH  89  93
ATOM     93  S   UNL A   1      34.737  33.201  32.393  1.00  0.00     0.124 S 
ATOM     94  O   UNL A   1      35.221  34.481  31.889  1.00  0.00    -0.237 OA
ATOM     95  O   UNL A   1      34.433  32.188  31.387  1.00  0.00    -0.237 OA
ATOM     96  O   UNL A   1      33.787  33.283  33.500  1.00  0.00    -0.744 OA
ENDBRANCH  89  93
ENDBRANCH  62  86
BRANCH  74  97
ATOM     97  C   UNL A   1      36.898  32.843  41.771  1.00  0.00     0.023 A 
ATOM     98  C   UNL A   1      35.647  33.424  42.037  1.00  0.00     0.031 A 
ATOM     99  C   UNL A   1      37.180  31.593  42.353  1.00  0.00     0.131 A 
ATOM    100  C   UNL A   1      34.751  32.788  42.911  1.00  0.00     0.055 A 
ATOM    101  C   UNL A   1      36.257  30.931  43.163  1.00  0.00     0.041 A 
ATOM    102  F   UNL A   1      38.360  30.989  42.138  1.00  0.00    -0.206 F 
ATOM    103  C   UNL A   1      35.039  31.536  43.459  1.00  0.00     0.022 A 
BRANCH 100 104
ATOM    104  S   UNL A   1      33.248  33.672  43.412  1.00  0.00     0.124 S 
ATOM    105  O   UNL A   1      33.777  34.977  43.792  1.00  0.00    -0.237 OA
ATOM    106  O   UNL A   1      32.445  33.639  42.194  1.00  0.00    -0.237 OA
ATOM    107  O   UNL A   1      32.730  32.868  44.517  1.00  0.00    -0.744 OA
ENDBRANCH 100 104
ENDBRANCH  74  97
ENDBRANCH  48  49
ENDBRANCH  41  43
ENDBRANCH  40  41
ENDBRANCH  39  40
ENDBRANCH  38  39
ENDBRANCH  37  38
ENDBRANCH  36  37
ENDBRANCH  35  36
ENDBRANCH  34  35
ENDBRANCH   1  34
TORSDOF 27
ENDMDL
