MODEL 1
REMARK VINA RESULT:      -9.5      0.000      0.000
REMARK SMILES O=C(OCCOCCOCCOCCOC(=O)[C@H](Cc1cccc(Cl)c1)Cc1ccccn1)c1ccc(-c2c3nc(c(-c4cc(S(=O)(=O)[O-])ccc4F)c4ccc([nH]4)c(-c4cc(S(=O)(=O)[O-])ccc4F)c4nc(c(-c5cc(S(=O)(=O)[O-])ccc5F)c5ccc2[nH]5)C=C4)C=C3)cc1
REMARK SMILES IDX 8 1 7 2 6 3 5 4 4 5 3 6 2 7 1 8 34 9 35 10 96 11 36 12 95 13
REMARK SMILES IDX 37 14 38 15 39 16 89 17 40 18 94 19 88 20 90 21 41 22 93 23
REMARK SMILES IDX 87 24 86 25 42 27 74 28 54 29 73 30 55 31 58 32 72 33 91 34
REMARK SMILES IDX 56 35 57 36 71 38 92 39 59 40 43 41 44 42 52 43 45 44 51 45
REMARK SMILES IDX 53 46 50 47 46 48 47 49 48 50 49 51 75 52 76 53 84 54 77 55
REMARK SMILES IDX 83 56 85 57 82 58 78 59 79 60 80 61 81 62 60 63 61 64 69 65
REMARK SMILES IDX 62 66 68 67 70 68 67 69 63 70 64 71 65 72 66 73 9 74 10 75
REMARK SMILES IDX 11 76 12 77 13 78 14 79 15 80 16 81 17 82 18 83 27 84 28 85
REMARK SMILES IDX 29 86 33 87 30 88 32 89 31 90 19 91 20 92 21 93 26 94 22 95
REMARK SMILES IDX 24 96 23 97 25 98
REMARK H PARENT 90 26 58 37
REMARK Flexibility Score: inf
ROOT
ATOM      1  C   UNL A   1      35.007  31.894  28.472  1.00  0.00     0.188 C 
ENDROOT
BRANCH   1   2
ATOM      2  C   UNL A   1      35.280  33.326  28.020  1.00  0.00     0.188 C 
BRANCH   2   3
ATOM      3  O   UNL A   1      34.084  34.100  28.046  1.00  0.00    -0.376 OA
BRANCH   3   4
ATOM      4  C   UNL A   1      34.241  35.517  28.047  1.00  0.00     0.202 C 
BRANCH   4   5
ATOM      5  C   UNL A   1      33.209  36.247  28.904  1.00  0.00     0.261 C 
BRANCH   5   6
ATOM      6  O   UNL A   1      32.703  35.431  29.969  1.00  0.00    -0.460 OA
BRANCH   6   7
ATOM      7  C   UNL A   1      33.205  35.289  31.221  1.00  0.00     0.338 C 
ATOM      8  O   UNL A   1      32.690  35.962  32.117  1.00  0.00    -0.246 OA
BRANCH   7   9
ATOM      9  C   UNL A   1      34.348  34.392  31.600  1.00  0.00     0.060 A 
ATOM     10  C   UNL A   1      34.250  33.109  32.147  1.00  0.00     0.016 A 
ATOM     11  C   UNL A   1      35.637  34.864  31.292  1.00  0.00     0.016 A 
ATOM     12  C   UNL A   1      35.367  32.319  32.380  1.00  0.00     0.010 A 
ATOM     13  C   UNL A   1      36.771  34.083  31.531  1.00  0.00     0.010 A 
ATOM     14  C   UNL A   1      36.633  32.807  32.084  1.00  0.00    -0.014 A 
BRANCH  14  15
ATOM     15  C   UNL A   1      37.794  32.019  32.528  1.00  0.00     0.031 A 
ATOM     16  C   UNL A   1      38.363  32.336  33.877  1.00  0.00     0.074 A 
ATOM     17  C   UNL A   1      38.230  30.984  31.789  1.00  0.00     0.049 A 
ATOM     18  N   UNL A   1      39.438  31.876  34.451  1.00  0.00    -0.248 NA
ATOM     19  C   UNL A   1      37.601  33.295  34.698  1.00  0.00     0.031 C 
ATOM     20  C   UNL A   1      37.612  30.518  30.543  1.00  0.00     0.029 A 
ATOM     21  N   UNL A   1      39.281  30.128  31.978  1.00  0.00    -0.354 N 
ATOM     22  C   UNL A   1      39.506  32.520  35.680  1.00  0.00     0.074 A 
ATOM     23  C   UNL A   1      38.358  33.389  35.780  1.00  0.00     0.031 C 
ATOM     24  C   UNL A   1      38.306  29.468  30.077  1.00  0.00     0.029 A 
ATOM     25  C   UNL A   1      39.462  29.244  30.939  1.00  0.00     0.049 A 
ATOM     26  H   UNL A   1      39.852  30.143  32.781  1.00  0.00     0.167 HD
ATOM     27  C   UNL A   1      40.470  32.401  36.623  1.00  0.00     0.034 A 
ATOM     28  C   UNL A   1      40.490  28.406  30.692  1.00  0.00     0.034 A 
ATOM     29  C   UNL A   1      41.597  31.521  36.464  1.00  0.00     0.049 A 
ATOM     30  C   UNL A   1      41.618  28.390  31.699  1.00  0.00     0.074 A 
ATOM     31  C   UNL A   1      42.668  31.326  37.314  1.00  0.00     0.029 A 
ATOM     32  N   UNL A   1      41.799  30.696  35.363  1.00  0.00    -0.354 N 
ATOM     33  N   UNL A   1      41.713  29.038  32.842  1.00  0.00    -0.248 NA
ATOM     34  C   UNL A   1      42.783  27.556  31.384  1.00  0.00     0.031 C 
ATOM     35  C   UNL A   1      43.556  30.446  36.688  1.00  0.00     0.029 A 
ATOM     36  C   UNL A   1      43.002  30.026  35.487  1.00  0.00     0.049 A 
ATOM     37  H   UNL A   1      41.176  30.601  34.607  1.00  0.00     0.167 HD
ATOM     38  C   UNL A   1      42.942  28.676  33.384  1.00  0.00     0.074 A 
ATOM     39  C   UNL A   1      43.534  27.728  32.461  1.00  0.00     0.031 C 
ATOM     40  C   UNL A   1      43.543  29.091  34.529  1.00  0.00     0.034 A 
BRANCH  27  41
ATOM     41  C   UNL A   1      40.398  33.322  37.811  1.00  0.00     0.023 A 
ATOM     42  C   UNL A   1      39.685  32.996  38.978  1.00  0.00     0.031 A 
ATOM     43  C   UNL A   1      41.021  34.581  37.747  1.00  0.00     0.131 A 
ATOM     44  C   UNL A   1      39.573  33.940  40.012  1.00  0.00     0.055 A 
ATOM     45  C   UNL A   1      40.962  35.488  38.805  1.00  0.00     0.041 A 
ATOM     46  F   UNL A   1      41.682  34.959  36.641  1.00  0.00    -0.206 F 
ATOM     47  C   UNL A   1      40.228  35.173  39.943  1.00  0.00     0.022 A 
BRANCH  44  48
ATOM     48  S   UNL A   1      38.465  33.584  41.405  1.00  0.00     0.124 S 
ATOM     49  O   UNL A   1      37.821  34.880  41.608  1.00  0.00    -0.237 OA
ATOM     50  O   UNL A   1      37.615  32.526  40.873  1.00  0.00    -0.237 OA
ATOM     51  O   UNL A   1      39.376  33.176  42.472  1.00  0.00    -0.744 OA
ENDBRANCH  44  48
ENDBRANCH  27  41
BRANCH  28  52
ATOM     52  C   UNL A   1      40.575  27.626  29.419  1.00  0.00     0.023 A 
ATOM     53  C   UNL A   1      41.472  27.982  28.400  1.00  0.00     0.031 A 
ATOM     54  C   UNL A   1      39.680  26.570  29.155  1.00  0.00     0.131 A 
ATOM     55  C   UNL A   1      41.411  27.340  27.151  1.00  0.00     0.055 A 
ATOM     56  C   UNL A   1      39.674  25.884  27.937  1.00  0.00     0.041 A 
ATOM     57  F   UNL A   1      38.782  26.189  30.076  1.00  0.00    -0.206 F 
ATOM     58  C   UNL A   1      40.529  26.283  26.918  1.00  0.00     0.022 A 
BRANCH  55  59
ATOM     59  S   UNL A   1      42.397  28.009  25.780  1.00  0.00     0.124 S 
ATOM     60  O   UNL A   1      41.719  29.272  25.516  1.00  0.00    -0.237 OA
ATOM     61  O   UNL A   1      43.722  28.104  26.381  1.00  0.00    -0.237 OA
ATOM     62  O   UNL A   1      42.258  26.996  24.736  1.00  0.00    -0.744 OA
ENDBRANCH  55  59
ENDBRANCH  28  52
BRANCH  40  63
ATOM     63  C   UNL A   1      44.889  28.493  34.837  1.00  0.00     0.023 A 
ATOM     64  C   UNL A   1      45.007  27.299  35.566  1.00  0.00     0.031 A 
ATOM     65  C   UNL A   1      46.061  29.116  34.376  1.00  0.00     0.131 A 
ATOM     66  C   UNL A   1      46.278  26.788  35.857  1.00  0.00     0.055 A 
ATOM     67  C   UNL A   1      47.320  28.566  34.610  1.00  0.00     0.041 A 
ATOM     68  F   UNL A   1      45.998  30.259  33.675  1.00  0.00    -0.206 F 
ATOM     69  C   UNL A   1      47.433  27.401  35.364  1.00  0.00     0.022 A 
BRANCH  66  70
ATOM     70  S   UNL A   1      46.403  25.352  36.954  1.00  0.00     0.124 S 
ATOM     71  O   UNL A   1      45.818  24.296  36.136  1.00  0.00    -0.237 OA
ATOM     72  O   UNL A   1      47.842  25.257  37.184  1.00  0.00    -0.237 OA
ATOM     73  O   UNL A   1      45.615  25.744  38.121  1.00  0.00    -0.744 OA
ENDBRANCH  66  70
ENDBRANCH  40  63
ENDBRANCH  14  15
ENDBRANCH   7   9
ENDBRANCH   6   7
ENDBRANCH   5   6
ENDBRANCH   4   5
ENDBRANCH   3   4
ENDBRANCH   2   3
ENDBRANCH   1   2
BRANCH   1  74
ATOM     74  O   UNL A   1      33.719  31.399  28.124  1.00  0.00    -0.377 OA
BRANCH  74  75
ATOM     75  C   UNL A   1      33.669  30.425  27.086  1.00  0.00     0.188 C 
BRANCH  75  76
ATOM     76  C   UNL A   1      32.350  30.241  26.284  1.00  0.00     0.188 C 
BRANCH  76  77
ATOM     77  O   UNL A   1      32.071  28.902  25.916  1.00  0.00    -0.376 OA
BRANCH  77  78
ATOM     78  C   UNL A   1      32.966  27.938  26.456  1.00  0.00     0.202 C 
BRANCH  78  79
ATOM     79  C   UNL A   1      32.635  26.492  26.062  1.00  0.00     0.261 C 
BRANCH  79  80
ATOM     80  O   UNL A   1      31.541  25.863  26.777  1.00  0.00    -0.463 OA
BRANCH  80  81
ATOM     81  C   UNL A   1      30.732  24.981  26.134  1.00  0.00     0.309 C 
ATOM     82  O   UNL A   1      30.006  24.173  26.699  1.00  0.00    -0.252 OA
BRANCH  81  83
ATOM     83  C   UNL A   1      30.834  25.154  24.616  1.00  0.00     0.109 C 
BRANCH  83  84
ATOM     84  C   UNL A   1      31.115  23.748  24.055  1.00  0.00     0.071 C 
BRANCH  84  85
ATOM     85  C   UNL A   1      32.560  23.352  24.146  1.00  0.00     0.041 A 
ATOM     86  C   UNL A   1      33.438  23.596  23.096  1.00  0.00     0.024 A 
ATOM     87  N   UNL A   1      32.910  22.639  25.244  1.00  0.00    -0.261 NA
ATOM     88  C   UNL A   1      34.720  23.059  23.168  1.00  0.00     0.003 A 
ATOM     89  C   UNL A   1      34.150  22.113  25.276  1.00  0.00     0.111 A 
ATOM     90  C   UNL A   1      35.082  22.292  24.270  1.00  0.00     0.020 A 
ENDBRANCH  84  85
ENDBRANCH  83  84
BRANCH  83  91
ATOM     91  C   UNL A   1      29.556  25.809  24.012  1.00  0.00     0.051 C 
BRANCH  91  92
ATOM     92  C   UNL A   1      29.646  27.208  23.408  1.00  0.00    -0.046 A 
ATOM     93  C   UNL A   1      30.874  27.616  22.853  1.00  0.00     0.004 A 
ATOM     94  C   UNL A   1      28.577  28.114  23.367  1.00  0.00     0.024 A 
ATOM     95  C   UNL A   1      31.058  28.915  22.367  1.00  0.00     0.002 A 
ATOM     96  C   UNL A   1      28.772  29.422  22.907  1.00  0.00     0.041 A 
ATOM     97  C   UNL A   1      30.010  29.830  22.418  1.00  0.00     0.020 A 
ATOM     98  Cl  UNL A   1      27.478  30.557  22.987  1.00  0.00    -0.084 Cl
ENDBRANCH  91  92
ENDBRANCH  83  91
ENDBRANCH  81  83
ENDBRANCH  80  81
ENDBRANCH  79  80
ENDBRANCH  78  79
ENDBRANCH  77  78
ENDBRANCH  76  77
ENDBRANCH  75  76
ENDBRANCH  74  75
ENDBRANCH   1  74
TORSDOF 27
ENDMDL
MODEL 2
REMARK VINA RESULT:      -9.4      3.485      5.330
REMARK SMILES O=C(OCCOCCOCCOCCOC(=O)[C@H](Cc1cccc(Cl)c1)Cc1ccccn1)c1ccc(-c2c3nc(c(-c4cc(S(=O)(=O)[O-])ccc4F)c4ccc([nH]4)c(-c4cc(S(=O)(=O)[O-])ccc4F)c4nc(c(-c5cc(S(=O)(=O)[O-])ccc5F)c5ccc2[nH]5)C=C4)C=C3)cc1
REMARK SMILES IDX 8 1 7 2 6 3 5 4 4 5 3 6 2 7 1 8 34 9 35 10 96 11 36 12 95 13
REMARK SMILES IDX 37 14 38 15 39 16 89 17 40 18 94 19 88 20 90 21 41 22 93 23
REMARK SMILES IDX 87 24 86 25 42 27 74 28 54 29 73 30 55 31 58 32 72 33 91 34
REMARK SMILES IDX 56 35 57 36 71 38 92 39 59 40 43 41 44 42 52 43 45 44 51 45
REMARK SMILES IDX 53 46 50 47 46 48 47 49 48 50 49 51 75 52 76 53 84 54 77 55
REMARK SMILES IDX 83 56 85 57 82 58 78 59 79 60 80 61 81 62 60 63 61 64 69 65
REMARK SMILES IDX 62 66 68 67 70 68 67 69 63 70 64 71 65 72 66 73 9 74 10 75
REMARK SMILES IDX 11 76 12 77 13 78 14 79 15 80 16 81 17 82 18 83 27 84 28 85
REMARK SMILES IDX 29 86 33 87 30 88 32 89 31 90 19 91 20 92 21 93 26 94 22 95
REMARK SMILES IDX 24 96 23 97 25 98
REMARK H PARENT 90 26 58 37
REMARK Flexibility Score: inf
ROOT
ATOM      1  C   UNL A   1      32.176  27.512  26.875  1.00  0.00     0.188 C 
ENDROOT
BRANCH   1   2
ATOM      2  C   UNL A   1      31.274  27.728  25.664  1.00  0.00     0.188 C 
BRANCH   2   3
ATOM      3  O   UNL A   1      31.505  29.008  25.084  1.00  0.00    -0.376 OA
BRANCH   3   4
ATOM      4  C   UNL A   1      31.490  30.123  25.973  1.00  0.00     0.202 C 
BRANCH   4   5
ATOM      5  C   UNL A   1      32.851  30.796  26.134  1.00  0.00     0.261 C 
BRANCH   5   6
ATOM      6  O   UNL A   1      32.923  31.618  27.307  1.00  0.00    -0.460 OA
BRANCH   6   7
ATOM      7  C   UNL A   1      34.012  32.241  27.823  1.00  0.00     0.338 C 
ATOM      8  O   UNL A   1      34.012  33.474  27.820  1.00  0.00    -0.246 OA
BRANCH   7   9
ATOM      9  C   UNL A   1      35.224  31.550  28.379  1.00  0.00     0.060 A 
ATOM     10  C   UNL A   1      35.304  30.214  28.783  1.00  0.00     0.016 A 
ATOM     11  C   UNL A   1      36.410  32.306  28.413  1.00  0.00     0.016 A 
ATOM     12  C   UNL A   1      36.498  29.640  29.200  1.00  0.00     0.010 A 
ATOM     13  C   UNL A   1      37.616  31.743  28.839  1.00  0.00     0.010 A 
ATOM     14  C   UNL A   1      37.655  30.405  29.242  1.00  0.00    -0.014 A 
BRANCH  14  15
ATOM     15  C   UNL A   1      38.847  29.816  29.873  1.00  0.00     0.031 A 
ATOM     16  C   UNL A   1      39.178  30.262  31.264  1.00  0.00     0.074 A 
ATOM     17  C   UNL A   1      39.522  28.831  29.254  1.00  0.00     0.049 A 
ATOM     18  N   UNL A   1      40.220  29.988  31.996  1.00  0.00    -0.248 NA
ATOM     19  C   UNL A   1      38.183  31.126  31.927  1.00  0.00     0.031 C 
ATOM     20  C   UNL A   1      39.150  28.234  27.968  1.00  0.00     0.029 A 
ATOM     21  N   UNL A   1      40.649  28.148  29.624  1.00  0.00    -0.354 N 
ATOM     22  C   UNL A   1      40.030  30.679  33.186  1.00  0.00     0.074 A 
ATOM     23  C   UNL A   1      38.766  31.371  33.090  1.00  0.00     0.031 C 
ATOM     24  C   UNL A   1      40.044  27.282  27.653  1.00  0.00     0.029 A 
ATOM     25  C   UNL A   1      41.093  27.264  28.667  1.00  0.00     0.049 A 
ATOM     26  H   UNL A   1      41.099  28.277  30.491  1.00  0.00     0.167 HD
ATOM     27  C   UNL A   1      40.864  30.739  34.249  1.00  0.00     0.034 A 
ATOM     28  C   UNL A   1      42.253  26.580  28.600  1.00  0.00     0.034 A 
ATOM     29  C   UNL A   1      42.116  30.031  34.285  1.00  0.00     0.049 A 
ATOM     30  C   UNL A   1      43.227  26.769  29.742  1.00  0.00     0.074 A 
ATOM     31  C   UNL A   1      43.080  30.029  35.274  1.00  0.00     0.029 A 
ATOM     32  N   UNL A   1      42.580  29.206  33.266  1.00  0.00    -0.354 N 
ATOM     33  N   UNL A   1      43.074  27.464  30.850  1.00  0.00    -0.248 NA
ATOM     34  C   UNL A   1      44.530  26.107  29.626  1.00  0.00     0.031 C 
ATOM     35  C   UNL A   1      44.161  29.269  34.817  1.00  0.00     0.029 A 
ATOM     36  C   UNL A   1      43.839  28.728  33.580  1.00  0.00     0.049 A 
ATOM     37  H   UNL A   1      42.085  28.992  32.443  1.00  0.00     0.167 HD
ATOM     38  C   UNL A   1      44.257  27.310  31.565  1.00  0.00     0.074 A 
ATOM     39  C   UNL A   1      45.097  26.427  30.779  1.00  0.00     0.031 C 
ATOM     40  C   UNL A   1      44.633  27.850  32.753  1.00  0.00     0.034 A 
BRANCH  27  41
ATOM     41  C   UNL A   1      40.502  31.681  35.366  1.00  0.00     0.023 A 
ATOM     42  C   UNL A   1      39.480  31.401  36.290  1.00  0.00     0.031 A 
ATOM     43  C   UNL A   1      41.169  32.914  35.471  1.00  0.00     0.131 A 
ATOM     44  C   UNL A   1      39.124  32.366  37.247  1.00  0.00     0.055 A 
ATOM     45  C   UNL A   1      40.855  33.840  36.467  1.00  0.00     0.041 A 
ATOM     46  F   UNL A   1      42.127  33.249  34.591  1.00  0.00    -0.206 F 
ATOM     47  C   UNL A   1      39.821  33.571  37.357  1.00  0.00     0.022 A 
BRANCH  44  48
ATOM     48  S   UNL A   1      37.658  32.074  38.277  1.00  0.00     0.124 S 
ATOM     49  O   UNL A   1      37.352  30.680  37.967  1.00  0.00    -0.237 OA
ATOM     50  O   UNL A   1      38.158  32.333  39.622  1.00  0.00    -0.237 OA
ATOM     51  O   UNL A   1      36.688  33.045  37.776  1.00  0.00    -0.744 OA
ENDBRANCH  44  48
ENDBRANCH  27  41
BRANCH  28  52
ATOM     52  C   UNL A   1      42.620  25.776  27.393  1.00  0.00     0.023 A 
ATOM     53  C   UNL A   1      42.369  24.396  27.328  1.00  0.00     0.031 A 
ATOM     54  C   UNL A   1      43.327  26.358  26.323  1.00  0.00     0.131 A 
ATOM     55  C   UNL A   1      42.877  23.637  26.259  1.00  0.00     0.055 A 
ATOM     56  C   UNL A   1      43.764  25.612  25.225  1.00  0.00     0.041 A 
ATOM     57  F   UNL A   1      43.618  27.668  26.328  1.00  0.00    -0.206 F 
ATOM     58  C   UNL A   1      43.559  24.238  25.199  1.00  0.00     0.022 A 
BRANCH  55  59
ATOM     59  S   UNL A   1      42.767  21.827  26.349  1.00  0.00     0.124 S 
ATOM     60  O   UNL A   1      41.580  21.561  25.546  1.00  0.00    -0.237 OA
ATOM     61  O   UNL A   1      44.041  21.419  25.768  1.00  0.00    -0.237 OA
ATOM     62  O   UNL A   1      42.624  21.566  27.780  1.00  0.00    -0.744 OA
ENDBRANCH  55  59
ENDBRANCH  28  52
BRANCH  40  63
ATOM     63  C   UNL A   1      45.997  27.471  33.263  1.00  0.00     0.023 A 
ATOM     64  C   UNL A   1      47.133  28.228  32.936  1.00  0.00     0.031 A 
ATOM     65  C   UNL A   1      46.153  26.354  34.101  1.00  0.00     0.131 A 
ATOM     66  C   UNL A   1      48.390  27.828  33.406  1.00  0.00     0.055 A 
ATOM     67  C   UNL A   1      47.396  26.001  34.622  1.00  0.00     0.041 A 
ATOM     68  F   UNL A   1      45.095  25.600  34.441  1.00  0.00    -0.206 F 
ATOM     69  C   UNL A   1      48.525  26.734  34.265  1.00  0.00     0.022 A 
BRANCH  66  70
ATOM     70  S   UNL A   1      49.856  28.714  32.817  1.00  0.00     0.124 S 
ATOM     71  O   UNL A   1      49.636  30.052  33.353  1.00  0.00    -0.237 OA
ATOM     72  O   UNL A   1      50.946  27.956  33.424  1.00  0.00    -0.237 OA
ATOM     73  O   UNL A   1      49.761  28.603  31.363  1.00  0.00    -0.744 OA
ENDBRANCH  66  70
ENDBRANCH  40  63
ENDBRANCH  14  15
ENDBRANCH   7   9
ENDBRANCH   6   7
ENDBRANCH   5   6
ENDBRANCH   4   5
ENDBRANCH   3   4
ENDBRANCH   2   3
ENDBRANCH   1   2
BRANCH   1  74
ATOM     74  O   UNL A   1      33.487  27.053  26.564  1.00  0.00    -0.377 OA
BRANCH  74  75
ATOM     75  C   UNL A   1      33.577  25.846  25.811  1.00  0.00     0.188 C 
BRANCH  75  76
ATOM     76  C   UNL A   1      34.193  25.889  24.385  1.00  0.00     0.188 C 
BRANCH  76  77
ATOM     77  O   UNL A   1      33.242  25.903  23.336  1.00  0.00    -0.376 OA
BRANCH  77  78
ATOM     78  C   UNL A   1      33.122  24.677  22.625  1.00  0.00     0.202 C 
BRANCH  78  79
ATOM     79  C   UNL A   1      31.703  24.093  22.627  1.00  0.00     0.261 C 
BRANCH  79  80
ATOM     80  O   UNL A   1      31.536  22.806  23.276  1.00  0.00    -0.463 OA
BRANCH  80  81
ATOM     81  C   UNL A   1      31.817  22.674  24.598  1.00  0.00     0.309 C 
ATOM     82  O   UNL A   1      31.232  23.272  25.492  1.00  0.00    -0.252 OA
BRANCH  81  83
ATOM     83  C   UNL A   1      32.945  21.661  24.817  1.00  0.00     0.109 C 
BRANCH  83  84
ATOM     84  C   UNL A   1      33.874  22.293  25.869  1.00  0.00     0.071 C 
BRANCH  84  85
ATOM     85  C   UNL A   1      35.330  22.158  25.531  1.00  0.00     0.041 A 
ATOM     86  C   UNL A   1      35.844  20.966  25.033  1.00  0.00     0.024 A 
ATOM     87  N   UNL A   1      36.115  23.213  25.860  1.00  0.00    -0.261 NA
ATOM     88  C   UNL A   1      37.224  20.846  24.896  1.00  0.00     0.003 A 
ATOM     89  C   UNL A   1      37.448  23.061  25.737  1.00  0.00     0.111 A 
ATOM     90  C   UNL A   1      38.044  21.906  25.266  1.00  0.00     0.020 A 
ENDBRANCH  84  85
ENDBRANCH  83  84
BRANCH  83  91
ATOM     91  C   UNL A   1      32.404  20.262  25.240  1.00  0.00     0.051 C 
BRANCH  91  92
ATOM     92  C   UNL A   1      32.941  19.012  24.549  1.00  0.00    -0.046 A 
ATOM     93  C   UNL A   1      32.557  18.771  23.216  1.00  0.00     0.004 A 
ATOM     94  C   UNL A   1      33.799  18.086  25.160  1.00  0.00     0.024 A 
ATOM     95  C   UNL A   1      32.934  17.599  22.550  1.00  0.00     0.002 A 
ATOM     96  C   UNL A   1      34.149  16.901  24.501  1.00  0.00     0.041 A 
ATOM     97  C   UNL A   1      33.712  16.648  23.205  1.00  0.00     0.020 A 
ATOM     98  Cl  UNL A   1      35.098  15.718  25.320  1.00  0.00    -0.084 Cl
ENDBRANCH  91  92
ENDBRANCH  83  91
ENDBRANCH  81  83
ENDBRANCH  80  81
ENDBRANCH  79  80
ENDBRANCH  78  79
ENDBRANCH  77  78
ENDBRANCH  76  77
ENDBRANCH  75  76
ENDBRANCH  74  75
ENDBRANCH   1  74
TORSDOF 27
ENDMDL
MODEL 3
REMARK VINA RESULT:      -9.3      3.432      9.416
REMARK SMILES O=C(OCCOCCOCCOCCOC(=O)[C@H](Cc1cccc(Cl)c1)Cc1ccccn1)c1ccc(-c2c3nc(c(-c4cc(S(=O)(=O)[O-])ccc4F)c4ccc([nH]4)c(-c4cc(S(=O)(=O)[O-])ccc4F)c4nc(c(-c5cc(S(=O)(=O)[O-])ccc5F)c5ccc2[nH]5)C=C4)C=C3)cc1
REMARK SMILES IDX 8 1 7 2 6 3 5 4 4 5 3 6 2 7 1 8 34 9 35 10 96 11 36 12 95 13
REMARK SMILES IDX 37 14 38 15 39 16 89 17 40 18 94 19 88 20 90 21 41 22 93 23
REMARK SMILES IDX 87 24 86 25 42 27 74 28 54 29 73 30 55 31 58 32 72 33 91 34
REMARK SMILES IDX 56 35 57 36 71 38 92 39 59 40 43 41 44 42 52 43 45 44 51 45
REMARK SMILES IDX 53 46 50 47 46 48 47 49 48 50 49 51 75 52 76 53 84 54 77 55
REMARK SMILES IDX 83 56 85 57 82 58 78 59 79 60 80 61 81 62 60 63 61 64 69 65
REMARK SMILES IDX 62 66 68 67 70 68 67 69 63 70 64 71 65 72 66 73 9 74 10 75
REMARK SMILES IDX 11 76 12 77 13 78 14 79 15 80 16 81 17 82 18 83 27 84 28 85
REMARK SMILES IDX 29 86 33 87 30 88 32 89 31 90 19 91 20 92 21 93 26 94 22 95
REMARK SMILES IDX 24 96 23 97 25 98
REMARK H PARENT 90 26 58 37
REMARK Flexibility Score: inf
ROOT
ATOM      1  C   UNL A   1      42.545  18.798  25.729  1.00  0.00     0.188 C 
ENDROOT
BRANCH   1   2
ATOM      2  C   UNL A   1      44.016  18.721  26.126  1.00  0.00     0.188 C 
BRANCH   2   3
ATOM      3  O   UNL A   1      44.856  18.906  24.990  1.00  0.00    -0.376 OA
BRANCH   3   4
ATOM      4  C   UNL A   1      44.844  20.200  24.393  1.00  0.00     0.202 C 
BRANCH   4   5
ATOM      5  C   UNL A   1      45.540  21.269  25.232  1.00  0.00     0.261 C 
BRANCH   5   6
ATOM      6  O   UNL A   1      44.613  22.117  25.922  1.00  0.00    -0.460 OA
BRANCH   6   7
ATOM      7  C   UNL A   1      44.082  23.291  25.498  1.00  0.00     0.338 C 
ATOM      8  O   UNL A   1      44.000  23.468  24.281  1.00  0.00    -0.246 OA
BRANCH   7   9
ATOM      9  C   UNL A   1      43.604  24.400  26.392  1.00  0.00     0.060 A 
ATOM     10  C   UNL A   1      43.892  25.760  26.251  1.00  0.00     0.016 A 
ATOM     11  C   UNL A   1      42.713  24.033  27.416  1.00  0.00     0.016 A 
ATOM     12  C   UNL A   1      43.328  26.723  27.077  1.00  0.00     0.010 A 
ATOM     13  C   UNL A   1      42.145  24.990  28.261  1.00  0.00     0.010 A 
ATOM     14  C   UNL A   1      42.462  26.341  28.093  1.00  0.00    -0.014 A 
BRANCH  14  15
ATOM     15  C   UNL A   1      42.045  27.366  29.063  1.00  0.00     0.031 A 
ATOM     16  C   UNL A   1      42.928  27.585  30.252  1.00  0.00     0.074 A 
ATOM     17  C   UNL A   1      40.978  28.144  28.807  1.00  0.00     0.049 A 
ATOM     18  N   UNL A   1      42.737  28.336  31.299  1.00  0.00    -0.248 NA
ATOM     19  C   UNL A   1      44.216  26.866  30.251  1.00  0.00     0.031 C 
ATOM     20  C   UNL A   1      40.173  28.093  27.582  1.00  0.00     0.029 A 
ATOM     21  N   UNL A   1      40.394  29.136  29.547  1.00  0.00    -0.354 N 
ATOM     22  C   UNL A   1      43.856  28.149  32.101  1.00  0.00     0.074 A 
ATOM     23  C   UNL A   1      44.732  27.228  31.415  1.00  0.00     0.031 C 
ATOM     24  C   UNL A   1      39.192  29.007  27.666  1.00  0.00     0.029 A 
ATOM     25  C   UNL A   1      39.248  29.642  28.978  1.00  0.00     0.049 A 
ATOM     26  H   UNL A   1      40.760  29.457  30.404  1.00  0.00     0.167 HD
ATOM     27  C   UNL A   1      44.101  28.689  33.316  1.00  0.00     0.034 A 
ATOM     28  C   UNL A   1      38.321  30.470  29.502  1.00  0.00     0.034 A 
ATOM     29  C   UNL A   1      43.186  29.597  33.954  1.00  0.00     0.049 A 
ATOM     30  C   UNL A   1      38.556  30.955  30.916  1.00  0.00     0.074 A 
ATOM     31  C   UNL A   1      43.282  30.191  35.197  1.00  0.00     0.029 A 
ATOM     32  N   UNL A   1      41.991  30.030  33.390  1.00  0.00    -0.354 N 
ATOM     33  N   UNL A   1      39.591  30.738  31.701  1.00  0.00    -0.248 NA
ATOM     34  C   UNL A   1      37.503  31.774  31.525  1.00  0.00     0.031 C 
ATOM     35  C   UNL A   1      42.107  30.916  35.417  1.00  0.00     0.029 A 
ATOM     36  C   UNL A   1      41.315  30.844  34.280  1.00  0.00     0.049 A 
ATOM     37  H   UNL A   1      41.673  29.793  32.489  1.00  0.00     0.167 HD
ATOM     38  C   UNL A   1      39.315  31.405  32.889  1.00  0.00     0.074 A 
ATOM     39  C   UNL A   1      38.035  32.060  32.703  1.00  0.00     0.031 C 
ATOM     40  C   UNL A   1      40.036  31.470  34.039  1.00  0.00     0.034 A 
BRANCH  27  41
ATOM     41  C   UNL A   1      45.322  28.211  34.056  1.00  0.00     0.023 A 
ATOM     42  C   UNL A   1      45.291  27.118  34.940  1.00  0.00     0.031 A 
ATOM     43  C   UNL A   1      46.535  28.906  33.906  1.00  0.00     0.131 A 
ATOM     44  C   UNL A   1      46.441  26.785  35.675  1.00  0.00     0.055 A 
ATOM     45  C   UNL A   1      47.691  28.528  34.590  1.00  0.00     0.041 A 
ATOM     46  F   UNL A   1      46.611  29.981  33.106  1.00  0.00    -0.206 F 
ATOM     47  C   UNL A   1      47.646  27.466  35.487  1.00  0.00     0.022 A 
BRANCH  44  48
ATOM     48  S   UNL A   1      46.313  25.519  36.970  1.00  0.00     0.124 S 
ATOM     49  O   UNL A   1      46.162  24.301  36.177  1.00  0.00    -0.237 OA
ATOM     50  O   UNL A   1      47.577  25.663  37.682  1.00  0.00    -0.237 OA
ATOM     51  O   UNL A   1      45.125  25.915  37.722  1.00  0.00    -0.744 OA
ENDBRANCH  44  48
ENDBRANCH  27  41
BRANCH  28  52
ATOM     52  C   UNL A   1      37.055  30.790  28.773  1.00  0.00     0.023 A 
ATOM     53  C   UNL A   1      36.577  32.106  28.676  1.00  0.00     0.031 A 
ATOM     54  C   UNL A   1      36.242  29.766  28.249  1.00  0.00     0.131 A 
ATOM     55  C   UNL A   1      35.304  32.356  28.136  1.00  0.00     0.055 A 
ATOM     56  C   UNL A   1      35.010  30.026  27.645  1.00  0.00     0.041 A 
ATOM     57  F   UNL A   1      36.627  28.482  28.325  1.00  0.00    -0.206 F 
ATOM     58  C   UNL A   1      34.523  31.327  27.606  1.00  0.00     0.022 A 
BRANCH  55  59
ATOM     59  S   UNL A   1      34.613  34.029  28.277  1.00  0.00     0.124 S 
ATOM     60  O   UNL A   1      33.181  33.757  28.315  1.00  0.00    -0.237 OA
ATOM     61  O   UNL A   1      35.211  34.499  29.521  1.00  0.00    -0.237 OA
ATOM     62  O   UNL A   1      35.089  34.696  27.066  1.00  0.00    -0.744 OA
ENDBRANCH  55  59
ENDBRANCH  28  52
BRANCH  40  63
ATOM     63  C   UNL A   1      39.452  32.294  35.154  1.00  0.00     0.023 A 
ATOM     64  C   UNL A   1      39.874  33.615  35.381  1.00  0.00     0.031 A 
ATOM     65  C   UNL A   1      38.450  31.758  35.980  1.00  0.00     0.131 A 
ATOM     66  C   UNL A   1      39.328  34.342  36.445  1.00  0.00     0.055 A 
ATOM     67  C   UNL A   1      37.862  32.511  36.995  1.00  0.00     0.041 A 
ATOM     68  F   UNL A   1      38.016  30.501  35.800  1.00  0.00    -0.206 F 
ATOM     69  C   UNL A   1      38.309  33.806  37.239  1.00  0.00     0.022 A 
BRANCH  66  70
ATOM     70  S   UNL A   1      40.022  35.970  36.827  1.00  0.00     0.124 S 
ATOM     71  O   UNL A   1      41.428  35.653  37.055  1.00  0.00    -0.237 OA
ATOM     72  O   UNL A   1      39.729  36.730  35.615  1.00  0.00    -0.237 OA
ATOM     73  O   UNL A   1      39.279  36.389  38.014  1.00  0.00    -0.744 OA
ENDBRANCH  66  70
ENDBRANCH  40  63
ENDBRANCH  14  15
ENDBRANCH   7   9
ENDBRANCH   6   7
ENDBRANCH   5   6
ENDBRANCH   4   5
ENDBRANCH   3   4
ENDBRANCH   2   3
ENDBRANCH   1   2
BRANCH   1  74
ATOM     74  O   UNL A   1      42.019  20.119  25.658  1.00  0.00    -0.377 OA
BRANCH  74  75
ATOM     75  C   UNL A   1      41.491  20.661  26.865  1.00  0.00     0.188 C 
BRANCH  75  76
ATOM     76  C   UNL A   1      40.157  21.457  26.816  1.00  0.00     0.188 C 
BRANCH  76  77
ATOM     77  O   UNL A   1      39.170  20.895  25.970  1.00  0.00    -0.376 OA
BRANCH  77  78
ATOM     78  C   UNL A   1      38.251  21.834  25.425  1.00  0.00     0.202 C 
BRANCH  78  79
ATOM     79  C   UNL A   1      38.255  23.194  26.135  1.00  0.00     0.261 C 
BRANCH  79  80
ATOM     80  O   UNL A   1      37.018  23.949  26.091  1.00  0.00    -0.463 OA
BRANCH  80  81
ATOM     81  C   UNL A   1      36.231  23.894  24.985  1.00  0.00     0.309 C 
ATOM     82  O   UNL A   1      36.644  23.664  23.855  1.00  0.00    -0.252 OA
BRANCH  81  83
ATOM     83  C   UNL A   1      34.763  24.134  25.347  1.00  0.00     0.109 C 
BRANCH  83  84
ATOM     84  C   UNL A   1      34.406  23.052  26.382  1.00  0.00     0.071 C 
BRANCH  84  85
ATOM     85  C   UNL A   1      33.904  21.781  25.760  1.00  0.00     0.041 A 
ATOM     86  C   UNL A   1      34.783  20.778  25.370  1.00  0.00     0.024 A 
ATOM     87  N   UNL A   1      32.576  21.737  25.493  1.00  0.00    -0.261 NA
ATOM     88  C   UNL A   1      34.278  19.699  24.650  1.00  0.00     0.003 A 
ATOM     89  C   UNL A   1      32.119  20.692  24.776  1.00  0.00     0.111 A 
ATOM     90  C   UNL A   1      32.924  19.659  24.334  1.00  0.00     0.020 A 
ENDBRANCH  84  85
ENDBRANCH  83  84
BRANCH  83  91
ATOM     91  C   UNL A   1      34.515  25.583  25.866  1.00  0.00     0.051 C 
BRANCH  91  92
ATOM     92  C   UNL A   1      33.688  26.549  25.022  1.00  0.00    -0.046 A 
ATOM     93  C   UNL A   1      33.659  26.359  23.627  1.00  0.00     0.004 A 
ATOM     94  C   UNL A   1      32.950  27.617  25.551  1.00  0.00     0.024 A 
ATOM     95  C   UNL A   1      33.000  27.259  22.783  1.00  0.00     0.002 A 
ATOM     96  C   UNL A   1      32.317  28.532  24.703  1.00  0.00     0.041 A 
ATOM     97  C   UNL A   1      32.348  28.365  23.321  1.00  0.00     0.020 A 
ATOM     98  Cl  UNL A   1      31.525  29.910  25.370  1.00  0.00    -0.084 Cl
ENDBRANCH  91  92
ENDBRANCH  83  91
ENDBRANCH  81  83
ENDBRANCH  80  81
ENDBRANCH  79  80
ENDBRANCH  78  79
ENDBRANCH  77  78
ENDBRANCH  76  77
ENDBRANCH  75  76
ENDBRANCH  74  75
ENDBRANCH   1  74
TORSDOF 27
ENDMDL
