MODEL 1
REMARK VINA RESULT:     -10.4      0.000      0.000
REMARK SMILES Cc1nnc(SCC(=O)Nc2cccc(C(=O)OCCOCCOCCOCCOC(=O)c3ccc(-c4c5nc(c(-c6cc(S(=O)(=O)[O-])ccc6F)c6ccc([nH]6)c(-c6cc(S(=O)(=O)[O-])ccc6F)c6nc(c(-c7cc(S(=O)(=O)[O-])ccc7F)c7ccc4[nH]7)C=C6)C=C5)cc3)c2)n1-c1ccccc1
REMARK SMILES IDX 23 1 22 2 21 3 20 4 19 5 18 6 16 7 17 8 15 9 11 10 12 11
REMARK SMILES IDX 96 12 13 13 14 14 10 15 8 16 9 17 7 19 6 20 5 21 1 22 2 23
REMARK SMILES IDX 3 24 97 25 4 26 98 27 99 28 103 29 100 30 102 31 101 32
REMARK SMILES IDX 24 33 25 34 26 35 27 36 28 37 29 38 30 39 31 40 32 41 33 42
REMARK SMILES IDX 34 43 95 44 35 45 94 46 36 47 37 48 38 49 88 50 39 51 93 52
REMARK SMILES IDX 87 53 89 54 40 55 92 56 86 57 85 58 41 60 73 61 53 62 72 63
REMARK SMILES IDX 54 64 57 65 71 66 90 67 55 68 56 69 70 71 91 72 58 73 42 74
REMARK SMILES IDX 43 75 51 76 44 77 50 78 52 79 49 80 45 81 46 82 47 83 48 84
REMARK SMILES IDX 74 85 75 86 83 87 76 88 82 89 84 90 81 91 77 92 78 93 79 94
REMARK SMILES IDX 80 95 59 96 60 97 68 98 61 99 67 100 69 101 66 102 62 103
REMARK SMILES IDX 63 104 64 105 65 106
REMARK H PARENT 10 18 89 59 57 70
REMARK Flexibility Score: inf
ROOT
ATOM      1  C   UNL A   1      37.599  22.802  25.622  1.00  0.00     0.188 C 
ENDROOT
BRANCH   1   2
ATOM      2  C   UNL A   1      37.064  23.153  24.216  1.00  0.00     0.188 C 
BRANCH   2   3
ATOM      3  O   UNL A   1      35.833  22.646  23.713  1.00  0.00    -0.376 OA
BRANCH   3   4
ATOM      4  C   UNL A   1      34.954  23.404  22.897  1.00  0.00     0.202 C 
BRANCH   4   5
ATOM      5  C   UNL A   1      34.389  24.768  23.313  1.00  0.00     0.261 C 
BRANCH   5   6
ATOM      6  O   UNL A   1      33.757  25.511  22.283  1.00  0.00    -0.460 OA
BRANCH   6   7
ATOM      7  C   UNL A   1      33.696  26.849  22.401  1.00  0.00     0.338 C 
ATOM      8  O   UNL A   1      34.028  27.692  21.575  1.00  0.00    -0.246 OA
BRANCH   7   9
ATOM      9  C   UNL A   1      32.989  27.132  23.673  1.00  0.00     0.062 A 
ATOM     10  C   UNL A   1      31.030  26.827  25.048  1.00  0.00     0.042 A 
ATOM     11  C   UNL A   1      31.480  27.826  25.912  1.00  0.00     0.026 A 
ATOM     12  C   UNL A   1      31.744  26.549  23.904  1.00  0.00     0.041 A 
ATOM     13  C   UNL A   1      32.711  28.444  25.679  1.00  0.00     0.003 A 
ATOM     14  C   UNL A   1      33.484  28.073  24.577  1.00  0.00     0.016 A 
BRANCH  10  15
ATOM     15  N   UNL A   1      29.900  26.098  25.409  1.00  0.00    -0.325 N 
ATOM     16  C   UNL A   1      29.853  25.021  26.241  1.00  0.00     0.234 C 
ATOM     17  O   UNL A   1      28.839  25.014  26.955  1.00  0.00    -0.274 OA
ATOM     18  H   UNL A   1      29.044  26.392  25.022  1.00  0.00     0.169 HD
BRANCH  16  19
ATOM     19  C   UNL A   1      30.986  24.055  26.543  1.00  0.00     0.178 C 
BRANCH  19  20
ATOM     20  S   UNL A   1      31.077  22.416  25.804  1.00  0.00    -0.076 SA
BRANCH  20  21
ATOM     21  C   UNL A   1      32.699  21.827  25.769  1.00  0.00     0.196 A 
ATOM     22  C   UNL A   1      35.297  19.407  24.984  1.00  0.00     0.090 C 
ATOM     23  C   UNL A   1      34.404  20.468  25.504  1.00  0.00     0.135 A 
ATOM     24  N   UNL A   1      34.646  21.235  26.550  1.00  0.00    -0.134 NA
ATOM     25  N   UNL A   1      33.178  20.808  24.974  1.00  0.00    -0.274 N 
ATOM     26  N   UNL A   1      33.573  22.077  26.721  1.00  0.00    -0.123 NA
BRANCH  25  27
ATOM     27  C   UNL A   1      32.557  20.268  23.844  1.00  0.00     0.049 A 
ATOM     28  C   UNL A   1      32.528  18.882  23.718  1.00  0.00     0.027 A 
ATOM     29  C   UNL A   1      32.203  21.105  22.787  1.00  0.00     0.027 A 
ATOM     30  C   UNL A   1      32.253  18.323  22.474  1.00  0.00     0.002 A 
ATOM     31  C   UNL A   1      31.888  20.531  21.558  1.00  0.00     0.002 A 
ATOM     32  C   UNL A   1      31.953  19.145  21.391  1.00  0.00     0.000 A 
ENDBRANCH  25  27
ENDBRANCH  20  21
ENDBRANCH  19  20
ENDBRANCH  16  19
ENDBRANCH  10  15
ENDBRANCH   7   9
ENDBRANCH   6   7
ENDBRANCH   5   6
ENDBRANCH   4   5
ENDBRANCH   3   4
ENDBRANCH   2   3
ENDBRANCH   1   2
BRANCH   1  33
ATOM     33  O   UNL A   1      37.924  21.435  25.777  1.00  0.00    -0.377 OA
BRANCH  33  34
ATOM     34  C   UNL A   1      39.316  21.126  25.701  1.00  0.00     0.188 C 
BRANCH  34  35
ATOM     35  C   UNL A   1      40.215  21.524  26.904  1.00  0.00     0.188 C 
BRANCH  35  36
ATOM     36  O   UNL A   1      40.801  20.435  27.605  1.00  0.00    -0.376 OA
BRANCH  36  37
ATOM     37  C   UNL A   1      42.001  19.798  27.207  1.00  0.00     0.202 C 
BRANCH  37  38
ATOM     38  C   UNL A   1      42.479  19.927  25.766  1.00  0.00     0.261 C 
BRANCH  38  39
ATOM     39  O   UNL A   1      43.829  19.571  25.569  1.00  0.00    -0.460 OA
BRANCH  39  40
ATOM     40  C   UNL A   1      44.364  20.057  24.435  1.00  0.00     0.338 C 
ATOM     41  O   UNL A   1      44.615  19.432  23.417  1.00  0.00    -0.246 OA
BRANCH  40  42
ATOM     42  C   UNL A   1      44.752  21.443  24.682  1.00  0.00     0.060 A 
ATOM     43  C   UNL A   1      45.611  21.650  25.756  1.00  0.00     0.016 A 
ATOM     44  C   UNL A   1      43.987  22.477  24.115  1.00  0.00     0.016 A 
ATOM     45  C   UNL A   1      45.488  22.833  26.441  1.00  0.00     0.010 A 
ATOM     46  C   UNL A   1      43.857  23.651  24.809  1.00  0.00     0.010 A 
ATOM     47  C   UNL A   1      44.532  23.769  26.016  1.00  0.00    -0.014 A 
BRANCH  47  48
ATOM     48  C   UNL A   1      44.382  24.972  26.799  1.00  0.00     0.031 A 
ATOM     49  C   UNL A   1      45.536  25.867  26.603  1.00  0.00     0.074 A 
ATOM     50  C   UNL A   1      43.315  25.245  27.573  1.00  0.00     0.049 A 
ATOM     51  N   UNL A   1      46.512  26.044  27.426  1.00  0.00    -0.248 NA
ATOM     52  C   UNL A   1      45.778  26.408  25.255  1.00  0.00     0.031 C 
ATOM     53  C   UNL A   1      42.048  24.521  27.680  1.00  0.00     0.029 A 
ATOM     54  N   UNL A   1      43.127  26.305  28.403  1.00  0.00    -0.354 N 
ATOM     55  C   UNL A   1      47.350  26.953  26.803  1.00  0.00     0.074 A 
ATOM     56  C   UNL A   1      46.991  26.941  25.412  1.00  0.00     0.031 C 
ATOM     57  C   UNL A   1      41.151  25.283  28.353  1.00  0.00     0.029 A 
ATOM     58  C   UNL A   1      41.816  26.484  28.839  1.00  0.00     0.049 A 
ATOM     59  H   UNL A   1      43.862  26.901  28.677  1.00  0.00     0.167 HD
ATOM     60  C   UNL A   1      48.039  27.855  27.548  1.00  0.00     0.034 A 
ATOM     61  C   UNL A   1      41.319  27.561  29.512  1.00  0.00     0.034 A 
ATOM     62  C   UNL A   1      48.156  27.408  28.922  1.00  0.00     0.049 A 
ATOM     63  C   UNL A   1      42.476  28.206  30.185  1.00  0.00     0.074 A 
ATOM     64  C   UNL A   1      48.669  26.271  29.521  1.00  0.00     0.029 A 
ATOM     65  N   UNL A   1      47.321  27.972  29.864  1.00  0.00    -0.354 N 
ATOM     66  N   UNL A   1      43.146  27.630  31.146  1.00  0.00    -0.248 NA
ATOM     67  C   UNL A   1      43.205  29.234  29.456  1.00  0.00     0.031 C 
ATOM     68  C   UNL A   1      47.749  25.953  30.565  1.00  0.00     0.029 A 
ATOM     69  C   UNL A   1      46.778  26.955  30.616  1.00  0.00     0.049 A 
ATOM     70  H   UNL A   1      47.145  28.933  29.978  1.00  0.00     0.167 HD
ATOM     71  C   UNL A   1      44.479  27.880  30.854  1.00  0.00     0.074 A 
ATOM     72  C   UNL A   1      44.450  28.948  29.853  1.00  0.00     0.031 C 
ATOM     73  C   UNL A   1      45.462  27.007  31.229  1.00  0.00     0.034 A 
BRANCH  60  74
ATOM     74  C   UNL A   1      48.207  29.299  27.135  1.00  0.00     0.023 A 
ATOM     75  C   UNL A   1      49.503  29.834  27.214  1.00  0.00     0.031 A 
ATOM     76  C   UNL A   1      47.162  30.240  26.963  1.00  0.00     0.131 A 
ATOM     77  C   UNL A   1      49.706  31.223  27.232  1.00  0.00     0.055 A 
ATOM     78  C   UNL A   1      47.377  31.618  26.915  1.00  0.00     0.041 A 
ATOM     79  F   UNL A   1      45.868  29.903  26.927  1.00  0.00    -0.206 F 
ATOM     80  C   UNL A   1      48.651  32.120  27.084  1.00  0.00     0.022 A 
BRANCH  77  81
ATOM     81  S   UNL A   1      51.356  31.838  27.638  1.00  0.00     0.124 S 
ATOM     82  O   UNL A   1      51.113  32.501  28.915  1.00  0.00    -0.237 OA
ATOM     83  O   UNL A   1      52.130  30.602  27.689  1.00  0.00    -0.237 OA
ATOM     84  O   UNL A   1      51.671  32.725  26.521  1.00  0.00    -0.744 OA
ENDBRANCH  77  81
ENDBRANCH  60  74
BRANCH  61  85
ATOM     85  C   UNL A   1      40.014  28.257  29.285  1.00  0.00     0.023 A 
ATOM     86  C   UNL A   1      39.183  28.715  30.335  1.00  0.00     0.031 A 
ATOM     87  C   UNL A   1      39.694  28.716  27.987  1.00  0.00     0.131 A 
ATOM     88  C   UNL A   1      38.100  29.591  30.064  1.00  0.00     0.055 A 
ATOM     89  C   UNL A   1      38.630  29.583  27.728  1.00  0.00     0.041 A 
ATOM     90  F   UNL A   1      40.463  28.410  26.931  1.00  0.00    -0.206 F 
ATOM     91  C   UNL A   1      37.834  30.033  28.766  1.00  0.00     0.022 A 
BRANCH  88  92
ATOM     92  S   UNL A   1      37.051  30.244  31.411  1.00  0.00     0.124 S 
ATOM     93  O   UNL A   1      35.936  30.833  30.680  1.00  0.00    -0.237 OA
ATOM     94  O   UNL A   1      36.758  29.047  32.190  1.00  0.00    -0.237 OA
ATOM     95  O   UNL A   1      37.920  31.210  32.084  1.00  0.00    -0.744 OA
ENDBRANCH  88  92
ENDBRANCH  61  85
BRANCH  73  96
ATOM     96  C   UNL A   1      45.111  25.911  32.223  1.00  0.00     0.023 A 
ATOM     97  C   UNL A   1      45.054  26.065  33.630  1.00  0.00     0.031 A 
ATOM     98  C   UNL A   1      44.725  24.667  31.693  1.00  0.00     0.131 A 
ATOM     99  C   UNL A   1      44.641  24.987  34.444  1.00  0.00     0.055 A 
ATOM    100  C   UNL A   1      44.292  23.614  32.498  1.00  0.00     0.041 A 
ATOM    101  F   UNL A   1      44.735  24.460  30.366  1.00  0.00    -0.206 F 
ATOM    102  C   UNL A   1      44.255  23.767  33.878  1.00  0.00     0.022 A 
BRANCH  99 103
ATOM    103  S   UNL A   1      44.626  25.134  36.263  1.00  0.00     0.124 S 
ATOM    104  O   UNL A   1      45.416  26.333  36.516  1.00  0.00    -0.237 OA
ATOM    105  O   UNL A   1      43.200  25.232  36.561  1.00  0.00    -0.237 OA
ATOM    106  O   UNL A   1      45.253  23.888  36.710  1.00  0.00    -0.744 OA
ENDBRANCH  99 103
ENDBRANCH  73  96
ENDBRANCH  47  48
ENDBRANCH  40  42
ENDBRANCH  39  40
ENDBRANCH  38  39
ENDBRANCH  37  38
ENDBRANCH  36  37
ENDBRANCH  35  36
ENDBRANCH  34  35
ENDBRANCH  33  34
ENDBRANCH   1  33
TORSDOF 28
ENDMDL
MODEL 2
REMARK VINA RESULT:     -10.1      1.901      2.436
REMARK SMILES Cc1nnc(SCC(=O)Nc2cccc(C(=O)OCCOCCOCCOCCOC(=O)c3ccc(-c4c5nc(c(-c6cc(S(=O)(=O)[O-])ccc6F)c6ccc([nH]6)c(-c6cc(S(=O)(=O)[O-])ccc6F)c6nc(c(-c7cc(S(=O)(=O)[O-])ccc7F)c7ccc4[nH]7)C=C6)C=C5)cc3)c2)n1-c1ccccc1
REMARK SMILES IDX 23 1 22 2 21 3 20 4 19 5 18 6 16 7 17 8 15 9 11 10 12 11
REMARK SMILES IDX 96 12 13 13 14 14 10 15 8 16 9 17 7 19 6 20 5 21 1 22 2 23
REMARK SMILES IDX 3 24 97 25 4 26 98 27 99 28 103 29 100 30 102 31 101 32
REMARK SMILES IDX 24 33 25 34 26 35 27 36 28 37 29 38 30 39 31 40 32 41 33 42
REMARK SMILES IDX 34 43 95 44 35 45 94 46 36 47 37 48 38 49 88 50 39 51 93 52
REMARK SMILES IDX 87 53 89 54 40 55 92 56 86 57 85 58 41 60 73 61 53 62 72 63
REMARK SMILES IDX 54 64 57 65 71 66 90 67 55 68 56 69 70 71 91 72 58 73 42 74
REMARK SMILES IDX 43 75 51 76 44 77 50 78 52 79 49 80 45 81 46 82 47 83 48 84
REMARK SMILES IDX 74 85 75 86 83 87 76 88 82 89 84 90 81 91 77 92 78 93 79 94
REMARK SMILES IDX 80 95 59 96 60 97 68 98 61 99 67 100 69 101 66 102 62 103
REMARK SMILES IDX 63 104 64 105 65 106
REMARK H PARENT 10 18 89 59 57 70
REMARK Flexibility Score: inf
ROOT
ATOM      1  C   UNL A   1      36.915  22.279  25.875  1.00  0.00     0.188 C 
ENDROOT
BRANCH   1   2
ATOM      2  C   UNL A   1      36.425  23.024  24.614  1.00  0.00     0.188 C 
BRANCH   2   3
ATOM      3  O   UNL A   1      35.227  22.674  23.931  1.00  0.00    -0.376 OA
BRANCH   3   4
ATOM      4  C   UNL A   1      34.730  23.391  22.813  1.00  0.00     0.202 C 
BRANCH   4   5
ATOM      5  C   UNL A   1      33.941  24.701  22.938  1.00  0.00     0.261 C 
BRANCH   5   6
ATOM      6  O   UNL A   1      32.908  24.890  21.985  1.00  0.00    -0.460 OA
BRANCH   6   7
ATOM      7  C   UNL A   1      32.121  25.974  22.097  1.00  0.00     0.338 C 
ATOM      8  O   UNL A   1      31.717  26.704  21.198  1.00  0.00    -0.246 OA
BRANCH   7   9
ATOM      9  C   UNL A   1      31.687  26.041  23.512  1.00  0.00     0.062 A 
ATOM     10  C   UNL A   1      30.550  24.994  25.365  1.00  0.00     0.042 A 
ATOM     11  C   UNL A   1      30.603  26.193  26.076  1.00  0.00     0.026 A 
ATOM     12  C   UNL A   1      31.018  24.953  24.071  1.00  0.00     0.041 A 
ATOM     13  C   UNL A   1      31.241  27.304  25.520  1.00  0.00     0.003 A 
ATOM     14  C   UNL A   1      31.816  27.219  24.249  1.00  0.00     0.016 A 
BRANCH  10  15
ATOM     15  N   UNL A   1      30.081  23.857  26.018  1.00  0.00    -0.325 N 
ATOM     16  C   UNL A   1      30.769  23.076  26.896  1.00  0.00     0.234 C 
ATOM     17  O   UNL A   1      30.058  22.663  27.825  1.00  0.00    -0.274 OA
ATOM     18  H   UNL A   1      29.154  23.589  25.824  1.00  0.00     0.169 HD
BRANCH  16  19
ATOM     19  C   UNL A   1      32.277  22.913  26.980  1.00  0.00     0.178 C 
BRANCH  19  20
ATOM     20  S   UNL A   1      33.126  21.461  26.337  1.00  0.00    -0.076 SA
BRANCH  20  21
ATOM     21  C   UNL A   1      32.463  20.960  24.824  1.00  0.00     0.196 A 
ATOM     22  C   UNL A   1      32.284  18.879  21.847  1.00  0.00     0.090 C 
ATOM     23  C   UNL A   1      32.241  19.916  22.904  1.00  0.00     0.135 A 
ATOM     24  N   UNL A   1      31.782  21.144  22.762  1.00  0.00    -0.134 NA
ATOM     25  N   UNL A   1      32.685  19.752  24.199  1.00  0.00    -0.274 N 
ATOM     26  N   UNL A   1      31.933  21.800  23.960  1.00  0.00    -0.123 NA
BRANCH  25  27
ATOM     27  C   UNL A   1      33.213  18.595  24.781  1.00  0.00     0.049 A 
ATOM     28  C   UNL A   1      34.524  18.249  24.464  1.00  0.00     0.027 A 
ATOM     29  C   UNL A   1      32.368  17.715  25.454  1.00  0.00     0.027 A 
ATOM     30  C   UNL A   1      34.961  16.954  24.721  1.00  0.00     0.002 A 
ATOM     31  C   UNL A   1      32.831  16.435  25.744  1.00  0.00     0.002 A 
ATOM     32  C   UNL A   1      34.110  16.041  25.342  1.00  0.00     0.000 A 
ENDBRANCH  25  27
ENDBRANCH  20  21
ENDBRANCH  19  20
ENDBRANCH  16  19
ENDBRANCH  10  15
ENDBRANCH   7   9
ENDBRANCH   6   7
ENDBRANCH   5   6
ENDBRANCH   4   5
ENDBRANCH   3   4
ENDBRANCH   2   3
ENDBRANCH   1   2
BRANCH   1  33
ATOM     33  O   UNL A   1      37.297  20.941  25.627  1.00  0.00    -0.377 OA
BRANCH  33  34
ATOM     34  C   UNL A   1      38.687  20.741  25.365  1.00  0.00     0.188 C 
BRANCH  34  35
ATOM     35  C   UNL A   1      39.709  21.377  26.346  1.00  0.00     0.188 C 
BRANCH  35  36
ATOM     36  O   UNL A   1      40.420  20.453  27.159  1.00  0.00    -0.376 OA
BRANCH  36  37
ATOM     37  C   UNL A   1      41.815  20.234  27.066  1.00  0.00     0.202 C 
BRANCH  37  38
ATOM     38  C   UNL A   1      42.596  20.844  25.909  1.00  0.00     0.261 C 
BRANCH  38  39
ATOM     39  O   UNL A   1      43.986  20.610  25.961  1.00  0.00    -0.460 OA
BRANCH  39  40
ATOM     40  C   UNL A   1      44.663  21.091  24.903  1.00  0.00     0.338 C 
ATOM     41  O   UNL A   1      45.109  20.449  23.964  1.00  0.00    -0.246 OA
BRANCH  40  42
ATOM     42  C   UNL A   1      44.922  22.508  25.145  1.00  0.00     0.060 A 
ATOM     43  C   UNL A   1      45.783  22.794  26.199  1.00  0.00     0.016 A 
ATOM     44  C   UNL A   1      44.048  23.464  24.599  1.00  0.00     0.016 A 
ATOM     45  C   UNL A   1      45.564  23.960  26.890  1.00  0.00     0.010 A 
ATOM     46  C   UNL A   1      43.824  24.620  25.299  1.00  0.00     0.010 A 
ATOM     47  C   UNL A   1      44.513  24.800  26.491  1.00  0.00    -0.014 A 
BRANCH  47  48
ATOM     48  C   UNL A   1      44.268  25.983  27.281  1.00  0.00     0.031 A 
ATOM     49  C   UNL A   1      45.385  26.936  27.150  1.00  0.00     0.074 A 
ATOM     50  C   UNL A   1      43.154  26.192  28.008  1.00  0.00     0.049 A 
ATOM     51  N   UNL A   1      46.312  27.149  28.020  1.00  0.00    -0.248 NA
ATOM     52  C   UNL A   1      45.661  27.509  25.822  1.00  0.00     0.031 C 
ATOM     53  C   UNL A   1      41.921  25.405  28.046  1.00  0.00     0.029 A 
ATOM     54  N   UNL A   1      42.876  27.229  28.841  1.00  0.00    -0.354 N 
ATOM     55  C   UNL A   1      47.131  28.107  27.448  1.00  0.00     0.074 A 
ATOM     56  C   UNL A   1      46.837  28.097  26.042  1.00  0.00     0.031 C 
ATOM     57  C   UNL A   1      40.958  26.113  28.685  1.00  0.00     0.029 A 
ATOM     58  C   UNL A   1      41.539  27.338  29.217  1.00  0.00     0.049 A 
ATOM     59  H   UNL A   1      43.567  27.856  29.156  1.00  0.00     0.167 HD
ATOM     60  C   UNL A   1      47.739  29.031  28.236  1.00  0.00     0.034 A 
ATOM     61  C   UNL A   1      40.958  28.378  29.880  1.00  0.00     0.034 A 
ATOM     62  C   UNL A   1      47.814  28.569  29.608  1.00  0.00     0.049 A 
ATOM     63  C   UNL A   1      42.051  29.070  30.614  1.00  0.00     0.074 A 
ATOM     64  C   UNL A   1      48.356  27.451  30.217  1.00  0.00     0.029 A 
ATOM     65  N   UNL A   1      46.910  29.078  30.517  1.00  0.00    -0.354 N 
ATOM     66  N   UNL A   1      42.703  28.513  31.598  1.00  0.00    -0.248 NA
ATOM     67  C   UNL A   1      42.760  30.143  29.933  1.00  0.00     0.031 C 
ATOM     68  C   UNL A   1      47.406  27.073  31.212  1.00  0.00     0.029 A 
ATOM     69  C   UNL A   1      46.385  28.025  31.230  1.00  0.00     0.049 A 
ATOM     70  H   UNL A   1      46.682  30.028  30.634  1.00  0.00     0.167 HD
ATOM     71  C   UNL A   1      44.034  28.832  31.372  1.00  0.00     0.074 A 
ATOM     72  C   UNL A   1      43.998  29.912  30.384  1.00  0.00     0.031 C 
ATOM     73  C   UNL A   1      45.041  28.003  31.781  1.00  0.00     0.034 A 
BRANCH  60  74
ATOM     74  C   UNL A   1      47.855  30.487  27.849  1.00  0.00     0.023 A 
ATOM     75  C   UNL A   1      46.654  31.185  27.645  1.00  0.00     0.031 A 
ATOM     76  C   UNL A   1      49.029  31.132  27.389  1.00  0.00     0.131 A 
ATOM     77  C   UNL A   1      46.639  32.391  26.925  1.00  0.00     0.055 A 
ATOM     78  C   UNL A   1      49.015  32.364  26.734  1.00  0.00     0.041 A 
ATOM     79  F   UNL A   1      50.246  30.581  27.455  1.00  0.00    -0.206 F 
ATOM     80  C   UNL A   1      47.812  32.987  26.467  1.00  0.00     0.022 A 
BRANCH  77  81
ATOM     81  S   UNL A   1      45.038  33.075  26.441  1.00  0.00     0.124 S 
ATOM     82  O   UNL A   1      45.184  34.470  26.844  1.00  0.00    -0.237 OA
ATOM     83  O   UNL A   1      45.025  32.814  25.006  1.00  0.00    -0.237 OA
ATOM     84  O   UNL A   1      44.086  32.293  27.226  1.00  0.00    -0.744 OA
ENDBRANCH  77  81
ENDBRANCH  60  74
BRANCH  61  85
ATOM     85  C   UNL A   1      39.633  29.013  29.600  1.00  0.00     0.023 A 
ATOM     86  C   UNL A   1      38.814  29.582  30.606  1.00  0.00     0.031 A 
ATOM     87  C   UNL A   1      39.273  29.300  28.264  1.00  0.00     0.131 A 
ATOM     88  C   UNL A   1      37.705  30.394  30.255  1.00  0.00     0.055 A 
ATOM     89  C   UNL A   1      38.183  30.105  27.926  1.00  0.00     0.041 A 
ATOM     90  F   UNL A   1      40.025  28.880  27.235  1.00  0.00    -0.206 F 
ATOM     91  C   UNL A   1      37.399  30.665  28.919  1.00  0.00     0.022 A 
BRANCH  88  92
ATOM     92  S   UNL A   1      36.671  31.188  31.536  1.00  0.00     0.124 S 
ATOM     93  O   UNL A   1      36.310  30.061  32.388  1.00  0.00    -0.237 OA
ATOM     94  O   UNL A   1      37.581  32.172  32.111  1.00  0.00    -0.237 OA
ATOM     95  O   UNL A   1      35.561  31.760  30.774  1.00  0.00    -0.744 OA
ENDBRANCH  88  92
ENDBRANCH  61  85
BRANCH  73  96
ATOM     96  C   UNL A   1      44.699  26.877  32.744  1.00  0.00     0.023 A 
ATOM     97  C   UNL A   1      44.495  27.021  34.139  1.00  0.00     0.031 A 
ATOM     98  C   UNL A   1      44.481  25.604  32.188  1.00  0.00     0.131 A 
ATOM     99  C   UNL A   1      44.107  25.907  34.916  1.00  0.00     0.055 A 
ATOM    100  C   UNL A   1      44.072  24.514  32.954  1.00  0.00     0.041 A 
ATOM    101  F   UNL A   1      44.636  25.403  30.869  1.00  0.00    -0.206 F 
ATOM    102  C   UNL A   1      43.891  24.659  34.323  1.00  0.00     0.022 A 
BRANCH  99 103
ATOM    103  S   UNL A   1      43.906  26.047  36.725  1.00  0.00     0.124 S 
ATOM    104  O   UNL A   1      43.137  24.859  37.077  1.00  0.00    -0.237 OA
ATOM    105  O   UNL A   1      45.288  26.078  37.196  1.00  0.00    -0.237 OA
ATOM    106  O   UNL A   1      43.182  27.310  36.890  1.00  0.00    -0.744 OA
ENDBRANCH  99 103
ENDBRANCH  73  96
ENDBRANCH  47  48
ENDBRANCH  40  42
ENDBRANCH  39  40
ENDBRANCH  38  39
ENDBRANCH  37  38
ENDBRANCH  36  37
ENDBRANCH  35  36
ENDBRANCH  34  35
ENDBRANCH  33  34
ENDBRANCH   1  33
TORSDOF 28
ENDMDL
MODEL 3
REMARK VINA RESULT:      -9.6      3.700      6.233
REMARK SMILES Cc1nnc(SCC(=O)Nc2cccc(C(=O)OCCOCCOCCOCCOC(=O)c3ccc(-c4c5nc(c(-c6cc(S(=O)(=O)[O-])ccc6F)c6ccc([nH]6)c(-c6cc(S(=O)(=O)[O-])ccc6F)c6nc(c(-c7cc(S(=O)(=O)[O-])ccc7F)c7ccc4[nH]7)C=C6)C=C5)cc3)c2)n1-c1ccccc1
REMARK SMILES IDX 23 1 22 2 21 3 20 4 19 5 18 6 16 7 17 8 15 9 11 10 12 11
REMARK SMILES IDX 96 12 13 13 14 14 10 15 8 16 9 17 7 19 6 20 5 21 1 22 2 23
REMARK SMILES IDX 3 24 97 25 4 26 98 27 99 28 103 29 100 30 102 31 101 32
REMARK SMILES IDX 24 33 25 34 26 35 27 36 28 37 29 38 30 39 31 40 32 41 33 42
REMARK SMILES IDX 34 43 95 44 35 45 94 46 36 47 37 48 38 49 88 50 39 51 93 52
REMARK SMILES IDX 87 53 89 54 40 55 92 56 86 57 85 58 41 60 73 61 53 62 72 63
REMARK SMILES IDX 54 64 57 65 71 66 90 67 55 68 56 69 70 71 91 72 58 73 42 74
REMARK SMILES IDX 43 75 51 76 44 77 50 78 52 79 49 80 45 81 46 82 47 83 48 84
REMARK SMILES IDX 74 85 75 86 83 87 76 88 82 89 84 90 81 91 77 92 78 93 79 94
REMARK SMILES IDX 80 95 59 96 60 97 68 98 61 99 67 100 69 101 66 102 62 103
REMARK SMILES IDX 63 104 64 105 65 106
REMARK H PARENT 10 18 89 59 57 70
REMARK Flexibility Score: inf
ROOT
ATOM      1  C   UNL A   1      35.273  23.600  26.446  1.00  0.00     0.188 C 
ENDROOT
BRANCH   1   2
ATOM      2  C   UNL A   1      34.038  24.461  26.101  1.00  0.00     0.188 C 
BRANCH   2   3
ATOM      3  O   UNL A   1      32.854  24.457  26.890  1.00  0.00    -0.376 OA
BRANCH   3   4
ATOM      4  C   UNL A   1      31.635  23.871  26.461  1.00  0.00     0.202 C 
BRANCH   4   5
ATOM      5  C   UNL A   1      31.285  22.395  26.693  1.00  0.00     0.261 C 
BRANCH   5   6
ATOM      6  O   UNL A   1      31.015  21.637  25.524  1.00  0.00    -0.460 OA
BRANCH   6   7
ATOM      7  C   UNL A   1      31.990  20.856  25.028  1.00  0.00     0.338 C 
ATOM      8  O   UNL A   1      32.099  19.638  25.125  1.00  0.00    -0.246 OA
BRANCH   7   9
ATOM      9  C   UNL A   1      32.845  21.725  24.185  1.00  0.00     0.062 A 
ATOM     10  C   UNL A   1      32.998  23.441  22.495  1.00  0.00     0.042 A 
ATOM     11  C   UNL A   1      34.368  23.202  22.377  1.00  0.00     0.026 A 
ATOM     12  C   UNL A   1      32.244  22.652  23.334  1.00  0.00     0.041 A 
ATOM     13  C   UNL A   1      34.982  22.255  23.199  1.00  0.00     0.003 A 
ATOM     14  C   UNL A   1      34.226  21.539  24.130  1.00  0.00     0.016 A 
BRANCH  10  15
ATOM     15  N   UNL A   1      32.451  24.519  21.805  1.00  0.00    -0.325 N 
ATOM     16  C   UNL A   1      32.983  25.765  21.680  1.00  0.00     0.234 C 
ATOM     17  O   UNL A   1      32.792  26.256  20.556  1.00  0.00    -0.274 OA
ATOM     18  H   UNL A   1      31.587  24.363  21.359  1.00  0.00     0.169 HD
BRANCH  16  19
ATOM     19  C   UNL A   1      33.957  26.438  22.632  1.00  0.00     0.178 C 
BRANCH  19  20
ATOM     20  S   UNL A   1      33.629  28.048  23.367  1.00  0.00    -0.076 SA
BRANCH  20  21
ATOM     21  C   UNL A   1      32.417  27.949  24.592  1.00  0.00     0.196 A 
ATOM     22  C   UNL A   1      31.204  27.987  28.020  1.00  0.00     0.090 C 
ATOM     23  C   UNL A   1      31.483  27.814  26.576  1.00  0.00     0.135 A 
ATOM     24  N   UNL A   1      30.770  27.092  25.733  1.00  0.00    -0.134 NA
ATOM     25  N   UNL A   1      32.541  28.379  25.896  1.00  0.00    -0.274 N 
ATOM     26  N   UNL A   1      31.362  27.168  24.495  1.00  0.00    -0.123 NA
BRANCH  25  27
ATOM     27  C   UNL A   1      33.519  29.242  26.402  1.00  0.00     0.049 A 
ATOM     28  C   UNL A   1      34.760  28.700  26.723  1.00  0.00     0.027 A 
ATOM     29  C   UNL A   1      33.164  30.535  26.783  1.00  0.00     0.027 A 
ATOM     30  C   UNL A   1      35.620  29.423  27.544  1.00  0.00     0.002 A 
ATOM     31  C   UNL A   1      34.052  31.265  27.570  1.00  0.00     0.002 A 
ATOM     32  C   UNL A   1      35.259  30.695  27.983  1.00  0.00     0.000 A 
ENDBRANCH  25  27
ENDBRANCH  20  21
ENDBRANCH  19  20
ENDBRANCH  16  19
ENDBRANCH  10  15
ENDBRANCH   7   9
ENDBRANCH   6   7
ENDBRANCH   5   6
ENDBRANCH   4   5
ENDBRANCH   3   4
ENDBRANCH   2   3
ENDBRANCH   1   2
BRANCH   1  33
ATOM     33  O   UNL A   1      36.503  24.244  26.181  1.00  0.00    -0.377 OA
BRANCH  33  34
ATOM     34  C   UNL A   1      37.449  23.473  25.439  1.00  0.00     0.188 C 
BRANCH  34  35
ATOM     35  C   UNL A   1      37.628  21.978  25.824  1.00  0.00     0.188 C 
BRANCH  35  36
ATOM     36  O   UNL A   1      38.957  21.485  25.722  1.00  0.00    -0.376 OA
BRANCH  36  37
ATOM     37  C   UNL A   1      39.922  21.607  26.751  1.00  0.00     0.202 C 
BRANCH  37  38
ATOM     38  C   UNL A   1      40.570  22.959  27.018  1.00  0.00     0.261 C 
BRANCH  38  39
ATOM     39  O   UNL A   1      41.977  22.958  26.918  1.00  0.00    -0.460 OA
BRANCH  39  40
ATOM     40  C   UNL A   1      42.507  24.159  26.626  1.00  0.00     0.338 C 
ATOM     41  O   UNL A   1      43.478  24.380  25.919  1.00  0.00    -0.246 OA
BRANCH  40  42
ATOM     42  C   UNL A   1      41.818  25.160  27.437  1.00  0.00     0.060 A 
ATOM     43  C   UNL A   1      40.961  26.011  26.748  1.00  0.00     0.016 A 
ATOM     44  C   UNL A   1      42.314  25.457  28.718  1.00  0.00     0.016 A 
ATOM     45  C   UNL A   1      40.826  27.290  27.228  1.00  0.00     0.010 A 
ATOM     46  C   UNL A   1      42.188  26.739  29.187  1.00  0.00     0.010 A 
ATOM     47  C   UNL A   1      41.532  27.662  28.382  1.00  0.00    -0.014 A 
BRANCH  47  48
ATOM     48  C   UNL A   1      41.421  29.033  28.820  1.00  0.00     0.031 A 
ATOM     49  C   UNL A   1      42.531  29.841  28.282  1.00  0.00     0.074 A 
ATOM     50  C   UNL A   1      40.421  29.506  29.586  1.00  0.00     0.049 A 
ATOM     51  N   UNL A   1      43.571  30.237  28.933  1.00  0.00    -0.248 NA
ATOM     52  C   UNL A   1      42.639  29.995  26.822  1.00  0.00     0.031 C 
ATOM     53  C   UNL A   1      39.187  28.838  30.001  1.00  0.00     0.029 A 
ATOM     54  N   UNL A   1      40.279  30.752  30.111  1.00  0.00    -0.354 N 
ATOM     55  C   UNL A   1      44.327  30.941  28.012  1.00  0.00     0.074 A 
ATOM     56  C   UNL A   1      43.846  30.551  26.716  1.00  0.00     0.031 C 
ATOM     57  C   UNL A   1      38.334  29.754  30.521  1.00  0.00     0.029 A 
ATOM     58  C   UNL A   1      39.008  31.042  30.600  1.00  0.00     0.049 A 
ATOM     59  H   UNL A   1      41.020  31.400  30.144  1.00  0.00     0.167 HD
ATOM     60  C   UNL A   1      45.055  32.013  28.418  1.00  0.00     0.034 A 
ATOM     61  C   UNL A   1      38.545  32.261  30.999  1.00  0.00     0.034 A 
ATOM     62  C   UNL A   1      45.304  31.957  29.845  1.00  0.00     0.049 A 
ATOM     63  C   UNL A   1      39.741  33.066  31.362  1.00  0.00     0.074 A 
ATOM     64  C   UNL A   1      45.898  31.027  30.681  1.00  0.00     0.029 A 
ATOM     65  N   UNL A   1      44.542  32.756  30.672  1.00  0.00    -0.354 N 
ATOM     66  N   UNL A   1      40.507  32.775  32.377  1.00  0.00    -0.248 NA
ATOM     67  C   UNL A   1      40.375  33.857  30.317  1.00  0.00     0.031 C 
ATOM     68  C   UNL A   1      45.083  31.005  31.851  1.00  0.00     0.029 A 
ATOM     69  C   UNL A   1      44.094  31.983  31.717  1.00  0.00     0.049 A 
ATOM     70  H   UNL A   1      44.352  33.712  30.536  1.00  0.00     0.167 HD
ATOM     71  C   UNL A   1      41.802  32.936  31.906  1.00  0.00     0.074 A 
ATOM     72  C   UNL A   1      41.657  33.691  30.661  1.00  0.00     0.031 C 
ATOM     73  C   UNL A   1      42.837  32.198  32.412  1.00  0.00     0.034 A 
BRANCH  60  74
ATOM     74  C   UNL A   1      45.150  33.290  27.616  1.00  0.00     0.023 A 
ATOM     75  C   UNL A   1      46.436  33.714  27.248  1.00  0.00     0.031 A 
ATOM     76  C   UNL A   1      44.115  34.245  27.452  1.00  0.00     0.131 A 
ATOM     77  C   UNL A   1      46.669  35.043  26.856  1.00  0.00     0.055 A 
ATOM     78  C   UNL A   1      44.344  35.545  26.997  1.00  0.00     0.041 A 
ATOM     79  F   UNL A   1      42.845  34.022  27.807  1.00  0.00    -0.206 F 
ATOM     80  C   UNL A   1      45.632  35.962  26.728  1.00  0.00     0.022 A 
BRANCH  77  81
ATOM     81  S   UNL A   1      48.382  35.594  26.691  1.00  0.00     0.124 S 
ATOM     82  O   UNL A   1      48.489  36.544  27.794  1.00  0.00    -0.237 OA
ATOM     83  O   UNL A   1      49.114  34.341  26.845  1.00  0.00    -0.237 OA
ATOM     84  O   UNL A   1      48.422  36.180  25.354  1.00  0.00    -0.744 OA
ENDBRANCH  77  81
ENDBRANCH  60  74
BRANCH  61  85
ATOM     85  C   UNL A   1      37.208  32.868  30.712  1.00  0.00     0.023 A 
ATOM     86  C   UNL A   1      36.293  33.251  31.723  1.00  0.00     0.031 A 
ATOM     87  C   UNL A   1      36.923  33.325  29.405  1.00  0.00     0.131 A 
ATOM     88  C   UNL A   1      35.167  34.053  31.406  1.00  0.00     0.055 A 
ATOM     89  C   UNL A   1      35.816  34.120  29.102  1.00  0.00     0.041 A 
ATOM     90  F   UNL A   1      37.765  33.090  28.387  1.00  0.00    -0.206 F 
ATOM     91  C   UNL A   1      34.937  34.497  30.102  1.00  0.00     0.022 A 
BRANCH  88  92
ATOM     92  S   UNL A   1      34.007  34.610  32.704  1.00  0.00     0.124 S 
ATOM     93  O   UNL A   1      33.619  33.354  33.335  1.00  0.00    -0.237 OA
ATOM     94  O   UNL A   1      34.833  35.509  33.501  1.00  0.00    -0.237 OA
ATOM     95  O   UNL A   1      32.941  35.271  31.950  1.00  0.00    -0.744 OA
ENDBRANCH  88  92
ENDBRANCH  61  85
BRANCH  73  96
ATOM     96  C   UNL A   1      42.603  31.415  33.694  1.00  0.00     0.023 A 
ATOM     97  C   UNL A   1      42.867  31.884  35.005  1.00  0.00     0.031 A 
ATOM     98  C   UNL A   1      41.991  30.155  33.570  1.00  0.00     0.131 A 
ATOM     99  C   UNL A   1      42.536  31.087  36.122  1.00  0.00     0.055 A 
ATOM    100  C   UNL A   1      41.641  29.383  34.678  1.00  0.00     0.041 A 
ATOM    101  F   UNL A   1      41.694  29.659  32.358  1.00  0.00    -0.206 F 
ATOM    102  C   UNL A   1      41.919  29.842  35.958  1.00  0.00     0.022 A 
BRANCH  99 103
ATOM    103  S   UNL A   1      42.929  31.635  37.818  1.00  0.00     0.124 S 
ATOM    104  O   UNL A   1      43.802  30.582  38.324  1.00  0.00    -0.237 OA
ATOM    105  O   UNL A   1      43.557  32.934  37.593  1.00  0.00    -0.237 OA
ATOM    106  O   UNL A   1      41.618  31.701  38.467  1.00  0.00    -0.744 OA
ENDBRANCH  99 103
ENDBRANCH  73  96
ENDBRANCH  47  48
ENDBRANCH  40  42
ENDBRANCH  39  40
ENDBRANCH  38  39
ENDBRANCH  37  38
ENDBRANCH  36  37
ENDBRANCH  35  36
ENDBRANCH  34  35
ENDBRANCH  33  34
ENDBRANCH   1  33
TORSDOF 28
ENDMDL
