MODEL 1
REMARK VINA RESULT:     -10.0      0.000      0.000
REMARK SMILES Cc1nn(CC(=O)OCCOCCOCCOCCOC(=O)c2ccc(-c3c4nc(c(-c5cc(S(=O)(=O)[O-])ccc5F)c5ccc([nH]5)c(-c5cc(S(=O)(=O)[O-])ccc5F)c5nc(c(-c6cc(S(=O)(=O)[O-])ccc6F)c6ccc3[nH]6)C=C5)C=C4)cc2)c(C)c1NC(=O)C(=O)Nc1ccc(F)cc1
REMARK SMILES IDX 13 1 12 2 11 3 10 4 9 5 8 6 6 7 7 8 5 9 4 10 1 11 2 12 3 13
REMARK SMILES IDX 88 14 86 15 87 16 89 17 90 18 91 20 92 21 93 22 94 23 95 25
REMARK SMILES IDX 96 26 101 27 97 28 100 29 98 30 99 31 14 32 15 33 16 34
REMARK SMILES IDX 17 35 18 36 19 37 20 38 21 39 22 40 23 41 24 42 85 43 25 44
REMARK SMILES IDX 84 45 26 46 27 47 28 48 78 49 29 50 83 51 77 52 79 53 30 54
REMARK SMILES IDX 82 55 76 56 75 57 31 59 63 60 43 61 62 62 44 63 47 64 61 65
REMARK SMILES IDX 80 66 45 67 46 68 60 70 81 71 48 72 32 73 33 74 41 75 34 76
REMARK SMILES IDX 40 77 42 78 39 79 35 80 36 81 37 82 38 83 64 84 65 85 73 86
REMARK SMILES IDX 66 87 72 88 74 89 71 90 67 91 68 92 69 93 70 94 49 95 50 96
REMARK SMILES IDX 58 97 51 98 57 99 59 100 56 101 52 102 53 103 54 104 55 105
REMARK H PARENT 89 19 94 24 79 58 47 69
REMARK Flexibility Score: inf
ROOT
ATOM      1  C   UNL A   1      31.968  28.762  26.621  1.00  0.00     0.188 C 
ENDROOT
BRANCH   1   2
ATOM      2  C   UNL A   1      31.509  28.089  25.314  1.00  0.00     0.188 C 
BRANCH   2   3
ATOM      3  O   UNL A   1      30.464  28.657  24.525  1.00  0.00    -0.376 OA
BRANCH   3   4
ATOM      4  C   UNL A   1      30.287  28.232  23.180  1.00  0.00     0.202 C 
BRANCH   4   5
ATOM      5  C   UNL A   1      31.555  27.913  22.375  1.00  0.00     0.261 C 
BRANCH   5   6
ATOM      6  O   UNL A   1      31.408  26.799  21.471  1.00  0.00    -0.462 OA
BRANCH   6   7
ATOM      7  C   UNL A   1      32.396  25.870  21.456  1.00  0.00     0.327 C 
ATOM      8  O   UNL A   1      33.592  26.147  21.410  1.00  0.00    -0.250 OA
BRANCH   7   9
ATOM      9  C   UNL A   1      31.931  24.446  21.623  1.00  0.00     0.267 C 
BRANCH   9  10
ATOM     10  N   UNL A   1      31.635  23.976  22.971  1.00  0.00    -0.256 N 
ATOM     11  C   UNL A   1      30.276  24.786  26.146  1.00  0.00     0.071 C 
ATOM     12  C   UNL A   1      31.016  24.215  24.991  1.00  0.00     0.083 A 
ATOM     13  N   UNL A   1      30.897  24.770  23.782  1.00  0.00    -0.175 NA
ATOM     14  C   UNL A   1      31.991  23.184  24.980  1.00  0.00     0.086 A 
ATOM     15  C   UNL A   1      32.216  22.924  23.640  1.00  0.00     0.060 A 
ATOM     16  C   UNL A   1      32.904  21.823  22.921  1.00  0.00     0.069 C 
BRANCH  14  17
ATOM     17  N   UNL A   1      32.549  22.609  26.104  1.00  0.00    -0.315 N 
ATOM     18  C   UNL A   1      33.701  23.002  26.754  1.00  0.00     0.314 C 
ATOM     19  H   UNL A   1      32.073  21.835  26.485  1.00  0.00     0.170 HD
ATOM     20  O   UNL A   1      33.970  22.552  27.864  1.00  0.00    -0.263 OA
BRANCH  18  21
ATOM     21  C   UNL A   1      34.564  24.116  26.153  1.00  0.00     0.314 C 
ATOM     22  O   UNL A   1      34.227  25.293  26.286  1.00  0.00    -0.263 OA
ATOM     23  N   UNL A   1      35.766  23.850  25.529  1.00  0.00    -0.318 N 
ATOM     24  H   UNL A   1      36.104  24.571  24.950  1.00  0.00     0.170 HD
BRANCH  23  25
ATOM     25  C   UNL A   1      36.577  22.711  25.595  1.00  0.00     0.041 A 
ATOM     26  C   UNL A   1      35.959  21.516  25.199  1.00  0.00     0.029 A 
ATOM     27  C   UNL A   1      37.931  22.703  25.930  1.00  0.00     0.029 A 
ATOM     28  C   UNL A   1      36.714  20.364  24.998  1.00  0.00     0.041 A 
ATOM     29  C   UNL A   1      38.687  21.540  25.746  1.00  0.00     0.041 A 
ATOM     30  C   UNL A   1      38.077  20.392  25.254  1.00  0.00     0.123 A 
ATOM     31  F   UNL A   1      38.812  19.299  25.015  1.00  0.00    -0.207 F 
ENDBRANCH  23  25
ENDBRANCH  18  21
ENDBRANCH  14  17
ENDBRANCH   9  10
ENDBRANCH   7   9
ENDBRANCH   6   7
ENDBRANCH   5   6
ENDBRANCH   4   5
ENDBRANCH   3   4
ENDBRANCH   2   3
ENDBRANCH   1   2
BRANCH   1  32
ATOM     32  O   UNL A   1      33.227  28.341  27.113  1.00  0.00    -0.377 OA
BRANCH  32  33
ATOM     33  C   UNL A   1      34.347  28.947  26.488  1.00  0.00     0.188 C 
BRANCH  33  34
ATOM     34  C   UNL A   1      35.105  29.965  27.354  1.00  0.00     0.188 C 
BRANCH  34  35
ATOM     35  O   UNL A   1      34.274  30.968  27.945  1.00  0.00    -0.376 OA
BRANCH  35  36
ATOM     36  C   UNL A   1      34.857  31.845  28.903  1.00  0.00     0.202 C 
BRANCH  36  37
ATOM     37  C   UNL A   1      36.388  31.914  28.881  1.00  0.00     0.261 C 
BRANCH  37  38
ATOM     38  O   UNL A   1      37.043  31.410  30.040  1.00  0.00    -0.460 OA
BRANCH  38  39
ATOM     39  C   UNL A   1      36.864  30.100  30.312  1.00  0.00     0.338 C 
ATOM     40  O   UNL A   1      36.027  29.612  31.045  1.00  0.00    -0.246 OA
BRANCH  39  41
ATOM     41  C   UNL A   1      37.871  29.318  29.583  1.00  0.00     0.060 A 
ATOM     42  C   UNL A   1      38.295  28.141  30.197  1.00  0.00     0.016 A 
ATOM     43  C   UNL A   1      38.522  29.841  28.452  1.00  0.00     0.016 A 
ATOM     44  C   UNL A   1      39.517  27.625  29.834  1.00  0.00     0.010 A 
ATOM     45  C   UNL A   1      39.743  29.318  28.083  1.00  0.00     0.010 A 
ATOM     46  C   UNL A   1      40.268  28.288  28.856  1.00  0.00    -0.014 A 
BRANCH  46  47
ATOM     47  C   UNL A   1      41.670  27.940  28.784  1.00  0.00     0.031 A 
ATOM     48  C   UNL A   1      42.003  26.803  27.914  1.00  0.00     0.074 A 
ATOM     49  C   UNL A   1      42.601  28.563  29.527  1.00  0.00     0.049 A 
ATOM     50  N   UNL A   1      42.345  25.616  28.283  1.00  0.00    -0.248 NA
ATOM     51  C   UNL A   1      41.819  26.968  26.469  1.00  0.00     0.031 C 
ATOM     52  C   UNL A   1      42.485  29.815  30.280  1.00  0.00     0.029 A 
ATOM     53  N   UNL A   1      43.905  28.214  29.696  1.00  0.00    -0.354 N 
ATOM     54  C   UNL A   1      42.626  24.926  27.114  1.00  0.00     0.074 A 
ATOM     55  C   UNL A   1      42.145  25.750  26.034  1.00  0.00     0.031 C 
ATOM     56  C   UNL A   1      43.719  30.228  30.642  1.00  0.00     0.029 A 
ATOM     57  C   UNL A   1      44.682  29.203  30.275  1.00  0.00     0.049 A 
ATOM     58  H   UNL A   1      44.263  27.336  29.431  1.00  0.00     0.167 HD
ATOM     59  C   UNL A   1      43.414  23.818  27.122  1.00  0.00     0.034 A 
ATOM     60  C   UNL A   1      46.033  29.208  30.376  1.00  0.00     0.034 A 
ATOM     61  C   UNL A   1      43.542  23.256  28.445  1.00  0.00     0.049 A 
ATOM     62  C   UNL A   1      46.481  27.794  30.365  1.00  0.00     0.074 A 
ATOM     63  C   UNL A   1      42.651  22.756  29.375  1.00  0.00     0.029 A 
ATOM     64  N   UNL A   1      44.711  23.473  29.139  1.00  0.00    -0.354 N 
ATOM     65  N   UNL A   1      46.200  26.949  31.319  1.00  0.00    -0.248 NA
ATOM     66  C   UNL A   1      46.860  27.182  29.099  1.00  0.00     0.031 C 
ATOM     67  C   UNL A   1      43.167  23.158  30.642  1.00  0.00     0.029 A 
ATOM     68  C   UNL A   1      44.361  23.847  30.415  1.00  0.00     0.049 A 
ATOM     69  H   UNL A   1      45.626  23.377  28.788  1.00  0.00     0.167 HD
ATOM     70  C   UNL A   1      45.940  25.749  30.677  1.00  0.00     0.074 A 
ATOM     71  C   UNL A   1      46.480  25.922  29.331  1.00  0.00     0.031 C 
ATOM     72  C   UNL A   1      45.073  24.834  31.204  1.00  0.00     0.034 A 
BRANCH  59  73
ATOM     73  C   UNL A   1      44.311  23.418  25.983  1.00  0.00     0.023 A 
ATOM     74  C   UNL A   1      44.223  22.098  25.508  1.00  0.00     0.031 A 
ATOM     75  C   UNL A   1      45.419  24.170  25.532  1.00  0.00     0.131 A 
ATOM     76  C   UNL A   1      45.228  21.563  24.684  1.00  0.00     0.055 A 
ATOM     77  C   UNL A   1      46.375  23.660  24.653  1.00  0.00     0.041 A 
ATOM     78  F   UNL A   1      45.692  25.397  25.997  1.00  0.00    -0.206 F 
ATOM     79  C   UNL A   1      46.298  22.340  24.244  1.00  0.00     0.022 A 
BRANCH  76  80
ATOM     80  S   UNL A   1      45.212  19.784  24.352  1.00  0.00     0.124 S 
ATOM     81  O   UNL A   1      44.527  19.726  23.066  1.00  0.00    -0.237 OA
ATOM     82  O   UNL A   1      46.636  19.468  24.341  1.00  0.00    -0.237 OA
ATOM     83  O   UNL A   1      44.460  19.237  25.480  1.00  0.00    -0.744 OA
ENDBRANCH  76  80
ENDBRANCH  59  73
BRANCH  60  84
ATOM     84  C   UNL A   1      46.899  30.378  30.088  1.00  0.00     0.023 A 
ATOM     85  C   UNL A   1      47.298  30.717  28.783  1.00  0.00     0.031 A 
ATOM     86  C   UNL A   1      47.172  31.322  31.106  1.00  0.00     0.131 A 
ATOM     87  C   UNL A   1      47.947  31.949  28.542  1.00  0.00     0.055 A 
ATOM     88  C   UNL A   1      47.826  32.529  30.864  1.00  0.00     0.041 A 
ATOM     89  F   UNL A   1      46.735  31.140  32.363  1.00  0.00    -0.206 F 
ATOM     90  C   UNL A   1      48.212  32.852  29.576  1.00  0.00     0.022 A 
BRANCH  87  91
ATOM     91  S   UNL A   1      48.368  32.436  26.841  1.00  0.00     0.124 S 
ATOM     92  O   UNL A   1      49.436  31.501  26.505  1.00  0.00    -0.237 OA
ATOM     93  O   UNL A   1      47.101  32.252  26.142  1.00  0.00    -0.237 OA
ATOM     94  O   UNL A   1      48.792  33.830  26.980  1.00  0.00    -0.744 OA
ENDBRANCH  87  91
ENDBRANCH  60  84
BRANCH  72  95
ATOM     95  C   UNL A   1      44.628  25.017  32.643  1.00  0.00     0.023 A 
ATOM     96  C   UNL A   1      43.683  25.979  33.065  1.00  0.00     0.031 A 
ATOM     97  C   UNL A   1      45.094  24.099  33.600  1.00  0.00     0.131 A 
ATOM     98  C   UNL A   1      43.255  26.009  34.406  1.00  0.00     0.055 A 
ATOM     99  C   UNL A   1      44.653  24.120  34.924  1.00  0.00     0.041 A 
ATOM    100  F   UNL A   1      45.966  23.136  33.254  1.00  0.00    -0.206 F 
ATOM    101  C   UNL A   1      43.736  25.081  35.334  1.00  0.00     0.022 A 
BRANCH  98 102
ATOM    102  S   UNL A   1      42.062  27.268  34.962  1.00  0.00     0.124 S 
ATOM    103  O   UNL A   1      42.522  28.488  34.308  1.00  0.00    -0.237 OA
ATOM    104  O   UNL A   1      40.790  26.730  34.489  1.00  0.00    -0.237 OA
ATOM    105  O   UNL A   1      42.217  27.265  36.418  1.00  0.00    -0.744 OA
ENDBRANCH  98 102
ENDBRANCH  72  95
ENDBRANCH  46  47
ENDBRANCH  39  41
ENDBRANCH  38  39
ENDBRANCH  37  38
ENDBRANCH  36  37
ENDBRANCH  35  36
ENDBRANCH  34  35
ENDBRANCH  33  34
ENDBRANCH  32  33
ENDBRANCH   1  32
TORSDOF 27
ENDMDL
MODEL 2
REMARK VINA RESULT:      -8.5      6.133     12.591
REMARK SMILES Cc1nn(CC(=O)OCCOCCOCCOCCOC(=O)c2ccc(-c3c4nc(c(-c5cc(S(=O)(=O)[O-])ccc5F)c5ccc([nH]5)c(-c5cc(S(=O)(=O)[O-])ccc5F)c5nc(c(-c6cc(S(=O)(=O)[O-])ccc6F)c6ccc3[nH]6)C=C5)C=C4)cc2)c(C)c1NC(=O)C(=O)Nc1ccc(F)cc1
REMARK SMILES IDX 13 1 12 2 11 3 10 4 9 5 8 6 6 7 7 8 5 9 4 10 1 11 2 12 3 13
REMARK SMILES IDX 88 14 86 15 87 16 89 17 90 18 91 20 92 21 93 22 94 23 95 25
REMARK SMILES IDX 96 26 101 27 97 28 100 29 98 30 99 31 14 32 15 33 16 34
REMARK SMILES IDX 17 35 18 36 19 37 20 38 21 39 22 40 23 41 24 42 85 43 25 44
REMARK SMILES IDX 84 45 26 46 27 47 28 48 78 49 29 50 83 51 77 52 79 53 30 54
REMARK SMILES IDX 82 55 76 56 75 57 31 59 63 60 43 61 62 62 44 63 47 64 61 65
REMARK SMILES IDX 80 66 45 67 46 68 60 70 81 71 48 72 32 73 33 74 41 75 34 76
REMARK SMILES IDX 40 77 42 78 39 79 35 80 36 81 37 82 38 83 64 84 65 85 73 86
REMARK SMILES IDX 66 87 72 88 74 89 71 90 67 91 68 92 69 93 70 94 49 95 50 96
REMARK SMILES IDX 58 97 51 98 57 99 59 100 56 101 52 102 53 103 54 104 55 105
REMARK H PARENT 89 19 94 24 79 58 47 69
REMARK Flexibility Score: inf
ROOT
ATOM      1  C   UNL A   1      43.644  33.817  28.287  1.00  0.00     0.188 C 
ENDROOT
BRANCH   1   2
ATOM      2  C   UNL A   1      43.959  32.312  28.380  1.00  0.00     0.188 C 
BRANCH   2   3
ATOM      3  O   UNL A   1      44.827  31.685  27.437  1.00  0.00    -0.376 OA
BRANCH   3   4
ATOM      4  C   UNL A   1      46.147  31.327  27.824  1.00  0.00     0.202 C 
BRANCH   4   5
ATOM      5  C   UNL A   1      47.022  30.634  26.769  1.00  0.00     0.261 C 
BRANCH   5   6
ATOM      6  O   UNL A   1      46.290  30.171  25.616  1.00  0.00    -0.462 OA
BRANCH   6   7
ATOM      7  C   UNL A   1      46.666  28.989  25.069  1.00  0.00     0.327 C 
ATOM      8  O   UNL A   1      46.864  28.826  23.866  1.00  0.00    -0.250 OA
BRANCH   7   9
ATOM      9  C   UNL A   1      46.950  27.891  26.061  1.00  0.00     0.267 C 
BRANCH   9  10
ATOM     10  N   UNL A   1      45.966  26.823  26.199  1.00  0.00    -0.256 N 
ATOM     11  C   UNL A   1      44.574  23.891  24.766  1.00  0.00     0.071 C 
ATOM     12  C   UNL A   1      44.859  25.138  25.523  1.00  0.00     0.083 A 
ATOM     13  N   UNL A   1      46.004  25.796  25.317  1.00  0.00    -0.175 NA
ATOM     14  C   UNL A   1      44.009  25.864  26.396  1.00  0.00     0.086 A 
ATOM     15  C   UNL A   1      44.823  26.828  26.964  1.00  0.00     0.060 A 
ATOM     16  C   UNL A   1      44.660  27.742  28.121  1.00  0.00     0.069 C 
BRANCH  14  17
ATOM     17  N   UNL A   1      42.666  25.608  26.588  1.00  0.00    -0.315 N 
ATOM     18  C   UNL A   1      41.605  26.408  26.215  1.00  0.00     0.314 C 
ATOM     19  H   UNL A   1      42.441  24.763  27.041  1.00  0.00     0.170 HD
ATOM     20  O   UNL A   1      40.459  25.968  26.242  1.00  0.00    -0.263 OA
BRANCH  18  21
ATOM     21  C   UNL A   1      41.876  27.793  25.619  1.00  0.00     0.314 C 
ATOM     22  O   UNL A   1      42.362  27.892  24.492  1.00  0.00    -0.263 OA
ATOM     23  N   UNL A   1      41.516  28.951  26.277  1.00  0.00    -0.318 N 
ATOM     24  H   UNL A   1      41.964  29.768  25.958  1.00  0.00     0.170 HD
BRANCH  23  25
ATOM     25  C   UNL A   1      40.612  29.141  27.329  1.00  0.00     0.041 A 
ATOM     26  C   UNL A   1      41.196  29.395  28.578  1.00  0.00     0.029 A 
ATOM     27  C   UNL A   1      39.224  29.180  27.201  1.00  0.00     0.029 A 
ATOM     28  C   UNL A   1      40.415  29.827  29.646  1.00  0.00     0.041 A 
ATOM     29  C   UNL A   1      38.437  29.596  28.280  1.00  0.00     0.041 A 
ATOM     30  C   UNL A   1      39.043  29.943  29.482  1.00  0.00     0.123 A 
ATOM     31  F   UNL A   1      38.297  30.404  30.494  1.00  0.00    -0.207 F 
ENDBRANCH  23  25
ENDBRANCH  18  21
ENDBRANCH  14  17
ENDBRANCH   9  10
ENDBRANCH   7   9
ENDBRANCH   6   7
ENDBRANCH   5   6
ENDBRANCH   4   5
ENDBRANCH   3   4
ENDBRANCH   2   3
ENDBRANCH   1   2
BRANCH   1  32
ATOM     32  O   UNL A   1      43.142  34.407  29.472  1.00  0.00    -0.377 OA
BRANCH  32  33
ATOM     33  C   UNL A   1      41.765  34.743  29.437  1.00  0.00     0.188 C 
BRANCH  33  34
ATOM     34  C   UNL A   1      40.825  33.712  30.080  1.00  0.00     0.188 C 
BRANCH  34  35
ATOM     35  O   UNL A   1      39.466  34.143  30.189  1.00  0.00    -0.376 OA
BRANCH  35  36
ATOM     36  C   UNL A   1      38.587  33.874  29.102  1.00  0.00     0.202 C 
BRANCH  36  37
ATOM     37  C   UNL A   1      37.204  33.342  29.493  1.00  0.00     0.261 C 
BRANCH  37  38
ATOM     38  O   UNL A   1      36.259  34.325  29.900  1.00  0.00    -0.460 OA
BRANCH  38  39
ATOM     39  C   UNL A   1      35.232  33.894  30.662  1.00  0.00     0.338 C 
ATOM     40  O   UNL A   1      34.089  33.691  30.305  1.00  0.00    -0.246 OA
BRANCH  39  41
ATOM     41  C   UNL A   1      35.704  33.713  32.042  1.00  0.00     0.060 A 
ATOM     42  C   UNL A   1      36.524  34.721  32.546  1.00  0.00     0.016 A 
ATOM     43  C   UNL A   1      35.521  32.497  32.721  1.00  0.00     0.016 A 
ATOM     44  C   UNL A   1      37.354  34.415  33.599  1.00  0.00     0.010 A 
ATOM     45  C   UNL A   1      36.347  32.194  33.783  1.00  0.00     0.010 A 
ATOM     46  C   UNL A   1      37.325  33.120  34.128  1.00  0.00    -0.014 A 
BRANCH  46  47
ATOM     47  C   UNL A   1      38.452  32.743  34.953  1.00  0.00     0.031 A 
ATOM     48  C   UNL A   1      38.370  33.135  36.367  1.00  0.00     0.074 A 
ATOM     49  C   UNL A   1      39.543  32.143  34.444  1.00  0.00     0.049 A 
ATOM     50  N   UNL A   1      39.025  34.078  36.952  1.00  0.00    -0.248 NA
ATOM     51  C   UNL A   1      37.354  32.485  37.201  1.00  0.00     0.031 C 
ATOM     52  C   UNL A   1      39.713  31.515  33.131  1.00  0.00     0.029 A 
ATOM     53  N   UNL A   1      40.733  31.911  35.061  1.00  0.00    -0.354 N 
ATOM     54  C   UNL A   1      38.664  34.015  38.288  1.00  0.00     0.074 A 
ATOM     55  C   UNL A   1      37.532  33.126  38.358  1.00  0.00     0.031 C 
ATOM     56  C   UNL A   1      40.853  30.789  33.135  1.00  0.00     0.029 A 
ATOM     57  C   UNL A   1      41.552  31.023  34.388  1.00  0.00     0.049 A 
ATOM     58  H   UNL A   1      40.987  32.338  35.911  1.00  0.00     0.167 HD
ATOM     59  C   UNL A   1      39.454  34.547  39.258  1.00  0.00     0.034 A 
ATOM     60  C   UNL A   1      42.690  30.460  34.862  1.00  0.00     0.034 A 
ATOM     61  C   UNL A   1      40.409  35.486  38.721  1.00  0.00     0.049 A 
ATOM     62  C   UNL A   1      43.241  31.378  35.889  1.00  0.00     0.074 A 
ATOM     63  C   UNL A   1      40.312  36.666  38.008  1.00  0.00     0.029 A 
ATOM     64  N   UNL A   1      41.718  35.084  38.584  1.00  0.00    -0.354 N 
ATOM     65  N   UNL A   1      43.693  32.570  35.611  1.00  0.00    -0.248 NA
ATOM     66  C   UNL A   1      42.889  31.169  37.287  1.00  0.00     0.031 C 
ATOM     67  C   UNL A   1      41.408  36.644  37.097  1.00  0.00     0.029 A 
ATOM     68  C   UNL A   1      42.132  35.473  37.332  1.00  0.00     0.049 A 
ATOM     69  H   UNL A   1      42.257  34.607  39.256  1.00  0.00     0.167 HD
ATOM     70  C   UNL A   1      43.279  33.372  36.663  1.00  0.00     0.074 A 
ATOM     71  C   UNL A   1      42.898  32.435  37.717  1.00  0.00     0.031 C 
ATOM     72  C   UNL A   1      43.023  34.702  36.486  1.00  0.00     0.034 A 
BRANCH  59  73
ATOM     73  C   UNL A   1      39.560  33.993  40.652  1.00  0.00     0.023 A 
ATOM     74  C   UNL A   1      39.135  32.671  40.870  1.00  0.00     0.031 A 
ATOM     75  C   UNL A   1      39.794  34.770  41.809  1.00  0.00     0.131 A 
ATOM     76  C   UNL A   1      38.903  32.197  42.171  1.00  0.00     0.055 A 
ATOM     77  C   UNL A   1      39.636  34.272  43.103  1.00  0.00     0.041 A 
ATOM     78  F   UNL A   1      40.086  36.077  41.750  1.00  0.00    -0.206 F 
ATOM     79  C   UNL A   1      39.162  32.985  43.291  1.00  0.00     0.022 A 
BRANCH  76  80
ATOM     80  S   UNL A   1      38.077  30.597  42.370  1.00  0.00     0.124 S 
ATOM     81  O   UNL A   1      37.916  30.170  40.984  1.00  0.00    -0.237 OA
ATOM     82  O   UNL A   1      39.049  29.856  43.166  1.00  0.00    -0.237 OA
ATOM     83  O   UNL A   1      36.837  30.942  43.061  1.00  0.00    -0.744 OA
ENDBRANCH  76  80
ENDBRANCH  59  73
BRANCH  60  84
ATOM     84  C   UNL A   1      43.048  29.027  34.721  1.00  0.00     0.023 A 
ATOM     85  C   UNL A   1      42.486  28.026  35.533  1.00  0.00     0.031 A 
ATOM     86  C   UNL A   1      43.810  28.596  33.609  1.00  0.00     0.131 A 
ATOM     87  C   UNL A   1      42.703  26.664  35.225  1.00  0.00     0.055 A 
ATOM     88  C   UNL A   1      44.033  27.251  33.320  1.00  0.00     0.041 A 
ATOM     89  F   UNL A   1      44.297  29.471  32.714  1.00  0.00    -0.206 F 
ATOM     90  C   UNL A   1      43.473  26.276  34.125  1.00  0.00     0.022 A 
BRANCH  87  91
ATOM     91  S   UNL A   1      41.889  25.369  36.210  1.00  0.00     0.124 S 
ATOM     92  O   UNL A   1      42.090  25.845  37.574  1.00  0.00    -0.237 OA
ATOM     93  O   UNL A   1      40.522  25.407  35.704  1.00  0.00    -0.237 OA
ATOM     94  O   UNL A   1      42.636  24.159  35.865  1.00  0.00    -0.744 OA
ENDBRANCH  87  91
ENDBRANCH  60  84
BRANCH  72  95
ATOM     95  C   UNL A   1      43.483  35.352  35.195  1.00  0.00     0.023 A 
ATOM     96  C   UNL A   1      44.778  35.878  34.988  1.00  0.00     0.031 A 
ATOM     97  C   UNL A   1      42.609  35.327  34.095  1.00  0.00     0.131 A 
ATOM     98  C   UNL A   1      45.148  36.372  33.724  1.00  0.00     0.055 A 
ATOM     99  C   UNL A   1      42.985  35.800  32.837  1.00  0.00     0.041 A 
ATOM    100  F   UNL A   1      41.375  34.806  34.216  1.00  0.00    -0.206 F 
ATOM    101  C   UNL A   1      44.256  36.332  32.648  1.00  0.00     0.022 A 
BRANCH  98 102
ATOM    102  S   UNL A   1      46.806  37.081  33.462  1.00  0.00     0.124 S 
ATOM    103  O   UNL A   1      47.167  37.598  34.776  1.00  0.00    -0.237 OA
ATOM    104  O   UNL A   1      47.572  35.930  32.995  1.00  0.00    -0.237 OA
ATOM    105  O   UNL A   1      46.579  38.111  32.445  1.00  0.00    -0.744 OA
ENDBRANCH  98 102
ENDBRANCH  72  95
ENDBRANCH  46  47
ENDBRANCH  39  41
ENDBRANCH  38  39
ENDBRANCH  37  38
ENDBRANCH  36  37
ENDBRANCH  35  36
ENDBRANCH  34  35
ENDBRANCH  33  34
ENDBRANCH  32  33
ENDBRANCH   1  32
TORSDOF 27
ENDMDL
MODEL 3
REMARK VINA RESULT:      -8.2      5.744     13.120
REMARK SMILES Cc1nn(CC(=O)OCCOCCOCCOCCOC(=O)c2ccc(-c3c4nc(c(-c5cc(S(=O)(=O)[O-])ccc5F)c5ccc([nH]5)c(-c5cc(S(=O)(=O)[O-])ccc5F)c5nc(c(-c6cc(S(=O)(=O)[O-])ccc6F)c6ccc3[nH]6)C=C5)C=C4)cc2)c(C)c1NC(=O)C(=O)Nc1ccc(F)cc1
REMARK SMILES IDX 13 1 12 2 11 3 10 4 9 5 8 6 6 7 7 8 5 9 4 10 1 11 2 12 3 13
REMARK SMILES IDX 88 14 86 15 87 16 89 17 90 18 91 20 92 21 93 22 94 23 95 25
REMARK SMILES IDX 96 26 101 27 97 28 100 29 98 30 99 31 14 32 15 33 16 34
REMARK SMILES IDX 17 35 18 36 19 37 20 38 21 39 22 40 23 41 24 42 85 43 25 44
REMARK SMILES IDX 84 45 26 46 27 47 28 48 78 49 29 50 83 51 77 52 79 53 30 54
REMARK SMILES IDX 82 55 76 56 75 57 31 59 63 60 43 61 62 62 44 63 47 64 61 65
REMARK SMILES IDX 80 66 45 67 46 68 60 70 81 71 48 72 32 73 33 74 41 75 34 76
REMARK SMILES IDX 40 77 42 78 39 79 35 80 36 81 37 82 38 83 64 84 65 85 73 86
REMARK SMILES IDX 66 87 72 88 74 89 71 90 67 91 68 92 69 93 70 94 49 95 50 96
REMARK SMILES IDX 58 97 51 98 57 99 59 100 56 101 52 102 53 103 54 104 55 105
REMARK H PARENT 89 19 94 24 79 58 47 69
REMARK Flexibility Score: inf
ROOT
ATOM      1  C   UNL A   1      38.442  33.169  37.183  1.00  0.00     0.188 C 
ENDROOT
BRANCH   1   2
ATOM      2  C   UNL A   1      38.713  33.493  38.665  1.00  0.00     0.188 C 
BRANCH   2   3
ATOM      3  O   UNL A   1      38.362  34.762  39.214  1.00  0.00    -0.376 OA
BRANCH   3   4
ATOM      4  C   UNL A   1      39.072  35.264  40.339  1.00  0.00     0.202 C 
BRANCH   4   5
ATOM      5  C   UNL A   1      40.567  35.558  40.148  1.00  0.00     0.261 C 
BRANCH   5   6
ATOM      6  O   UNL A   1      40.836  36.803  39.472  1.00  0.00    -0.462 OA
BRANCH   6   7
ATOM      7  C   UNL A   1      41.099  36.750  38.143  1.00  0.00     0.327 C 
ATOM      8  O   UNL A   1      40.233  36.611  37.281  1.00  0.00    -0.250 OA
BRANCH   7   9
ATOM      9  C   UNL A   1      42.538  36.994  37.769  1.00  0.00     0.267 C 
BRANCH   9  10
ATOM     10  N   UNL A   1      43.442  35.850  37.739  1.00  0.00    -0.256 N 
ATOM     11  C   UNL A   1      44.559  33.021  35.913  1.00  0.00     0.071 C 
ATOM     12  C   UNL A   1      44.206  34.032  36.943  1.00  0.00     0.083 A 
ATOM     13  N   UNL A   1      43.533  35.133  36.594  1.00  0.00    -0.175 NA
ATOM     14  C   UNL A   1      44.366  33.963  38.351  1.00  0.00     0.086 A 
ATOM     15  C   UNL A   1      44.048  35.230  38.807  1.00  0.00     0.060 A 
ATOM     16  C   UNL A   1      44.239  35.919  40.106  1.00  0.00     0.069 C 
BRANCH  14  17
ATOM     17  N   UNL A   1      44.760  32.839  39.049  1.00  0.00    -0.315 N 
ATOM     18  C   UNL A   1      43.954  31.808  39.488  1.00  0.00     0.314 C 
ATOM     19  H   UNL A   1      45.720  32.764  39.256  1.00  0.00     0.170 HD
ATOM     20  O   UNL A   1      44.453  30.764  39.900  1.00  0.00    -0.263 OA
BRANCH  18  21
ATOM     21  C   UNL A   1      42.436  31.910  39.315  1.00  0.00     0.314 C 
ATOM     22  O   UNL A   1      41.922  31.649  38.227  1.00  0.00    -0.263 OA
ATOM     23  N   UNL A   1      41.601  32.212  40.372  1.00  0.00    -0.318 N 
ATOM     24  H   UNL A   1      40.701  32.519  40.118  1.00  0.00     0.170 HD
BRANCH  23  25
ATOM     25  C   UNL A   1      41.841  32.148  41.750  1.00  0.00     0.041 A 
ATOM     26  C   UNL A   1      42.064  33.384  42.374  1.00  0.00     0.029 A 
ATOM     27  C   UNL A   1      41.786  30.990  42.524  1.00  0.00     0.029 A 
ATOM     28  C   UNL A   1      42.084  33.479  43.762  1.00  0.00     0.041 A 
ATOM     29  C   UNL A   1      41.824  31.083  43.920  1.00  0.00     0.041 A 
ATOM     30  C   UNL A   1      41.943  32.329  44.524  1.00  0.00     0.123 A 
ATOM     31  F   UNL A   1      41.913  32.426  45.860  1.00  0.00    -0.207 F 
ENDBRANCH  23  25
ENDBRANCH  18  21
ENDBRANCH  14  17
ENDBRANCH   9  10
ENDBRANCH   7   9
ENDBRANCH   6   7
ENDBRANCH   5   6
ENDBRANCH   4   5
ENDBRANCH   3   4
ENDBRANCH   2   3
ENDBRANCH   1   2
BRANCH   1  32
ATOM     32  O   UNL A   1      39.478  33.521  36.285  1.00  0.00    -0.377 OA
BRANCH  32  33
ATOM     33  C   UNL A   1      39.493  32.790  35.071  1.00  0.00     0.188 C 
BRANCH  33  34
ATOM     34  C   UNL A   1      38.159  32.127  34.693  1.00  0.00     0.188 C 
BRANCH  34  35
ATOM     35  O   UNL A   1      37.833  32.213  33.303  1.00  0.00    -0.376 OA
BRANCH  35  36
ATOM     36  C   UNL A   1      36.904  33.210  32.891  1.00  0.00     0.202 C 
BRANCH  36  37
ATOM     37  C   UNL A   1      35.477  32.711  32.638  1.00  0.00     0.261 C 
BRANCH  37  38
ATOM     38  O   UNL A   1      35.358  31.622  31.729  1.00  0.00    -0.460 OA
BRANCH  38  39
ATOM     39  C   UNL A   1      35.375  31.930  30.415  1.00  0.00     0.338 C 
ATOM     40  O   UNL A   1      34.614  32.671  29.827  1.00  0.00    -0.246 OA
BRANCH  39  41
ATOM     41  C   UNL A   1      36.474  31.201  29.768  1.00  0.00     0.060 A 
ATOM     42  C   UNL A   1      36.339  29.815  29.708  1.00  0.00     0.016 A 
ATOM     43  C   UNL A   1      37.679  31.844  29.435  1.00  0.00     0.016 A 
ATOM     44  C   UNL A   1      37.478  29.059  29.558  1.00  0.00     0.010 A 
ATOM     45  C   UNL A   1      38.818  31.086  29.276  1.00  0.00     0.010 A 
ATOM     46  C   UNL A   1      38.713  29.711  29.453  1.00  0.00    -0.014 A 
BRANCH  46  47
ATOM     47  C   UNL A   1      39.885  28.894  29.679  1.00  0.00     0.031 A 
ATOM     48  C   UNL A   1      40.297  28.739  31.081  1.00  0.00     0.074 A 
ATOM     49  C   UNL A   1      40.603  28.376  28.666  1.00  0.00     0.049 A 
ATOM     50  N   UNL A   1      41.308  29.290  31.661  1.00  0.00    -0.248 NA
ATOM     51  C   UNL A   1      39.417  27.980  31.974  1.00  0.00     0.031 C 
ATOM     52  C   UNL A   1      40.240  28.265  27.251  1.00  0.00     0.029 A 
ATOM     53  N   UNL A   1      41.814  27.761  28.730  1.00  0.00    -0.354 N 
ATOM     54  C   UNL A   1      41.322  28.787  32.951  1.00  0.00     0.074 A 
ATOM     55  C   UNL A   1      40.062  28.110  33.134  1.00  0.00     0.031 C 
ATOM     56  C   UNL A   1      41.110  27.433  26.637  1.00  0.00     0.029 A 
ATOM     57  C   UNL A   1      42.161  27.079  27.577  1.00  0.00     0.049 A 
ATOM     58  H   UNL A   1      42.392  27.799  29.526  1.00  0.00     0.167 HD
ATOM     59  C   UNL A   1      42.456  28.798  33.701  1.00  0.00     0.034 A 
ATOM     60  C   UNL A   1      43.199  26.222  27.431  1.00  0.00     0.034 A 
ATOM     61  C   UNL A   1      43.437  29.721  33.180  1.00  0.00     0.049 A 
ATOM     62  C   UNL A   1      44.227  26.601  28.431  1.00  0.00     0.074 A 
ATOM     63  C   UNL A   1      43.456  31.082  32.943  1.00  0.00     0.029 A 
ATOM     64  N   UNL A   1      44.509  29.213  32.482  1.00  0.00    -0.354 N 
ATOM     65  N   UNL A   1      44.878  27.731  28.392  1.00  0.00    -0.248 NA
ATOM     66  C   UNL A   1      44.230  25.939  29.729  1.00  0.00     0.031 C 
ATOM     67  C   UNL A   1      44.217  31.243  31.748  1.00  0.00     0.029 A 
ATOM     68  C   UNL A   1      44.650  29.977  31.348  1.00  0.00     0.049 A 
ATOM     69  H   UNL A   1      45.069  28.448  32.745  1.00  0.00     0.167 HD
ATOM     70  C   UNL A   1      44.988  28.134  29.714  1.00  0.00     0.074 A 
ATOM     71  C   UNL A   1      44.682  26.937  30.494  1.00  0.00     0.031 C 
ATOM     72  C   UNL A   1      45.046  29.456  30.053  1.00  0.00     0.034 A 
BRANCH  59  73
ATOM     73  C   UNL A   1      42.793  27.755  34.730  1.00  0.00     0.023 A 
ATOM     74  C   UNL A   1      43.424  26.578  34.294  1.00  0.00     0.031 A 
ATOM     75  C   UNL A   1      42.286  27.738  36.050  1.00  0.00     0.131 A 
ATOM     76  C   UNL A   1      43.478  25.444  35.120  1.00  0.00     0.055 A 
ATOM     77  C   UNL A   1      42.409  26.634  36.895  1.00  0.00     0.041 A 
ATOM     78  F   UNL A   1      41.558  28.744  36.554  1.00  0.00    -0.206 F 
ATOM     79  C   UNL A   1      42.985  25.467  36.423  1.00  0.00     0.022 A 
BRANCH  76  80
ATOM     80  S   UNL A   1      44.034  23.879  34.398  1.00  0.00     0.124 S 
ATOM     81  O   UNL A   1      44.568  24.316  33.113  1.00  0.00    -0.237 OA
ATOM     82  O   UNL A   1      45.010  23.425  35.382  1.00  0.00    -0.237 OA
ATOM     83  O   UNL A   1      42.807  23.088  34.323  1.00  0.00    -0.744 OA
ENDBRANCH  76  80
ENDBRANCH  59  73
BRANCH  60  84
ATOM     84  C   UNL A   1      43.123  24.909  26.744  1.00  0.00     0.023 A 
ATOM     85  C   UNL A   1      42.194  23.919  27.109  1.00  0.00     0.031 A 
ATOM     86  C   UNL A   1      43.847  24.696  25.546  1.00  0.00     0.131 A 
ATOM     87  C   UNL A   1      42.026  22.775  26.296  1.00  0.00     0.055 A 
ATOM     88  C   UNL A   1      43.688  23.559  24.757  1.00  0.00     0.041 A 
ATOM     89  F   UNL A   1      44.677  25.631  25.056  1.00  0.00    -0.206 F 
ATOM     90  C   UNL A   1      42.768  22.593  25.126  1.00  0.00     0.022 A 
BRANCH  87  91
ATOM     91  S   UNL A   1      40.749  21.547  26.710  1.00  0.00     0.124 S 
ATOM     92  O   UNL A   1      40.748  21.580  28.168  1.00  0.00    -0.237 OA
ATOM     93  O   UNL A   1      39.569  22.090  26.046  1.00  0.00    -0.237 OA
ATOM     94  O   UNL A   1      41.265  20.310  26.123  1.00  0.00    -0.744 OA
ENDBRANCH  87  91
ENDBRANCH  60  84
BRANCH  72  95
ATOM     95  C   UNL A   1      45.287  30.466  28.947  1.00  0.00     0.023 A 
ATOM     96  C   UNL A   1      46.565  30.917  28.549  1.00  0.00     0.031 A 
ATOM     97  C   UNL A   1      44.182  30.895  28.191  1.00  0.00     0.131 A 
ATOM     98  C   UNL A   1      46.699  31.781  27.445  1.00  0.00     0.055 A 
ATOM     99  C   UNL A   1      44.320  31.735  27.086  1.00  0.00     0.041 A 
ATOM    100  F   UNL A   1      42.942  30.472  28.496  1.00  0.00    -0.206 F 
ATOM    101  C   UNL A   1      45.580  32.187  26.712  1.00  0.00     0.022 A 
BRANCH  98 102
ATOM    102  S   UNL A   1      48.342  32.390  26.948  1.00  0.00     0.124 S 
ATOM    103  O   UNL A   1      48.051  33.285  25.833  1.00  0.00    -0.237 OA
ATOM    104  O   UNL A   1      48.826  33.027  28.169  1.00  0.00    -0.237 OA
ATOM    105  O   UNL A   1      49.060  31.169  26.576  1.00  0.00    -0.744 OA
ENDBRANCH  98 102
ENDBRANCH  72  95
ENDBRANCH  46  47
ENDBRANCH  39  41
ENDBRANCH  38  39
ENDBRANCH  37  38
ENDBRANCH  36  37
ENDBRANCH  35  36
ENDBRANCH  34  35
ENDBRANCH  33  34
ENDBRANCH  32  33
ENDBRANCH   1  32
TORSDOF 27
ENDMDL
