MODEL 1
REMARK VINA RESULT:      -8.9      0.000      0.000
REMARK SMILES Cc1ccc(O)c(C(=O)NCc2ccc(C(=O)OCCOCCOCCOCCOC(=O)c3ccc(-c4c5nc(c(-c6cc(S(=O)(=O)[O-])ccc6F)c6ccc([nH]6)c(-c6cc(S(=O)(=O)[O-])ccc6F)c6nc(c(-c7cc(S(=O)(=O)[O-])ccc7F)c7ccc4[nH]7)C=C6)C=C5)cc3)o2)c1
REMARK SMILES IDX 23 1 22 2 21 3 20 4 19 5 18 6 16 7 17 8 15 9 12 10 13 11
REMARK SMILES IDX 96 12 14 13 11 14 10 15 8 16 9 17 7 19 1 20 2 21 3 22 97 23
REMARK SMILES IDX 4 24 5 25 6 26 24 28 25 29 26 30 27 31 28 32 29 33 30 34
REMARK SMILES IDX 31 35 32 36 33 37 34 38 95 39 35 40 94 41 36 42 37 43 38 44
REMARK SMILES IDX 88 45 39 46 93 47 87 48 89 49 40 50 92 51 86 52 85 53 41 55
REMARK SMILES IDX 73 56 53 57 72 58 54 59 57 60 71 61 90 62 55 63 56 64 70 66
REMARK SMILES IDX 91 67 58 68 42 69 43 70 51 71 44 72 50 73 52 74 49 75 45 76
REMARK SMILES IDX 46 77 47 78 48 79 74 80 75 81 83 82 76 83 82 84 84 85 81 86
REMARK SMILES IDX 77 87 78 88 79 89 80 90 59 91 60 92 68 93 61 94 67 95 69 96
REMARK SMILES IDX 66 97 62 98 63 99 64 100 65 101
REMARK H PARENT 10 18 6 27 89 54 57 65
REMARK Flexibility Score: inf
ROOT
ATOM      1  C   UNL A   1      37.707  21.365  24.795  1.00  0.00     0.188 C 
ENDROOT
BRANCH   1   2
ATOM      2  C   UNL A   1      36.393  20.586  25.014  1.00  0.00     0.188 C 
BRANCH   2   3
ATOM      3  O   UNL A   1      35.141  21.198  25.326  1.00  0.00    -0.376 OA
BRANCH   3   4
ATOM      4  C   UNL A   1      34.913  21.808  26.585  1.00  0.00     0.202 C 
BRANCH   4   5
ATOM      5  C   UNL A   1      34.192  23.164  26.541  1.00  0.00     0.261 C 
BRANCH   5   6
ATOM      6  O   UNL A   1      32.774  23.085  26.732  1.00  0.00    -0.457 OA
BRANCH   6   7
ATOM      7  C   UNL A   1      32.034  22.809  25.620  1.00  0.00     0.374 C 
ATOM      8  O   UNL A   1      31.720  21.687  25.236  1.00  0.00    -0.242 OA
BRANCH   7   9
ATOM      9  C   UNL A   1      31.588  24.057  25.044  1.00  0.00     0.211 A 
ATOM     10  C   UNL A   1      31.213  25.426  23.352  1.00  0.00     0.124 A 
ATOM     11  C   UNL A   1      30.476  25.906  24.417  1.00  0.00     0.048 A 
ATOM     12  O   UNL A   1      31.928  24.333  23.746  1.00  0.00    -0.452 OA
ATOM     13  C   UNL A   1      30.729  25.038  25.505  1.00  0.00     0.058 A 
BRANCH  10  14
ATOM     14  C   UNL A   1      31.329  25.800  21.918  1.00  0.00     0.191 C 
BRANCH  14  15
ATOM     15  N   UNL A   1      32.537  26.580  21.736  1.00  0.00    -0.345 N 
ATOM     16  C   UNL A   1      32.999  27.751  22.272  1.00  0.00     0.255 C 
ATOM     17  O   UNL A   1      34.156  28.077  21.987  1.00  0.00    -0.269 OA
ATOM     18  H   UNL A   1      33.160  26.181  21.086  1.00  0.00     0.164 HD
BRANCH  16  19
ATOM     19  C   UNL A   1      32.231  28.645  23.185  1.00  0.00     0.081 A 
ATOM     20  C   UNL A   1      32.298  30.084  26.724  1.00  0.00     0.044 C 
ATOM     21  C   UNL A   1      31.853  29.781  25.322  1.00  0.00    -0.050 A 
ATOM     22  C   UNL A   1      30.647  30.296  24.842  1.00  0.00     0.007 A 
ATOM     23  C   UNL A   1      32.620  28.942  24.497  1.00  0.00     0.021 A 
ATOM     24  C   UNL A   1      30.222  29.989  23.553  1.00  0.00     0.047 A 
ATOM     25  C   UNL A   1      31.004  29.171  22.736  1.00  0.00     0.128 A 
BRANCH  25  26
ATOM     26  O   UNL A   1      30.480  28.915  21.493  1.00  0.00    -0.507 OA
ATOM     27  H   UNL A   1      31.017  29.006  20.731  1.00  0.00     0.293 HD
ENDBRANCH  25  26
ENDBRANCH  16  19
ENDBRANCH  14  15
ENDBRANCH  10  14
ENDBRANCH   7   9
ENDBRANCH   6   7
ENDBRANCH   5   6
ENDBRANCH   4   5
ENDBRANCH   3   4
ENDBRANCH   2   3
ENDBRANCH   1   2
BRANCH   1  28
ATOM     28  O   UNL A   1      38.855  20.796  25.400  1.00  0.00    -0.377 OA
BRANCH  28  29
ATOM     29  C   UNL A   1      39.546  21.645  26.309  1.00  0.00     0.188 C 
BRANCH  29  30
ATOM     30  C   UNL A   1      38.930  23.041  26.453  1.00  0.00     0.188 C 
BRANCH  30  31
ATOM     31  O   UNL A   1      39.440  23.729  27.601  1.00  0.00    -0.376 OA
BRANCH  31  32
ATOM     32  C   UNL A   1      40.616  24.505  27.364  1.00  0.00     0.202 C 
BRANCH  32  33
ATOM     33  C   UNL A   1      40.362  25.740  26.489  1.00  0.00     0.261 C 
BRANCH  33  34
ATOM     34  O   UNL A   1      41.201  25.834  25.325  1.00  0.00    -0.460 OA
BRANCH  34  35
ATOM     35  C   UNL A   1      42.536  25.850  25.541  1.00  0.00     0.338 C 
ATOM     36  O   UNL A   1      43.353  25.060  25.102  1.00  0.00    -0.246 OA
BRANCH  35  37
ATOM     37  C   UNL A   1      42.876  27.105  26.242  1.00  0.00     0.060 A 
ATOM     38  C   UNL A   1      43.546  27.021  27.468  1.00  0.00     0.016 A 
ATOM     39  C   UNL A   1      42.522  28.349  25.711  1.00  0.00     0.016 A 
ATOM     40  C   UNL A   1      43.825  28.182  28.189  1.00  0.00     0.010 A 
ATOM     41  C   UNL A   1      42.787  29.509  26.441  1.00  0.00     0.010 A 
ATOM     42  C   UNL A   1      43.409  29.427  27.698  1.00  0.00    -0.014 A 
BRANCH  42  43
ATOM     43  C   UNL A   1      43.434  30.614  28.586  1.00  0.00     0.031 A 
ATOM     44  C   UNL A   1      44.689  31.443  28.628  1.00  0.00     0.074 A 
ATOM     45  C   UNL A   1      42.370  30.951  29.336  1.00  0.00     0.049 A 
ATOM     46  N   UNL A   1      44.964  32.503  29.343  1.00  0.00    -0.248 NA
ATOM     47  C   UNL A   1      45.783  31.008  27.745  1.00  0.00     0.031 C 
ATOM     48  C   UNL A   1      41.093  30.240  29.360  1.00  0.00     0.029 A 
ATOM     49  N   UNL A   1      42.204  31.976  30.233  1.00  0.00    -0.354 N 
ATOM     50  C   UNL A   1      46.259  32.869  28.990  1.00  0.00     0.074 A 
ATOM     51  C   UNL A   1      46.726  31.893  28.029  1.00  0.00     0.031 C 
ATOM     52  C   UNL A   1      40.278  30.842  30.245  1.00  0.00     0.029 A 
ATOM     53  C   UNL A   1      40.984  31.963  30.865  1.00  0.00     0.049 A 
ATOM     54  H   UNL A   1      42.893  32.657  30.407  1.00  0.00     0.167 HD
ATOM     55  C   UNL A   1      46.989  33.927  29.420  1.00  0.00     0.034 A 
ATOM     56  C   UNL A   1      40.504  32.751  31.848  1.00  0.00     0.034 A 
ATOM     57  C   UNL A   1      46.527  34.873  30.403  1.00  0.00     0.049 A 
ATOM     58  C   UNL A   1      41.366  33.874  32.376  1.00  0.00     0.074 A 
ATOM     59  C   UNL A   1      47.181  35.983  30.909  1.00  0.00     0.029 A 
ATOM     60  N   UNL A   1      45.298  34.808  31.046  1.00  0.00    -0.354 N 
ATOM     61  N   UNL A   1      42.580  34.224  32.017  1.00  0.00    -0.248 NA
ATOM     62  C   UNL A   1      40.789  34.709  33.438  1.00  0.00     0.031 C 
ATOM     63  C   UNL A   1      46.372  36.553  31.901  1.00  0.00     0.029 A 
ATOM     64  C   UNL A   1      45.186  35.839  31.966  1.00  0.00     0.049 A 
ATOM     65  H   UNL A   1      44.606  34.130  30.873  1.00  0.00     0.167 HD
ATOM     66  C   UNL A   1      42.898  35.339  32.790  1.00  0.00     0.074 A 
ATOM     67  C   UNL A   1      41.747  35.605  33.628  1.00  0.00     0.031 C 
ATOM     68  C   UNL A   1      44.035  36.081  32.802  1.00  0.00     0.034 A 
BRANCH  55  69
ATOM     69  C   UNL A   1      48.379  34.070  28.855  1.00  0.00     0.023 A 
ATOM     70  C   UNL A   1      48.602  34.631  27.584  1.00  0.00     0.031 A 
ATOM     71  C   UNL A   1      49.489  33.590  29.570  1.00  0.00     0.131 A 
ATOM     72  C   UNL A   1      49.893  34.629  27.037  1.00  0.00     0.055 A 
ATOM     73  C   UNL A   1      50.783  33.659  29.050  1.00  0.00     0.041 A 
ATOM     74  F   UNL A   1      49.332  33.023  30.777  1.00  0.00    -0.206 F 
ATOM     75  C   UNL A   1      50.990  34.167  27.770  1.00  0.00     0.022 A 
BRANCH  72  76
ATOM     76  S   UNL A   1      50.099  35.110  25.300  1.00  0.00     0.124 S 
ATOM     77  O   UNL A   1      50.970  36.277  25.419  1.00  0.00    -0.237 OA
ATOM     78  O   UNL A   1      50.701  33.920  24.712  1.00  0.00    -0.237 OA
ATOM     79  O   UNL A   1      48.735  35.401  24.862  1.00  0.00    -0.744 OA
ENDBRANCH  72  76
ENDBRANCH  55  69
BRANCH  56  80
ATOM     80  C   UNL A   1      39.160  32.495  32.436  1.00  0.00     0.023 A 
ATOM     81  C   UNL A   1      37.998  33.031  31.859  1.00  0.00     0.031 A 
ATOM     82  C   UNL A   1      39.027  31.755  33.624  1.00  0.00     0.131 A 
ATOM     83  C   UNL A   1      36.758  32.856  32.494  1.00  0.00     0.055 A 
ATOM     84  C   UNL A   1      37.786  31.547  34.228  1.00  0.00     0.041 A 
ATOM     85  F   UNL A   1      40.107  31.220  34.215  1.00  0.00    -0.206 F 
ATOM     86  C   UNL A   1      36.643  32.110  33.669  1.00  0.00     0.022 A 
BRANCH  83  87
ATOM     87  S   UNL A   1      35.301  33.683  31.799  1.00  0.00     0.124 S 
ATOM     88  O   UNL A   1      34.329  32.596  31.766  1.00  0.00    -0.237 OA
ATOM     89  O   UNL A   1      35.055  34.735  32.780  1.00  0.00    -0.237 OA
ATOM     90  O   UNL A   1      35.763  34.149  30.493  1.00  0.00    -0.744 OA
ENDBRANCH  83  87
ENDBRANCH  56  80
BRANCH  68  91
ATOM     91  C   UNL A   1      44.062  37.276  33.721  1.00  0.00     0.023 A 
ATOM     92  C   UNL A   1      43.635  38.546  33.295  1.00  0.00     0.031 A 
ATOM     93  C   UNL A   1      44.527  37.139  35.041  1.00  0.00     0.131 A 
ATOM     94  C   UNL A   1      43.725  39.640  34.169  1.00  0.00     0.055 A 
ATOM     95  C   UNL A   1      44.567  38.221  35.921  1.00  0.00     0.041 A 
ATOM     96  F   UNL A   1      44.946  35.948  35.497  1.00  0.00    -0.206 F 
ATOM     97  C   UNL A   1      44.175  39.483  35.482  1.00  0.00     0.022 A 
BRANCH  94  98
ATOM     98  S   UNL A   1      43.313  41.292  33.543  1.00  0.00     0.124 S 
ATOM     99  O   UNL A   1      43.810  41.231  32.173  1.00  0.00    -0.237 OA
ATOM    100  O   UNL A   1      41.862  41.331  33.695  1.00  0.00    -0.237 OA
ATOM    101  O   UNL A   1      44.051  42.189  34.431  1.00  0.00    -0.744 OA
ENDBRANCH  94  98
ENDBRANCH  68  91
ENDBRANCH  42  43
ENDBRANCH  35  37
ENDBRANCH  34  35
ENDBRANCH  33  34
ENDBRANCH  32  33
ENDBRANCH  31  32
ENDBRANCH  30  31
ENDBRANCH  29  30
ENDBRANCH  28  29
ENDBRANCH   1  28
TORSDOF 27
ENDMDL
MODEL 2
REMARK VINA RESULT:      -8.8      4.935      8.878
REMARK SMILES Cc1ccc(O)c(C(=O)NCc2ccc(C(=O)OCCOCCOCCOCCOC(=O)c3ccc(-c4c5nc(c(-c6cc(S(=O)(=O)[O-])ccc6F)c6ccc([nH]6)c(-c6cc(S(=O)(=O)[O-])ccc6F)c6nc(c(-c7cc(S(=O)(=O)[O-])ccc7F)c7ccc4[nH]7)C=C6)C=C5)cc3)o2)c1
REMARK SMILES IDX 23 1 22 2 21 3 20 4 19 5 18 6 16 7 17 8 15 9 12 10 13 11
REMARK SMILES IDX 96 12 14 13 11 14 10 15 8 16 9 17 7 19 1 20 2 21 3 22 97 23
REMARK SMILES IDX 4 24 5 25 6 26 24 28 25 29 26 30 27 31 28 32 29 33 30 34
REMARK SMILES IDX 31 35 32 36 33 37 34 38 95 39 35 40 94 41 36 42 37 43 38 44
REMARK SMILES IDX 88 45 39 46 93 47 87 48 89 49 40 50 92 51 86 52 85 53 41 55
REMARK SMILES IDX 73 56 53 57 72 58 54 59 57 60 71 61 90 62 55 63 56 64 70 66
REMARK SMILES IDX 91 67 58 68 42 69 43 70 51 71 44 72 50 73 52 74 49 75 45 76
REMARK SMILES IDX 46 77 47 78 48 79 74 80 75 81 83 82 76 83 82 84 84 85 81 86
REMARK SMILES IDX 77 87 78 88 79 89 80 90 59 91 60 92 68 93 61 94 67 95 69 96
REMARK SMILES IDX 66 97 62 98 63 99 64 100 65 101
REMARK H PARENT 10 18 6 27 89 54 57 65
REMARK Flexibility Score: inf
ROOT
ATOM      1  C   UNL A   1      39.269  23.017  26.542  1.00  0.00     0.188 C 
ENDROOT
BRANCH   1   2
ATOM      2  C   UNL A   1      38.599  24.338  26.973  1.00  0.00     0.188 C 
BRANCH   2   3
ATOM      3  O   UNL A   1      39.307  25.556  27.206  1.00  0.00    -0.376 OA
BRANCH   3   4
ATOM      4  C   UNL A   1      39.867  25.851  28.475  1.00  0.00     0.202 C 
BRANCH   4   5
ATOM      5  C   UNL A   1      40.915  26.974  28.489  1.00  0.00     0.261 C 
BRANCH   5   6
ATOM      6  O   UNL A   1      41.067  27.624  29.757  1.00  0.00    -0.457 OA
BRANCH   6   7
ATOM      7  C   UNL A   1      40.765  28.954  29.789  1.00  0.00     0.374 C 
ATOM      8  O   UNL A   1      41.563  29.868  29.614  1.00  0.00    -0.242 OA
BRANCH   7   9
ATOM      9  C   UNL A   1      39.335  29.096  29.945  1.00  0.00     0.211 A 
ATOM     10  C   UNL A   1      37.505  29.432  31.135  1.00  0.00     0.124 A 
ATOM     11  C   UNL A   1      37.163  29.655  29.815  1.00  0.00     0.048 A 
ATOM     12  O   UNL A   1      38.810  29.043  31.210  1.00  0.00    -0.452 OA
ATOM     13  C   UNL A   1      38.331  29.424  29.052  1.00  0.00     0.058 A 
BRANCH  10  14
ATOM     14  C   UNL A   1      36.794  29.586  32.432  1.00  0.00     0.191 C 
BRANCH  14  15
ATOM     15  N   UNL A   1      37.550  30.492  33.272  1.00  0.00    -0.345 N 
ATOM     16  C   UNL A   1      38.084  31.737  33.085  1.00  0.00     0.255 C 
ATOM     17  O   UNL A   1      38.569  32.292  34.076  1.00  0.00    -0.269 OA
ATOM     18  H   UNL A   1      37.717  30.133  34.174  1.00  0.00     0.164 HD
BRANCH  16  19
ATOM     19  C   UNL A   1      38.102  32.483  31.793  1.00  0.00     0.081 A 
ATOM     20  C   UNL A   1      35.786  34.251  29.322  1.00  0.00     0.044 C 
ATOM     21  C   UNL A   1      37.028  33.693  29.954  1.00  0.00    -0.050 A 
ATOM     22  C   UNL A   1      38.259  33.811  29.305  1.00  0.00     0.007 A 
ATOM     23  C   UNL A   1      36.959  33.009  31.179  1.00  0.00     0.021 A 
ATOM     24  C   UNL A   1      39.405  33.267  29.880  1.00  0.00     0.047 A 
ATOM     25  C   UNL A   1      39.326  32.609  31.107  1.00  0.00     0.128 A 
BRANCH  25  26
ATOM     26  O   UNL A   1      40.510  32.092  31.571  1.00  0.00    -0.507 OA
ATOM     27  H   UNL A   1      41.176  32.665  31.896  1.00  0.00     0.293 HD
ENDBRANCH  25  26
ENDBRANCH  16  19
ENDBRANCH  14  15
ENDBRANCH  10  14
ENDBRANCH   7   9
ENDBRANCH   6   7
ENDBRANCH   5   6
ENDBRANCH   4   5
ENDBRANCH   3   4
ENDBRANCH   2   3
ENDBRANCH   1   2
BRANCH   1  28
ATOM     28  O   UNL A   1      40.686  23.015  26.588  1.00  0.00    -0.377 OA
BRANCH  28  29
ATOM     29  C   UNL A   1      41.307  21.813  26.147  1.00  0.00     0.188 C 
BRANCH  29  30
ATOM     30  C   UNL A   1      42.709  22.012  25.560  1.00  0.00     0.188 C 
BRANCH  30  31
ATOM     31  O   UNL A   1      43.633  21.037  26.055  1.00  0.00    -0.376 OA
BRANCH  31  32
ATOM     32  C   UNL A   1      44.691  20.700  25.156  1.00  0.00     0.202 C 
BRANCH  32  33
ATOM     33  C   UNL A   1      46.013  21.410  25.481  1.00  0.00     0.261 C 
BRANCH  33  34
ATOM     34  O   UNL A   1      45.865  22.706  26.086  1.00  0.00    -0.460 OA
BRANCH  34  35
ATOM     35  C   UNL A   1      45.902  23.771  25.253  1.00  0.00     0.338 C 
ATOM     36  O   UNL A   1      46.002  23.741  24.040  1.00  0.00    -0.246 OA
BRANCH  35  37
ATOM     37  C   UNL A   1      45.602  24.984  26.040  1.00  0.00     0.060 A 
ATOM     38  C   UNL A   1      46.669  25.686  26.613  1.00  0.00     0.016 A 
ATOM     39  C   UNL A   1      44.286  25.416  26.230  1.00  0.00     0.016 A 
ATOM     40  C   UNL A   1      46.419  26.799  27.417  1.00  0.00     0.010 A 
ATOM     41  C   UNL A   1      44.036  26.520  27.047  1.00  0.00     0.010 A 
ATOM     42  C   UNL A   1      45.099  27.194  27.671  1.00  0.00    -0.014 A 
BRANCH  42  43
ATOM     43  C   UNL A   1      44.818  28.175  28.747  1.00  0.00     0.031 A 
ATOM     44  C   UNL A   1      44.499  27.650  30.120  1.00  0.00     0.074 A 
ATOM     45  C   UNL A   1      44.845  29.499  28.513  1.00  0.00     0.049 A 
ATOM     46  N   UNL A   1      44.190  28.302  31.211  1.00  0.00    -0.248 NA
ATOM     47  C   UNL A   1      44.527  26.187  30.278  1.00  0.00     0.031 C 
ATOM     48  C   UNL A   1      45.165  30.125  27.232  1.00  0.00     0.029 A 
ATOM     49  N   UNL A   1      44.587  30.554  29.350  1.00  0.00    -0.354 N 
ATOM     50  C   UNL A   1      43.998  27.332  32.188  1.00  0.00     0.074 A 
ATOM     51  C   UNL A   1      44.183  26.046  31.548  1.00  0.00     0.031 C 
ATOM     52  C   UNL A   1      45.065  31.460  27.365  1.00  0.00     0.029 A 
ATOM     53  C   UNL A   1      44.652  31.779  28.730  1.00  0.00     0.049 A 
ATOM     54  H   UNL A   1      44.375  30.445  30.306  1.00  0.00     0.167 HD
ATOM     55  C   UNL A   1      43.702  27.495  33.501  1.00  0.00     0.034 A 
ATOM     56  C   UNL A   1      44.385  33.012  29.207  1.00  0.00     0.034 A 
ATOM     57  C   UNL A   1      43.484  28.778  34.120  1.00  0.00     0.049 A 
ATOM     58  C   UNL A   1      43.972  33.167  30.653  1.00  0.00     0.074 A 
ATOM     59  C   UNL A   1      43.182  29.061  35.440  1.00  0.00     0.029 A 
ATOM     60  N   UNL A   1      43.526  29.995  33.452  1.00  0.00    -0.354 N 
ATOM     61  N   UNL A   1      43.816  32.242  31.572  1.00  0.00    -0.248 NA
ATOM     62  C   UNL A   1      43.705  34.534  31.122  1.00  0.00     0.031 C 
ATOM     63  C   UNL A   1      42.982  30.442  35.557  1.00  0.00     0.029 A 
ATOM     64  C   UNL A   1      43.225  31.028  34.326  1.00  0.00     0.049 A 
ATOM     65  H   UNL A   1      43.739  30.107  32.497  1.00  0.00     0.167 HD
ATOM     66  C   UNL A   1      43.461  32.921  32.736  1.00  0.00     0.074 A 
ATOM     67  C   UNL A   1      43.433  34.331  32.403  1.00  0.00     0.031 C 
ATOM     68  C   UNL A   1      43.190  32.427  33.971  1.00  0.00     0.034 A 
BRANCH  55  69
ATOM     69  C   UNL A   1      43.549  26.243  34.326  1.00  0.00     0.023 A 
ATOM     70  C   UNL A   1      44.658  25.444  34.660  1.00  0.00     0.031 A 
ATOM     71  C   UNL A   1      42.277  25.812  34.737  1.00  0.00     0.131 A 
ATOM     72  C   UNL A   1      44.464  24.220  35.316  1.00  0.00     0.055 A 
ATOM     73  C   UNL A   1      42.099  24.629  35.455  1.00  0.00     0.041 A 
ATOM     74  F   UNL A   1      41.181  26.524  34.425  1.00  0.00    -0.206 F 
ATOM     75  C   UNL A   1      43.194  23.817  35.736  1.00  0.00     0.022 A 
BRANCH  72  76
ATOM     76  S   UNL A   1      45.878  23.096  35.489  1.00  0.00     0.124 S 
ATOM     77  O   UNL A   1      46.306  22.944  34.100  1.00  0.00    -0.237 OA
ATOM     78  O   UNL A   1      46.776  23.850  36.356  1.00  0.00    -0.237 OA
ATOM     79  O   UNL A   1      45.292  21.898  36.087  1.00  0.00    -0.744 OA
ENDBRANCH  72  76
ENDBRANCH  55  69
BRANCH  56  80
ATOM     80  C   UNL A   1      44.454  34.200  28.313  1.00  0.00     0.023 A 
ATOM     81  C   UNL A   1      45.687  34.720  27.886  1.00  0.00     0.031 A 
ATOM     82  C   UNL A   1      43.283  34.871  27.921  1.00  0.00     0.131 A 
ATOM     83  C   UNL A   1      45.722  35.901  27.128  1.00  0.00     0.055 A 
ATOM     84  C   UNL A   1      43.320  36.021  27.130  1.00  0.00     0.041 A 
ATOM     85  F   UNL A   1      42.079  34.414  28.302  1.00  0.00    -0.206 F 
ATOM     86  C   UNL A   1      44.547  36.549  26.739  1.00  0.00     0.022 A 
BRANCH  83  87
ATOM     87  S   UNL A   1      47.334  36.622  26.715  1.00  0.00     0.124 S 
ATOM     88  O   UNL A   1      46.945  37.857  26.043  1.00  0.00    -0.237 OA
ATOM     89  O   UNL A   1      47.942  36.772  28.033  1.00  0.00    -0.237 OA
ATOM     90  O   UNL A   1      47.951  35.612  25.859  1.00  0.00    -0.744 OA
ENDBRANCH  83  87
ENDBRANCH  56  80
BRANCH  68  91
ATOM     91  C   UNL A   1      42.886  33.427  35.057  1.00  0.00     0.023 A 
ATOM     92  C   UNL A   1      41.574  33.861  35.316  1.00  0.00     0.031 A 
ATOM     93  C   UNL A   1      43.927  33.954  35.841  1.00  0.00     0.131 A 
ATOM     94  C   UNL A   1      41.344  34.832  36.305  1.00  0.00     0.055 A 
ATOM     95  C   UNL A   1      43.687  34.881  36.856  1.00  0.00     0.041 A 
ATOM     96  F   UNL A   1      45.198  33.572  35.635  1.00  0.00    -0.206 F 
ATOM     97  C   UNL A   1      42.390  35.333  37.084  1.00  0.00     0.022 A 
BRANCH  94  98
ATOM     98  S   UNL A   1      39.665  35.485  36.510  1.00  0.00     0.124 S 
ATOM     99  O   UNL A   1      39.850  36.477  37.565  1.00  0.00    -0.237 OA
ATOM    100  O   UNL A   1      39.370  36.014  35.182  1.00  0.00    -0.237 OA
ATOM    101  O   UNL A   1      38.884  34.310  36.894  1.00  0.00    -0.744 OA
ENDBRANCH  94  98
ENDBRANCH  68  91
ENDBRANCH  42  43
ENDBRANCH  35  37
ENDBRANCH  34  35
ENDBRANCH  33  34
ENDBRANCH  32  33
ENDBRANCH  31  32
ENDBRANCH  30  31
ENDBRANCH  29  30
ENDBRANCH  28  29
ENDBRANCH   1  28
TORSDOF 27
ENDMDL
MODEL 3
REMARK VINA RESULT:      -8.7      2.517      3.299
REMARK SMILES Cc1ccc(O)c(C(=O)NCc2ccc(C(=O)OCCOCCOCCOCCOC(=O)c3ccc(-c4c5nc(c(-c6cc(S(=O)(=O)[O-])ccc6F)c6ccc([nH]6)c(-c6cc(S(=O)(=O)[O-])ccc6F)c6nc(c(-c7cc(S(=O)(=O)[O-])ccc7F)c7ccc4[nH]7)C=C6)C=C5)cc3)o2)c1
REMARK SMILES IDX 23 1 22 2 21 3 20 4 19 5 18 6 16 7 17 8 15 9 12 10 13 11
REMARK SMILES IDX 96 12 14 13 11 14 10 15 8 16 9 17 7 19 1 20 2 21 3 22 97 23
REMARK SMILES IDX 4 24 5 25 6 26 24 28 25 29 26 30 27 31 28 32 29 33 30 34
REMARK SMILES IDX 31 35 32 36 33 37 34 38 95 39 35 40 94 41 36 42 37 43 38 44
REMARK SMILES IDX 88 45 39 46 93 47 87 48 89 49 40 50 92 51 86 52 85 53 41 55
REMARK SMILES IDX 73 56 53 57 72 58 54 59 57 60 71 61 90 62 55 63 56 64 70 66
REMARK SMILES IDX 91 67 58 68 42 69 43 70 51 71 44 72 50 73 52 74 49 75 45 76
REMARK SMILES IDX 46 77 47 78 48 79 74 80 75 81 83 82 76 83 82 84 84 85 81 86
REMARK SMILES IDX 77 87 78 88 79 89 80 90 59 91 60 92 68 93 61 94 67 95 69 96
REMARK SMILES IDX 66 97 62 98 63 99 64 100 65 101
REMARK H PARENT 10 18 6 27 89 54 57 65
REMARK Flexibility Score: inf
ROOT
ATOM      1  C   UNL A   1      35.736  22.828  24.991  1.00  0.00     0.188 C 
ENDROOT
BRANCH   1   2
ATOM      2  C   UNL A   1      35.334  21.469  25.601  1.00  0.00     0.188 C 
BRANCH   2   3
ATOM      3  O   UNL A   1      34.398  21.317  26.670  1.00  0.00    -0.376 OA
BRANCH   3   4
ATOM      4  C   UNL A   1      34.062  22.404  27.515  1.00  0.00     0.202 C 
BRANCH   4   5
ATOM      5  C   UNL A   1      32.567  22.751  27.582  1.00  0.00     0.261 C 
BRANCH   5   6
ATOM      6  O   UNL A   1      31.863  22.568  26.348  1.00  0.00    -0.457 OA
BRANCH   6   7
ATOM      7  C   UNL A   1      31.286  23.684  25.816  1.00  0.00     0.374 C 
ATOM      8  O   UNL A   1      30.630  24.511  26.440  1.00  0.00    -0.242 OA
BRANCH   7   9
ATOM      9  C   UNL A   1      31.676  23.785  24.428  1.00  0.00     0.211 A 
ATOM     10  C   UNL A   1      31.871  24.858  22.507  1.00  0.00     0.124 A 
ATOM     11  C   UNL A   1      32.729  23.776  22.443  1.00  0.00     0.048 A 
ATOM     12  O   UNL A   1      31.194  24.835  23.691  1.00  0.00    -0.452 OA
ATOM     13  C   UNL A   1      32.591  23.080  23.666  1.00  0.00     0.058 A 
BRANCH  10  14
ATOM     14  C   UNL A   1      31.598  26.019  21.621  1.00  0.00     0.191 C 
BRANCH  14  15
ATOM     15  N   UNL A   1      32.817  26.791  21.475  1.00  0.00    -0.345 N 
ATOM     16  C   UNL A   1      33.440  27.733  22.246  1.00  0.00     0.255 C 
ATOM     17  O   UNL A   1      34.560  28.104  21.878  1.00  0.00    -0.269 OA
ATOM     18  H   UNL A   1      33.301  26.594  20.641  1.00  0.00     0.164 HD
BRANCH  16  19
ATOM     19  C   UNL A   1      32.890  28.325  23.500  1.00  0.00     0.081 A 
ATOM     20  C   UNL A   1      33.395  28.322  27.287  1.00  0.00     0.044 C 
ATOM     21  C   UNL A   1      32.831  28.627  25.930  1.00  0.00    -0.050 A 
ATOM     22  C   UNL A   1      31.710  29.451  25.806  1.00  0.00     0.007 A 
ATOM     23  C   UNL A   1      33.394  28.054  24.778  1.00  0.00     0.021 A 
ATOM     24  C   UNL A   1      31.170  29.709  24.549  1.00  0.00     0.047 A 
ATOM     25  C   UNL A   1      31.752  29.150  23.411  1.00  0.00     0.128 A 
BRANCH  25  26
ATOM     26  O   UNL A   1      31.127  29.451  22.226  1.00  0.00    -0.507 OA
ATOM     27  H   UNL A   1      30.575  28.816  21.814  1.00  0.00     0.293 HD
ENDBRANCH  25  26
ENDBRANCH  16  19
ENDBRANCH  14  15
ENDBRANCH  10  14
ENDBRANCH   7   9
ENDBRANCH   6   7
ENDBRANCH   5   6
ENDBRANCH   4   5
ENDBRANCH   3   4
ENDBRANCH   2   3
ENDBRANCH   1   2
BRANCH   1  28
ATOM     28  O   UNL A   1      37.120  23.129  25.047  1.00  0.00    -0.377 OA
BRANCH  28  29
ATOM     29  C   UNL A   1      37.815  22.585  26.163  1.00  0.00     0.188 C 
BRANCH  29  30
ATOM     30  C   UNL A   1      39.185  21.989  25.817  1.00  0.00     0.188 C 
BRANCH  30  31
ATOM     31  O   UNL A   1      39.740  21.263  26.920  1.00  0.00    -0.376 OA
BRANCH  31  32
ATOM     32  C   UNL A   1      41.166  21.291  27.002  1.00  0.00     0.202 C 
BRANCH  32  33
ATOM     33  C   UNL A   1      41.800  22.413  26.169  1.00  0.00     0.261 C 
BRANCH  33  34
ATOM     34  O   UNL A   1      42.986  22.032  25.451  1.00  0.00    -0.460 OA
BRANCH  34  35
ATOM     35  C   UNL A   1      43.751  23.038  24.967  1.00  0.00     0.338 C 
ATOM     36  O   UNL A   1      44.436  23.010  23.961  1.00  0.00    -0.246 OA
BRANCH  35  37
ATOM     37  C   UNL A   1      43.467  24.254  25.755  1.00  0.00     0.060 A 
ATOM     38  C   UNL A   1      42.806  25.315  25.125  1.00  0.00     0.016 A 
ATOM     39  C   UNL A   1      43.866  24.359  27.091  1.00  0.00     0.016 A 
ATOM     40  C   UNL A   1      42.580  26.504  25.820  1.00  0.00     0.010 A 
ATOM     41  C   UNL A   1      43.653  25.555  27.779  1.00  0.00     0.010 A 
ATOM     42  C   UNL A   1      43.040  26.644  27.136  1.00  0.00    -0.014 A 
BRANCH  42  43
ATOM     43  C   UNL A   1      43.071  27.984  27.767  1.00  0.00     0.031 A 
ATOM     44  C   UNL A   1      44.402  28.669  27.916  1.00  0.00     0.074 A 
ATOM     45  C   UNL A   1      41.946  28.581  28.199  1.00  0.00     0.049 A 
ATOM     46  N   UNL A   1      44.689  29.824  28.459  1.00  0.00    -0.248 NA
ATOM     47  C   UNL A   1      45.567  27.946  27.382  1.00  0.00     0.031 C 
ATOM     48  C   UNL A   1      40.598  28.027  28.087  1.00  0.00     0.029 A 
ATOM     49  N   UNL A   1      41.765  29.786  28.831  1.00  0.00    -0.354 N 
ATOM     50  C   UNL A   1      46.066  29.971  28.324  1.00  0.00     0.074 A 
ATOM     51  C   UNL A   1      46.558  28.769  27.685  1.00  0.00     0.031 C 
ATOM     52  C   UNL A   1      39.728  28.885  28.651  1.00  0.00     0.029 A 
ATOM     53  C   UNL A   1      40.460  30.034  29.183  1.00  0.00     0.049 A 
ATOM     54  H   UNL A   1      42.501  30.414  29.014  1.00  0.00     0.167 HD
ATOM     55  C   UNL A   1      46.848  31.016  28.690  1.00  0.00     0.034 A 
ATOM     56  C   UNL A   1      39.925  31.059  29.876  1.00  0.00     0.034 A 
ATOM     57  C   UNL A   1      46.353  32.193  29.357  1.00  0.00     0.049 A 
ATOM     58  C   UNL A   1      40.827  32.174  30.351  1.00  0.00     0.074 A 
ATOM     59  C   UNL A   1      47.054  33.312  29.771  1.00  0.00     0.029 A 
ATOM     60  N   UNL A   1      45.029  32.393  29.727  1.00  0.00    -0.354 N 
ATOM     61  N   UNL A   1      42.123  32.312  30.196  1.00  0.00    -0.248 NA
ATOM     62  C   UNL A   1      40.188  33.273  31.091  1.00  0.00     0.031 C 
ATOM     63  C   UNL A   1      46.166  34.161  30.444  1.00  0.00     0.029 A 
ATOM     64  C   UNL A   1      44.899  33.603  30.391  1.00  0.00     0.049 A 
ATOM     65  H   UNL A   1      44.292  31.768  29.544  1.00  0.00     0.167 HD
ATOM     66  C   UNL A   1      42.450  33.529  30.794  1.00  0.00     0.074 A 
ATOM     67  C   UNL A   1      41.213  34.085  31.305  1.00  0.00     0.031 C 
ATOM     68  C   UNL A   1      43.659  34.135  30.905  1.00  0.00     0.034 A 
BRANCH  55  69
ATOM     69  C   UNL A   1      48.325  30.891  28.415  1.00  0.00     0.023 A 
ATOM     70  C   UNL A   1      49.184  30.224  29.307  1.00  0.00     0.031 A 
ATOM     71  C   UNL A   1      48.890  31.493  27.279  1.00  0.00     0.131 A 
ATOM     72  C   UNL A   1      50.568  30.239  29.086  1.00  0.00     0.055 A 
ATOM     73  C   UNL A   1      50.262  31.440  27.026  1.00  0.00     0.041 A 
ATOM     74  F   UNL A   1      48.120  32.164  26.407  1.00  0.00    -0.206 F 
ATOM     75  C   UNL A   1      51.112  30.823  27.940  1.00  0.00     0.022 A 
BRANCH  72  76
ATOM     76  S   UNL A   1      51.661  29.605  30.389  1.00  0.00     0.124 S 
ATOM     77  O   UNL A   1      52.333  28.506  29.700  1.00  0.00    -0.237 OA
ATOM     78  O   UNL A   1      52.487  30.765  30.700  1.00  0.00    -0.237 OA
ATOM     79  O   UNL A   1      50.735  29.197  31.444  1.00  0.00    -0.744 OA
ENDBRANCH  72  76
ENDBRANCH  55  69
BRANCH  56  80
ATOM     80  C   UNL A   1      38.473  31.074  30.204  1.00  0.00     0.023 A 
ATOM     81  C   UNL A   1      37.529  31.603  29.310  1.00  0.00     0.031 A 
ATOM     82  C   UNL A   1      38.015  30.610  31.450  1.00  0.00     0.131 A 
ATOM     83  C   UNL A   1      36.181  31.696  29.692  1.00  0.00     0.055 A 
ATOM     84  C   UNL A   1      36.667  30.665  31.809  1.00  0.00     0.041 A 
ATOM     85  F   UNL A   1      38.878  30.094  32.340  1.00  0.00    -0.206 F 
ATOM     86  C   UNL A   1      35.742  31.222  30.931  1.00  0.00     0.022 A 
BRANCH  83  87
ATOM     87  S   UNL A   1      35.014  32.515  28.571  1.00  0.00     0.124 S 
ATOM     88  O   UNL A   1      34.213  33.305  29.500  1.00  0.00    -0.237 OA
ATOM     89  O   UNL A   1      35.911  33.265  27.698  1.00  0.00    -0.237 OA
ATOM     90  O   UNL A   1      34.315  31.402  27.933  1.00  0.00    -0.744 OA
ENDBRANCH  83  87
ENDBRANCH  56  80
BRANCH  68  91
ATOM     91  C   UNL A   1      43.687  35.490  31.566  1.00  0.00     0.023 A 
ATOM     92  C   UNL A   1      43.808  36.674  30.819  1.00  0.00     0.031 A 
ATOM     93  C   UNL A   1      43.594  35.593  32.965  1.00  0.00     0.131 A 
ATOM     94  C   UNL A   1      43.880  37.911  31.481  1.00  0.00     0.055 A 
ATOM     95  C   UNL A   1      43.616  36.828  33.614  1.00  0.00     0.041 A 
ATOM     96  F   UNL A   1      43.476  34.492  33.725  1.00  0.00    -0.206 F 
ATOM     97  C   UNL A   1      43.771  37.995  32.871  1.00  0.00     0.022 A 
BRANCH  94  98
ATOM     98  S   UNL A   1      44.191  39.406  30.503  1.00  0.00     0.124 S 
ATOM     99  O   UNL A   1      43.897  40.465  31.462  1.00  0.00    -0.237 OA
ATOM    100  O   UNL A   1      45.595  39.251  30.133  1.00  0.00    -0.237 OA
ATOM    101  O   UNL A   1      43.245  39.294  29.394  1.00  0.00    -0.744 OA
ENDBRANCH  94  98
ENDBRANCH  68  91
ENDBRANCH  42  43
ENDBRANCH  35  37
ENDBRANCH  34  35
ENDBRANCH  33  34
ENDBRANCH  32  33
ENDBRANCH  31  32
ENDBRANCH  30  31
ENDBRANCH  29  30
ENDBRANCH  28  29
ENDBRANCH   1  28
TORSDOF 27
ENDMDL
