MODEL 1
REMARK VINA RESULT:     -10.4      0.000      0.000
REMARK SMILES O=C(OCCOCCOCCOCCOC(=O)c1ccc(-c2c3nc(c(-c4cc(S(=O)(=O)[O-])ccc4F)c4ccc([nH]4)c(-c4cc(S(=O)(=O)[O-])ccc4F)c4nc(c(-c5cc(S(=O)(=O)[O-])ccc5F)c5ccc2[nH]5)C=C4)C=C3)cc1)C1=Cc2c(Cl)cc(Cl)cc2O[C@@H]1C(F)(F)F
REMARK SMILES IDX 10 1 9 2 8 3 7 4 6 5 5 6 4 7 3 8 2 9 1 10 81 11 82 12 92 13
REMARK SMILES IDX 83 14 91 15 84 16 90 17 85 18 86 19 89 20 87 21 88 22 93 23
REMARK SMILES IDX 94 24 95 25 96 26 11 27 12 28 13 29 14 30 15 31 16 32 17 33
REMARK SMILES IDX 18 34 19 35 80 36 20 37 79 38 21 39 22 40 23 41 73 42 24 43
REMARK SMILES IDX 78 44 72 45 74 46 25 47 77 48 71 49 70 50 26 52 58 53 38 54
REMARK SMILES IDX 57 55 39 56 42 57 56 58 75 59 40 60 41 61 55 63 76 64 43 65
REMARK SMILES IDX 27 66 28 67 36 68 29 69 35 70 37 71 34 72 30 73 31 74 32 75
REMARK SMILES IDX 33 76 59 77 60 78 68 79 61 80 67 81 69 82 66 83 62 84 63 85
REMARK SMILES IDX 64 86 65 87 44 88 45 89 53 90 46 91 52 92 54 93 51 94 47 95
REMARK SMILES IDX 48 96 49 97 50 98
REMARK H PARENT 74 51 42 62
REMARK Flexibility Score: inf
ROOT
ATOM      1  C   UNL A   1      31.034  28.988  23.762  1.00  0.00     0.188 C 
ENDROOT
BRANCH   1   2
ATOM      2  O   UNL A   1      30.000  28.016  23.860  1.00  0.00    -0.377 OA
BRANCH   2   3
ATOM      3  C   UNL A   1      30.436  26.681  24.066  1.00  0.00     0.188 C 
BRANCH   3   4
ATOM      4  C   UNL A   1      31.062  26.071  22.821  1.00  0.00     0.188 C 
BRANCH   4   5
ATOM      5  O   UNL A   1      32.474  25.945  22.890  1.00  0.00    -0.376 OA
BRANCH   5   6
ATOM      6  C   UNL A   1      33.107  25.922  24.161  1.00  0.00     0.202 C 
BRANCH   6   7
ATOM      7  C   UNL A   1      34.258  24.930  24.319  1.00  0.00     0.261 C 
BRANCH   7   8
ATOM      8  O   UNL A   1      34.189  23.855  23.366  1.00  0.00    -0.460 OA
BRANCH   8   9
ATOM      9  C   UNL A   1      34.228  22.595  23.858  1.00  0.00     0.338 C 
ATOM     10  O   UNL A   1      35.253  21.931  23.895  1.00  0.00    -0.246 OA
BRANCH   9  11
ATOM     11  C   UNL A   1      32.885  22.036  24.179  1.00  0.00     0.087 C 
ATOM     12  C   UNL A   1      32.474  21.118  23.285  1.00  0.00     0.029 C 
ATOM     13  C   UNL A   1      32.525  21.897  25.633  1.00  0.00     0.316 C 
ATOM     14  C   UNL A   1      32.493  19.734  23.794  1.00  0.00     0.036 A 
ATOM     15  O   UNL A   1      32.484  20.526  26.100  1.00  0.00    -0.475 OA
ATOM     16  C   UNL A   1      32.546  18.629  22.929  1.00  0.00     0.053 A 
ATOM     17  C   UNL A   1      32.639  19.529  25.172  1.00  0.00     0.130 A 
ATOM     18  Cl  UNL A   1      32.199  18.780  21.242  1.00  0.00    -0.083 Cl
ATOM     19  C   UNL A   1      32.912  17.372  23.412  1.00  0.00     0.042 A 
ATOM     20  C   UNL A   1      33.005  18.273  25.657  1.00  0.00     0.067 A 
ATOM     21  C   UNL A   1      33.195  17.217  24.767  1.00  0.00     0.046 A 
ATOM     22  Cl  UNL A   1      33.823  15.723  25.340  1.00  0.00    -0.084 Cl
BRANCH  13  23
ATOM     23  C   UNL A   1      31.264  22.688  25.987  1.00  0.00     0.430 C 
ATOM     24  F   UNL A   1      31.384  23.302  27.188  1.00  0.00    -0.167 F 
ATOM     25  F   UNL A   1      31.041  23.674  25.078  1.00  0.00    -0.167 F 
ATOM     26  F   UNL A   1      30.155  21.918  26.021  1.00  0.00    -0.167 F 
ENDBRANCH  13  23
ENDBRANCH   9  11
ENDBRANCH   8   9
ENDBRANCH   7   8
ENDBRANCH   6   7
ENDBRANCH   5   6
ENDBRANCH   4   5
ENDBRANCH   3   4
ENDBRANCH   2   3
ENDBRANCH   1   2
BRANCH   1  27
ATOM     27  C   UNL A   1      31.347  29.807  25.038  1.00  0.00     0.188 C 
BRANCH  27  28
ATOM     28  O   UNL A   1      31.449  29.231  26.336  1.00  0.00    -0.376 OA
BRANCH  28  29
ATOM     29  C   UNL A   1      32.681  28.697  26.777  1.00  0.00     0.202 C 
BRANCH  29  30
ATOM     30  C   UNL A   1      33.902  29.630  26.705  1.00  0.00     0.261 C 
BRANCH  30  31
ATOM     31  O   UNL A   1      33.912  30.698  27.667  1.00  0.00    -0.460 OA
BRANCH  31  32
ATOM     32  C   UNL A   1      35.055  31.441  27.699  1.00  0.00     0.338 C 
ATOM     33  O   UNL A   1      35.124  32.647  27.699  1.00  0.00    -0.246 OA
BRANCH  32  34
ATOM     34  C   UNL A   1      36.229  30.551  27.953  1.00  0.00     0.060 A 
ATOM     35  C   UNL A   1      36.156  29.707  29.070  1.00  0.00     0.016 A 
ATOM     36  C   UNL A   1      37.350  30.490  27.115  1.00  0.00     0.016 A 
ATOM     37  C   UNL A   1      37.212  28.852  29.388  1.00  0.00     0.010 A 
ATOM     38  C   UNL A   1      38.419  29.639  27.441  1.00  0.00     0.010 A 
ATOM     39  C   UNL A   1      38.376  28.854  28.610  1.00  0.00    -0.014 A 
BRANCH  39  40
ATOM     40  C   UNL A   1      39.614  28.276  29.205  1.00  0.00     0.031 A 
ATOM     41  C   UNL A   1      40.117  28.891  30.489  1.00  0.00     0.074 A 
ATOM     42  C   UNL A   1      40.209  27.174  28.710  1.00  0.00     0.049 A 
ATOM     43  N   UNL A   1      41.130  28.548  31.241  1.00  0.00    -0.248 NA
ATOM     44  C   UNL A   1      39.364  30.052  30.992  1.00  0.00     0.031 C 
ATOM     45  C   UNL A   1      39.787  26.449  27.512  1.00  0.00     0.029 A 
ATOM     46  N   UNL A   1      41.293  26.462  29.165  1.00  0.00    -0.354 N 
ATOM     47  C   UNL A   1      41.124  29.438  32.311  1.00  0.00     0.074 A 
ATOM     48  C   UNL A   1      40.048  30.373  32.077  1.00  0.00     0.031 C 
ATOM     49  C   UNL A   1      40.607  25.399  27.326  1.00  0.00     0.029 A 
ATOM     50  C   UNL A   1      41.629  25.388  28.373  1.00  0.00     0.049 A 
ATOM     51  H   UNL A   1      41.786  26.700  29.984  1.00  0.00     0.167 HD
ATOM     52  C   UNL A   1      41.925  29.463  33.404  1.00  0.00     0.034 A 
ATOM     53  C   UNL A   1      42.650  24.510  28.473  1.00  0.00     0.034 A 
ATOM     54  C   UNL A   1      43.010  28.540  33.623  1.00  0.00     0.049 A 
ATOM     55  C   UNL A   1      43.596  24.619  29.651  1.00  0.00     0.074 A 
ATOM     56  C   UNL A   1      43.899  28.491  34.682  1.00  0.00     0.029 A 
ATOM     57  N   UNL A   1      43.357  27.505  32.764  1.00  0.00    -0.354 N 
ATOM     58  N   UNL A   1      43.579  25.471  30.652  1.00  0.00    -0.248 NA
ATOM     59  C   UNL A   1      44.686  23.637  29.719  1.00  0.00     0.031 C 
ATOM     60  C   UNL A   1      44.829  27.478  34.426  1.00  0.00     0.029 A 
ATOM     61  C   UNL A   1      44.466  26.833  33.254  1.00  0.00     0.049 A 
ATOM     62  H   UNL A   1      42.886  27.282  31.929  1.00  0.00     0.167 HD
ATOM     63  C   UNL A   1      44.640  25.104  31.481  1.00  0.00     0.074 A 
ATOM     64  C   UNL A   1      45.249  23.938  30.879  1.00  0.00     0.031 C 
ATOM     65  C   UNL A   1      45.075  25.680  32.633  1.00  0.00     0.034 A 
BRANCH  52  66
ATOM     66  C   UNL A   1      41.677  30.556  34.416  1.00  0.00     0.023 A 
ATOM     67  C   UNL A   1      40.537  30.558  35.240  1.00  0.00     0.031 A 
ATOM     68  C   UNL A   1      42.578  31.629  34.539  1.00  0.00     0.131 A 
ATOM     69  C   UNL A   1      40.296  31.640  36.100  1.00  0.00     0.055 A 
ATOM     70  C   UNL A   1      42.374  32.662  35.455  1.00  0.00     0.041 A 
ATOM     71  F   UNL A   1      43.669  31.698  33.758  1.00  0.00    -0.206 F 
ATOM     72  C   UNL A   1      41.221  32.678  36.234  1.00  0.00     0.022 A 
BRANCH  69  73
ATOM     73  S   UNL A   1      38.690  31.742  36.938  1.00  0.00     0.124 S 
ATOM     74  O   UNL A   1      37.972  32.686  36.084  1.00  0.00    -0.237 OA
ATOM     75  O   UNL A   1      38.225  30.361  36.898  1.00  0.00    -0.237 OA
ATOM     76  O   UNL A   1      39.029  32.248  38.266  1.00  0.00    -0.744 OA
ENDBRANCH  69  73
ENDBRANCH  52  66
BRANCH  53  77
ATOM     77  C   UNL A   1      42.883  23.479  27.414  1.00  0.00     0.023 A 
ATOM     78  C   UNL A   1      42.190  22.256  27.402  1.00  0.00     0.031 A 
ATOM     79  C   UNL A   1      43.884  23.670  26.442  1.00  0.00     0.131 A 
ATOM     80  C   UNL A   1      42.544  21.256  26.480  1.00  0.00     0.055 A 
ATOM     81  C   UNL A   1      44.189  22.698  25.488  1.00  0.00     0.041 A 
ATOM     82  F   UNL A   1      44.588  24.813  26.409  1.00  0.00    -0.206 F 
ATOM     83  C   UNL A   1      43.529  21.475  25.514  1.00  0.00     0.022 A 
BRANCH  80  84
ATOM     84  S   UNL A   1      41.781  19.615  26.632  1.00  0.00     0.124 S 
ATOM     85  O   UNL A   1      42.951  18.747  26.682  1.00  0.00    -0.237 OA
ATOM     86  O   UNL A   1      41.026  19.749  27.874  1.00  0.00    -0.237 OA
ATOM     87  O   UNL A   1      40.970  19.504  25.421  1.00  0.00    -0.744 OA
ENDBRANCH  80  84
ENDBRANCH  53  77
BRANCH  65  88
ATOM     88  C   UNL A   1      46.248  25.025  33.328  1.00  0.00     0.023 A 
ATOM     89  C   UNL A   1      47.575  25.393  33.042  1.00  0.00     0.031 A 
ATOM     90  C   UNL A   1      46.041  23.990  34.258  1.00  0.00     0.131 A 
ATOM     91  C   UNL A   1      48.639  24.675  33.606  1.00  0.00     0.055 A 
ATOM     92  C   UNL A   1      47.104  23.334  34.879  1.00  0.00     0.041 A 
ATOM     93  F   UNL A   1      44.798  23.592  34.574  1.00  0.00    -0.206 F 
ATOM     94  C   UNL A   1      48.413  23.660  34.538  1.00  0.00     0.022 A 
BRANCH  91  95
ATOM     95  S   UNL A   1      50.317  24.988  32.991  1.00  0.00     0.124 S 
ATOM     96  O   UNL A   1      51.136  24.564  34.122  1.00  0.00    -0.237 OA
ATOM     97  O   UNL A   1      50.378  24.140  31.806  1.00  0.00    -0.237 OA
ATOM     98  O   UNL A   1      50.322  26.426  32.727  1.00  0.00    -0.744 OA
ENDBRANCH  91  95
ENDBRANCH  65  88
ENDBRANCH  39  40
ENDBRANCH  32  34
ENDBRANCH  31  32
ENDBRANCH  30  31
ENDBRANCH  29  30
ENDBRANCH  28  29
ENDBRANCH  27  28
ENDBRANCH   1  27
TORSDOF 24
ENDMDL
MODEL 2
REMARK VINA RESULT:     -10.3      1.705      2.122
REMARK SMILES O=C(OCCOCCOCCOCCOC(=O)c1ccc(-c2c3nc(c(-c4cc(S(=O)(=O)[O-])ccc4F)c4ccc([nH]4)c(-c4cc(S(=O)(=O)[O-])ccc4F)c4nc(c(-c5cc(S(=O)(=O)[O-])ccc5F)c5ccc2[nH]5)C=C4)C=C3)cc1)C1=Cc2c(Cl)cc(Cl)cc2O[C@@H]1C(F)(F)F
REMARK SMILES IDX 10 1 9 2 8 3 7 4 6 5 5 6 4 7 3 8 2 9 1 10 81 11 82 12 92 13
REMARK SMILES IDX 83 14 91 15 84 16 90 17 85 18 86 19 89 20 87 21 88 22 93 23
REMARK SMILES IDX 94 24 95 25 96 26 11 27 12 28 13 29 14 30 15 31 16 32 17 33
REMARK SMILES IDX 18 34 19 35 80 36 20 37 79 38 21 39 22 40 23 41 73 42 24 43
REMARK SMILES IDX 78 44 72 45 74 46 25 47 77 48 71 49 70 50 26 52 58 53 38 54
REMARK SMILES IDX 57 55 39 56 42 57 56 58 75 59 40 60 41 61 55 63 76 64 43 65
REMARK SMILES IDX 27 66 28 67 36 68 29 69 35 70 37 71 34 72 30 73 31 74 32 75
REMARK SMILES IDX 33 76 59 77 60 78 68 79 61 80 67 81 69 82 66 83 62 84 63 85
REMARK SMILES IDX 64 86 65 87 44 88 45 89 53 90 46 91 52 92 54 93 51 94 47 95
REMARK SMILES IDX 48 96 49 97 50 98
REMARK H PARENT 74 51 42 62
REMARK Flexibility Score: inf
ROOT
ATOM      1  C   UNL A   1      30.952  28.924  23.924  1.00  0.00     0.188 C 
ENDROOT
BRANCH   1   2
ATOM      2  O   UNL A   1      29.963  27.913  24.083  1.00  0.00    -0.377 OA
BRANCH   2   3
ATOM      3  C   UNL A   1      30.361  26.606  23.697  1.00  0.00     0.188 C 
BRANCH   3   4
ATOM      4  C   UNL A   1      31.838  26.346  23.949  1.00  0.00     0.188 C 
BRANCH   4   5
ATOM      5  O   UNL A   1      32.113  25.770  25.216  1.00  0.00    -0.376 OA
BRANCH   5   6
ATOM      6  C   UNL A   1      31.122  24.973  25.845  1.00  0.00     0.202 C 
BRANCH   6   7
ATOM      7  C   UNL A   1      31.634  23.857  26.754  1.00  0.00     0.261 C 
BRANCH   7   8
ATOM      8  O   UNL A   1      33.052  23.648  26.618  1.00  0.00    -0.460 OA
BRANCH   8   9
ATOM      9  C   UNL A   1      33.471  22.371  26.462  1.00  0.00     0.338 C 
ATOM     10  O   UNL A   1      33.851  21.682  27.397  1.00  0.00    -0.246 OA
BRANCH   9  11
ATOM     11  C   UNL A   1      33.597  21.951  25.039  1.00  0.00     0.087 C 
ATOM     12  C   UNL A   1      34.679  21.185  24.813  1.00  0.00     0.029 C 
ATOM     13  C   UNL A   1      32.323  21.714  24.274  1.00  0.00     0.316 C 
ATOM     14  C   UNL A   1      34.368  19.765  24.563  1.00  0.00     0.036 A 
ATOM     15  O   UNL A   1      32.067  20.318  23.980  1.00  0.00    -0.475 OA
ATOM     16  C   UNL A   1      35.323  18.754  24.757  1.00  0.00     0.053 A 
ATOM     17  C   UNL A   1      33.041  19.407  24.298  1.00  0.00     0.130 A 
ATOM     18  Cl  UNL A   1      37.008  19.114  24.912  1.00  0.00    -0.083 Cl
ATOM     19  C   UNL A   1      34.927  17.420  24.858  1.00  0.00     0.042 A 
ATOM     20  C   UNL A   1      32.643  18.074  24.398  1.00  0.00     0.067 A 
ATOM     21  C   UNL A   1      33.579  17.097  24.734  1.00  0.00     0.046 A 
ATOM     22  Cl  UNL A   1      33.058  15.487  25.038  1.00  0.00    -0.084 Cl
BRANCH  13  23
ATOM     23  C   UNL A   1      32.221  22.614  23.041  1.00  0.00     0.430 C 
ATOM     24  F   UNL A   1      33.192  23.558  23.035  1.00  0.00    -0.167 F 
ATOM     25  F   UNL A   1      32.385  21.893  21.901  1.00  0.00    -0.167 F 
ATOM     26  F   UNL A   1      31.029  23.242  22.948  1.00  0.00    -0.167 F 
ENDBRANCH  13  23
ENDBRANCH   9  11
ENDBRANCH   8   9
ENDBRANCH   7   8
ENDBRANCH   6   7
ENDBRANCH   5   6
ENDBRANCH   4   5
ENDBRANCH   3   4
ENDBRANCH   2   3
ENDBRANCH   1   2
BRANCH   1  27
ATOM     27  C   UNL A   1      31.348  29.719  25.191  1.00  0.00     0.188 C 
BRANCH  27  28
ATOM     28  O   UNL A   1      31.608  29.111  26.451  1.00  0.00    -0.376 OA
BRANCH  28  29
ATOM     29  C   UNL A   1      32.900  28.620  26.746  1.00  0.00     0.202 C 
BRANCH  29  30
ATOM     30  C   UNL A   1      34.064  29.617  26.612  1.00  0.00     0.261 C 
BRANCH  30  31
ATOM     31  O   UNL A   1      34.059  30.693  27.565  1.00  0.00    -0.460 OA
BRANCH  31  32
ATOM     32  C   UNL A   1      35.218  31.407  27.642  1.00  0.00     0.338 C 
ATOM     33  O   UNL A   1      35.317  32.611  27.643  1.00  0.00    -0.246 OA
BRANCH  32  34
ATOM     34  C   UNL A   1      36.359  30.489  27.942  1.00  0.00     0.060 A 
ATOM     35  C   UNL A   1      36.215  29.640  29.049  1.00  0.00     0.016 A 
ATOM     36  C   UNL A   1      37.515  30.407  27.156  1.00  0.00     0.016 A 
ATOM     37  C   UNL A   1      37.236  28.759  29.408  1.00  0.00     0.010 A 
ATOM     38  C   UNL A   1      38.549  29.529  27.525  1.00  0.00     0.010 A 
ATOM     39  C   UNL A   1      38.435  28.739  28.685  1.00  0.00    -0.014 A 
BRANCH  39  40
ATOM     40  C   UNL A   1      39.630  28.129  29.331  1.00  0.00     0.031 A 
ATOM     41  C   UNL A   1      40.091  28.727  30.639  1.00  0.00     0.074 A 
ATOM     42  C   UNL A   1      40.220  27.015  28.858  1.00  0.00     0.049 A 
ATOM     43  N   UNL A   1      41.061  28.357  31.434  1.00  0.00    -0.248 NA
ATOM     44  C   UNL A   1      39.344  29.905  31.114  1.00  0.00     0.031 C 
ATOM     45  C   UNL A   1      39.834  26.304  27.639  1.00  0.00     0.029 A 
ATOM     46  N   UNL A   1      41.266  26.275  29.357  1.00  0.00    -0.354 N 
ATOM     47  C   UNL A   1      41.029  29.243  32.507  1.00  0.00     0.074 A 
ATOM     48  C   UNL A   1      39.987  30.205  32.229  1.00  0.00     0.031 C 
ATOM     49  C   UNL A   1      40.636  25.235  27.485  1.00  0.00     0.029 A 
ATOM     50  C   UNL A   1      41.610  25.195  28.577  1.00  0.00     0.049 A 
ATOM     51  H   UNL A   1      41.727  26.498  30.198  1.00  0.00     0.167 HD
ATOM     52  C   UNL A   1      41.781  29.245  33.634  1.00  0.00     0.034 A 
ATOM     53  C   UNL A   1      42.604  24.292  28.718  1.00  0.00     0.034 A 
ATOM     54  C   UNL A   1      42.832  28.295  33.897  1.00  0.00     0.049 A 
ATOM     55  C   UNL A   1      43.499  24.374  29.937  1.00  0.00     0.074 A 
ATOM     56  C   UNL A   1      43.672  28.221  34.993  1.00  0.00     0.029 A 
ATOM     57  N   UNL A   1      43.192  27.255  33.049  1.00  0.00    -0.354 N 
ATOM     58  N   UNL A   1      43.458  25.223  30.940  1.00  0.00    -0.248 NA
ATOM     59  C   UNL A   1      44.561  23.366  30.049  1.00  0.00     0.031 C 
ATOM     60  C   UNL A   1      44.588  27.186  34.775  1.00  0.00     0.029 A 
ATOM     61  C   UNL A   1      44.261  26.554  33.585  1.00  0.00     0.049 A 
ATOM     62  H   UNL A   1      42.753  27.047  32.193  1.00  0.00     0.167 HD
ATOM     63  C   UNL A   1      44.472  24.828  31.814  1.00  0.00     0.074 A 
ATOM     64  C   UNL A   1      45.079  23.649  31.234  1.00  0.00     0.031 C 
ATOM     65  C   UNL A   1      44.870  25.389  32.987  1.00  0.00     0.034 A 
BRANCH  52  66
ATOM     66  C   UNL A   1      41.515  30.341  34.639  1.00  0.00     0.023 A 
ATOM     67  C   UNL A   1      40.325  30.386  35.387  1.00  0.00     0.031 A 
ATOM     68  C   UNL A   1      42.452  31.372  34.831  1.00  0.00     0.131 A 
ATOM     69  C   UNL A   1      40.074  31.471  36.241  1.00  0.00     0.055 A 
ATOM     70  C   UNL A   1      42.232  32.406  35.742  1.00  0.00     0.041 A 
ATOM     71  F   UNL A   1      43.593  31.399  34.123  1.00  0.00    -0.206 F 
ATOM     72  C   UNL A   1      41.033  32.467  36.444  1.00  0.00     0.022 A 
BRANCH  69  73
ATOM     73  S   UNL A   1      38.424  31.637  36.973  1.00  0.00     0.124 S 
ATOM     74  O   UNL A   1      38.048  30.240  37.173  1.00  0.00    -0.237 OA
ATOM     75  O   UNL A   1      38.692  32.407  38.183  1.00  0.00    -0.237 OA
ATOM     76  O   UNL A   1      37.661  32.339  35.944  1.00  0.00    -0.744 OA
ENDBRANCH  69  73
ENDBRANCH  52  66
BRANCH  53  77
ATOM     77  C   UNL A   1      42.859  23.259  27.666  1.00  0.00     0.023 A 
ATOM     78  C   UNL A   1      43.877  23.411  26.708  1.00  0.00     0.031 A 
ATOM     79  C   UNL A   1      42.015  22.138  27.549  1.00  0.00     0.131 A 
ATOM     80  C   UNL A   1      43.988  22.493  25.649  1.00  0.00     0.055 A 
ATOM     81  C   UNL A   1      42.169  21.196  26.530  1.00  0.00     0.041 A 
ATOM     82  F   UNL A   1      41.018  21.944  28.427  1.00  0.00    -0.206 F 
ATOM     83  C   UNL A   1      43.150  21.379  25.562  1.00  0.00     0.022 A 
BRANCH  80  84
ATOM     84  S   UNL A   1      45.169  22.837  24.314  1.00  0.00     0.124 S 
ATOM     85  O   UNL A   1      45.236  24.293  24.343  1.00  0.00    -0.237 OA
ATOM     86  O   UNL A   1      46.359  22.129  24.776  1.00  0.00    -0.237 OA
ATOM     87  O   UNL A   1      44.525  22.263  23.133  1.00  0.00    -0.744 OA
ENDBRANCH  80  84
ENDBRANCH  53  77
BRANCH  65  88
ATOM     88  C   UNL A   1      45.995  24.704  33.729  1.00  0.00     0.023 A 
ATOM     89  C   UNL A   1      47.340  25.061  33.526  1.00  0.00     0.031 A 
ATOM     90  C   UNL A   1      45.724  23.650  34.622  1.00  0.00     0.131 A 
ATOM     91  C   UNL A   1      48.362  24.316  34.131  1.00  0.00     0.055 A 
ATOM     92  C   UNL A   1      46.743  22.966  35.285  1.00  0.00     0.041 A 
ATOM     93  F   UNL A   1      44.460  23.261  34.858  1.00  0.00    -0.206 F 
ATOM     94  C   UNL A   1      48.073  23.283  35.025  1.00  0.00     0.022 A 
BRANCH  91  95
ATOM     95  S   UNL A   1      50.075  24.622  33.618  1.00  0.00     0.124 S 
ATOM     96  O   UNL A   1      50.192  23.774  32.437  1.00  0.00    -0.237 OA
ATOM     97  O   UNL A   1      50.076  26.060  33.373  1.00  0.00    -0.237 OA
ATOM     98  O   UNL A   1      50.861  24.190  34.773  1.00  0.00    -0.744 OA
ENDBRANCH  91  95
ENDBRANCH  65  88
ENDBRANCH  39  40
ENDBRANCH  32  34
ENDBRANCH  31  32
ENDBRANCH  30  31
ENDBRANCH  29  30
ENDBRANCH  28  29
ENDBRANCH  27  28
ENDBRANCH   1  27
TORSDOF 24
ENDMDL
MODEL 3
REMARK VINA RESULT:     -10.3      2.632      3.481
REMARK SMILES O=C(OCCOCCOCCOCCOC(=O)c1ccc(-c2c3nc(c(-c4cc(S(=O)(=O)[O-])ccc4F)c4ccc([nH]4)c(-c4cc(S(=O)(=O)[O-])ccc4F)c4nc(c(-c5cc(S(=O)(=O)[O-])ccc5F)c5ccc2[nH]5)C=C4)C=C3)cc1)C1=Cc2c(Cl)cc(Cl)cc2O[C@@H]1C(F)(F)F
REMARK SMILES IDX 10 1 9 2 8 3 7 4 6 5 5 6 4 7 3 8 2 9 1 10 81 11 82 12 92 13
REMARK SMILES IDX 83 14 91 15 84 16 90 17 85 18 86 19 89 20 87 21 88 22 93 23
REMARK SMILES IDX 94 24 95 25 96 26 11 27 12 28 13 29 14 30 15 31 16 32 17 33
REMARK SMILES IDX 18 34 19 35 80 36 20 37 79 38 21 39 22 40 23 41 73 42 24 43
REMARK SMILES IDX 78 44 72 45 74 46 25 47 77 48 71 49 70 50 26 52 58 53 38 54
REMARK SMILES IDX 57 55 39 56 42 57 56 58 75 59 40 60 41 61 55 63 76 64 43 65
REMARK SMILES IDX 27 66 28 67 36 68 29 69 35 70 37 71 34 72 30 73 31 74 32 75
REMARK SMILES IDX 33 76 59 77 60 78 68 79 61 80 67 81 69 82 66 83 62 84 63 85
REMARK SMILES IDX 64 86 65 87 44 88 45 89 53 90 46 91 52 92 54 93 51 94 47 95
REMARK SMILES IDX 48 96 49 97 50 98
REMARK H PARENT 74 51 42 62
REMARK Flexibility Score: inf
ROOT
ATOM      1  C   UNL A   1      32.388  29.174  23.881  1.00  0.00     0.188 C 
ENDROOT
BRANCH   1   2
ATOM      2  O   UNL A   1      32.408  27.753  23.954  1.00  0.00    -0.377 OA
BRANCH   2   3
ATOM      3  C   UNL A   1      33.690  27.170  24.132  1.00  0.00     0.188 C 
BRANCH   3   4
ATOM      4  C   UNL A   1      33.644  25.650  24.145  1.00  0.00     0.188 C 
BRANCH   4   5
ATOM      5  O   UNL A   1      33.755  25.083  25.441  1.00  0.00    -0.376 OA
BRANCH   5   6
ATOM      6  C   UNL A   1      35.043  24.862  25.994  1.00  0.00     0.202 C 
BRANCH   6   7
ATOM      7  C   UNL A   1      35.873  23.758  25.343  1.00  0.00     0.261 C 
BRANCH   7   8
ATOM      8  O   UNL A   1      35.193  22.490  25.342  1.00  0.00    -0.460 OA
BRANCH   8   9
ATOM      9  C   UNL A   1      34.576  22.126  24.194  1.00  0.00     0.338 C 
ATOM     10  O   UNL A   1      35.094  22.259  23.096  1.00  0.00    -0.246 OA
BRANCH   9  11
ATOM     11  C   UNL A   1      33.154  21.722  24.379  1.00  0.00     0.087 C 
ATOM     12  C   UNL A   1      32.719  20.886  23.420  1.00  0.00     0.029 C 
ATOM     13  C   UNL A   1      32.653  21.588  25.791  1.00  0.00     0.316 C 
ATOM     14  C   UNL A   1      32.531  19.496  23.876  1.00  0.00     0.036 A 
ATOM     15  O   UNL A   1      32.411  20.219  26.200  1.00  0.00    -0.475 OA
ATOM     16  C   UNL A   1      32.531  18.416  22.977  1.00  0.00     0.053 A 
ATOM     17  C   UNL A   1      32.529  19.237  25.252  1.00  0.00     0.130 A 
ATOM     18  Cl  UNL A   1      32.354  18.654  21.273  1.00  0.00    -0.083 Cl
ATOM     19  C   UNL A   1      32.703  17.112  23.441  1.00  0.00     0.042 A 
ATOM     20  C   UNL A   1      32.702  17.934  25.718  1.00  0.00     0.067 A 
ATOM     21  C   UNL A   1      32.844  16.887  24.808  1.00  0.00     0.046 A 
ATOM     22  Cl  UNL A   1      33.241  15.313  25.375  1.00  0.00    -0.084 Cl
BRANCH  13  23
ATOM     23  C   UNL A   1      31.467  22.514  26.067  1.00  0.00     0.430 C 
ATOM     24  F   UNL A   1      31.311  23.428  25.078  1.00  0.00    -0.167 F 
ATOM     25  F   UNL A   1      30.306  21.810  26.118  1.00  0.00    -0.167 F 
ATOM     26  F   UNL A   1      31.582  23.181  27.235  1.00  0.00    -0.167 F 
ENDBRANCH  13  23
ENDBRANCH   9  11
ENDBRANCH   8   9
ENDBRANCH   7   8
ENDBRANCH   6   7
ENDBRANCH   5   6
ENDBRANCH   4   5
ENDBRANCH   3   4
ENDBRANCH   2   3
ENDBRANCH   1   2
BRANCH   1  27
ATOM     27  C   UNL A   1      31.002  29.859  23.963  1.00  0.00     0.188 C 
BRANCH  27  28
ATOM     28  O   UNL A   1      30.575  30.637  25.076  1.00  0.00    -0.376 OA
BRANCH  28  29
ATOM     29  C   UNL A   1      31.454  30.863  26.160  1.00  0.00     0.202 C 
BRANCH  29  30
ATOM     30  C   UNL A   1      31.749  32.330  26.514  1.00  0.00     0.261 C 
BRANCH  30  31
ATOM     31  O   UNL A   1      32.208  32.553  27.858  1.00  0.00    -0.460 OA
BRANCH  31  32
ATOM     32  C   UNL A   1      33.133  33.546  27.999  1.00  0.00     0.338 C 
ATOM     33  O   UNL A   1      32.904  34.729  28.084  1.00  0.00    -0.246 OA
BRANCH  32  34
ATOM     34  C   UNL A   1      34.480  32.949  28.250  1.00  0.00     0.060 A 
ATOM     35  C   UNL A   1      34.533  31.562  28.445  1.00  0.00     0.016 A 
ATOM     36  C   UNL A   1      35.668  33.692  28.252  1.00  0.00     0.016 A 
ATOM     37  C   UNL A   1      35.748  30.924  28.697  1.00  0.00     0.010 A 
ATOM     38  C   UNL A   1      36.890  33.053  28.518  1.00  0.00     0.010 A 
ATOM     39  C   UNL A   1      36.928  31.672  28.795  1.00  0.00    -0.014 A 
BRANCH  39  40
ATOM     40  C   UNL A   1      38.097  31.047  29.476  1.00  0.00     0.031 A 
ATOM     41  C   UNL A   1      38.356  31.444  30.910  1.00  0.00     0.074 A 
ATOM     42  C   UNL A   1      38.833  30.075  28.905  1.00  0.00     0.049 A 
ATOM     43  N   UNL A   1      39.263  31.015  31.747  1.00  0.00    -0.248 NA
ATOM     44  C   UNL A   1      37.458  32.467  31.473  1.00  0.00     0.031 C 
ATOM     45  C   UNL A   1      38.649  29.558  27.550  1.00  0.00     0.029 A 
ATOM     46  N   UNL A   1      39.881  29.337  29.403  1.00  0.00    -0.354 N 
ATOM     47  C   UNL A   1      39.033  31.699  32.937  1.00  0.00     0.074 A 
ATOM     48  C   UNL A   1      37.944  32.618  32.693  1.00  0.00     0.031 C 
ATOM     49  C   UNL A   1      39.557  28.590  27.325  1.00  0.00     0.029 A 
ATOM     50  C   UNL A   1      40.405  28.435  28.507  1.00  0.00     0.049 A 
ATOM     51  H   UNL A   1      40.225  29.446  30.319  1.00  0.00     0.167 HD
ATOM     52  C   UNL A   1      39.655  31.562  34.134  1.00  0.00     0.034 A 
ATOM     53  C   UNL A   1      41.456  27.594  28.622  1.00  0.00     0.034 A 
ATOM     54  C   UNL A   1      40.752  30.659  34.367  1.00  0.00     0.049 A 
ATOM     55  C   UNL A   1      42.201  27.530  29.938  1.00  0.00     0.074 A 
ATOM     56  C   UNL A   1      41.471  30.458  35.532  1.00  0.00     0.029 A 
ATOM     57  N   UNL A   1      41.296  29.807  33.413  1.00  0.00    -0.354 N 
ATOM     58  N   UNL A   1      41.974  28.190  31.053  1.00  0.00    -0.248 NA
ATOM     59  C   UNL A   1      43.331  26.596  30.016  1.00  0.00     0.031 C 
ATOM     60  C   UNL A   1      42.495  29.544  35.263  1.00  0.00     0.029 A 
ATOM     61  C   UNL A   1      42.359  29.103  33.956  1.00  0.00     0.049 A 
ATOM     62  H   UNL A   1      40.973  29.717  32.488  1.00  0.00     0.167 HD
ATOM     63  C   UNL A   1      42.918  27.725  31.969  1.00  0.00     0.074 A 
ATOM     64  C   UNL A   1      43.689  26.708  31.286  1.00  0.00     0.031 C 
ATOM     65  C   UNL A   1      43.133  28.103  33.257  1.00  0.00     0.034 A 
BRANCH  52  66
ATOM     66  C   UNL A   1      39.182  32.448  35.262  1.00  0.00     0.023 A 
ATOM     67  C   UNL A   1      39.669  33.757  35.430  1.00  0.00     0.031 A 
ATOM     68  C   UNL A   1      38.253  31.967  36.201  1.00  0.00     0.131 A 
ATOM     69  C   UNL A   1      39.275  34.514  36.544  1.00  0.00     0.055 A 
ATOM     70  C   UNL A   1      37.803  32.754  37.263  1.00  0.00     0.041 A 
ATOM     71  F   UNL A   1      37.775  30.715  36.111  1.00  0.00    -0.206 F 
ATOM     72  C   UNL A   1      38.324  34.031  37.446  1.00  0.00     0.022 A 
BRANCH  69  73
ATOM     73  S   UNL A   1      40.128  36.080  36.875  1.00  0.00     0.124 S 
ATOM     74  O   UNL A   1      39.907  36.805  35.627  1.00  0.00    -0.237 OA
ATOM     75  O   UNL A   1      39.415  36.586  38.043  1.00  0.00    -0.237 OA
ATOM     76  O   UNL A   1      41.510  35.673  37.115  1.00  0.00    -0.744 OA
ENDBRANCH  69  73
ENDBRANCH  52  66
BRANCH  53  77
ATOM     77  C   UNL A   1      41.917  26.777  27.456  1.00  0.00     0.023 A 
ATOM     78  C   UNL A   1      41.783  25.378  27.430  1.00  0.00     0.031 A 
ATOM     79  C   UNL A   1      42.590  27.388  26.380  1.00  0.00     0.131 A 
ATOM     80  C   UNL A   1      42.362  24.636  26.386  1.00  0.00     0.055 A 
ATOM     81  C   UNL A   1      43.109  26.651  25.313  1.00  0.00     0.041 A 
ATOM     82  F   UNL A   1      42.758  28.720  26.353  1.00  0.00    -0.206 F 
ATOM     83  C   UNL A   1      43.011  25.264  25.321  1.00  0.00     0.022 A 
BRANCH  80  84
ATOM     84  S   UNL A   1      42.360  22.823  26.495  1.00  0.00     0.124 S 
ATOM     85  O   UNL A   1      40.998  22.503  26.083  1.00  0.00    -0.237 OA
ATOM     86  O   UNL A   1      43.417  22.465  25.555  1.00  0.00    -0.237 OA
ATOM     87  O   UNL A   1      42.665  22.566  27.901  1.00  0.00    -0.744 OA
ENDBRANCH  80  84
ENDBRANCH  53  77
BRANCH  65  88
ATOM     88  C   UNL A   1      44.228  27.383  34.011  1.00  0.00     0.023 A 
ATOM     89  C   UNL A   1      43.997  26.153  34.652  1.00  0.00     0.031 A 
ATOM     90  C   UNL A   1      45.509  27.953  34.128  1.00  0.00     0.131 A 
ATOM     91  C   UNL A   1      44.997  25.580  35.452  1.00  0.00     0.055 A 
ATOM     92  C   UNL A   1      46.526  27.337  34.858  1.00  0.00     0.041 A 
ATOM     93  F   UNL A   1      45.792  29.127  33.539  1.00  0.00    -0.206 F 
ATOM     94  C   UNL A   1      46.266  26.155  35.544  1.00  0.00     0.022 A 
BRANCH  91  95
ATOM     95  S   UNL A   1      44.566  24.155  36.487  1.00  0.00     0.124 S 
ATOM     96  O   UNL A   1      44.153  24.799  37.730  1.00  0.00    -0.237 OA
ATOM     97  O   UNL A   1      43.504  23.518  35.716  1.00  0.00    -0.237 OA
ATOM     98  O   UNL A   1      45.814  23.398  36.565  1.00  0.00    -0.744 OA
ENDBRANCH  91  95
ENDBRANCH  65  88
ENDBRANCH  39  40
ENDBRANCH  32  34
ENDBRANCH  31  32
ENDBRANCH  30  31
ENDBRANCH  29  30
ENDBRANCH  28  29
ENDBRANCH  27  28
ENDBRANCH   1  27
TORSDOF 24
ENDMDL
