MODEL 1
REMARK VINA RESULT:      -9.8      0.000      0.000
REMARK SMILES O=C(OCCOCCOCCOCCOC(=O)c1nc(F)ccc1Br)c1ccc(-c2c3nc(c(-c4cc(S(=O)(=O)[O-])ccc4F)c4ccc([nH]4)c(-c4cc(S(=O)(=O)[O-])ccc4F)c4nc(c(-c5cc(S(=O)(=O)[O-])ccc5F)c5ccc2[nH]5)C=C4)C=C3)cc1
REMARK SMILES IDX 7 1 6 2 5 3 4 4 3 5 2 6 1 7 26 8 27 9 88 10 28 11 87 12
REMARK SMILES IDX 29 13 30 14 31 15 81 16 32 17 86 18 80 19 82 20 33 21 85 22
REMARK SMILES IDX 79 23 78 24 34 26 66 27 46 28 65 29 47 30 50 31 64 32 83 33
REMARK SMILES IDX 48 34 49 35 63 37 84 38 51 39 35 40 36 41 44 42 37 43 43 44
REMARK SMILES IDX 45 45 42 46 38 47 39 48 40 49 41 50 67 51 68 52 76 53 69 54
REMARK SMILES IDX 75 55 77 56 74 57 70 58 71 59 72 60 73 61 52 62 53 63 61 64
REMARK SMILES IDX 54 65 60 66 62 67 59 68 55 69 56 70 57 71 58 72 8 73 9 74
REMARK SMILES IDX 10 75 11 76 12 77 13 78 14 79 15 80 16 81 17 82 18 83 19 84
REMARK SMILES IDX 24 85 20 86 23 87 25 88 21 89 22 90
REMARK H PARENT 82 25 50 36
REMARK Flexibility Score: inf
ROOT
ATOM      1  C   UNL A   1      32.829  29.887  25.524  1.00  0.00     0.188 C 
ENDROOT
BRANCH   1   2
ATOM      2  O   UNL A   1      31.648  30.638  25.822  1.00  0.00    -0.376 OA
BRANCH   2   3
ATOM      3  C   UNL A   1      31.763  31.494  26.955  1.00  0.00     0.202 C 
BRANCH   3   4
ATOM      4  C   UNL A   1      31.942  32.974  26.620  1.00  0.00     0.261 C 
BRANCH   4   5
ATOM      5  O   UNL A   1      32.154  33.794  27.773  1.00  0.00    -0.460 OA
BRANCH   5   6
ATOM      6  C   UNL A   1      33.321  34.249  28.293  1.00  0.00     0.338 C 
ATOM      7  O   UNL A   1      33.472  35.473  28.327  1.00  0.00    -0.246 OA
BRANCH   6   8
ATOM      8  C   UNL A   1      34.472  33.393  28.765  1.00  0.00     0.060 A 
ATOM      9  C   UNL A   1      35.761  33.832  28.395  1.00  0.00     0.016 A 
ATOM     10  C   UNL A   1      34.394  32.214  29.510  1.00  0.00     0.016 A 
ATOM     11  C   UNL A   1      36.916  33.135  28.771  1.00  0.00     0.010 A 
ATOM     12  C   UNL A   1      35.539  31.504  29.880  1.00  0.00     0.010 A 
ATOM     13  C   UNL A   1      36.806  31.970  29.530  1.00  0.00    -0.014 A 
BRANCH  13  14
ATOM     14  C   UNL A   1      37.982  31.323  30.145  1.00  0.00     0.031 A 
ATOM     15  C   UNL A   1      38.732  30.236  29.442  1.00  0.00     0.074 A 
ATOM     16  C   UNL A   1      38.252  31.652  31.424  1.00  0.00     0.049 A 
ATOM     17  N   UNL A   1      39.751  29.542  29.875  1.00  0.00    -0.248 NA
ATOM     18  C   UNL A   1      38.283  29.870  28.090  1.00  0.00     0.031 C 
ATOM     19  C   UNL A   1      37.501  32.645  32.198  1.00  0.00     0.029 A 
ATOM     20  N   UNL A   1      39.173  31.163  32.312  1.00  0.00    -0.354 N 
ATOM     21  C   UNL A   1      40.085  28.672  28.844  1.00  0.00     0.074 A 
ATOM     22  C   UNL A   1      39.131  28.896  27.779  1.00  0.00     0.031 C 
ATOM     23  C   UNL A   1      37.959  32.656  33.456  1.00  0.00     0.029 A 
ATOM     24  C   UNL A   1      39.026  31.669  33.583  1.00  0.00     0.049 A 
ATOM     25  H   UNL A   1      39.870  30.513  32.065  1.00  0.00     0.167 HD
ATOM     26  C   UNL A   1      41.108  27.786  28.806  1.00  0.00     0.034 A 
ATOM     27  C   UNL A   1      39.670  31.364  34.728  1.00  0.00     0.034 A 
ATOM     28  C   UNL A   1      42.020  27.587  29.907  1.00  0.00     0.049 A 
ATOM     29  C   UNL A   1      40.814  30.389  34.655  1.00  0.00     0.074 A 
ATOM     30  C   UNL A   1      43.146  26.785  29.948  1.00  0.00     0.029 A 
ATOM     31  N   UNL A   1      41.904  28.178  31.158  1.00  0.00    -0.354 N 
ATOM     32  N   UNL A   1      41.224  29.690  33.622  1.00  0.00    -0.248 NA
ATOM     33  C   UNL A   1      41.610  30.184  35.871  1.00  0.00     0.031 C 
ATOM     34  C   UNL A   1      43.665  26.831  31.240  1.00  0.00     0.029 A 
ATOM     35  C   UNL A   1      42.918  27.730  31.986  1.00  0.00     0.049 A 
ATOM     36  H   UNL A   1      41.205  28.821  31.417  1.00  0.00     0.167 HD
ATOM     37  C   UNL A   1      42.345  28.991  34.052  1.00  0.00     0.074 A 
ATOM     38  C   UNL A   1      42.556  29.359  35.437  1.00  0.00     0.031 C 
ATOM     39  C   UNL A   1      43.128  28.126  33.360  1.00  0.00     0.034 A 
BRANCH  26  40
ATOM     40  C   UNL A   1      41.363  26.987  27.550  1.00  0.00     0.023 A 
ATOM     41  C   UNL A   1      41.141  25.596  27.538  1.00  0.00     0.031 A 
ATOM     42  C   UNL A   1      42.027  27.563  26.452  1.00  0.00     0.131 A 
ATOM     43  C   UNL A   1      41.632  24.820  26.479  1.00  0.00     0.055 A 
ATOM     44  C   UNL A   1      42.476  26.790  25.379  1.00  0.00     0.041 A 
ATOM     45  F   UNL A   1      42.273  28.882  26.418  1.00  0.00    -0.206 F 
ATOM     46  C   UNL A   1      42.296  25.410  25.397  1.00  0.00     0.022 A 
BRANCH  43  47
ATOM     47  S   UNL A   1      41.505  23.011  26.500  1.00  0.00     0.124 S 
ATOM     48  O   UNL A   1      42.313  22.636  25.342  1.00  0.00    -0.237 OA
ATOM     49  O   UNL A   1      42.085  22.679  27.798  1.00  0.00    -0.237 OA
ATOM     50  O   UNL A   1      40.075  22.759  26.362  1.00  0.00    -0.744 OA
ENDBRANCH  43  47
ENDBRANCH  26  40
BRANCH  27  51
ATOM     51  C   UNL A   1      39.271  32.065  35.982  1.00  0.00     0.023 A 
ATOM     52  C   UNL A   1      38.493  31.407  36.956  1.00  0.00     0.031 A 
ATOM     53  C   UNL A   1      39.517  33.437  36.150  1.00  0.00     0.131 A 
ATOM     54  C   UNL A   1      37.936  32.136  38.015  1.00  0.00     0.055 A 
ATOM     55  C   UNL A   1      39.015  34.146  37.243  1.00  0.00     0.041 A 
ATOM     56  F   UNL A   1      40.229  34.112  35.236  1.00  0.00    -0.206 F 
ATOM     57  C   UNL A   1      38.204  33.499  38.171  1.00  0.00     0.022 A 
BRANCH  54  58
ATOM     58  S   UNL A   1      36.717  31.379  39.126  1.00  0.00     0.124 S 
ATOM     59  O   UNL A   1      37.449  31.324  40.387  1.00  0.00    -0.237 OA
ATOM     60  O   UNL A   1      35.620  32.342  39.076  1.00  0.00    -0.237 OA
ATOM     61  O   UNL A   1      36.433  30.090  38.502  1.00  0.00    -0.744 OA
ENDBRANCH  54  58
ENDBRANCH  27  51
BRANCH  39  62
ATOM     62  C   UNL A   1      44.312  27.503  34.055  1.00  0.00     0.023 A 
ATOM     63  C   UNL A   1      44.129  26.342  34.829  1.00  0.00     0.031 A 
ATOM     64  C   UNL A   1      45.547  28.168  34.122  1.00  0.00     0.131 A 
ATOM     65  C   UNL A   1      45.144  25.917  35.692  1.00  0.00     0.055 A 
ATOM     66  C   UNL A   1      46.576  27.709  34.945  1.00  0.00     0.041 A 
ATOM     67  F   UNL A   1      45.761  29.284  33.409  1.00  0.00    -0.206 F 
ATOM     68  C   UNL A   1      46.369  26.590  35.750  1.00  0.00     0.022 A 
BRANCH  65  69
ATOM     69  S   UNL A   1      44.875  24.543  36.846  1.00  0.00     0.124 S 
ATOM     70  O   UNL A   1      43.817  25.071  37.704  1.00  0.00    -0.237 OA
ATOM     71  O   UNL A   1      44.470  23.464  35.949  1.00  0.00    -0.237 OA
ATOM     72  O   UNL A   1      46.170  24.370  37.495  1.00  0.00    -0.744 OA
ENDBRANCH  65  69
ENDBRANCH  39  62
ENDBRANCH  13  14
ENDBRANCH   6   8
ENDBRANCH   5   6
ENDBRANCH   4   5
ENDBRANCH   3   4
ENDBRANCH   2   3
ENDBRANCH   1   2
BRANCH   1  73
ATOM     73  C   UNL A   1      32.568  28.869  24.418  1.00  0.00     0.188 C 
BRANCH  73  74
ATOM     74  O   UNL A   1      31.228  28.387  24.364  1.00  0.00    -0.377 OA
BRANCH  74  75
ATOM     75  C   UNL A   1      30.969  27.119  24.955  1.00  0.00     0.188 C 
BRANCH  75  76
ATOM     76  C   UNL A   1      29.939  26.177  24.300  1.00  0.00     0.188 C 
BRANCH  76  77
ATOM     77  O   UNL A   1      30.417  24.862  24.062  1.00  0.00    -0.376 OA
BRANCH  77  78
ATOM     78  C   UNL A   1      31.749  24.612  24.500  1.00  0.00     0.202 C 
BRANCH  78  79
ATOM     79  C   UNL A   1      31.859  23.402  25.432  1.00  0.00     0.261 C 
BRANCH  79  80
ATOM     80  O   UNL A   1      31.777  22.135  24.760  1.00  0.00    -0.458 OA
BRANCH  80  81
ATOM     81  C   UNL A   1      32.577  21.916  23.683  1.00  0.00     0.358 C 
ATOM     82  O   UNL A   1      32.267  22.002  22.519  1.00  0.00    -0.244 OA
BRANCH  81  83
ATOM     83  C   UNL A   1      33.954  21.683  24.226  1.00  0.00     0.165 A 
ATOM     84  N   UNL A   1      34.847  22.690  23.988  1.00  0.00    -0.211 NA
ATOM     85  C   UNL A   1      34.326  20.446  24.756  1.00  0.00     0.051 A 
ATOM     86  C   UNL A   1      36.140  22.435  24.247  1.00  0.00     0.213 A 
ATOM     87  C   UNL A   1      35.683  20.221  25.001  1.00  0.00     0.023 A 
ATOM     88  Br  UNL A   1      33.141  19.003  25.072  1.00  0.00    -0.048 Br
ATOM     89  F   UNL A   1      37.028  23.408  24.002  1.00  0.00    -0.185 F 
ATOM     90  C   UNL A   1      36.607  21.227  24.735  1.00  0.00     0.061 A 
ENDBRANCH  81  83
ENDBRANCH  80  81
ENDBRANCH  79  80
ENDBRANCH  78  79
ENDBRANCH  77  78
ENDBRANCH  76  77
ENDBRANCH  75  76
ENDBRANCH  74  75
ENDBRANCH  73  74
ENDBRANCH   1  73
TORSDOF 23
ENDMDL
MODEL 2
REMARK VINA RESULT:      -9.6      1.633      2.075
REMARK SMILES O=C(OCCOCCOCCOCCOC(=O)c1nc(F)ccc1Br)c1ccc(-c2c3nc(c(-c4cc(S(=O)(=O)[O-])ccc4F)c4ccc([nH]4)c(-c4cc(S(=O)(=O)[O-])ccc4F)c4nc(c(-c5cc(S(=O)(=O)[O-])ccc5F)c5ccc2[nH]5)C=C4)C=C3)cc1
REMARK SMILES IDX 7 1 6 2 5 3 4 4 3 5 2 6 1 7 26 8 27 9 88 10 28 11 87 12
REMARK SMILES IDX 29 13 30 14 31 15 81 16 32 17 86 18 80 19 82 20 33 21 85 22
REMARK SMILES IDX 79 23 78 24 34 26 66 27 46 28 65 29 47 30 50 31 64 32 83 33
REMARK SMILES IDX 48 34 49 35 63 37 84 38 51 39 35 40 36 41 44 42 37 43 43 44
REMARK SMILES IDX 45 45 42 46 38 47 39 48 40 49 41 50 67 51 68 52 76 53 69 54
REMARK SMILES IDX 75 55 77 56 74 57 70 58 71 59 72 60 73 61 52 62 53 63 61 64
REMARK SMILES IDX 54 65 60 66 62 67 59 68 55 69 56 70 57 71 58 72 8 73 9 74
REMARK SMILES IDX 10 75 11 76 12 77 13 78 14 79 15 80 16 81 17 82 18 83 19 84
REMARK SMILES IDX 24 85 20 86 23 87 25 88 21 89 22 90
REMARK H PARENT 82 25 50 36
REMARK Flexibility Score: inf
ROOT
ATOM      1  C   UNL A   1      31.728  29.108  26.876  1.00  0.00     0.188 C 
ENDROOT
BRANCH   1   2
ATOM      2  O   UNL A   1      32.903  29.765  27.364  1.00  0.00    -0.376 OA
BRANCH   2   3
ATOM      3  C   UNL A   1      33.103  31.077  26.846  1.00  0.00     0.202 C 
BRANCH   3   4
ATOM      4  C   UNL A   1      31.977  32.062  27.155  1.00  0.00     0.261 C 
BRANCH   4   5
ATOM      5  O   UNL A   1      32.417  33.422  27.221  1.00  0.00    -0.460 OA
BRANCH   5   6
ATOM      6  C   UNL A   1      33.074  34.058  28.223  1.00  0.00     0.338 C 
ATOM      7  O   UNL A   1      32.600  35.133  28.601  1.00  0.00    -0.246 OA
BRANCH   6   8
ATOM      8  C   UNL A   1      34.364  33.605  28.861  1.00  0.00     0.060 A 
ATOM      9  C   UNL A   1      34.237  32.737  29.966  1.00  0.00     0.016 A 
ATOM     10  C   UNL A   1      35.662  33.963  28.485  1.00  0.00     0.016 A 
ATOM     11  C   UNL A   1      35.354  32.237  30.648  1.00  0.00     0.010 A 
ATOM     12  C   UNL A   1      36.783  33.480  29.165  1.00  0.00     0.010 A 
ATOM     13  C   UNL A   1      36.636  32.601  30.237  1.00  0.00    -0.014 A 
BRANCH  13  14
ATOM     14  C   UNL A   1      37.845  31.934  30.762  1.00  0.00     0.031 A 
ATOM     15  C   UNL A   1      38.513  30.825  30.014  1.00  0.00     0.074 A 
ATOM     16  C   UNL A   1      38.224  32.269  32.012  1.00  0.00     0.049 A 
ATOM     17  N   UNL A   1      39.548  30.113  30.370  1.00  0.00    -0.248 NA
ATOM     18  C   UNL A   1      37.948  30.456  28.706  1.00  0.00     0.031 C 
ATOM     19  C   UNL A   1      37.559  33.286  32.833  1.00  0.00     0.029 A 
ATOM     20  N   UNL A   1      39.202  31.768  32.828  1.00  0.00    -0.354 N 
ATOM     21  C   UNL A   1      39.779  29.226  29.326  1.00  0.00     0.074 A 
ATOM     22  C   UNL A   1      38.747  29.461  28.338  1.00  0.00     0.031 C 
ATOM     23  C   UNL A   1      38.116  33.299  34.050  1.00  0.00     0.029 A 
ATOM     24  C   UNL A   1      39.169  32.290  34.101  1.00  0.00     0.049 A 
ATOM     25  H   UNL A   1      39.864  31.101  32.533  1.00  0.00     0.167 HD
ATOM     26  C   UNL A   1      40.777  28.318  29.215  1.00  0.00     0.034 A 
ATOM     27  C   UNL A   1      39.897  31.981  35.193  1.00  0.00     0.034 A 
ATOM     28  C   UNL A   1      41.770  28.109  30.242  1.00  0.00     0.049 A 
ATOM     29  C   UNL A   1      41.010  30.981  35.039  1.00  0.00     0.074 A 
ATOM     30  C   UNL A   1      42.879  27.283  30.200  1.00  0.00     0.029 A 
ATOM     31  N   UNL A   1      41.768  28.714  31.491  1.00  0.00    -0.354 N 
ATOM     32  N   UNL A   1      41.321  30.263  33.985  1.00  0.00    -0.248 NA
ATOM     33  C   UNL A   1      41.898  30.770  36.190  1.00  0.00     0.031 C 
ATOM     34  C   UNL A   1      43.501  27.330  31.446  1.00  0.00     0.029 A 
ATOM     35  C   UNL A   1      42.836  28.252  32.240  1.00  0.00     0.049 A 
ATOM     36  H   UNL A   1      41.106  29.375  31.799  1.00  0.00     0.167 HD
ATOM     37  C   UNL A   1      42.458  29.544  34.331  1.00  0.00     0.074 A 
ATOM     38  C   UNL A   1      42.787  29.920  35.690  1.00  0.00     0.031 C 
ATOM     39  C   UNL A   1      43.164  28.656  33.588  1.00  0.00     0.034 A 
BRANCH  26  40
ATOM     40  C   UNL A   1      40.913  27.502  27.951  1.00  0.00     0.023 A 
ATOM     41  C   UNL A   1      40.737  26.105  27.988  1.00  0.00     0.031 A 
ATOM     42  C   UNL A   1      41.428  28.075  26.775  1.00  0.00     0.131 A 
ATOM     43  C   UNL A   1      41.129  25.323  26.893  1.00  0.00     0.055 A 
ATOM     44  C   UNL A   1      41.777  27.295  25.671  1.00  0.00     0.041 A 
ATOM     45  F   UNL A   1      41.625  29.401  26.692  1.00  0.00    -0.206 F 
ATOM     46  C   UNL A   1      41.645  25.911  25.733  1.00  0.00     0.022 A 
BRANCH  43  47
ATOM     47  S   UNL A   1      41.065  23.511  26.959  1.00  0.00     0.124 S 
ATOM     48  O   UNL A   1      41.413  23.246  28.353  1.00  0.00    -0.237 OA
ATOM     49  O   UNL A   1      39.674  23.243  26.602  1.00  0.00    -0.237 OA
ATOM     50  O   UNL A   1      42.062  23.089  25.983  1.00  0.00    -0.744 OA
ENDBRANCH  43  47
ENDBRANCH  26  40
BRANCH  27  51
ATOM     51  C   UNL A   1      39.615  32.702  36.468  1.00  0.00     0.023 A 
ATOM     52  C   UNL A   1      38.723  32.162  37.416  1.00  0.00     0.031 A 
ATOM     53  C   UNL A   1      40.098  34.003  36.682  1.00  0.00     0.131 A 
ATOM     54  C   UNL A   1      38.293  32.945  38.496  1.00  0.00     0.055 A 
ATOM     55  C   UNL A   1      39.717  34.755  37.795  1.00  0.00     0.041 A 
ATOM     56  F   UNL A   1      40.927  34.570  35.793  1.00  0.00    -0.206 F 
ATOM     57  C   UNL A   1      38.796  34.234  38.698  1.00  0.00     0.022 A 
BRANCH  54  58
ATOM     58  S   UNL A   1      36.948  32.380  39.577  1.00  0.00     0.124 S 
ATOM     59  O   UNL A   1      37.322  30.992  39.827  1.00  0.00    -0.237 OA
ATOM     60  O   UNL A   1      37.077  33.283  40.718  1.00  0.00    -0.237 OA
ATOM     61  O   UNL A   1      35.749  32.578  38.768  1.00  0.00    -0.744 OA
ENDBRANCH  54  58
ENDBRANCH  27  51
BRANCH  39  62
ATOM     62  C   UNL A   1      44.387  28.014  34.192  1.00  0.00     0.023 A 
ATOM     63  C   UNL A   1      44.241  26.879  35.012  1.00  0.00     0.031 A 
ATOM     64  C   UNL A   1      45.642  28.641  34.131  1.00  0.00     0.131 A 
ATOM     65  C   UNL A   1      45.316  26.444  35.793  1.00  0.00     0.055 A 
ATOM     66  C   UNL A   1      46.727  28.171  34.872  1.00  0.00     0.041 A 
ATOM     67  F   UNL A   1      45.824  29.731  33.371  1.00  0.00    -0.206 F 
ATOM     68  C   UNL A   1      46.561  27.080  35.723  1.00  0.00     0.022 A 
BRANCH  65  69
ATOM     69  S   UNL A   1      45.112  25.109  37.004  1.00  0.00     0.124 S 
ATOM     70  O   UNL A   1      45.338  23.920  36.185  1.00  0.00    -0.237 OA
ATOM     71  O   UNL A   1      46.162  25.410  37.972  1.00  0.00    -0.237 OA
ATOM     72  O   UNL A   1      43.744  25.277  37.485  1.00  0.00    -0.744 OA
ENDBRANCH  65  69
ENDBRANCH  39  62
ENDBRANCH  13  14
ENDBRANCH   6   8
ENDBRANCH   5   6
ENDBRANCH   4   5
ENDBRANCH   3   4
ENDBRANCH   2   3
ENDBRANCH   1   2
BRANCH   1  73
ATOM     73  C   UNL A   1      32.001  28.410  25.548  1.00  0.00     0.188 C 
BRANCH  73  74
ATOM     74  O   UNL A   1      31.176  28.845  24.471  1.00  0.00    -0.377 OA
BRANCH  74  75
ATOM     75  C   UNL A   1      30.277  27.893  23.915  1.00  0.00     0.188 C 
BRANCH  75  76
ATOM     76  C   UNL A   1      30.837  26.604  23.281  1.00  0.00     0.188 C 
BRANCH  76  77
ATOM     77  O   UNL A   1      31.360  26.776  21.972  1.00  0.00    -0.376 OA
BRANCH  77  78
ATOM     78  C   UNL A   1      32.451  25.925  21.638  1.00  0.00     0.202 C 
BRANCH  78  79
ATOM     79  C   UNL A   1      32.392  24.566  22.339  1.00  0.00     0.261 C 
BRANCH  79  80
ATOM     80  O   UNL A   1      33.582  24.231  23.071  1.00  0.00    -0.458 OA
BRANCH  80  81
ATOM     81  C   UNL A   1      33.842  24.893  24.230  1.00  0.00     0.358 C 
ATOM     82  O   UNL A   1      34.144  26.057  24.350  1.00  0.00    -0.244 OA
BRANCH  81  83
ATOM     83  C   UNL A   1      33.543  23.930  25.338  1.00  0.00     0.165 A 
ATOM     84  N   UNL A   1      32.228  23.857  25.702  1.00  0.00    -0.211 NA
ATOM     85  C   UNL A   1      34.568  23.313  26.059  1.00  0.00     0.051 A 
ATOM     86  C   UNL A   1      31.942  23.190  26.832  1.00  0.00     0.213 A 
ATOM     87  C   UNL A   1      34.225  22.637  27.234  1.00  0.00     0.023 A 
ATOM     88  Br  UNL A   1      36.408  23.409  25.625  1.00  0.00    -0.048 Br
ATOM     89  F   UNL A   1      30.657  23.125  27.209  1.00  0.00    -0.185 F 
ATOM     90  C   UNL A   1      32.893  22.581  27.632  1.00  0.00     0.061 A 
ENDBRANCH  81  83
ENDBRANCH  80  81
ENDBRANCH  79  80
ENDBRANCH  78  79
ENDBRANCH  77  78
ENDBRANCH  76  77
ENDBRANCH  75  76
ENDBRANCH  74  75
ENDBRANCH  73  74
ENDBRANCH   1  73
TORSDOF 23
ENDMDL
MODEL 3
REMARK VINA RESULT:      -9.3      1.662      1.942
REMARK SMILES O=C(OCCOCCOCCOCCOC(=O)c1nc(F)ccc1Br)c1ccc(-c2c3nc(c(-c4cc(S(=O)(=O)[O-])ccc4F)c4ccc([nH]4)c(-c4cc(S(=O)(=O)[O-])ccc4F)c4nc(c(-c5cc(S(=O)(=O)[O-])ccc5F)c5ccc2[nH]5)C=C4)C=C3)cc1
REMARK SMILES IDX 7 1 6 2 5 3 4 4 3 5 2 6 1 7 26 8 27 9 88 10 28 11 87 12
REMARK SMILES IDX 29 13 30 14 31 15 81 16 32 17 86 18 80 19 82 20 33 21 85 22
REMARK SMILES IDX 79 23 78 24 34 26 66 27 46 28 65 29 47 30 50 31 64 32 83 33
REMARK SMILES IDX 48 34 49 35 63 37 84 38 51 39 35 40 36 41 44 42 37 43 43 44
REMARK SMILES IDX 45 45 42 46 38 47 39 48 40 49 41 50 67 51 68 52 76 53 69 54
REMARK SMILES IDX 75 55 77 56 74 57 70 58 71 59 72 60 73 61 52 62 53 63 61 64
REMARK SMILES IDX 54 65 60 66 62 67 59 68 55 69 56 70 57 71 58 72 8 73 9 74
REMARK SMILES IDX 10 75 11 76 12 77 13 78 14 79 15 80 16 81 17 82 18 83 19 84
REMARK SMILES IDX 24 85 20 86 23 87 25 88 21 89 22 90
REMARK H PARENT 82 25 50 36
REMARK Flexibility Score: inf
ROOT
ATOM      1  C   UNL A   1      31.806  29.016  27.360  1.00  0.00     0.188 C 
ENDROOT
BRANCH   1   2
ATOM      2  O   UNL A   1      33.055  29.703  27.234  1.00  0.00    -0.376 OA
BRANCH   2   3
ATOM      3  C   UNL A   1      32.974  30.960  26.569  1.00  0.00     0.202 C 
BRANCH   3   4
ATOM      4  C   UNL A   1      31.868  31.880  27.082  1.00  0.00     0.261 C 
BRANCH   4   5
ATOM      5  O   UNL A   1      32.244  33.261  27.100  1.00  0.00    -0.460 OA
BRANCH   5   6
ATOM      6  C   UNL A   1      32.949  33.941  28.038  1.00  0.00     0.338 C 
ATOM      7  O   UNL A   1      32.528  35.060  28.343  1.00  0.00    -0.246 OA
BRANCH   6   8
ATOM      8  C   UNL A   1      34.234  33.483  28.682  1.00  0.00     0.060 A 
ATOM      9  C   UNL A   1      34.096  32.673  29.830  1.00  0.00     0.016 A 
ATOM     10  C   UNL A   1      35.536  33.786  28.275  1.00  0.00     0.016 A 
ATOM     11  C   UNL A   1      35.207  32.175  30.522  1.00  0.00     0.010 A 
ATOM     12  C   UNL A   1      36.651  33.305  28.965  1.00  0.00     0.010 A 
ATOM     13  C   UNL A   1      36.494  32.482  30.080  1.00  0.00    -0.014 A 
BRANCH  13  14
ATOM     14  C   UNL A   1      37.690  31.807  30.624  1.00  0.00     0.031 A 
ATOM     15  C   UNL A   1      38.357  30.689  29.888  1.00  0.00     0.074 A 
ATOM     16  C   UNL A   1      38.056  32.145  31.876  1.00  0.00     0.049 A 
ATOM     17  N   UNL A   1      39.382  29.970  30.261  1.00  0.00    -0.248 NA
ATOM     18  C   UNL A   1      37.805  30.319  28.576  1.00  0.00     0.031 C 
ATOM     19  C   UNL A   1      37.390  33.171  32.684  1.00  0.00     0.029 A 
ATOM     20  N   UNL A   1      39.020  31.640  32.707  1.00  0.00    -0.354 N 
ATOM     21  C   UNL A   1      39.618  29.076  29.224  1.00  0.00     0.074 A 
ATOM     22  C   UNL A   1      38.601  29.314  28.223  1.00  0.00     0.031 C 
ATOM     23  C   UNL A   1      37.932  33.185  33.908  1.00  0.00     0.029 A 
ATOM     24  C   UNL A   1      38.976  32.168  33.977  1.00  0.00     0.049 A 
ATOM     25  H   UNL A   1      39.679  30.965  32.423  1.00  0.00     0.167 HD
ATOM     26  C   UNL A   1      40.609  28.158  29.130  1.00  0.00     0.034 A 
ATOM     27  C   UNL A   1      39.688  31.858  35.080  1.00  0.00     0.034 A 
ATOM     28  C   UNL A   1      41.588  27.946  30.170  1.00  0.00     0.049 A 
ATOM     29  C   UNL A   1      40.794  30.847  34.944  1.00  0.00     0.074 A 
ATOM     30  C   UNL A   1      42.690  27.110  30.146  1.00  0.00     0.029 A 
ATOM     31  N   UNL A   1      41.576  28.557  31.416  1.00  0.00    -0.354 N 
ATOM     32  N   UNL A   1      41.112  30.122  33.897  1.00  0.00    -0.248 NA
ATOM     33  C   UNL A   1      41.665  30.634  36.107  1.00  0.00     0.031 C 
ATOM     34  C   UNL A   1      43.297  27.158  31.399  1.00  0.00     0.029 A 
ATOM     35  C   UNL A   1      42.630  28.089  32.181  1.00  0.00     0.049 A 
ATOM     36  H   UNL A   1      40.916  29.225  31.712  1.00  0.00     0.167 HD
ATOM     37  C   UNL A   1      42.238  29.395  34.260  1.00  0.00     0.074 A 
ATOM     38  C   UNL A   1      42.554  29.774  35.622  1.00  0.00     0.031 C 
ATOM     39  C   UNL A   1      42.945  28.497  33.530  1.00  0.00     0.034 A 
BRANCH  26  40
ATOM     40  C   UNL A   1      40.754  27.335  27.872  1.00  0.00     0.023 A 
ATOM     41  C   UNL A   1      40.466  25.956  27.891  1.00  0.00     0.031 A 
ATOM     42  C   UNL A   1      41.380  27.867  26.730  1.00  0.00     0.131 A 
ATOM     43  C   UNL A   1      40.859  25.147  26.816  1.00  0.00     0.055 A 
ATOM     44  C   UNL A   1      41.730  27.063  25.644  1.00  0.00     0.041 A 
ATOM     45  F   UNL A   1      41.686  29.173  26.666  1.00  0.00    -0.206 F 
ATOM     46  C   UNL A   1      41.487  25.693  25.691  1.00  0.00     0.022 A 
BRANCH  43  47
ATOM     47  S   UNL A   1      40.648  23.346  26.868  1.00  0.00     0.124 S 
ATOM     48  O   UNL A   1      41.587  22.901  25.840  1.00  0.00    -0.237 OA
ATOM     49  O   UNL A   1      41.034  23.033  28.241  1.00  0.00    -0.237 OA
ATOM     50  O   UNL A   1      39.240  23.148  26.545  1.00  0.00    -0.744 OA
ENDBRANCH  43  47
ENDBRANCH  26  40
BRANCH  27  51
ATOM     51  C   UNL A   1      39.396  32.587  36.347  1.00  0.00     0.023 A 
ATOM     52  C   UNL A   1      38.540  32.028  37.317  1.00  0.00     0.031 A 
ATOM     53  C   UNL A   1      39.831  33.909  36.534  1.00  0.00     0.131 A 
ATOM     54  C   UNL A   1      38.095  32.811  38.391  1.00  0.00     0.055 A 
ATOM     55  C   UNL A   1      39.438  34.664  37.641  1.00  0.00     0.041 A 
ATOM     56  F   UNL A   1      40.625  34.494  35.624  1.00  0.00    -0.206 F 
ATOM     57  C   UNL A   1      38.550  34.121  38.565  1.00  0.00     0.022 A 
BRANCH  54  58
ATOM     58  S   UNL A   1      36.789  32.212  39.500  1.00  0.00     0.124 S 
ATOM     59  O   UNL A   1      36.993  30.768  39.458  1.00  0.00    -0.237 OA
ATOM     60  O   UNL A   1      37.140  32.862  40.761  1.00  0.00    -0.237 OA
ATOM     61  O   UNL A   1      35.560  32.696  38.880  1.00  0.00    -0.744 OA
ENDBRANCH  54  58
ENDBRANCH  27  51
BRANCH  39  62
ATOM     62  C   UNL A   1      44.155  27.847  34.153  1.00  0.00     0.023 A 
ATOM     63  C   UNL A   1      45.431  28.394  33.922  1.00  0.00     0.031 A 
ATOM     64  C   UNL A   1      44.064  26.594  34.780  1.00  0.00     0.131 A 
ATOM     65  C   UNL A   1      46.572  27.657  34.255  1.00  0.00     0.055 A 
ATOM     66  C   UNL A   1      45.205  25.886  35.159  1.00  0.00     0.041 A 
ATOM     67  F   UNL A   1      42.868  26.032  35.011  1.00  0.00    -0.206 F 
ATOM     68  C   UNL A   1      46.466  26.408  34.879  1.00  0.00     0.022 A 
BRANCH  65  69
ATOM     69  S   UNL A   1      48.228  28.239  33.797  1.00  0.00     0.124 S 
ATOM     70  O   UNL A   1      49.088  27.262  34.462  1.00  0.00    -0.237 OA
ATOM     71  O   UNL A   1      48.192  28.151  32.341  1.00  0.00    -0.237 OA
ATOM     72  O   UNL A   1      48.289  29.591  34.345  1.00  0.00    -0.744 OA
ENDBRANCH  65  69
ENDBRANCH  39  62
ENDBRANCH  13  14
ENDBRANCH   6   8
ENDBRANCH   5   6
ENDBRANCH   4   5
ENDBRANCH   3   4
ENDBRANCH   2   3
ENDBRANCH   1   2
BRANCH   1  73
ATOM     73  C   UNL A   1      31.671  27.922  26.305  1.00  0.00     0.188 C 
BRANCH  73  74
ATOM     74  O   UNL A   1      32.838  27.720  25.513  1.00  0.00    -0.377 OA
BRANCH  74  75
ATOM     75  C   UNL A   1      32.727  27.967  24.116  1.00  0.00     0.188 C 
BRANCH  75  76
ATOM     76  C   UNL A   1      32.100  26.892  23.206  1.00  0.00     0.188 C 
BRANCH  76  77
ATOM     77  O   UNL A   1      32.908  25.740  23.020  1.00  0.00    -0.376 OA
BRANCH  77  78
ATOM     78  C   UNL A   1      32.222  24.589  22.538  1.00  0.00     0.202 C 
BRANCH  78  79
ATOM     79  C   UNL A   1      31.256  23.990  23.564  1.00  0.00     0.261 C 
BRANCH  79  80
ATOM     80  O   UNL A   1      31.773  22.843  24.257  1.00  0.00    -0.458 OA
BRANCH  80  81
ATOM     81  C   UNL A   1      32.449  21.902  23.546  1.00  0.00     0.358 C 
ATOM     82  O   UNL A   1      32.109  21.397  22.503  1.00  0.00    -0.244 OA
BRANCH  81  83
ATOM     83  C   UNL A   1      33.765  21.719  24.239  1.00  0.00     0.165 A 
ATOM     84  N   UNL A   1      34.557  22.832  24.278  1.00  0.00    -0.211 NA
ATOM     85  C   UNL A   1      34.209  20.455  24.632  1.00  0.00     0.051 A 
ATOM     86  C   UNL A   1      35.829  22.664  24.678  1.00  0.00     0.213 A 
ATOM     87  C   UNL A   1      35.542  20.325  25.032  1.00  0.00     0.023 A 
ATOM     88  Br  UNL A   1      33.170  18.873  24.565  1.00  0.00    -0.048 Br
ATOM     89  F   UNL A   1      36.621  23.745  24.705  1.00  0.00    -0.185 F 
ATOM     90  C   UNL A   1      36.368  21.445  25.047  1.00  0.00     0.061 A 
ENDBRANCH  81  83
ENDBRANCH  80  81
ENDBRANCH  79  80
ENDBRANCH  78  79
ENDBRANCH  77  78
ENDBRANCH  76  77
ENDBRANCH  75  76
ENDBRANCH  74  75
ENDBRANCH  73  74
ENDBRANCH   1  73
TORSDOF 23
ENDMDL
