MODEL 1
REMARK VINA RESULT:     -10.6      0.000      0.000
REMARK SMILES O=C(OCCOCCOCCOCCOC(=O)c1cccc(Nc2ccc([N+](=O)[O-])cc2)c1)c1ccc(-c2c3nc(c(-c4cc(S(=O)(=O)[O-])ccc4F)c4ccc([nH]4)c(-c4cc(S(=O)(=O)[O-])ccc4F)c4nc(c(-c5cc(S(=O)(=O)[O-])ccc5F)c5ccc2[nH]5)C=C4)C=C3)cc1
REMARK SMILES IDX 9 1 8 2 7 3 6 4 5 5 4 6 3 7 2 8 1 9 34 10 35 11 96 12 36 13
REMARK SMILES IDX 95 14 37 15 38 16 39 17 89 18 40 19 94 20 88 21 90 22 41 23
REMARK SMILES IDX 93 24 87 25 86 26 42 28 74 29 54 30 73 31 55 32 58 33 72 34
REMARK SMILES IDX 91 35 56 36 57 37 71 39 92 40 59 41 43 42 44 43 52 44 45 45
REMARK SMILES IDX 51 46 53 47 50 48 46 49 47 50 48 51 49 52 75 53 76 54 84 55
REMARK SMILES IDX 77 56 83 57 85 58 82 59 78 60 79 61 80 62 81 63 60 64 61 65
REMARK SMILES IDX 69 66 62 67 68 68 70 69 67 70 63 71 64 72 65 73 66 74 10 75
REMARK SMILES IDX 11 76 12 77 13 78 14 79 15 80 16 81 17 82 18 83 19 84 33 85
REMARK SMILES IDX 20 86 22 87 21 88 23 89 24 91 25 92 32 93 26 94 31 95 27 96
REMARK SMILES IDX 28 97 29 98 30 99
REMARK H PARENT 90 27 58 38 23 90
REMARK Flexibility Score: inf
ROOT
ATOM      1  O   UNL A   1      34.965  23.906  25.727  1.00  0.00    -0.377 OA
ENDROOT
BRANCH   1   2
ATOM      2  C   UNL A   1      36.377  23.743  25.852  1.00  0.00     0.188 C 
BRANCH   2   3
ATOM      3  C   UNL A   1      37.016  22.752  24.877  1.00  0.00     0.188 C 
BRANCH   3   4
ATOM      4  O   UNL A   1      37.258  21.503  25.513  1.00  0.00    -0.376 OA
BRANCH   4   5
ATOM      5  C   UNL A   1      37.883  20.478  24.748  1.00  0.00     0.202 C 
BRANCH   5   6
ATOM      6  C   UNL A   1      38.698  19.462  25.549  1.00  0.00     0.261 C 
BRANCH   6   7
ATOM      7  O   UNL A   1      40.050  19.875  25.804  1.00  0.00    -0.460 OA
BRANCH   7   8
ATOM      8  C   UNL A   1      40.572  20.362  26.958  1.00  0.00     0.338 C 
ATOM      9  O   UNL A   1      40.787  19.574  27.879  1.00  0.00    -0.246 OA
BRANCH   8  10
ATOM     10  C   UNL A   1      40.898  21.802  27.185  1.00  0.00     0.060 A 
ATOM     11  C   UNL A   1      40.333  22.867  26.487  1.00  0.00     0.016 A 
ATOM     12  C   UNL A   1      41.754  22.107  28.253  1.00  0.00     0.016 A 
ATOM     13  C   UNL A   1      40.650  24.182  26.765  1.00  0.00     0.010 A 
ATOM     14  C   UNL A   1      42.047  23.437  28.579  1.00  0.00     0.010 A 
ATOM     15  C   UNL A   1      41.506  24.477  27.815  1.00  0.00    -0.014 A 
BRANCH  15  16
ATOM     16  C   UNL A   1      41.913  25.881  27.972  1.00  0.00     0.031 A 
ATOM     17  C   UNL A   1      43.170  26.315  27.287  1.00  0.00     0.074 A 
ATOM     18  C   UNL A   1      41.080  26.755  28.569  1.00  0.00     0.049 A 
ATOM     19  N   UNL A   1      43.787  27.460  27.338  1.00  0.00    -0.248 NA
ATOM     20  C   UNL A   1      43.815  25.320  26.408  1.00  0.00     0.031 C 
ATOM     21  C   UNL A   1      39.751  26.429  29.099  1.00  0.00     0.029 A 
ATOM     22  N   UNL A   1      41.207  28.097  28.804  1.00  0.00    -0.354 N 
ATOM     23  C   UNL A   1      44.913  27.312  26.539  1.00  0.00     0.074 A 
ATOM     24  C   UNL A   1      44.894  25.970  26.006  1.00  0.00     0.031 C 
ATOM     25  C   UNL A   1      39.184  27.544  29.584  1.00  0.00     0.029 A 
ATOM     26  C   UNL A   1      40.145  28.636  29.494  1.00  0.00     0.049 A 
ATOM     27  H   UNL A   1      41.982  28.626  28.507  1.00  0.00     0.167 HD
ATOM     28  C   UNL A   1      45.882  28.226  26.299  1.00  0.00     0.034 A 
ATOM     29  C   UNL A   1      40.009  29.859  30.043  1.00  0.00     0.034 A 
ATOM     30  C   UNL A   1      45.845  29.550  26.860  1.00  0.00     0.049 A 
ATOM     31  C   UNL A   1      41.166  30.815  29.871  1.00  0.00     0.074 A 
ATOM     32  C   UNL A   1      46.782  30.559  26.763  1.00  0.00     0.029 A 
ATOM     33  N   UNL A   1      44.801  30.043  27.638  1.00  0.00    -0.354 N 
ATOM     34  N   UNL A   1      42.279  30.647  29.188  1.00  0.00    -0.248 NA
ATOM     35  C   UNL A   1      41.066  32.110  30.550  1.00  0.00     0.031 C 
ATOM     36  C   UNL A   1      46.341  31.632  27.544  1.00  0.00     0.029 A 
ATOM     37  C   UNL A   1      45.088  31.328  28.057  1.00  0.00     0.049 A 
ATOM     38  H   UNL A   1      43.977  29.549  27.857  1.00  0.00     0.167 HD
ATOM     39  C   UNL A   1      43.000  31.826  29.339  1.00  0.00     0.074 A 
ATOM     40  C   UNL A   1      42.179  32.704  30.151  1.00  0.00     0.031 C 
ATOM     41  C   UNL A   1      44.229  32.160  28.867  1.00  0.00     0.034 A 
BRANCH  28  42
ATOM     42  C   UNL A   1      47.083  27.771  25.514  1.00  0.00     0.023 A 
ATOM     43  C   UNL A   1      47.254  28.075  24.153  1.00  0.00     0.031 A 
ATOM     44  C   UNL A   1      48.047  26.957  26.136  1.00  0.00     0.131 A 
ATOM     45  C   UNL A   1      48.333  27.520  23.444  1.00  0.00     0.055 A 
ATOM     46  C   UNL A   1      49.156  26.468  25.445  1.00  0.00     0.041 A 
ATOM     47  F   UNL A   1      47.912  26.601  27.423  1.00  0.00    -0.206 F 
ATOM     48  C   UNL A   1      49.299  26.741  24.088  1.00  0.00     0.022 A 
BRANCH  45  49
ATOM     49  S   UNL A   1      48.393  27.725  21.643  1.00  0.00     0.124 S 
ATOM     50  O   UNL A   1      47.043  28.202  21.355  1.00  0.00    -0.237 OA
ATOM     51  O   UNL A   1      49.465  28.699  21.469  1.00  0.00    -0.237 OA
ATOM     52  O   UNL A   1      48.691  26.380  21.154  1.00  0.00    -0.744 OA
ENDBRANCH  45  49
ENDBRANCH  28  42
BRANCH  29  53
ATOM     53  C   UNL A   1      38.824  30.212  30.885  1.00  0.00     0.023 A 
ATOM     54  C   UNL A   1      37.793  31.029  30.392  1.00  0.00     0.031 A 
ATOM     55  C   UNL A   1      38.751  29.822  32.237  1.00  0.00     0.131 A 
ATOM     56  C   UNL A   1      36.782  31.484  31.255  1.00  0.00     0.055 A 
ATOM     57  C   UNL A   1      37.702  30.214  33.071  1.00  0.00     0.041 A 
ATOM     58  F   UNL A   1      39.710  29.053  32.778  1.00  0.00    -0.206 F 
ATOM     59  C   UNL A   1      36.720  31.070  32.586  1.00  0.00     0.022 A 
BRANCH  56  60
ATOM     60  S   UNL A   1      35.629  32.749  30.650  1.00  0.00     0.124 S 
ATOM     61  O   UNL A   1      36.288  33.977  31.078  1.00  0.00    -0.237 OA
ATOM     62  O   UNL A   1      35.623  32.490  29.215  1.00  0.00    -0.237 OA
ATOM     63  O   UNL A   1      34.383  32.434  31.347  1.00  0.00    -0.744 OA
ENDBRANCH  56  60
ENDBRANCH  29  53
BRANCH  41  64
ATOM     64  C   UNL A   1      44.716  33.547  29.189  1.00  0.00     0.023 A 
ATOM     65  C   UNL A   1      44.500  34.622  28.312  1.00  0.00     0.031 A 
ATOM     66  C   UNL A   1      45.401  33.791  30.392  1.00  0.00     0.131 A 
ATOM     67  C   UNL A   1      45.019  35.884  28.624  1.00  0.00     0.055 A 
ATOM     68  C   UNL A   1      45.850  35.066  30.730  1.00  0.00     0.041 A 
ATOM     69  F   UNL A   1      45.631  32.794  31.262  1.00  0.00    -0.206 F 
ATOM     70  C   UNL A   1      45.673  36.118  29.836  1.00  0.00     0.022 A 
BRANCH  67  71
ATOM     71  S   UNL A   1      44.915  37.193  27.375  1.00  0.00     0.124 S 
ATOM     72  O   UNL A   1      45.320  38.370  28.136  1.00  0.00    -0.237 OA
ATOM     73  O   UNL A   1      45.860  36.733  26.362  1.00  0.00    -0.237 OA
ATOM     74  O   UNL A   1      43.511  37.168  26.969  1.00  0.00    -0.744 OA
ENDBRANCH  67  71
ENDBRANCH  41  64
ENDBRANCH  15  16
ENDBRANCH   8  10
ENDBRANCH   7   8
ENDBRANCH   6   7
ENDBRANCH   5   6
ENDBRANCH   4   5
ENDBRANCH   3   4
ENDBRANCH   2   3
ENDBRANCH   1   2
BRANCH   1  75
ATOM     75  C   UNL A   1      34.518  25.012  24.946  1.00  0.00     0.188 C 
BRANCH  75  76
ATOM     76  C   UNL A   1      33.782  26.182  25.648  1.00  0.00     0.188 C 
BRANCH  76  77
ATOM     77  O   UNL A   1      33.405  27.240  24.780  1.00  0.00    -0.376 OA
BRANCH  77  78
ATOM     78  C   UNL A   1      32.426  28.138  25.290  1.00  0.00     0.202 C 
BRANCH  78  79
ATOM     79  C   UNL A   1      31.131  28.277  24.470  1.00  0.00     0.261 C 
BRANCH  79  80
ATOM     80  O   UNL A   1      30.773  27.149  23.649  1.00  0.00    -0.460 OA
BRANCH  80  81
ATOM     81  C   UNL A   1      29.788  26.331  24.081  1.00  0.00     0.338 C 
ATOM     82  O   UNL A   1      28.591  26.457  23.897  1.00  0.00    -0.246 OA
BRANCH  81  83
ATOM     83  C   UNL A   1      30.432  25.117  24.638  1.00  0.00     0.062 A 
ATOM     84  C   UNL A   1      30.284  24.839  26.003  1.00  0.00     0.016 A 
ATOM     85  C   UNL A   1      31.090  24.208  23.802  1.00  0.00     0.041 A 
ATOM     86  C   UNL A   1      30.743  23.626  26.511  1.00  0.00     0.003 A 
ATOM     87  C   UNL A   1      31.649  23.034  24.328  1.00  0.00     0.039 A 
ATOM     88  C   UNL A   1      31.428  22.735  25.679  1.00  0.00     0.026 A 
BRANCH  87  89
ATOM     89  N   UNL A   1      32.421  22.209  23.480  1.00  0.00    -0.355 N 
ATOM     90  H   UNL A   1      32.738  22.619  22.643  1.00  0.00     0.167 HD
BRANCH  89  91
ATOM     91  C   UNL A   1      32.788  20.869  23.698  1.00  0.00     0.039 A 
ATOM     92  C   UNL A   1      32.103  19.856  23.012  1.00  0.00     0.033 A 
ATOM     93  C   UNL A   1      33.859  20.526  24.529  1.00  0.00     0.033 A 
ATOM     94  C   UNL A   1      32.470  18.517  23.161  1.00  0.00     0.088 A 
ATOM     95  C   UNL A   1      34.233  19.188  24.695  1.00  0.00     0.088 A 
ATOM     96  C   UNL A   1      33.532  18.186  24.009  1.00  0.00     0.269 A 
BRANCH  96  97
ATOM     97  N   UNL A   1      33.912  16.780  24.181  1.00  0.00     0.062 N 
ATOM     98  O   UNL A   1      34.138  16.113  23.161  1.00  0.00    -0.258 OA
ATOM     99  O   UNL A   1      33.978  16.336  25.337  1.00  0.00    -0.258 OA
ENDBRANCH  96  97
ENDBRANCH  89  91
ENDBRANCH  87  89
ENDBRANCH  81  83
ENDBRANCH  80  81
ENDBRANCH  79  80
ENDBRANCH  78  79
ENDBRANCH  77  78
ENDBRANCH  76  77
ENDBRANCH  75  76
ENDBRANCH   1  75
TORSDOF 26
ENDMDL
MODEL 2
REMARK VINA RESULT:      -9.9      1.659      2.026
REMARK SMILES O=C(OCCOCCOCCOCCOC(=O)c1cccc(Nc2ccc([N+](=O)[O-])cc2)c1)c1ccc(-c2c3nc(c(-c4cc(S(=O)(=O)[O-])ccc4F)c4ccc([nH]4)c(-c4cc(S(=O)(=O)[O-])ccc4F)c4nc(c(-c5cc(S(=O)(=O)[O-])ccc5F)c5ccc2[nH]5)C=C4)C=C3)cc1
REMARK SMILES IDX 9 1 8 2 7 3 6 4 5 5 4 6 3 7 2 8 1 9 34 10 35 11 96 12 36 13
REMARK SMILES IDX 95 14 37 15 38 16 39 17 89 18 40 19 94 20 88 21 90 22 41 23
REMARK SMILES IDX 93 24 87 25 86 26 42 28 74 29 54 30 73 31 55 32 58 33 72 34
REMARK SMILES IDX 91 35 56 36 57 37 71 39 92 40 59 41 43 42 44 43 52 44 45 45
REMARK SMILES IDX 51 46 53 47 50 48 46 49 47 50 48 51 49 52 75 53 76 54 84 55
REMARK SMILES IDX 77 56 83 57 85 58 82 59 78 60 79 61 80 62 81 63 60 64 61 65
REMARK SMILES IDX 69 66 62 67 68 68 70 69 67 70 63 71 64 72 65 73 66 74 10 75
REMARK SMILES IDX 11 76 12 77 13 78 14 79 15 80 16 81 17 82 18 83 19 84 33 85
REMARK SMILES IDX 20 86 22 87 21 88 23 89 24 91 25 92 32 93 26 94 31 95 27 96
REMARK SMILES IDX 28 97 29 98 30 99
REMARK H PARENT 90 27 58 38 23 90
REMARK Flexibility Score: inf
ROOT
ATOM      1  O   UNL A   1      34.942  23.420  24.992  1.00  0.00    -0.377 OA
ENDROOT
BRANCH   1   2
ATOM      2  C   UNL A   1      36.298  23.570  25.409  1.00  0.00     0.188 C 
BRANCH   2   3
ATOM      3  C   UNL A   1      37.297  22.604  24.769  1.00  0.00     0.188 C 
BRANCH   3   4
ATOM      4  O   UNL A   1      37.204  21.315  25.363  1.00  0.00    -0.376 OA
BRANCH   4   5
ATOM      5  C   UNL A   1      37.995  20.269  24.808  1.00  0.00     0.202 C 
BRANCH   5   6
ATOM      6  C   UNL A   1      38.723  19.384  25.821  1.00  0.00     0.261 C 
BRANCH   6   7
ATOM      7  O   UNL A   1      40.137  19.286  25.595  1.00  0.00    -0.460 OA
BRANCH   7   8
ATOM      8  C   UNL A   1      41.145  19.747  26.379  1.00  0.00     0.338 C 
ATOM      9  O   UNL A   1      41.896  18.925  26.904  1.00  0.00    -0.246 OA
BRANCH   8  10
ATOM     10  C   UNL A   1      41.397  21.194  26.649  1.00  0.00     0.060 A 
ATOM     11  C   UNL A   1      40.949  22.244  25.851  1.00  0.00     0.016 A 
ATOM     12  C   UNL A   1      42.037  21.521  27.854  1.00  0.00     0.016 A 
ATOM     13  C   UNL A   1      41.184  23.566  26.171  1.00  0.00     0.010 A 
ATOM     14  C   UNL A   1      42.240  22.858  28.216  1.00  0.00     0.010 A 
ATOM     15  C   UNL A   1      41.828  23.883  27.358  1.00  0.00    -0.014 A 
BRANCH  15  16
ATOM     16  C   UNL A   1      42.173  25.295  27.575  1.00  0.00     0.031 A 
ATOM     17  C   UNL A   1      43.427  25.805  26.937  1.00  0.00     0.074 A 
ATOM     18  C   UNL A   1      41.291  26.113  28.182  1.00  0.00     0.049 A 
ATOM     19  N   UNL A   1      43.994  26.971  27.044  1.00  0.00    -0.248 NA
ATOM     20  C   UNL A   1      44.133  24.870  26.040  1.00  0.00     0.031 C 
ATOM     21  C   UNL A   1      39.965  25.714  28.667  1.00  0.00     0.029 A 
ATOM     22  N   UNL A   1      41.356  27.449  28.467  1.00  0.00    -0.354 N 
ATOM     23  C   UNL A   1      45.145  26.899  26.269  1.00  0.00     0.074 A 
ATOM     24  C   UNL A   1      45.194  25.577  25.688  1.00  0.00     0.031 C 
ATOM     25  C   UNL A   1      39.341  26.787  29.177  1.00  0.00     0.029 A 
ATOM     26  C   UNL A   1      40.257  27.919  29.150  1.00  0.00     0.049 A 
ATOM     27  H   UNL A   1      42.116  28.020  28.209  1.00  0.00     0.167 HD
ATOM     28  C   UNL A   1      46.080  27.859  26.087  1.00  0.00     0.034 A 
ATOM     29  C   UNL A   1      40.058  29.115  29.738  1.00  0.00     0.034 A 
ATOM     30  C   UNL A   1      45.975  29.159  26.693  1.00  0.00     0.049 A 
ATOM     31  C   UNL A   1      41.178  30.122  29.630  1.00  0.00     0.074 A 
ATOM     32  C   UNL A   1      46.872  30.208  26.656  1.00  0.00     0.029 A 
ATOM     33  N   UNL A   1      44.893  29.581  27.462  1.00  0.00    -0.354 N 
ATOM     34  N   UNL A   1      42.313  30.025  28.969  1.00  0.00    -0.248 NA
ATOM     35  C   UNL A   1      41.009  31.387  30.352  1.00  0.00     0.031 C 
ATOM     36  C   UNL A   1      46.369  31.233  27.463  1.00  0.00     0.029 A 
ATOM     37  C   UNL A   1      45.118  30.860  27.934  1.00  0.00     0.049 A 
ATOM     38  H   UNL A   1      44.086  29.047  27.643  1.00  0.00     0.167 HD
ATOM     39  C   UNL A   1      42.981  31.226  29.180  1.00  0.00     0.074 A 
ATOM     40  C   UNL A   1      42.105  32.039  30.002  1.00  0.00     0.031 C 
ATOM     41  C   UNL A   1      44.206  31.626  28.751  1.00  0.00     0.034 A 
BRANCH  28  42
ATOM     42  C   UNL A   1      47.316  27.482  25.316  1.00  0.00     0.023 A 
ATOM     43  C   UNL A   1      47.514  27.856  23.975  1.00  0.00     0.031 A 
ATOM     44  C   UNL A   1      48.291  26.672  25.926  1.00  0.00     0.131 A 
ATOM     45  C   UNL A   1      48.630  27.371  23.273  1.00  0.00     0.055 A 
ATOM     46  C   UNL A   1      49.435  26.255  25.246  1.00  0.00     0.041 A 
ATOM     47  F   UNL A   1      48.134  26.252  27.192  1.00  0.00    -0.206 F 
ATOM     48  C   UNL A   1      49.605  26.596  23.908  1.00  0.00     0.022 A 
BRANCH  45  49
ATOM     49  S   UNL A   1      48.732  27.663  21.486  1.00  0.00     0.124 S 
ATOM     50  O   UNL A   1      49.353  26.425  21.020  1.00  0.00    -0.237 OA
ATOM     51  O   UNL A   1      47.334  27.854  21.114  1.00  0.00    -0.237 OA
ATOM     52  O   UNL A   1      49.573  28.854  21.379  1.00  0.00    -0.744 OA
ENDBRANCH  45  49
ENDBRANCH  28  42
BRANCH  29  53
ATOM     53  C   UNL A   1      38.840  29.388  30.563  1.00  0.00     0.023 A 
ATOM     54  C   UNL A   1      37.865  30.309  30.145  1.00  0.00     0.031 A 
ATOM     55  C   UNL A   1      38.679  28.808  31.837  1.00  0.00     0.131 A 
ATOM     56  C   UNL A   1      36.823  30.673  31.014  1.00  0.00     0.055 A 
ATOM     57  C   UNL A   1      37.599  29.116  32.666  1.00  0.00     0.041 A 
ATOM     58  F   UNL A   1      39.581  27.931  32.306  1.00  0.00    -0.206 F 
ATOM     59  C   UNL A   1      36.673  30.073  32.264  1.00  0.00     0.022 A 
BRANCH  56  60
ATOM     60  S   UNL A   1      35.747  32.059  30.546  1.00  0.00     0.124 S 
ATOM     61  O   UNL A   1      34.844  32.130  31.688  1.00  0.00    -0.237 OA
ATOM     62  O   UNL A   1      36.703  33.152  30.414  1.00  0.00    -0.237 OA
ATOM     63  O   UNL A   1      35.137  31.608  29.296  1.00  0.00    -0.744 OA
ENDBRANCH  56  60
ENDBRANCH  29  53
BRANCH  41  64
ATOM     64  C   UNL A   1      44.627  33.019  29.135  1.00  0.00     0.023 A 
ATOM     65  C   UNL A   1      45.353  33.266  30.312  1.00  0.00     0.031 A 
ATOM     66  C   UNL A   1      44.299  34.108  28.309  1.00  0.00     0.131 A 
ATOM     67  C   UNL A   1      45.676  34.583  30.661  1.00  0.00     0.055 A 
ATOM     68  C   UNL A   1      44.689  35.407  28.626  1.00  0.00     0.041 A 
ATOM     69  F   UNL A   1      43.606  33.920  27.174  1.00  0.00    -0.206 F 
ATOM     70  C   UNL A   1      45.368  35.652  29.816  1.00  0.00     0.022 A 
BRANCH  67  71
ATOM     71  S   UNL A   1      46.415  34.888  32.288  1.00  0.00     0.124 S 
ATOM     72  O   UNL A   1      46.675  36.323  32.237  1.00  0.00    -0.237 OA
ATOM     73  O   UNL A   1      45.355  34.464  33.197  1.00  0.00    -0.237 OA
ATOM     74  O   UNL A   1      47.606  34.040  32.286  1.00  0.00    -0.744 OA
ENDBRANCH  67  71
ENDBRANCH  41  64
ENDBRANCH  15  16
ENDBRANCH   8  10
ENDBRANCH   7   8
ENDBRANCH   6   7
ENDBRANCH   5   6
ENDBRANCH   4   5
ENDBRANCH   3   4
ENDBRANCH   2   3
ENDBRANCH   1   2
BRANCH   1  75
ATOM     75  C   UNL A   1      34.575  24.062  23.774  1.00  0.00     0.188 C 
BRANCH  75  76
ATOM     76  C   UNL A   1      34.160  25.555  23.804  1.00  0.00     0.188 C 
BRANCH  76  77
ATOM     77  O   UNL A   1      32.960  25.841  23.102  1.00  0.00    -0.376 OA
BRANCH  77  78
ATOM     78  C   UNL A   1      32.131  26.843  23.680  1.00  0.00     0.202 C 
BRANCH  78  79
ATOM     79  C   UNL A   1      30.641  26.491  23.841  1.00  0.00     0.261 C 
BRANCH  79  80
ATOM     80  O   UNL A   1      30.347  25.143  24.258  1.00  0.00    -0.460 OA
BRANCH  80  81
ATOM     81  C   UNL A   1      30.312  24.876  25.582  1.00  0.00     0.338 C 
ATOM     82  O   UNL A   1      29.550  25.345  26.408  1.00  0.00    -0.246 OA
BRANCH  81  83
ATOM     83  C   UNL A   1      31.227  23.736  25.829  1.00  0.00     0.062 A 
ATOM     84  C   UNL A   1      32.002  23.731  26.995  1.00  0.00     0.016 A 
ATOM     85  C   UNL A   1      31.243  22.632  24.968  1.00  0.00     0.041 A 
ATOM     86  C   UNL A   1      32.744  22.598  27.323  1.00  0.00     0.003 A 
ATOM     87  C   UNL A   1      32.070  21.532  25.238  1.00  0.00     0.039 A 
ATOM     88  C   UNL A   1      32.783  21.512  26.445  1.00  0.00     0.026 A 
BRANCH  87  89
ATOM     89  N   UNL A   1      32.163  20.499  24.279  1.00  0.00    -0.355 N 
ATOM     90  H   UNL A   1      31.847  20.716  23.372  1.00  0.00     0.167 HD
BRANCH  89  91
ATOM     91  C   UNL A   1      32.654  19.197  24.475  1.00  0.00     0.039 A 
ATOM     92  C   UNL A   1      32.611  18.639  25.760  1.00  0.00     0.033 A 
ATOM     93  C   UNL A   1      33.123  18.420  23.410  1.00  0.00     0.033 A 
ATOM     94  C   UNL A   1      33.041  17.330  25.987  1.00  0.00     0.088 A 
ATOM     95  C   UNL A   1      33.565  17.110  23.623  1.00  0.00     0.088 A 
ATOM     96  C   UNL A   1      33.524  16.570  24.916  1.00  0.00     0.269 A 
BRANCH  96  97
ATOM     97  N   UNL A   1      33.992  15.200  25.151  1.00  0.00     0.062 N 
ATOM     98  O   UNL A   1      33.141  14.332  25.393  1.00  0.00    -0.258 OA
ATOM     99  O   UNL A   1      35.212  14.989  25.102  1.00  0.00    -0.258 OA
ENDBRANCH  96  97
ENDBRANCH  89  91
ENDBRANCH  87  89
ENDBRANCH  81  83
ENDBRANCH  80  81
ENDBRANCH  79  80
ENDBRANCH  78  79
ENDBRANCH  77  78
ENDBRANCH  76  77
ENDBRANCH  75  76
ENDBRANCH   1  75
TORSDOF 26
ENDMDL
MODEL 3
REMARK VINA RESULT:      -9.7      1.935      7.664
REMARK SMILES O=C(OCCOCCOCCOCCOC(=O)c1cccc(Nc2ccc([N+](=O)[O-])cc2)c1)c1ccc(-c2c3nc(c(-c4cc(S(=O)(=O)[O-])ccc4F)c4ccc([nH]4)c(-c4cc(S(=O)(=O)[O-])ccc4F)c4nc(c(-c5cc(S(=O)(=O)[O-])ccc5F)c5ccc2[nH]5)C=C4)C=C3)cc1
REMARK SMILES IDX 9 1 8 2 7 3 6 4 5 5 4 6 3 7 2 8 1 9 34 10 35 11 96 12 36 13
REMARK SMILES IDX 95 14 37 15 38 16 39 17 89 18 40 19 94 20 88 21 90 22 41 23
REMARK SMILES IDX 93 24 87 25 86 26 42 28 74 29 54 30 73 31 55 32 58 33 72 34
REMARK SMILES IDX 91 35 56 36 57 37 71 39 92 40 59 41 43 42 44 43 52 44 45 45
REMARK SMILES IDX 51 46 53 47 50 48 46 49 47 50 48 51 49 52 75 53 76 54 84 55
REMARK SMILES IDX 77 56 83 57 85 58 82 59 78 60 79 61 80 62 81 63 60 64 61 65
REMARK SMILES IDX 69 66 62 67 68 68 70 69 67 70 63 71 64 72 65 73 66 74 10 75
REMARK SMILES IDX 11 76 12 77 13 78 14 79 15 80 16 81 17 82 18 83 19 84 33 85
REMARK SMILES IDX 20 86 22 87 21 88 23 89 24 91 25 92 32 93 26 94 31 95 27 96
REMARK SMILES IDX 28 97 29 98 30 99
REMARK H PARENT 90 27 58 38 23 90
REMARK Flexibility Score: inf
ROOT
ATOM      1  O   UNL A   1      32.012  25.860  25.859  1.00  0.00    -0.377 OA
ENDROOT
BRANCH   1   2
ATOM      2  C   UNL A   1      33.232  25.590  26.548  1.00  0.00     0.188 C 
BRANCH   2   3
ATOM      3  C   UNL A   1      34.445  25.307  25.658  1.00  0.00     0.188 C 
BRANCH   3   4
ATOM      4  O   UNL A   1      34.832  23.942  25.753  1.00  0.00    -0.376 OA
BRANCH   4   5
ATOM      5  C   UNL A   1      36.171  23.657  26.146  1.00  0.00     0.202 C 
BRANCH   5   6
ATOM      6  C   UNL A   1      36.903  22.622  25.292  1.00  0.00     0.261 C 
BRANCH   6   7
ATOM      7  O   UNL A   1      37.854  21.833  26.025  1.00  0.00    -0.460 OA
BRANCH   7   8
ATOM      8  C   UNL A   1      39.183  22.055  26.179  1.00  0.00     0.338 C 
ATOM      9  O   UNL A   1      39.960  21.131  25.938  1.00  0.00    -0.246 OA
BRANCH   8  10
ATOM     10  C   UNL A   1      39.766  23.355  26.629  1.00  0.00     0.060 A 
ATOM     11  C   UNL A   1      39.619  24.568  25.961  1.00  0.00     0.016 A 
ATOM     12  C   UNL A   1      40.415  23.372  27.872  1.00  0.00     0.016 A 
ATOM     13  C   UNL A   1      40.154  25.746  26.444  1.00  0.00     0.010 A 
ATOM     14  C   UNL A   1      40.920  24.568  28.399  1.00  0.00     0.010 A 
ATOM     15  C   UNL A   1      40.804  25.755  27.669  1.00  0.00    -0.014 A 
BRANCH  15  16
ATOM     16  C   UNL A   1      41.471  27.005  28.062  1.00  0.00     0.031 A 
ATOM     17  C   UNL A   1      40.667  28.002  28.835  1.00  0.00     0.074 A 
ATOM     18  C   UNL A   1      42.797  27.144  27.871  1.00  0.00     0.049 A 
ATOM     19  N   UNL A   1      40.987  29.203  29.221  1.00  0.00    -0.248 NA
ATOM     20  C   UNL A   1      39.313  27.578  29.243  1.00  0.00     0.031 C 
ATOM     21  C   UNL A   1      43.676  26.126  27.284  1.00  0.00     0.029 A 
ATOM     22  N   UNL A   1      43.644  28.174  28.174  1.00  0.00    -0.354 N 
ATOM     23  C   UNL A   1      39.865  29.697  29.874  1.00  0.00     0.074 A 
ATOM     24  C   UNL A   1      38.856  28.664  29.843  1.00  0.00     0.031 C 
ATOM     25  C   UNL A   1      44.939  26.581  27.284  1.00  0.00     0.029 A 
ATOM     26  C   UNL A   1      44.942  27.955  27.772  1.00  0.00     0.049 A 
ATOM     27  H   UNL A   1      43.354  28.993  28.637  1.00  0.00     0.167 HD
ATOM     28  C   UNL A   1      39.704  30.920  30.430  1.00  0.00     0.034 A 
ATOM     29  C   UNL A   1      45.988  28.803  27.745  1.00  0.00     0.034 A 
ATOM     30  C   UNL A   1      40.750  31.908  30.429  1.00  0.00     0.049 A 
ATOM     31  C   UNL A   1      45.741  30.205  28.250  1.00  0.00     0.074 A 
ATOM     32  C   UNL A   1      40.713  33.208  30.891  1.00  0.00     0.029 A 
ATOM     33  N   UNL A   1      42.031  31.694  29.928  1.00  0.00    -0.354 N 
ATOM     34  N   UNL A   1      44.649  30.706  28.790  1.00  0.00    -0.248 NA
ATOM     35  C   UNL A   1      46.846  31.160  28.132  1.00  0.00     0.031 C 
ATOM     36  C   UNL A   1      41.945  33.802  30.600  1.00  0.00     0.029 A 
ATOM     37  C   UNL A   1      42.781  32.849  30.036  1.00  0.00     0.049 A 
ATOM     38  H   UNL A   1      42.355  30.843  29.552  1.00  0.00     0.167 HD
ATOM     39  C   UNL A   1      44.948  32.029  29.094  1.00  0.00     0.074 A 
ATOM     40  C   UNL A   1      46.330  32.235  28.706  1.00  0.00     0.031 C 
ATOM     41  C   UNL A   1      44.160  32.996  29.633  1.00  0.00     0.034 A 
BRANCH  28  42
ATOM     42  C   UNL A   1      38.335  31.268  30.950  1.00  0.00     0.023 A 
ATOM     43  C   UNL A   1      37.318  31.772  30.121  1.00  0.00     0.031 A 
ATOM     44  C   UNL A   1      38.069  31.150  32.326  1.00  0.00     0.131 A 
ATOM     45  C   UNL A   1      36.103  32.193  30.686  1.00  0.00     0.055 A 
ATOM     46  C   UNL A   1      36.833  31.501  32.870  1.00  0.00     0.041 A 
ATOM     47  F   UNL A   1      39.017  30.712  33.170  1.00  0.00    -0.206 F 
ATOM     48  C   UNL A   1      35.844  32.036  32.051  1.00  0.00     0.022 A 
BRANCH  45  49
ATOM     49  S   UNL A   1      34.907  33.065  29.637  1.00  0.00     0.124 S 
ATOM     50  O   UNL A   1      34.321  31.963  28.879  1.00  0.00    -0.237 OA
ATOM     51  O   UNL A   1      34.032  33.703  30.614  1.00  0.00    -0.237 OA
ATOM     52  O   UNL A   1      35.738  33.979  28.855  1.00  0.00    -0.744 OA
ENDBRANCH  45  49
ENDBRANCH  28  42
BRANCH  29  53
ATOM     53  C   UNL A   1      47.296  28.414  27.133  1.00  0.00     0.023 A 
ATOM     54  C   UNL A   1      47.421  28.192  25.752  1.00  0.00     0.031 A 
ATOM     55  C   UNL A   1      48.427  28.156  27.935  1.00  0.00     0.131 A 
ATOM     56  C   UNL A   1      48.613  27.664  25.228  1.00  0.00     0.055 A 
ATOM     57  C   UNL A   1      49.634  27.704  27.399  1.00  0.00     0.041 A 
ATOM     58  F   UNL A   1      48.374  28.332  29.265  1.00  0.00    -0.206 F 
ATOM     59  C   UNL A   1      49.725  27.433  26.039  1.00  0.00     0.022 A 
BRANCH  56  60
ATOM     60  S   UNL A   1      48.640  27.138  23.490  1.00  0.00     0.124 S 
ATOM     61  O   UNL A   1      47.887  25.891  23.548  1.00  0.00    -0.237 OA
ATOM     62  O   UNL A   1      47.979  28.257  22.827  1.00  0.00    -0.237 OA
ATOM     63  O   UNL A   1      50.065  26.995  23.201  1.00  0.00    -0.744 OA
ENDBRANCH  56  60
ENDBRANCH  29  53
BRANCH  41  64
ATOM     64  C   UNL A   1      44.808  34.335  29.865  1.00  0.00     0.023 A 
ATOM     65  C   UNL A   1      45.447  34.639  31.078  1.00  0.00     0.031 A 
ATOM     66  C   UNL A   1      44.785  35.313  28.856  1.00  0.00     0.131 A 
ATOM     67  C   UNL A   1      45.987  35.916  31.273  1.00  0.00     0.055 A 
ATOM     68  C   UNL A   1      45.390  36.556  29.031  1.00  0.00     0.041 A 
ATOM     69  F   UNL A   1      44.185  35.068  27.680  1.00  0.00    -0.206 F 
ATOM     70  C   UNL A   1      45.982  36.868  30.251  1.00  0.00     0.022 A 
BRANCH  67  71
ATOM     71  S   UNL A   1      46.606  36.347  32.921  1.00  0.00     0.124 S 
ATOM     72  O   UNL A   1      47.326  37.589  32.657  1.00  0.00    -0.237 OA
ATOM     73  O   UNL A   1      45.375  36.476  33.694  1.00  0.00    -0.237 OA
ATOM     74  O   UNL A   1      47.447  35.207  33.280  1.00  0.00    -0.744 OA
ENDBRANCH  67  71
ENDBRANCH  41  64
ENDBRANCH  15  16
ENDBRANCH   8  10
ENDBRANCH   7   8
ENDBRANCH   6   7
ENDBRANCH   5   6
ENDBRANCH   4   5
ENDBRANCH   3   4
ENDBRANCH   2   3
ENDBRANCH   1   2
BRANCH   1  75
ATOM     75  C   UNL A   1      31.587  27.220  25.826  1.00  0.00     0.188 C 
BRANCH  75  76
ATOM     76  C   UNL A   1      31.872  28.069  24.562  1.00  0.00     0.188 C 
BRANCH  76  77
ATOM     77  O   UNL A   1      33.222  28.029  24.125  1.00  0.00    -0.376 OA
BRANCH  77  78
ATOM     78  C   UNL A   1      33.506  28.748  22.930  1.00  0.00     0.202 C 
BRANCH  78  79
ATOM     79  C   UNL A   1      33.839  27.906  21.686  1.00  0.00     0.261 C 
BRANCH  79  80
ATOM     80  O   UNL A   1      33.960  26.485  21.893  1.00  0.00    -0.460 OA
BRANCH  80  81
ATOM     81  C   UNL A   1      33.095  25.669  21.252  1.00  0.00     0.338 C 
ATOM     82  O   UNL A   1      33.007  25.485  20.052  1.00  0.00    -0.246 OA
BRANCH  81  83
ATOM     83  C   UNL A   1      32.404  24.857  22.283  1.00  0.00     0.062 A 
ATOM     84  C   UNL A   1      31.045  25.089  22.528  1.00  0.00     0.016 A 
ATOM     85  C   UNL A   1      33.067  23.806  22.927  1.00  0.00     0.041 A 
ATOM     86  C   UNL A   1      30.342  24.233  23.372  1.00  0.00     0.003 A 
ATOM     87  C   UNL A   1      32.391  23.006  23.861  1.00  0.00     0.039 A 
ATOM     88  C   UNL A   1      31.015  23.205  24.040  1.00  0.00     0.026 A 
BRANCH  87  89
ATOM     89  N   UNL A   1      33.125  22.046  24.592  1.00  0.00    -0.355 N 
ATOM     90  H   UNL A   1      33.583  22.369  25.401  1.00  0.00     0.167 HD
BRANCH  89  91
ATOM     91  C   UNL A   1      33.276  20.681  24.292  1.00  0.00     0.039 A 
ATOM     92  C   UNL A   1      34.351  19.975  24.851  1.00  0.00     0.033 A 
ATOM     93  C   UNL A   1      32.346  19.994  23.504  1.00  0.00     0.033 A 
ATOM     94  C   UNL A   1      34.506  18.607  24.621  1.00  0.00     0.088 A 
ATOM     95  C   UNL A   1      32.493  18.624  23.257  1.00  0.00     0.088 A 
ATOM     96  C   UNL A   1      33.578  17.936  23.816  1.00  0.00     0.269 A 
BRANCH  96  97
ATOM     97  N   UNL A   1      33.746  16.502  23.557  1.00  0.00     0.062 N 
ATOM     98  O   UNL A   1      34.303  16.166  22.502  1.00  0.00    -0.258 OA
ATOM     99  O   UNL A   1      33.316  15.707  24.405  1.00  0.00    -0.258 OA
ENDBRANCH  96  97
ENDBRANCH  89  91
ENDBRANCH  87  89
ENDBRANCH  81  83
ENDBRANCH  80  81
ENDBRANCH  79  80
ENDBRANCH  78  79
ENDBRANCH  77  78
ENDBRANCH  76  77
ENDBRANCH  75  76
ENDBRANCH   1  75
TORSDOF 26
ENDMDL
