MODEL 1
REMARK VINA RESULT:     -10.5      0.000      0.000
REMARK SMILES Nc1cccc(C(=O)N2CCC[C@H]2C(=O)OCCOCCOCCOCCOC(=O)c2ccc(-c3c4nc(c(-c5cc(S(=O)(=O)[O-])ccc5F)c5ccc([nH]5)c(-c5cc(S(=O)(=O)[O-])ccc5F)c5nc(c(-c6cc(S(=O)(=O)[O-])ccc6F)c6ccc3[nH]6)C=C5)C=C4)cc2)c1
REMARK SMILES IDX 22 1 21 2 20 3 19 4 18 5 17 6 16 7 14 8 15 9 13 10 9 11
REMARK SMILES IDX 10 12 11 13 12 14 7 15 8 16 6 17 2 18 3 19 94 20 4 21 5 22
REMARK SMILES IDX 1 23 23 26 24 27 25 28 26 29 27 30 28 31 29 32 30 33 31 34
REMARK SMILES IDX 32 35 93 36 33 37 92 38 34 39 35 40 36 41 86 42 37 43 91 44
REMARK SMILES IDX 85 45 87 46 38 47 90 48 84 49 83 50 39 52 71 53 51 54 70 55
REMARK SMILES IDX 52 56 55 57 69 58 88 59 53 60 54 61 68 63 89 64 56 65 40 66
REMARK SMILES IDX 41 67 49 68 42 69 48 70 50 71 47 72 43 73 44 74 45 75 46 76
REMARK SMILES IDX 72 77 73 78 81 79 74 80 80 81 82 82 79 83 75 84 76 85 77 86
REMARK SMILES IDX 78 87 57 88 58 89 66 90 59 91 65 92 67 93 64 94 60 95 61 96
REMARK SMILES IDX 62 97 63 98
REMARK H PARENT 1 24 1 25 87 51 55 62
REMARK Flexibility Score: inf
ROOT
ATOM      1  O   UNL A   1      33.360  23.330  26.823  1.00  0.00    -0.377 OA
ENDROOT
BRANCH   1   2
ATOM      2  C   UNL A   1      32.309  24.209  26.508  1.00  0.00     0.188 C 
BRANCH   2   3
ATOM      3  C   UNL A   1      30.997  23.470  26.229  1.00  0.00     0.188 C 
BRANCH   3   4
ATOM      4  O   UNL A   1      30.790  22.782  24.998  1.00  0.00    -0.376 OA
BRANCH   4   5
ATOM      5  C   UNL A   1      31.831  22.682  24.028  1.00  0.00     0.202 C 
BRANCH   5   6
ATOM      6  C   UNL A   1      31.861  23.671  22.840  1.00  0.00     0.261 C 
BRANCH   6   7
ATOM      7  O   UNL A   1      33.035  24.515  22.703  1.00  0.00    -0.462 OA
BRANCH   7   8
ATOM      8  C   UNL A   1      32.970  25.493  21.773  1.00  0.00     0.328 C 
ATOM      9  O   UNL A   1      33.180  25.301  20.573  1.00  0.00    -0.250 OA
BRANCH   8  10
ATOM     10  C   UNL A   1      32.534  26.908  22.270  1.00  0.00     0.195 C 
ATOM     11  N   UNL A   1      31.728  27.282  23.457  1.00  0.00    -0.325 N 
ATOM     12  C   UNL A   1      32.551  27.856  24.487  1.00  0.00     0.121 C 
ATOM     13  C   UNL A   1      33.627  28.571  23.701  1.00  0.00     0.024 C 
ATOM     14  C   UNL A   1      33.865  27.656  22.510  1.00  0.00     0.039 C 
BRANCH  11  15
ATOM     15  C   UNL A   1      30.358  27.179  23.606  1.00  0.00     0.254 C 
ATOM     16  O   UNL A   1      29.849  26.210  24.156  1.00  0.00    -0.269 OA
BRANCH  15  17
ATOM     17  C   UNL A   1      29.450  28.306  23.185  1.00  0.00     0.042 A 
ATOM     18  C   UNL A   1      28.991  30.557  22.354  1.00  0.00     0.032 A 
ATOM     19  C   UNL A   1      27.620  30.335  22.500  1.00  0.00     0.025 A 
ATOM     20  C   UNL A   1      29.891  29.514  22.630  1.00  0.00     0.039 A 
ATOM     21  C   UNL A   1      27.153  29.127  23.009  1.00  0.00     0.003 A 
ATOM     22  C   UNL A   1      28.065  28.132  23.369  1.00  0.00     0.014 A 
BRANCH  18  23
ATOM     23  N   UNL A   1      29.440  31.760  21.820  1.00  0.00    -0.399 N 
ATOM     24  H   UNL A   1      29.780  31.793  20.897  1.00  0.00     0.156 HD
ATOM     25  H   UNL A   1      29.420  32.579  22.366  1.00  0.00     0.156 HD
ENDBRANCH  18  23
ENDBRANCH  15  17
ENDBRANCH  11  15
ENDBRANCH   8  10
ENDBRANCH   7   8
ENDBRANCH   6   7
ENDBRANCH   5   6
ENDBRANCH   4   5
ENDBRANCH   3   4
ENDBRANCH   2   3
ENDBRANCH   1   2
BRANCH   1  26
ATOM     26  C   UNL A   1      34.647  23.629  26.330  1.00  0.00     0.188 C 
BRANCH  26  27
ATOM     27  C   UNL A   1      35.176  22.624  25.305  1.00  0.00     0.188 C 
BRANCH  27  28
ATOM     28  O   UNL A   1      35.240  21.298  25.816  1.00  0.00    -0.376 OA
BRANCH  28  29
ATOM     29  C   UNL A   1      35.793  20.272  25.007  1.00  0.00     0.202 C 
BRANCH  29  30
ATOM     30  C   UNL A   1      37.309  19.983  24.986  1.00  0.00     0.261 C 
BRANCH  30  31
ATOM     31  O   UNL A   1      38.229  21.044  25.283  1.00  0.00    -0.460 OA
BRANCH  31  32
ATOM     32  C   UNL A   1      39.313  20.766  26.031  1.00  0.00     0.338 C 
ATOM     33  O   UNL A   1      39.900  19.694  26.070  1.00  0.00    -0.246 OA
BRANCH  32  34
ATOM     34  C   UNL A   1      39.807  22.026  26.644  1.00  0.00     0.060 A 
ATOM     35  C   UNL A   1      39.277  23.241  26.193  1.00  0.00     0.016 A 
ATOM     36  C   UNL A   1      40.795  22.025  27.634  1.00  0.00     0.016 A 
ATOM     37  C   UNL A   1      39.760  24.454  26.687  1.00  0.00     0.010 A 
ATOM     38  C   UNL A   1      41.302  23.246  28.110  1.00  0.00     0.010 A 
ATOM     39  C   UNL A   1      40.815  24.468  27.608  1.00  0.00    -0.014 A 
BRANCH  39  40
ATOM     40  C   UNL A   1      41.533  25.746  27.867  1.00  0.00     0.031 A 
ATOM     41  C   UNL A   1      40.791  26.857  28.564  1.00  0.00     0.074 A 
ATOM     42  C   UNL A   1      42.831  25.907  27.549  1.00  0.00     0.049 A 
ATOM     43  N   UNL A   1      41.195  28.058  28.889  1.00  0.00    -0.248 NA
ATOM     44  C   UNL A   1      39.400  26.566  28.942  1.00  0.00     0.031 C 
ATOM     45  C   UNL A   1      43.675  24.896  26.919  1.00  0.00     0.029 A 
ATOM     46  N   UNL A   1      43.663  26.990  27.710  1.00  0.00    -0.354 N 
ATOM     47  C   UNL A   1      40.104  28.673  29.496  1.00  0.00     0.074 A 
ATOM     48  C   UNL A   1      39.014  27.720  29.459  1.00  0.00     0.031 C 
ATOM     49  C   UNL A   1      44.903  25.412  26.730  1.00  0.00     0.029 A 
ATOM     50  C   UNL A   1      44.921  26.801  27.187  1.00  0.00     0.049 A 
ATOM     51  H   UNL A   1      43.384  27.822  28.157  1.00  0.00     0.167 HD
ATOM     52  C   UNL A   1      40.019  29.914  30.038  1.00  0.00     0.034 A 
ATOM     53  C   UNL A   1      45.956  27.659  27.061  1.00  0.00     0.034 A 
ATOM     54  C   UNL A   1      41.113  30.856  30.056  1.00  0.00     0.049 A 
ATOM     55  C   UNL A   1      45.820  29.067  27.592  1.00  0.00     0.074 A 
ATOM     56  C   UNL A   1      41.148  32.124  30.610  1.00  0.00     0.029 A 
ATOM     57  N   UNL A   1      42.357  30.648  29.472  1.00  0.00    -0.354 N 
ATOM     58  N   UNL A   1      44.793  29.630  28.187  1.00  0.00    -0.248 NA
ATOM     59  C   UNL A   1      46.983  29.950  27.443  1.00  0.00     0.031 C 
ATOM     60  C   UNL A   1      42.369  32.716  30.276  1.00  0.00     0.029 A 
ATOM     61  C   UNL A   1      43.145  31.783  29.605  1.00  0.00     0.049 A 
ATOM     62  H   UNL A   1      42.638  29.815  29.028  1.00  0.00     0.167 HD
ATOM     63  C   UNL A   1      45.198  30.926  28.506  1.00  0.00     0.074 A 
ATOM     64  C   UNL A   1      46.567  31.052  28.049  1.00  0.00     0.031 C 
ATOM     65  C   UNL A   1      44.504  31.914  29.128  1.00  0.00     0.034 A 
BRANCH  52  66
ATOM     66  C   UNL A   1      38.675  30.343  30.583  1.00  0.00     0.023 A 
ATOM     67  C   UNL A   1      37.745  31.059  29.809  1.00  0.00     0.031 A 
ATOM     68  C   UNL A   1      38.343  30.076  31.925  1.00  0.00     0.131 A 
ATOM     69  C   UNL A   1      36.576  31.561  30.403  1.00  0.00     0.055 A 
ATOM     70  C   UNL A   1      37.134  30.496  32.484  1.00  0.00     0.041 A 
ATOM     71  F   UNL A   1      39.198  29.420  32.724  1.00  0.00    -0.206 F 
ATOM     72  C   UNL A   1      36.252  31.260  31.728  1.00  0.00     0.022 A 
BRANCH  69  73
ATOM     73  S   UNL A   1      35.580  32.762  29.478  1.00  0.00     0.124 S 
ATOM     74  O   UNL A   1      34.303  32.696  30.186  1.00  0.00    -0.237 OA
ATOM     75  O   UNL A   1      36.340  33.995  29.642  1.00  0.00    -0.237 OA
ATOM     76  O   UNL A   1      35.559  32.216  28.121  1.00  0.00    -0.744 OA
ENDBRANCH  69  73
ENDBRANCH  52  66
BRANCH  53  77
ATOM     77  C   UNL A   1      47.193  27.232  26.340  1.00  0.00     0.023 A 
ATOM     78  C   UNL A   1      48.205  26.496  26.974  1.00  0.00     0.031 A 
ATOM     79  C   UNL A   1      47.388  27.593  24.992  1.00  0.00     0.131 A 
ATOM     80  C   UNL A   1      49.378  26.168  26.272  1.00  0.00     0.055 A 
ATOM     81  C   UNL A   1      48.529  27.218  24.283  1.00  0.00     0.041 A 
ATOM     82  F   UNL A   1      46.457  28.308  24.340  1.00  0.00    -0.206 F 
ATOM     83  C   UNL A   1      49.537  26.508  24.926  1.00  0.00     0.022 A 
BRANCH  80  84
ATOM     84  S   UNL A   1      50.731  25.349  27.160  1.00  0.00     0.124 S 
ATOM     85  O   UNL A   1      50.030  24.263  27.834  1.00  0.00    -0.237 OA
ATOM     86  O   UNL A   1      51.621  24.962  26.070  1.00  0.00    -0.237 OA
ATOM     87  O   UNL A   1      51.247  26.400  28.037  1.00  0.00    -0.744 OA
ENDBRANCH  80  84
ENDBRANCH  53  77
BRANCH  65  88
ATOM     88  C   UNL A   1      45.230  33.216  29.391  1.00  0.00     0.023 A 
ATOM     89  C   UNL A   1      45.178  34.297  28.492  1.00  0.00     0.031 A 
ATOM     90  C   UNL A   1      45.987  33.377  30.567  1.00  0.00     0.131 A 
ATOM     91  C   UNL A   1      45.916  35.463  28.754  1.00  0.00     0.055 A 
ATOM     92  C   UNL A   1      46.660  34.565  30.856  1.00  0.00     0.041 A 
ATOM     93  F   UNL A   1      46.081  32.379  31.461  1.00  0.00    -0.206 F 
ATOM     94  C   UNL A   1      46.638  35.612  29.941  1.00  0.00     0.022 A 
BRANCH  91  95
ATOM     95  S   UNL A   1      46.006  36.746  27.474  1.00  0.00     0.124 S 
ATOM     96  O   UNL A   1      44.618  36.832  27.035  1.00  0.00    -0.237 OA
ATOM     97  O   UNL A   1      46.514  37.895  28.217  1.00  0.00    -0.237 OA
ATOM     98  O   UNL A   1      46.933  36.186  26.493  1.00  0.00    -0.744 OA
ENDBRANCH  91  95
ENDBRANCH  65  88
ENDBRANCH  39  40
ENDBRANCH  32  34
ENDBRANCH  31  32
ENDBRANCH  30  31
ENDBRANCH  29  30
ENDBRANCH  28  29
ENDBRANCH  27  28
ENDBRANCH  26  27
ENDBRANCH   1  26
TORSDOF 26
ENDMDL
MODEL 2
REMARK VINA RESULT:     -10.5      1.541      7.470
REMARK SMILES Nc1cccc(C(=O)N2CCC[C@H]2C(=O)OCCOCCOCCOCCOC(=O)c2ccc(-c3c4nc(c(-c5cc(S(=O)(=O)[O-])ccc5F)c5ccc([nH]5)c(-c5cc(S(=O)(=O)[O-])ccc5F)c5nc(c(-c6cc(S(=O)(=O)[O-])ccc6F)c6ccc3[nH]6)C=C5)C=C4)cc2)c1
REMARK SMILES IDX 22 1 21 2 20 3 19 4 18 5 17 6 16 7 14 8 15 9 13 10 9 11
REMARK SMILES IDX 10 12 11 13 12 14 7 15 8 16 6 17 2 18 3 19 94 20 4 21 5 22
REMARK SMILES IDX 1 23 23 26 24 27 25 28 26 29 27 30 28 31 29 32 30 33 31 34
REMARK SMILES IDX 32 35 93 36 33 37 92 38 34 39 35 40 36 41 86 42 37 43 91 44
REMARK SMILES IDX 85 45 87 46 38 47 90 48 84 49 83 50 39 52 71 53 51 54 70 55
REMARK SMILES IDX 52 56 55 57 69 58 88 59 53 60 54 61 68 63 89 64 56 65 40 66
REMARK SMILES IDX 41 67 49 68 42 69 48 70 50 71 47 72 43 73 44 74 45 75 46 76
REMARK SMILES IDX 72 77 73 78 81 79 74 80 80 81 82 82 79 83 75 84 76 85 77 86
REMARK SMILES IDX 78 87 57 88 58 89 66 90 59 91 65 92 67 93 64 94 60 95 61 96
REMARK SMILES IDX 62 97 63 98
REMARK H PARENT 1 24 1 25 87 51 55 62
REMARK Flexibility Score: inf
ROOT
ATOM      1  O   UNL A   1      32.680  22.160  26.684  1.00  0.00    -0.377 OA
ENDROOT
BRANCH   1   2
ATOM      2  C   UNL A   1      31.866  23.301  26.786  1.00  0.00     0.188 C 
BRANCH   2   3
ATOM      3  C   UNL A   1      32.428  24.488  26.000  1.00  0.00     0.188 C 
BRANCH   3   4
ATOM      4  O   UNL A   1      33.818  24.805  26.044  1.00  0.00    -0.376 OA
BRANCH   4   5
ATOM      5  C   UNL A   1      34.646  24.637  24.895  1.00  0.00     0.202 C 
BRANCH   5   6
ATOM      6  C   UNL A   1      33.994  24.387  23.516  1.00  0.00     0.261 C 
BRANCH   6   7
ATOM      7  O   UNL A   1      34.348  25.292  22.437  1.00  0.00    -0.462 OA
BRANCH   7   8
ATOM      8  C   UNL A   1      33.322  25.854  21.760  1.00  0.00     0.328 C 
ATOM      9  O   UNL A   1      32.817  25.348  20.755  1.00  0.00    -0.250 OA
BRANCH   8  10
ATOM     10  C   UNL A   1      32.727  27.172  22.351  1.00  0.00     0.195 C 
ATOM     11  N   UNL A   1      31.772  27.355  23.468  1.00  0.00    -0.325 N 
ATOM     12  C   UNL A   1      32.432  27.860  24.643  1.00  0.00     0.121 C 
ATOM     13  C   UNL A   1      33.528  28.728  24.067  1.00  0.00     0.024 C 
ATOM     14  C   UNL A   1      33.963  27.972  22.820  1.00  0.00     0.039 C 
BRANCH  11  15
ATOM     15  C   UNL A   1      30.406  27.147  23.447  1.00  0.00     0.254 C 
ATOM     16  O   UNL A   1      29.921  26.068  23.763  1.00  0.00    -0.269 OA
BRANCH  15  17
ATOM     17  C   UNL A   1      29.459  28.277  23.126  1.00  0.00     0.042 A 
ATOM     18  C   UNL A   1      28.924  30.561  22.447  1.00  0.00     0.032 A 
ATOM     19  C   UNL A   1      27.564  30.300  22.631  1.00  0.00     0.025 A 
ATOM     20  C   UNL A   1      29.855  29.524  22.628  1.00  0.00     0.039 A 
ATOM     21  C   UNL A   1      27.142  29.055  23.085  1.00  0.00     0.003 A 
ATOM     22  C   UNL A   1      28.087  28.061  23.351  1.00  0.00     0.014 A 
BRANCH  18  23
ATOM     23  N   UNL A   1      29.328  31.802  21.968  1.00  0.00    -0.399 N 
ATOM     24  H   UNL A   1      28.952  32.153  21.129  1.00  0.00     0.156 HD
ATOM     25  H   UNL A   1      29.991  32.331  22.469  1.00  0.00     0.156 HD
ENDBRANCH  18  23
ENDBRANCH  15  17
ENDBRANCH  11  15
ENDBRANCH   8  10
ENDBRANCH   7   8
ENDBRANCH   6   7
ENDBRANCH   5   6
ENDBRANCH   4   5
ENDBRANCH   3   4
ENDBRANCH   2   3
ENDBRANCH   1   2
BRANCH   1  26
ATOM     26  C   UNL A   1      33.794  22.060  27.544  1.00  0.00     0.188 C 
BRANCH  26  27
ATOM     27  C   UNL A   1      35.130  21.873  26.821  1.00  0.00     0.188 C 
BRANCH  27  28
ATOM     28  O   UNL A   1      35.079  20.862  25.822  1.00  0.00    -0.376 OA
BRANCH  28  29
ATOM     29  C   UNL A   1      36.042  20.873  24.780  1.00  0.00     0.202 C 
BRANCH  29  30
ATOM     30  C   UNL A   1      37.504  20.439  25.019  1.00  0.00     0.261 C 
BRANCH  30  31
ATOM     31  O   UNL A   1      38.508  21.444  25.224  1.00  0.00    -0.460 OA
BRANCH  31  32
ATOM     32  C   UNL A   1      39.524  21.176  26.065  1.00  0.00     0.338 C 
ATOM     33  O   UNL A   1      40.140  20.121  26.131  1.00  0.00    -0.246 OA
BRANCH  32  34
ATOM     34  C   UNL A   1      39.916  22.431  26.758  1.00  0.00     0.060 A 
ATOM     35  C   UNL A   1      39.133  23.575  26.560  1.00  0.00     0.016 A 
ATOM     36  C   UNL A   1      41.049  22.499  27.575  1.00  0.00     0.016 A 
ATOM     37  C   UNL A   1      39.501  24.795  27.132  1.00  0.00     0.010 A 
ATOM     38  C   UNL A   1      41.435  23.731  28.126  1.00  0.00     0.010 A 
ATOM     39  C   UNL A   1      40.684  24.896  27.873  1.00  0.00    -0.014 A 
BRANCH  39  40
ATOM     40  C   UNL A   1      41.229  26.245  28.186  1.00  0.00     0.031 A 
ATOM     41  C   UNL A   1      42.621  26.583  27.718  1.00  0.00     0.074 A 
ATOM     42  C   UNL A   1      40.493  27.179  28.817  1.00  0.00     0.049 A 
ATOM     43  N   UNL A   1      43.314  27.680  27.877  1.00  0.00    -0.248 NA
ATOM     44  C   UNL A   1      43.324  25.529  26.971  1.00  0.00     0.031 C 
ATOM     45  C   UNL A   1      39.118  26.998  29.276  1.00  0.00     0.029 A 
ATOM     46  N   UNL A   1      40.806  28.466  29.186  1.00  0.00    -0.354 N 
ATOM     47  C   UNL A   1      44.541  27.446  27.262  1.00  0.00     0.074 A 
ATOM     48  C   UNL A   1      44.504  26.088  26.762  1.00  0.00     0.031 C 
ATOM     49  C   UNL A   1      38.711  28.127  29.882  1.00  0.00     0.029 A 
ATOM     50  C   UNL A   1      39.807  29.096  29.890  1.00  0.00     0.049 A 
ATOM     51  H   UNL A   1      41.664  28.895  28.967  1.00  0.00     0.167 HD
ATOM     52  C   UNL A   1      45.598  28.286  27.124  1.00  0.00     0.034 A 
ATOM     53  C   UNL A   1      39.789  30.300  30.501  1.00  0.00     0.034 A 
ATOM     54  C   UNL A   1      45.622  29.634  27.640  1.00  0.00     0.049 A 
ATOM     55  C   UNL A   1      41.005  31.192  30.413  1.00  0.00     0.074 A 
ATOM     56  C   UNL A   1      46.625  30.582  27.525  1.00  0.00     0.029 A 
ATOM     57  N   UNL A   1      44.611  30.220  28.392  1.00  0.00    -0.354 N 
ATOM     58  N   UNL A   1      42.151  30.972  29.808  1.00  0.00    -0.248 NA
ATOM     59  C   UNL A   1      40.923  32.498  31.080  1.00  0.00     0.031 C 
ATOM     60  C   UNL A   1      46.264  31.697  28.287  1.00  0.00     0.029 A 
ATOM     61  C   UNL A   1      44.989  31.494  28.793  1.00  0.00     0.049 A 
ATOM     62  H   UNL A   1      43.751  29.794  28.609  1.00  0.00     0.167 HD
ATOM     63  C   UNL A   1      42.914  32.122  30.002  1.00  0.00     0.074 A 
ATOM     64  C   UNL A   1      42.093  33.037  30.766  1.00  0.00     0.031 C 
ATOM     65  C   UNL A   1      44.175  32.397  29.576  1.00  0.00     0.034 A 
BRANCH  52  66
ATOM     66  C   UNL A   1      46.838  27.737  26.454  1.00  0.00     0.023 A 
ATOM     67  C   UNL A   1      47.169  28.045  25.123  1.00  0.00     0.031 A 
ATOM     68  C   UNL A   1      47.675  26.843  27.147  1.00  0.00     0.131 A 
ATOM     69  C   UNL A   1      48.248  27.396  24.500  1.00  0.00     0.055 A 
ATOM     70  C   UNL A   1      48.802  26.274  26.551  1.00  0.00     0.041 A 
ATOM     71  F   UNL A   1      47.399  26.488  28.412  1.00  0.00    -0.206 F 
ATOM     72  C   UNL A   1      49.083  26.534  25.214  1.00  0.00     0.022 A 
BRANCH  69  73
ATOM     73  S   UNL A   1      48.432  27.551  22.702  1.00  0.00     0.124 S 
ATOM     74  O   UNL A   1      49.711  28.252  22.596  1.00  0.00    -0.237 OA
ATOM     75  O   UNL A   1      48.425  26.162  22.263  1.00  0.00    -0.237 OA
ATOM     76  O   UNL A   1      47.266  28.339  22.305  1.00  0.00    -0.744 OA
ENDBRANCH  69  73
ENDBRANCH  52  66
BRANCH  53  77
ATOM     77  C   UNL A   1      38.602  30.707  31.311  1.00  0.00     0.023 A 
ATOM     78  C   UNL A   1      37.524  31.408  30.748  1.00  0.00     0.031 A 
ATOM     79  C   UNL A   1      38.552  30.419  32.689  1.00  0.00     0.131 A 
ATOM     80  C   UNL A   1      36.456  31.822  31.562  1.00  0.00     0.055 A 
ATOM     81  C   UNL A   1      37.464  30.784  33.482  1.00  0.00     0.041 A 
ATOM     82  F   UNL A   1      39.561  29.762  33.282  1.00  0.00    -0.206 F 
ATOM     83  C   UNL A   1      36.411  31.498  32.921  1.00  0.00     0.022 A 
BRANCH  80  84
ATOM     84  S   UNL A   1      35.152  32.855  30.839  1.00  0.00     0.124 S 
ATOM     85  O   UNL A   1      34.155  32.863  31.901  1.00  0.00    -0.237 OA
ATOM     86  O   UNL A   1      35.855  34.114  30.607  1.00  0.00    -0.237 OA
ATOM     87  O   UNL A   1      34.773  32.126  29.629  1.00  0.00    -0.744 OA
ENDBRANCH  80  84
ENDBRANCH  53  77
BRANCH  65  88
ATOM     88  C   UNL A   1      44.733  33.768  29.894  1.00  0.00     0.023 A 
ATOM     89  C   UNL A   1      44.668  34.833  28.977  1.00  0.00     0.031 A 
ATOM     90  C   UNL A   1      45.343  34.011  31.140  1.00  0.00     0.131 A 
ATOM     91  C   UNL A   1      45.252  36.070  29.297  1.00  0.00     0.055 A 
ATOM     92  C   UNL A   1      45.857  35.264  31.479  1.00  0.00     0.041 A 
ATOM     93  F   UNL A   1      45.442  33.033  32.054  1.00  0.00    -0.206 F 
ATOM     94  C   UNL A   1      45.826  36.298  30.549  1.00  0.00     0.022 A 
BRANCH  91  95
ATOM     95  S   UNL A   1      45.346  37.349  28.013  1.00  0.00     0.124 S 
ATOM     96  O   UNL A   1      43.964  37.415  27.550  1.00  0.00    -0.237 OA
ATOM     97  O   UNL A   1      45.826  38.508  28.759  1.00  0.00    -0.237 OA
ATOM     98  O   UNL A   1      46.296  36.798  27.049  1.00  0.00    -0.744 OA
ENDBRANCH  91  95
ENDBRANCH  65  88
ENDBRANCH  39  40
ENDBRANCH  32  34
ENDBRANCH  31  32
ENDBRANCH  30  31
ENDBRANCH  29  30
ENDBRANCH  28  29
ENDBRANCH  27  28
ENDBRANCH  26  27
ENDBRANCH   1  26
TORSDOF 26
ENDMDL
MODEL 3
REMARK VINA RESULT:     -10.3      1.655      2.115
REMARK SMILES Nc1cccc(C(=O)N2CCC[C@H]2C(=O)OCCOCCOCCOCCOC(=O)c2ccc(-c3c4nc(c(-c5cc(S(=O)(=O)[O-])ccc5F)c5ccc([nH]5)c(-c5cc(S(=O)(=O)[O-])ccc5F)c5nc(c(-c6cc(S(=O)(=O)[O-])ccc6F)c6ccc3[nH]6)C=C5)C=C4)cc2)c1
REMARK SMILES IDX 22 1 21 2 20 3 19 4 18 5 17 6 16 7 14 8 15 9 13 10 9 11
REMARK SMILES IDX 10 12 11 13 12 14 7 15 8 16 6 17 2 18 3 19 94 20 4 21 5 22
REMARK SMILES IDX 1 23 23 26 24 27 25 28 26 29 27 30 28 31 29 32 30 33 31 34
REMARK SMILES IDX 32 35 93 36 33 37 92 38 34 39 35 40 36 41 86 42 37 43 91 44
REMARK SMILES IDX 85 45 87 46 38 47 90 48 84 49 83 50 39 52 71 53 51 54 70 55
REMARK SMILES IDX 52 56 55 57 69 58 88 59 53 60 54 61 68 63 89 64 56 65 40 66
REMARK SMILES IDX 41 67 49 68 42 69 48 70 50 71 47 72 43 73 44 74 45 75 46 76
REMARK SMILES IDX 72 77 73 78 81 79 74 80 80 81 82 82 79 83 75 84 76 85 77 86
REMARK SMILES IDX 78 87 57 88 58 89 66 90 59 91 65 92 67 93 64 94 60 95 61 96
REMARK SMILES IDX 62 97 63 98
REMARK H PARENT 1 24 1 25 87 51 55 62
REMARK Flexibility Score: inf
ROOT
ATOM      1  O   UNL A   1      32.119  23.312  25.863  1.00  0.00    -0.377 OA
ENDROOT
BRANCH   1   2
ATOM      2  C   UNL A   1      31.418  24.241  26.652  1.00  0.00     0.188 C 
BRANCH   2   3
ATOM      3  C   UNL A   1      32.083  25.620  26.655  1.00  0.00     0.188 C 
BRANCH   3   4
ATOM      4  O   UNL A   1      31.389  26.769  27.133  1.00  0.00    -0.376 OA
BRANCH   4   5
ATOM      5  C   UNL A   1      31.843  28.084  26.822  1.00  0.00     0.202 C 
BRANCH   5   6
ATOM      6  C   UNL A   1      33.163  28.268  26.037  1.00  0.00     0.261 C 
BRANCH   6   7
ATOM      7  O   UNL A   1      33.112  29.063  24.823  1.00  0.00    -0.462 OA
BRANCH   7   8
ATOM      8  C   UNL A   1      33.444  28.432  23.675  1.00  0.00     0.328 C 
ATOM      9  O   UNL A   1      34.306  28.849  22.899  1.00  0.00    -0.250 OA
BRANCH   8  10
ATOM     10  C   UNL A   1      32.729  27.074  23.387  1.00  0.00     0.195 C 
ATOM     11  N   UNL A   1      31.382  26.820  22.824  1.00  0.00    -0.325 N 
ATOM     12  C   UNL A   1      31.462  26.354  21.466  1.00  0.00     0.121 C 
ATOM     13  C   UNL A   1      32.753  25.565  21.455  1.00  0.00     0.024 C 
ATOM     14  C   UNL A   1      33.661  26.356  22.385  1.00  0.00     0.039 C 
BRANCH  11  15
ATOM     15  C   UNL A   1      30.167  26.935  23.472  1.00  0.00     0.254 C 
ATOM     16  O   UNL A   1      29.760  26.056  24.223  1.00  0.00    -0.269 OA
BRANCH  15  17
ATOM     17  C   UNL A   1      29.344  28.193  23.353  1.00  0.00     0.042 A 
ATOM     18  C   UNL A   1      29.019  30.613  23.423  1.00  0.00     0.032 A 
ATOM     19  C   UNL A   1      27.658  30.440  23.161  1.00  0.00     0.025 A 
ATOM     20  C   UNL A   1      29.863  29.490  23.445  1.00  0.00     0.039 A 
ATOM     21  C   UNL A   1      27.124  29.163  23.022  1.00  0.00     0.003 A 
ATOM     22  C   UNL A   1      27.960  28.050  23.140  1.00  0.00     0.014 A 
BRANCH  18  23
ATOM     23  N   UNL A   1      29.541  31.897  23.534  1.00  0.00    -0.399 N 
ATOM     24  H   UNL A   1      29.033  32.596  24.004  1.00  0.00     0.156 HD
ATOM     25  H   UNL A   1      30.418  32.107  23.140  1.00  0.00     0.156 HD
ENDBRANCH  18  23
ENDBRANCH  15  17
ENDBRANCH  11  15
ENDBRANCH   8  10
ENDBRANCH   7   8
ENDBRANCH   6   7
ENDBRANCH   5   6
ENDBRANCH   4   5
ENDBRANCH   3   4
ENDBRANCH   2   3
ENDBRANCH   1   2
BRANCH   1  26
ATOM     26  C   UNL A   1      32.638  22.163  26.495  1.00  0.00     0.188 C 
BRANCH  26  27
ATOM     27  C   UNL A   1      34.140  21.956  26.288  1.00  0.00     0.188 C 
BRANCH  27  28
ATOM     28  O   UNL A   1      34.429  20.979  25.295  1.00  0.00    -0.376 OA
BRANCH  28  29
ATOM     29  C   UNL A   1      35.688  21.013  24.640  1.00  0.00     0.202 C 
BRANCH  29  30
ATOM     30  C   UNL A   1      36.999  20.671  25.379  1.00  0.00     0.261 C 
BRANCH  30  31
ATOM     31  O   UNL A   1      38.111  21.574  25.286  1.00  0.00    -0.460 OA
BRANCH  31  32
ATOM     32  C   UNL A   1      39.214  21.312  26.011  1.00  0.00     0.338 C 
ATOM     33  O   UNL A   1      39.840  20.261  26.009  1.00  0.00    -0.246 OA
BRANCH  32  34
ATOM     34  C   UNL A   1      39.671  22.570  26.658  1.00  0.00     0.060 A 
ATOM     35  C   UNL A   1      39.168  23.786  26.180  1.00  0.00     0.016 A 
ATOM     36  C   UNL A   1      40.597  22.565  27.705  1.00  0.00     0.016 A 
ATOM     37  C   UNL A   1      39.621  24.997  26.707  1.00  0.00     0.010 A 
ATOM     38  C   UNL A   1      41.074  23.783  28.216  1.00  0.00     0.010 A 
ATOM     39  C   UNL A   1      40.618  25.008  27.690  1.00  0.00    -0.014 A 
BRANCH  39  40
ATOM     40  C   UNL A   1      41.320  26.285  27.996  1.00  0.00     0.031 A 
ATOM     41  C   UNL A   1      40.551  27.374  28.697  1.00  0.00     0.074 A 
ATOM     42  C   UNL A   1      42.624  26.462  27.717  1.00  0.00     0.049 A 
ATOM     43  N   UNL A   1      40.937  28.571  29.059  1.00  0.00    -0.248 NA
ATOM     44  C   UNL A   1      39.153  27.066  29.031  1.00  0.00     0.031 C 
ATOM     45  C   UNL A   1      43.493  25.471  27.087  1.00  0.00     0.029 A 
ATOM     46  N   UNL A   1      43.444  27.547  27.924  1.00  0.00    -0.354 N 
ATOM     47  C   UNL A   1      39.825  29.165  29.651  1.00  0.00     0.074 A 
ATOM     48  C   UNL A   1      38.744  28.206  29.563  1.00  0.00     0.031 C 
ATOM     49  C   UNL A   1      44.722  26.000  26.943  1.00  0.00     0.029 A 
ATOM     50  C   UNL A   1      44.717  27.378  27.432  1.00  0.00     0.049 A 
ATOM     51  H   UNL A   1      43.147  28.366  28.382  1.00  0.00     0.167 HD
ATOM     52  C   UNL A   1      39.717  30.392  30.217  1.00  0.00     0.034 A 
ATOM     53  C   UNL A   1      45.749  28.246  27.352  1.00  0.00     0.034 A 
ATOM     54  C   UNL A   1      40.802  31.342  30.285  1.00  0.00     0.049 A 
ATOM     55  C   UNL A   1      45.588  29.640  27.911  1.00  0.00     0.074 A 
ATOM     56  C   UNL A   1      40.813  32.598  30.868  1.00  0.00     0.029 A 
ATOM     57  N   UNL A   1      42.063  31.155  29.731  1.00  0.00    -0.354 N 
ATOM     58  N   UNL A   1      44.541  30.183  28.490  1.00  0.00    -0.248 NA
ATOM     59  C   UNL A   1      46.748  30.535  27.813  1.00  0.00     0.031 C 
ATOM     60  C   UNL A   1      42.039  33.205  30.581  1.00  0.00     0.029 A 
ATOM     61  C   UNL A   1      42.839  32.292  29.910  1.00  0.00     0.049 A 
ATOM     62  H   UNL A   1      42.363  30.335  29.276  1.00  0.00     0.167 HD
ATOM     63  C   UNL A   1      44.927  31.474  28.848  1.00  0.00     0.074 A 
ATOM     64  C   UNL A   1      46.307  31.621  28.432  1.00  0.00     0.031 C 
ATOM     65  C   UNL A   1      44.209  32.444  29.473  1.00  0.00     0.034 A 
BRANCH  52  66
ATOM     66  C   UNL A   1      38.355  30.800  30.735  1.00  0.00     0.023 A 
ATOM     67  C   UNL A   1      37.401  31.433  29.919  1.00  0.00     0.031 A 
ATOM     68  C   UNL A   1      38.029  30.599  32.089  1.00  0.00     0.131 A 
ATOM     69  C   UNL A   1      36.211  31.923  30.483  1.00  0.00     0.055 A 
ATOM     70  C   UNL A   1      36.803  31.003  32.622  1.00  0.00     0.041 A 
ATOM     71  F   UNL A   1      38.907  30.024  32.926  1.00  0.00    -0.206 F 
ATOM     72  C   UNL A   1      35.894  31.687  31.822  1.00  0.00     0.022 A 
BRANCH  69  73
ATOM     73  S   UNL A   1      35.173  33.029  29.488  1.00  0.00     0.124 S 
ATOM     74  O   UNL A   1      34.037  33.251  30.381  1.00  0.00    -0.237 OA
ATOM     75  O   UNL A   1      36.049  34.173  29.270  1.00  0.00    -0.237 OA
ATOM     76  O   UNL A   1      34.871  32.236  28.297  1.00  0.00    -0.744 OA
ENDBRANCH  69  73
ENDBRANCH  52  66
BRANCH  53  77
ATOM     77  C   UNL A   1      47.007  27.843  26.656  1.00  0.00     0.023 A 
ATOM     78  C   UNL A   1      47.148  27.940  25.262  1.00  0.00     0.031 A 
ATOM     79  C   UNL A   1      48.087  27.317  27.391  1.00  0.00     0.131 A 
ATOM     80  C   UNL A   1      48.329  27.493  24.646  1.00  0.00     0.055 A 
ATOM     81  C   UNL A   1      49.278  26.925  26.780  1.00  0.00     0.041 A 
ATOM     82  F   UNL A   1      48.001  27.190  28.724  1.00  0.00    -0.206 F 
ATOM     83  C   UNL A   1      49.401  27.004  25.397  1.00  0.00     0.022 A 
BRANCH  80  84
ATOM     84  S   UNL A   1      48.424  27.490  22.834  1.00  0.00     0.124 S 
ATOM     85  O   UNL A   1      48.344  26.066  22.533  1.00  0.00    -0.237 OA
ATOM     86  O   UNL A   1      47.260  28.291  22.467  1.00  0.00    -0.237 OA
ATOM     87  O   UNL A   1      49.717  28.116  22.560  1.00  0.00    -0.744 OA
ENDBRANCH  80  84
ENDBRANCH  53  77
BRANCH  65  88
ATOM     88  C   UNL A   1      44.918  33.744  29.785  1.00  0.00     0.023 A 
ATOM     89  C   UNL A   1      44.893  34.840  28.902  1.00  0.00     0.031 A 
ATOM     90  C   UNL A   1      45.631  33.888  30.990  1.00  0.00     0.131 A 
ATOM     91  C   UNL A   1      45.614  36.005  29.211  1.00  0.00     0.055 A 
ATOM     92  C   UNL A   1      46.286  35.075  31.324  1.00  0.00     0.041 A 
ATOM     93  F   UNL A   1      45.697  32.876  31.870  1.00  0.00    -0.206 F 
ATOM     94  C   UNL A   1      46.292  36.137  30.426  1.00  0.00     0.022 A 
BRANCH  91  95
ATOM     95  S   UNL A   1      45.744  37.310  27.957  1.00  0.00     0.124 S 
ATOM     96  O   UNL A   1      44.793  36.856  26.949  1.00  0.00    -0.237 OA
ATOM     97  O   UNL A   1      45.361  38.503  28.705  1.00  0.00    -0.237 OA
ATOM     98  O   UNL A   1      47.148  37.258  27.553  1.00  0.00    -0.744 OA
ENDBRANCH  91  95
ENDBRANCH  65  88
ENDBRANCH  39  40
ENDBRANCH  32  34
ENDBRANCH  31  32
ENDBRANCH  30  31
ENDBRANCH  29  30
ENDBRANCH  28  29
ENDBRANCH  27  28
ENDBRANCH  26  27
ENDBRANCH   1  26
TORSDOF 26
ENDMDL
