MODEL 1
REMARK VINA RESULT:      -9.1      0.000      0.000
REMARK SMILES NS(=O)(=O)c1ccc(NS(=O)(=O)c2cccc(C(=O)OCCOCCOCCOCCOC(=O)c3ccc(-c4c5nc(c(-c6cc(S(=O)(=O)[O-])ccc6F)c6ccc([nH]6)c(-c6cc(S(=O)(=O)[O-])ccc6F)c6nc(c(-c7cc(S(=O)(=O)[O-])ccc7F)c7ccc4[nH]7)C=C6)C=C5)cc3)c2)cc1
REMARK SMILES IDX 25 1 24 2 23 3 22 4 21 5 20 6 18 7 19 8 17 9 13 10 14 11
REMARK SMILES IDX 98 12 15 13 16 14 10 15 11 16 12 17 9 18 8 20 5 21 6 22
REMARK SMILES IDX 100 23 7 24 99 25 2 26 3 27 4 28 1 29 26 32 27 33 28 34
REMARK SMILES IDX 29 35 30 36 31 37 32 38 33 39 34 40 35 41 36 42 97 43 37 44
REMARK SMILES IDX 96 45 38 46 39 47 40 48 90 49 41 50 95 51 89 52 91 53 42 54
REMARK SMILES IDX 94 55 88 56 87 57 43 59 75 60 55 61 74 62 56 63 59 64 73 65
REMARK SMILES IDX 92 66 57 67 58 68 72 70 93 71 60 72 44 73 45 74 53 75 46 76
REMARK SMILES IDX 52 77 54 78 51 79 47 80 48 81 49 82 50 83 76 84 77 85 85 86
REMARK SMILES IDX 78 87 84 88 86 89 83 90 79 91 80 92 81 93 82 94 61 95 62 96
REMARK SMILES IDX 70 97 63 98 69 99 71 100 68 101 64 102 65 103 66 104 67 105
REMARK H PARENT 9 19 1 30 1 31 91 58 59 69
REMARK Flexibility Score: inf
ROOT
ATOM      1  C   UNL A   1      32.991  35.697  29.552  1.00  0.00     0.188 C 
ENDROOT
BRANCH   1   2
ATOM      2  C   UNL A   1      33.955  35.469  28.377  1.00  0.00     0.188 C 
BRANCH   2   3
ATOM      3  O   UNL A   1      33.790  34.226  27.705  1.00  0.00    -0.376 OA
BRANCH   3   4
ATOM      4  C   UNL A   1      32.539  33.573  27.881  1.00  0.00     0.202 C 
BRANCH   4   5
ATOM      5  C   UNL A   1      32.137  32.618  26.748  1.00  0.00     0.261 C 
BRANCH   5   6
ATOM      6  O   UNL A   1      32.002  31.242  27.146  1.00  0.00    -0.460 OA
BRANCH   6   7
ATOM      7  C   UNL A   1      33.064  30.449  26.904  1.00  0.00     0.338 C 
ATOM      8  O   UNL A   1      34.040  30.308  27.625  1.00  0.00    -0.246 OA
BRANCH   7   9
ATOM      9  C   UNL A   1      32.824  29.618  25.696  1.00  0.00     0.061 A 
ATOM     10  C   UNL A   1      31.454  28.733  23.908  1.00  0.00     0.088 A 
ATOM     11  C   UNL A   1      32.606  28.227  23.291  1.00  0.00     0.022 A 
ATOM     12  C   UNL A   1      31.558  29.445  25.114  1.00  0.00     0.038 A 
ATOM     13  C   UNL A   1      33.842  28.313  23.924  1.00  0.00     0.002 A 
ATOM     14  C   UNL A   1      33.951  29.010  25.122  1.00  0.00     0.016 A 
BRANCH  10  15
ATOM     15  S   UNL A   1      29.903  28.631  23.036  1.00  0.00     0.261 S 
ATOM     16  O   UNL A   1      30.216  28.490  21.629  1.00  0.00    -0.201 OA
ATOM     17  O   UNL A   1      29.060  29.713  23.496  1.00  0.00    -0.201 OA
BRANCH  15  18
ATOM     18  N   UNL A   1      29.100  27.197  23.506  1.00  0.00    -0.280 N 
ATOM     19  H   UNL A   1      28.138  27.088  23.327  1.00  0.00     0.180 HD
BRANCH  18  20
ATOM     20  C   UNL A   1      29.829  26.158  24.163  1.00  0.00     0.049 A 
ATOM     21  C   UNL A   1      31.115  23.994  25.368  1.00  0.00     0.082 A 
ATOM     22  C   UNL A   1      30.917  24.003  23.984  1.00  0.00     0.024 A 
ATOM     23  C   UNL A   1      30.707  25.080  26.151  1.00  0.00     0.024 A 
ATOM     24  C   UNL A   1      30.283  25.091  23.386  1.00  0.00     0.028 A 
ATOM     25  C   UNL A   1      30.048  26.162  25.545  1.00  0.00     0.028 A 
BRANCH  21  26
ATOM     26  S   UNL A   1      31.871  22.569  26.096  1.00  0.00     0.238 S 
ATOM     27  O   UNL A   1      31.433  21.392  25.386  1.00  0.00    -0.207 OA
ATOM     28  O   UNL A   1      31.777  22.692  27.533  1.00  0.00    -0.207 OA
BRANCH  26  29
ATOM     29  N   UNL A   1      33.502  22.718  25.722  1.00  0.00    -0.225 NA
ATOM     30  H   UNL A   1      34.062  22.446  26.530  1.00  0.00     0.137 HD
ATOM     31  H   UNL A   1      33.706  23.687  25.477  1.00  0.00     0.137 HD
ENDBRANCH  26  29
ENDBRANCH  21  26
ENDBRANCH  18  20
ENDBRANCH  15  18
ENDBRANCH  10  15
ENDBRANCH   7   9
ENDBRANCH   6   7
ENDBRANCH   5   6
ENDBRANCH   4   5
ENDBRANCH   3   4
ENDBRANCH   2   3
ENDBRANCH   1   2
BRANCH   1  32
ATOM     32  O   UNL A   1      33.176  36.847  30.355  1.00  0.00    -0.377 OA
BRANCH  32  33
ATOM     33  C   UNL A   1      32.840  36.807  31.740  1.00  0.00     0.188 C 
BRANCH  33  34
ATOM     34  C   UNL A   1      33.677  36.000  32.756  1.00  0.00     0.188 C 
BRANCH  34  35
ATOM     35  O   UNL A   1      33.311  34.630  32.875  1.00  0.00    -0.376 OA
BRANCH  35  36
ATOM     36  C   UNL A   1      34.388  33.715  33.024  1.00  0.00     0.202 C 
BRANCH  36  37
ATOM     37  C   UNL A   1      35.683  34.170  32.343  1.00  0.00     0.261 C 
BRANCH  37  38
ATOM     38  O   UNL A   1      35.806  33.805  30.960  1.00  0.00    -0.460 OA
BRANCH  38  39
ATOM     39  C   UNL A   1      35.462  32.544  30.610  1.00  0.00     0.338 C 
ATOM     40  O   UNL A   1      34.403  32.173  30.142  1.00  0.00    -0.246 OA
BRANCH  39  41
ATOM     41  C   UNL A   1      36.679  31.717  30.731  1.00  0.00     0.060 A 
ATOM     42  C   UNL A   1      36.651  30.561  31.521  1.00  0.00     0.016 A 
ATOM     43  C   UNL A   1      37.827  32.065  30.017  1.00  0.00     0.016 A 
ATOM     44  C   UNL A   1      37.783  29.745  31.596  1.00  0.00     0.010 A 
ATOM     45  C   UNL A   1      38.963  31.261  30.112  1.00  0.00     0.010 A 
ATOM     46  C   UNL A   1      38.952  30.104  30.910  1.00  0.00    -0.014 A 
BRANCH  46  47
ATOM     47  C   UNL A   1      40.222  29.370  31.126  1.00  0.00     0.031 A 
ATOM     48  C   UNL A   1      41.136  29.837  32.221  1.00  0.00     0.074 A 
ATOM     49  C   UNL A   1      40.575  28.342  30.334  1.00  0.00     0.049 A 
ATOM     50  N   UNL A   1      42.353  29.455  32.508  1.00  0.00    -0.248 NA
ATOM     51  C   UNL A   1      40.604  30.883  33.106  1.00  0.00     0.031 C 
ATOM     52  C   UNL A   1      39.751  27.770  29.272  1.00  0.00     0.029 A 
ATOM     53  N   UNL A   1      41.738  27.613  30.288  1.00  0.00    -0.354 N 
ATOM     54  C   UNL A   1      42.736  30.215  33.606  1.00  0.00     0.074 A 
ATOM     55  C   UNL A   1      41.633  31.101  33.912  1.00  0.00     0.031 C 
ATOM     56  C   UNL A   1      40.443  26.792  28.663  1.00  0.00     0.029 A 
ATOM     57  C   UNL A   1      41.777  26.703  29.256  1.00  0.00     0.049 A 
ATOM     58  H   UNL A   1      42.474  27.730  30.931  1.00  0.00     0.167 HD
ATOM     59  C   UNL A   1      43.901  30.175  34.297  1.00  0.00     0.034 A 
ATOM     60  C   UNL A   1      42.788  25.924  28.818  1.00  0.00     0.034 A 
ATOM     61  C   UNL A   1      45.003  29.309  33.959  1.00  0.00     0.049 A 
ATOM     62  C   UNL A   1      44.127  25.998  29.515  1.00  0.00     0.074 A 
ATOM     63  C   UNL A   1      46.221  29.171  34.601  1.00  0.00     0.029 A 
ATOM     64  N   UNL A   1      45.031  28.452  32.866  1.00  0.00    -0.354 N 
ATOM     65  N   UNL A   1      44.477  26.710  30.561  1.00  0.00    -0.248 NA
ATOM     66  C   UNL A   1      45.211  25.172  28.963  1.00  0.00     0.031 C 
ATOM     67  C   UNL A   1      47.013  28.292  33.854  1.00  0.00     0.029 A 
ATOM     68  C   UNL A   1      46.264  27.821  32.788  1.00  0.00     0.049 A 
ATOM     69  H   UNL A   1      44.286  28.312  32.240  1.00  0.00     0.167 HD
ATOM     70  C   UNL A   1      45.815  26.399  30.803  1.00  0.00     0.074 A 
ATOM     71  C   UNL A   1      46.203  25.429  29.802  1.00  0.00     0.031 C 
ATOM     72  C   UNL A   1      46.645  26.871  31.769  1.00  0.00     0.034 A 
BRANCH  59  73
ATOM     73  C   UNL A   1      44.053  31.140  35.446  1.00  0.00     0.023 A 
ATOM     74  C   UNL A   1      44.593  32.425  35.264  1.00  0.00     0.031 A 
ATOM     75  C   UNL A   1      43.695  30.754  36.749  1.00  0.00     0.131 A 
ATOM     76  C   UNL A   1      44.830  33.249  36.375  1.00  0.00     0.055 A 
ATOM     77  C   UNL A   1      43.859  31.609  37.841  1.00  0.00     0.041 A 
ATOM     78  F   UNL A   1      43.197  29.530  36.988  1.00  0.00    -0.206 F 
ATOM     79  C   UNL A   1      44.444  32.859  37.659  1.00  0.00     0.022 A 
BRANCH  76  80
ATOM     80  S   UNL A   1      45.783  34.773  36.136  1.00  0.00     0.124 S 
ATOM     81  O   UNL A   1      46.017  34.753  34.694  1.00  0.00    -0.237 OA
ATOM     82  O   UNL A   1      44.867  35.798  36.621  1.00  0.00    -0.237 OA
ATOM     83  O   UNL A   1      46.976  34.562  36.955  1.00  0.00    -0.744 OA
ENDBRANCH  76  80
ENDBRANCH  59  73
BRANCH  60  84
ATOM     84  C   UNL A   1      42.611  25.058  27.616  1.00  0.00     0.023 A 
ATOM     85  C   UNL A   1      41.976  23.809  27.709  1.00  0.00     0.031 A 
ATOM     86  C   UNL A   1      43.131  25.442  26.366  1.00  0.00     0.131 A 
ATOM     87  C   UNL A   1      41.910  22.972  26.583  1.00  0.00     0.055 A 
ATOM     88  C   UNL A   1      43.017  24.628  25.238  1.00  0.00     0.041 A 
ATOM     89  F   UNL A   1      43.758  26.620  26.224  1.00  0.00    -0.206 F 
ATOM     90  C   UNL A   1      42.413  23.380  25.346  1.00  0.00     0.022 A 
BRANCH  87  91
ATOM     91  S   UNL A   1      41.226  21.304  26.779  1.00  0.00     0.124 S 
ATOM     92  O   UNL A   1      40.780  21.326  28.168  1.00  0.00    -0.237 OA
ATOM     93  O   UNL A   1      40.174  21.285  25.769  1.00  0.00    -0.237 OA
ATOM     94  O   UNL A   1      42.367  20.433  26.504  1.00  0.00    -0.744 OA
ENDBRANCH  87  91
ENDBRANCH  60  84
BRANCH  72  95
ATOM     95  C   UNL A   1      48.050  26.319  31.803  1.00  0.00     0.023 A 
ATOM     96  C   UNL A   1      48.394  25.223  32.612  1.00  0.00     0.031 A 
ATOM     97  C   UNL A   1      49.052  26.889  30.997  1.00  0.00     0.131 A 
ATOM     98  C   UNL A   1      49.717  24.754  32.626  1.00  0.00     0.055 A 
ATOM     99  C   UNL A   1      50.353  26.384  30.974  1.00  0.00     0.041 A 
ATOM    100  F   UNL A   1      48.778  27.939  30.205  1.00  0.00    -0.206 F 
ATOM    101  C   UNL A   1      50.693  25.315  31.798  1.00  0.00     0.022 A 
BRANCH  98 102
ATOM    102  S   UNL A   1      50.163  23.429  33.782  1.00  0.00     0.124 S 
ATOM    103  O   UNL A   1      51.114  24.102  34.661  1.00  0.00    -0.237 OA
ATOM    104  O   UNL A   1      48.877  23.085  34.378  1.00  0.00    -0.237 OA
ATOM    105  O   UNL A   1      50.739  22.399  32.918  1.00  0.00    -0.744 OA
ENDBRANCH  98 102
ENDBRANCH  72  95
ENDBRANCH  46  47
ENDBRANCH  39  41
ENDBRANCH  38  39
ENDBRANCH  37  38
ENDBRANCH  36  37
ENDBRANCH  35  36
ENDBRANCH  34  35
ENDBRANCH  33  34
ENDBRANCH  32  33
ENDBRANCH   1  32
TORSDOF 28
ENDMDL
MODEL 2
REMARK VINA RESULT:      -8.7      1.760      7.334
REMARK SMILES NS(=O)(=O)c1ccc(NS(=O)(=O)c2cccc(C(=O)OCCOCCOCCOCCOC(=O)c3ccc(-c4c5nc(c(-c6cc(S(=O)(=O)[O-])ccc6F)c6ccc([nH]6)c(-c6cc(S(=O)(=O)[O-])ccc6F)c6nc(c(-c7cc(S(=O)(=O)[O-])ccc7F)c7ccc4[nH]7)C=C6)C=C5)cc3)c2)cc1
REMARK SMILES IDX 25 1 24 2 23 3 22 4 21 5 20 6 18 7 19 8 17 9 13 10 14 11
REMARK SMILES IDX 98 12 15 13 16 14 10 15 11 16 12 17 9 18 8 20 5 21 6 22
REMARK SMILES IDX 100 23 7 24 99 25 2 26 3 27 4 28 1 29 26 32 27 33 28 34
REMARK SMILES IDX 29 35 30 36 31 37 32 38 33 39 34 40 35 41 36 42 97 43 37 44
REMARK SMILES IDX 96 45 38 46 39 47 40 48 90 49 41 50 95 51 89 52 91 53 42 54
REMARK SMILES IDX 94 55 88 56 87 57 43 59 75 60 55 61 74 62 56 63 59 64 73 65
REMARK SMILES IDX 92 66 57 67 58 68 72 70 93 71 60 72 44 73 45 74 53 75 46 76
REMARK SMILES IDX 52 77 54 78 51 79 47 80 48 81 49 82 50 83 76 84 77 85 85 86
REMARK SMILES IDX 78 87 84 88 86 89 83 90 79 91 80 92 81 93 82 94 61 95 62 96
REMARK SMILES IDX 70 97 63 98 69 99 71 100 68 101 64 102 65 103 66 104 67 105
REMARK H PARENT 9 19 1 30 1 31 91 58 59 69
REMARK Flexibility Score: inf
ROOT
ATOM      1  C   UNL A   1      33.174  35.666  29.574  1.00  0.00     0.188 C 
ENDROOT
BRANCH   1   2
ATOM      2  C   UNL A   1      34.094  35.512  28.353  1.00  0.00     0.188 C 
BRANCH   2   3
ATOM      3  O   UNL A   1      34.038  34.237  27.724  1.00  0.00    -0.376 OA
BRANCH   3   4
ATOM      4  C   UNL A   1      32.928  33.414  28.059  1.00  0.00     0.202 C 
BRANCH   4   5
ATOM      5  C   UNL A   1      32.305  32.649  26.882  1.00  0.00     0.261 C 
BRANCH   5   6
ATOM      6  O   UNL A   1      32.089  31.248  27.127  1.00  0.00    -0.460 OA
BRANCH   6   7
ATOM      7  C   UNL A   1      33.129  30.434  26.858  1.00  0.00     0.338 C 
ATOM      8  O   UNL A   1      34.144  30.313  27.527  1.00  0.00    -0.246 OA
BRANCH   7   9
ATOM      9  C   UNL A   1      32.811  29.555  25.703  1.00  0.00     0.061 A 
ATOM     10  C   UNL A   1      31.357  28.679  23.979  1.00  0.00     0.088 A 
ATOM     11  C   UNL A   1      32.459  28.049  23.385  1.00  0.00     0.022 A 
ATOM     12  C   UNL A   1      31.529  29.450  25.139  1.00  0.00     0.038 A 
ATOM     13  C   UNL A   1      33.704  28.073  24.004  1.00  0.00     0.002 A 
ATOM     14  C   UNL A   1      33.881  28.828  25.159  1.00  0.00     0.016 A 
BRANCH  10  15
ATOM     15  S   UNL A   1      29.793  28.649  23.123  1.00  0.00     0.261 S 
ATOM     16  O   UNL A   1      30.084  28.533  21.710  1.00  0.00    -0.201 OA
ATOM     17  O   UNL A   1      28.991  29.744  23.621  1.00  0.00    -0.201 OA
BRANCH  15  18
ATOM     18  N   UNL A   1      28.949  27.230  23.569  1.00  0.00    -0.280 N 
ATOM     19  H   UNL A   1      27.966  27.206  23.526  1.00  0.00     0.180 HD
BRANCH  18  20
ATOM     20  C   UNL A   1      29.676  26.078  24.003  1.00  0.00     0.049 A 
ATOM     21  C   UNL A   1      31.223  23.959  24.954  1.00  0.00     0.082 A 
ATOM     22  C   UNL A   1      30.650  24.860  25.855  1.00  0.00     0.024 A 
ATOM     23  C   UNL A   1      30.997  24.088  23.579  1.00  0.00     0.024 A 
ATOM     24  C   UNL A   1      29.869  25.911  25.375  1.00  0.00     0.028 A 
ATOM     25  C   UNL A   1      30.229  25.163  23.101  1.00  0.00     0.028 A 
BRANCH  21  26
ATOM     26  S   UNL A   1      32.255  22.673  25.598  1.00  0.00     0.238 S 
ATOM     27  O   UNL A   1      32.754  23.076  26.890  1.00  0.00    -0.207 OA
ATOM     28  O   UNL A   1      33.120  22.214  24.536  1.00  0.00    -0.207 OA
BRANCH  26  29
ATOM     29  N   UNL A   1      31.200  21.405  25.918  1.00  0.00    -0.225 NA
ATOM     30  H   UNL A   1      30.754  21.106  25.050  1.00  0.00     0.137 HD
ATOM     31  H   UNL A   1      30.485  21.717  26.577  1.00  0.00     0.137 HD
ENDBRANCH  26  29
ENDBRANCH  21  26
ENDBRANCH  18  20
ENDBRANCH  15  18
ENDBRANCH  10  15
ENDBRANCH   7   9
ENDBRANCH   6   7
ENDBRANCH   5   6
ENDBRANCH   4   5
ENDBRANCH   3   4
ENDBRANCH   2   3
ENDBRANCH   1   2
BRANCH   1  32
ATOM     32  O   UNL A   1      33.345  36.801  30.402  1.00  0.00    -0.377 OA
BRANCH  32  33
ATOM     33  C   UNL A   1      32.910  36.762  31.758  1.00  0.00     0.188 C 
BRANCH  33  34
ATOM     34  C   UNL A   1      33.661  35.944  32.831  1.00  0.00     0.188 C 
BRANCH  34  35
ATOM     35  O   UNL A   1      33.358  34.554  32.843  1.00  0.00    -0.376 OA
BRANCH  35  36
ATOM     36  C   UNL A   1      34.477  33.680  32.898  1.00  0.00     0.202 C 
BRANCH  36  37
ATOM     37  C   UNL A   1      35.749  34.265  32.276  1.00  0.00     0.261 C 
BRANCH  37  38
ATOM     38  O   UNL A   1      36.006  33.864  30.921  1.00  0.00    -0.460 OA
BRANCH  38  39
ATOM     39  C   UNL A   1      35.879  32.551  30.620  1.00  0.00     0.338 C 
ATOM     40  O   UNL A   1      34.886  31.983  30.207  1.00  0.00    -0.246 OA
BRANCH  39  41
ATOM     41  C   UNL A   1      37.227  31.956  30.710  1.00  0.00     0.060 A 
ATOM     42  C   UNL A   1      37.424  30.807  31.484  1.00  0.00     0.016 A 
ATOM     43  C   UNL A   1      38.281  32.515  29.983  1.00  0.00     0.016 A 
ATOM     44  C   UNL A   1      38.685  30.208  31.531  1.00  0.00     0.010 A 
ATOM     45  C   UNL A   1      39.544  31.928  30.049  1.00  0.00     0.010 A 
ATOM     46  C   UNL A   1      39.757  30.780  30.831  1.00  0.00    -0.014 A 
BRANCH  46  47
ATOM     47  C   UNL A   1      41.143  30.285  31.017  1.00  0.00     0.031 A 
ATOM     48  C   UNL A   1      41.629  29.180  30.125  1.00  0.00     0.074 A 
ATOM     49  C   UNL A   1      41.932  30.775  31.989  1.00  0.00     0.049 A 
ATOM     50  N   UNL A   1      42.736  28.487  30.187  1.00  0.00    -0.248 NA
ATOM     51  C   UNL A   1      40.738  28.802  29.018  1.00  0.00     0.031 C 
ATOM     52  C   UNL A   1      41.588  31.878  32.883  1.00  0.00     0.029 A 
ATOM     53  N   UNL A   1      43.183  30.385  32.401  1.00  0.00    -0.354 N 
ATOM     54  C   UNL A   1      42.676  27.588  29.129  1.00  0.00     0.074 A 
ATOM     55  C   UNL A   1      41.410  27.804  28.463  1.00  0.00     0.031 C 
ATOM     56  C   UNL A   1      42.595  32.063  33.754  1.00  0.00     0.029 A 
ATOM     57  C   UNL A   1      43.632  31.059  33.514  1.00  0.00     0.049 A 
ATOM     58  H   UNL A   1      43.709  29.689  31.944  1.00  0.00     0.167 HD
ATOM     59  C   UNL A   1      43.597  26.669  28.748  1.00  0.00     0.034 A 
ATOM     60  C   UNL A   1      44.728  30.857  34.273  1.00  0.00     0.034 A 
ATOM     61  C   UNL A   1      44.840  26.445  29.444  1.00  0.00     0.049 A 
ATOM     62  C   UNL A   1      45.672  29.731  33.914  1.00  0.00     0.074 A 
ATOM     63  C   UNL A   1      45.853  25.555  29.134  1.00  0.00     0.029 A 
ATOM     64  N   UNL A   1      45.227  27.098  30.607  1.00  0.00    -0.354 N 
ATOM     65  N   UNL A   1      45.616  28.894  32.904  1.00  0.00    -0.248 NA
ATOM     66  C   UNL A   1      46.821  29.517  34.806  1.00  0.00     0.031 C 
ATOM     67  C   UNL A   1      46.813  25.614  30.151  1.00  0.00     0.029 A 
ATOM     68  C   UNL A   1      46.440  26.595  31.054  1.00  0.00     0.049 A 
ATOM     69  H   UNL A   1      44.716  27.814  31.048  1.00  0.00     0.167 HD
ATOM     70  C   UNL A   1      46.732  28.069  33.030  1.00  0.00     0.074 A 
ATOM     71  C   UNL A   1      47.449  28.517  34.205  1.00  0.00     0.031 C 
ATOM     72  C   UNL A   1      47.131  27.038  32.242  1.00  0.00     0.034 A 
BRANCH  59  73
ATOM     73  C   UNL A   1      43.254  25.804  27.562  1.00  0.00     0.023 A 
ATOM     74  C   UNL A   1      42.596  24.571  27.713  1.00  0.00     0.031 A 
ATOM     75  C   UNL A   1      43.631  26.196  26.265  1.00  0.00     0.131 A 
ATOM     76  C   UNL A   1      42.401  23.740  26.599  1.00  0.00     0.055 A 
ATOM     77  C   UNL A   1      43.363  25.400  25.150  1.00  0.00     0.041 A 
ATOM     78  F   UNL A   1      44.284  27.350  26.063  1.00  0.00    -0.206 F 
ATOM     79  C   UNL A   1      42.759  24.157  25.315  1.00  0.00     0.022 A 
BRANCH  76  80
ATOM     80  S   UNL A   1      41.810  22.047  26.873  1.00  0.00     0.124 S 
ATOM     81  O   UNL A   1      40.681  21.974  25.950  1.00  0.00    -0.237 OA
ATOM     82  O   UNL A   1      42.976  21.246  26.523  1.00  0.00    -0.237 OA
ATOM     83  O   UNL A   1      41.448  22.038  28.290  1.00  0.00    -0.744 OA
ENDBRANCH  76  80
ENDBRANCH  59  73
BRANCH  60  84
ATOM     84  C   UNL A   1      44.969  31.681  35.492  1.00  0.00     0.023 A 
ATOM     85  C   UNL A   1      44.327  31.388  36.706  1.00  0.00     0.031 A 
ATOM     86  C   UNL A   1      45.801  32.815  35.445  1.00  0.00     0.131 A 
ATOM     87  C   UNL A   1      44.496  32.237  37.811  1.00  0.00     0.055 A 
ATOM     88  C   UNL A   1      46.007  33.627  36.561  1.00  0.00     0.041 A 
ATOM     89  F   UNL A   1      46.430  33.149  34.307  1.00  0.00    -0.206 F 
ATOM     90  C   UNL A   1      45.342  33.347  37.750  1.00  0.00     0.022 A 
BRANCH  87  91
ATOM     91  S   UNL A   1      43.527  31.916  39.311  1.00  0.00     0.124 S 
ATOM     92  O   UNL A   1      43.620  33.195  40.005  1.00  0.00    -0.237 OA
ATOM     93  O   UNL A   1      42.218  31.579  38.760  1.00  0.00    -0.237 OA
ATOM     94  O   UNL A   1      44.237  30.808  39.945  1.00  0.00    -0.744 OA
ENDBRANCH  87  91
ENDBRANCH  60  84
BRANCH  72  95
ATOM     95  C   UNL A   1      48.419  26.342  32.613  1.00  0.00     0.023 A 
ATOM     96  C   UNL A   1      49.664  26.793  32.145  1.00  0.00     0.031 A 
ATOM     97  C   UNL A   1      48.397  25.222  33.465  1.00  0.00     0.131 A 
ATOM     98  C   UNL A   1      50.836  26.105  32.502  1.00  0.00     0.055 A 
ATOM     99  C   UNL A   1      49.569  24.575  33.860  1.00  0.00     0.041 A 
ATOM    100  F   UNL A   1      47.233  24.748  33.941  1.00  0.00    -0.206 F 
ATOM    101  C   UNL A   1      50.796  25.011  33.370  1.00  0.00     0.022 A 
BRANCH  98 102
ATOM    102  S   UNL A   1      52.412  26.625  31.771  1.00  0.00     0.124 S 
ATOM    103  O   UNL A   1      53.168  25.377  31.762  1.00  0.00    -0.237 OA
ATOM    104  O   UNL A   1      52.003  27.133  30.466  1.00  0.00    -0.237 OA
ATOM    105  O   UNL A   1      52.903  27.641  32.703  1.00  0.00    -0.744 OA
ENDBRANCH  98 102
ENDBRANCH  72  95
ENDBRANCH  46  47
ENDBRANCH  39  41
ENDBRANCH  38  39
ENDBRANCH  37  38
ENDBRANCH  36  37
ENDBRANCH  35  36
ENDBRANCH  34  35
ENDBRANCH  33  34
ENDBRANCH  32  33
ENDBRANCH   1  32
TORSDOF 28
ENDMDL
MODEL 3
REMARK VINA RESULT:      -8.4      1.875      7.903
REMARK SMILES NS(=O)(=O)c1ccc(NS(=O)(=O)c2cccc(C(=O)OCCOCCOCCOCCOC(=O)c3ccc(-c4c5nc(c(-c6cc(S(=O)(=O)[O-])ccc6F)c6ccc([nH]6)c(-c6cc(S(=O)(=O)[O-])ccc6F)c6nc(c(-c7cc(S(=O)(=O)[O-])ccc7F)c7ccc4[nH]7)C=C6)C=C5)cc3)c2)cc1
REMARK SMILES IDX 25 1 24 2 23 3 22 4 21 5 20 6 18 7 19 8 17 9 13 10 14 11
REMARK SMILES IDX 98 12 15 13 16 14 10 15 11 16 12 17 9 18 8 20 5 21 6 22
REMARK SMILES IDX 100 23 7 24 99 25 2 26 3 27 4 28 1 29 26 32 27 33 28 34
REMARK SMILES IDX 29 35 30 36 31 37 32 38 33 39 34 40 35 41 36 42 97 43 37 44
REMARK SMILES IDX 96 45 38 46 39 47 40 48 90 49 41 50 95 51 89 52 91 53 42 54
REMARK SMILES IDX 94 55 88 56 87 57 43 59 75 60 55 61 74 62 56 63 59 64 73 65
REMARK SMILES IDX 92 66 57 67 58 68 72 70 93 71 60 72 44 73 45 74 53 75 46 76
REMARK SMILES IDX 52 77 54 78 51 79 47 80 48 81 49 82 50 83 76 84 77 85 85 86
REMARK SMILES IDX 78 87 84 88 86 89 83 90 79 91 80 92 81 93 82 94 61 95 62 96
REMARK SMILES IDX 70 97 63 98 69 99 71 100 68 101 64 102 65 103 66 104 67 105
REMARK H PARENT 9 19 1 30 1 31 91 58 59 69
REMARK Flexibility Score: inf
ROOT
ATOM      1  C   UNL A   1      33.672  35.285  29.229  1.00  0.00     0.188 C 
ENDROOT
BRANCH   1   2
ATOM      2  C   UNL A   1      34.179  35.330  27.779  1.00  0.00     0.188 C 
BRANCH   2   3
ATOM      3  O   UNL A   1      34.883  34.168  27.358  1.00  0.00    -0.376 OA
BRANCH   3   4
ATOM      4  C   UNL A   1      34.742  33.013  28.176  1.00  0.00     0.202 C 
BRANCH   4   5
ATOM      5  C   UNL A   1      34.110  31.797  27.482  1.00  0.00     0.261 C 
BRANCH   5   6
ATOM      6  O   UNL A   1      34.356  30.541  28.136  1.00  0.00    -0.460 OA
BRANCH   6   7
ATOM      7  C   UNL A   1      34.841  29.553  27.357  1.00  0.00     0.338 C 
ATOM      8  O   UNL A   1      36.017  29.355  27.091  1.00  0.00    -0.246 OA
BRANCH   7   9
ATOM      9  C   UNL A   1      33.756  28.610  26.983  1.00  0.00     0.061 A 
ATOM     10  C   UNL A   1      32.853  26.696  25.810  1.00  0.00     0.088 A 
ATOM     11  C   UNL A   1      31.694  26.776  26.594  1.00  0.00     0.022 A 
ATOM     12  C   UNL A   1      33.901  27.609  26.010  1.00  0.00     0.038 A 
ATOM     13  C   UNL A   1      31.515  27.831  27.483  1.00  0.00     0.002 A 
ATOM     14  C   UNL A   1      32.545  28.744  27.681  1.00  0.00     0.016 A 
BRANCH  10  15
ATOM     15  S   UNL A   1      33.049  25.303  24.715  1.00  0.00     0.261 S 
ATOM     16  O   UNL A   1      32.341  24.190  25.312  1.00  0.00    -0.201 OA
ATOM     17  O   UNL A   1      34.452  25.189  24.384  1.00  0.00    -0.201 OA
BRANCH  15  18
ATOM     18  N   UNL A   1      32.261  25.650  23.238  1.00  0.00    -0.280 N 
ATOM     19  H   UNL A   1      32.488  25.141  22.425  1.00  0.00     0.180 HD
BRANCH  18  20
ATOM     20  C   UNL A   1      31.274  26.683  23.184  1.00  0.00     0.049 A 
ATOM     21  C   UNL A   1      29.230  28.570  22.968  1.00  0.00     0.082 A 
ATOM     22  C   UNL A   1      28.956  27.307  23.499  1.00  0.00     0.024 A 
ATOM     23  C   UNL A   1      30.530  28.910  22.577  1.00  0.00     0.024 A 
ATOM     24  C   UNL A   1      29.984  26.371  23.615  1.00  0.00     0.028 A 
ATOM     25  C   UNL A   1      31.555  27.955  22.675  1.00  0.00     0.028 A 
BRANCH  21  26
ATOM     26  S   UNL A   1      27.888  29.709  22.783  1.00  0.00     0.238 S 
ATOM     27  O   UNL A   1      28.240  30.955  23.419  1.00  0.00    -0.207 OA
ATOM     28  O   UNL A   1      26.658  29.008  23.070  1.00  0.00    -0.207 OA
BRANCH  26  29
ATOM     29  N   UNL A   1      27.852  30.057  21.140  1.00  0.00    -0.225 NA
ATOM     30  H   UNL A   1      28.214  29.261  20.615  1.00  0.00     0.137 HD
ATOM     31  H   UNL A   1      28.430  30.877  20.954  1.00  0.00     0.137 HD
ENDBRANCH  26  29
ENDBRANCH  21  26
ENDBRANCH  18  20
ENDBRANCH  15  18
ENDBRANCH  10  15
ENDBRANCH   7   9
ENDBRANCH   6   7
ENDBRANCH   5   6
ENDBRANCH   4   5
ENDBRANCH   3   4
ENDBRANCH   2   3
ENDBRANCH   1   2
BRANCH   1  32
ATOM     32  O   UNL A   1      33.798  36.453  30.018  1.00  0.00    -0.377 OA
BRANCH  32  33
ATOM     33  C   UNL A   1      32.945  36.643  31.144  1.00  0.00     0.188 C 
BRANCH  33  34
ATOM     34  C   UNL A   1      33.366  36.209  32.565  1.00  0.00     0.188 C 
BRANCH  34  35
ATOM     35  O   UNL A   1      32.978  34.888  32.925  1.00  0.00    -0.376 OA
BRANCH  35  36
ATOM     36  C   UNL A   1      34.042  33.971  33.141  1.00  0.00     0.202 C 
BRANCH  36  37
ATOM     37  C   UNL A   1      35.422  34.529  32.778  1.00  0.00     0.261 C 
BRANCH  37  38
ATOM     38  O   UNL A   1      36.058  33.900  31.654  1.00  0.00    -0.460 OA
BRANCH  38  39
ATOM     39  C   UNL A   1      35.894  32.566  31.506  1.00  0.00     0.338 C 
ATOM     40  O   UNL A   1      34.862  31.973  31.257  1.00  0.00    -0.246 OA
BRANCH  39  41
ATOM     41  C   UNL A   1      37.242  31.963  31.520  1.00  0.00     0.060 A 
ATOM     42  C   UNL A   1      37.456  30.769  32.219  1.00  0.00     0.016 A 
ATOM     43  C   UNL A   1      38.276  32.560  30.795  1.00  0.00     0.016 A 
ATOM     44  C   UNL A   1      38.716  30.165  32.192  1.00  0.00     0.010 A 
ATOM     45  C   UNL A   1      39.538  31.967  30.789  1.00  0.00     0.010 A 
ATOM     46  C   UNL A   1      39.769  30.774  31.496  1.00  0.00    -0.014 A 
BRANCH  46  47
ATOM     47  C   UNL A   1      41.157  30.266  31.610  1.00  0.00     0.031 A 
ATOM     48  C   UNL A   1      41.616  29.222  30.634  1.00  0.00     0.074 A 
ATOM     49  C   UNL A   1      41.974  30.688  32.591  1.00  0.00     0.049 A 
ATOM     50  N   UNL A   1      42.721  28.524  30.619  1.00  0.00    -0.248 NA
ATOM     51  C   UNL A   1      40.694  28.920  29.528  1.00  0.00     0.031 C 
ATOM     52  C   UNL A   1      41.659  31.730  33.565  1.00  0.00     0.029 A 
ATOM     53  N   UNL A   1      43.235  30.269  32.942  1.00  0.00    -0.354 N 
ATOM     54  C   UNL A   1      42.629  27.699  29.505  1.00  0.00     0.074 A 
ATOM     55  C   UNL A   1      41.346  27.961  28.890  1.00  0.00     0.031 C 
ATOM     56  C   UNL A   1      42.690  31.853  34.420  1.00  0.00     0.029 A 
ATOM     57  C   UNL A   1      43.715  30.866  34.085  1.00  0.00     0.049 A 
ATOM     58  H   UNL A   1      43.745  29.604  32.425  1.00  0.00     0.167 HD
ATOM     59  C   UNL A   1      43.536  26.805  29.039  1.00  0.00     0.034 A 
ATOM     60  C   UNL A   1      44.831  30.611  34.799  1.00  0.00     0.034 A 
ATOM     61  C   UNL A   1      44.797  26.532  29.684  1.00  0.00     0.049 A 
ATOM     62  C   UNL A   1      45.761  29.511  34.340  1.00  0.00     0.074 A 
ATOM     63  C   UNL A   1      45.797  25.663  29.288  1.00  0.00     0.029 A 
ATOM     64  N   UNL A   1      45.217  27.106  30.877  1.00  0.00    -0.354 N 
ATOM     65  N   UNL A   1      45.674  28.743  33.278  1.00  0.00    -0.248 NA
ATOM     66  C   UNL A   1      46.933  29.235  35.184  1.00  0.00     0.031 C 
ATOM     67  C   UNL A   1      46.785  25.652  30.280  1.00  0.00     0.029 A 
ATOM     68  C   UNL A   1      46.440  26.572  31.257  1.00  0.00     0.049 A 
ATOM     69  H   UNL A   1      44.721  27.791  31.379  1.00  0.00     0.167 HD
ATOM     70  C   UNL A   1      46.791  27.910  33.318  1.00  0.00     0.074 A 
ATOM     71  C   UNL A   1      47.541  28.277  34.500  1.00  0.00     0.031 C 
ATOM     72  C   UNL A   1      47.165  26.932  32.452  1.00  0.00     0.034 A 
BRANCH  59  73
ATOM     73  C   UNL A   1      43.158  26.022  27.807  1.00  0.00     0.023 A 
ATOM     74  C   UNL A   1      42.533  24.766  27.894  1.00  0.00     0.031 A 
ATOM     75  C   UNL A   1      43.468  26.518  26.529  1.00  0.00     0.131 A 
ATOM     76  C   UNL A   1      42.305  24.015  26.730  1.00  0.00     0.055 A 
ATOM     77  C   UNL A   1      43.167  25.800  25.370  1.00  0.00     0.041 A 
ATOM     78  F   UNL A   1      44.087  27.699  26.385  1.00  0.00    -0.206 F 
ATOM     79  C   UNL A   1      42.597  24.534  25.467  1.00  0.00     0.022 A 
BRANCH  76  80
ATOM     80  S   UNL A   1      41.763  22.293  26.903  1.00  0.00     0.124 S 
ATOM     81  O   UNL A   1      42.673  21.797  27.932  1.00  0.00    -0.237 OA
ATOM     82  O   UNL A   1      40.369  22.440  27.300  1.00  0.00    -0.237 OA
ATOM     83  O   UNL A   1      41.979  21.731  25.570  1.00  0.00    -0.744 OA
ENDBRANCH  76  80
ENDBRANCH  59  73
BRANCH  60  84
ATOM     84  C   UNL A   1      45.108  31.352  36.063  1.00  0.00     0.023 A 
ATOM     85  C   UNL A   1      45.933  32.487  36.074  1.00  0.00     0.031 A 
ATOM     86  C   UNL A   1      44.597  30.897  37.293  1.00  0.00     0.131 A 
ATOM     87  C   UNL A   1      46.255  33.107  37.293  1.00  0.00     0.055 A 
ATOM     88  C   UNL A   1      44.878  31.548  38.496  1.00  0.00     0.041 A 
ATOM     89  F   UNL A   1      43.812  29.809  37.342  1.00  0.00    -0.206 F 
ATOM     90  C   UNL A   1      45.722  32.653  38.501  1.00  0.00     0.022 A 
BRANCH  87  91
ATOM     91  S   UNL A   1      47.451  34.472  37.284  1.00  0.00     0.124 S 
ATOM     92  O   UNL A   1      48.642  33.828  37.827  1.00  0.00    -0.237 OA
ATOM     93  O   UNL A   1      47.501  34.823  35.869  1.00  0.00    -0.237 OA
ATOM     94  O   UNL A   1      46.833  35.473  38.151  1.00  0.00    -0.744 OA
ENDBRANCH  87  91
ENDBRANCH  60  84
BRANCH  72  95
ATOM     95  C   UNL A   1      48.459  26.211  32.741  1.00  0.00     0.023 A 
ATOM     96  C   UNL A   1      49.702  26.737  32.350  1.00  0.00     0.031 A 
ATOM     97  C   UNL A   1      48.447  24.988  33.437  1.00  0.00     0.131 A 
ATOM     98  C   UNL A   1      50.880  26.024  32.624  1.00  0.00     0.055 A 
ATOM     99  C   UNL A   1      49.625  24.310  33.754  1.00  0.00     0.041 A 
ATOM    100  F   UNL A   1      47.286  24.439  33.834  1.00  0.00    -0.206 F 
ATOM    101  C   UNL A   1      50.849  24.824  33.339  1.00  0.00     0.022 A 
BRANCH  98 102
ATOM    102  S   UNL A   1      52.455  26.658  31.985  1.00  0.00     0.124 S 
ATOM    103  O   UNL A   1      52.530  26.017  30.675  1.00  0.00    -0.237 OA
ATOM    104  O   UNL A   1      52.235  28.100  31.978  1.00  0.00    -0.237 OA
ATOM    105  O   UNL A   1      53.436  26.188  32.963  1.00  0.00    -0.744 OA
ENDBRANCH  98 102
ENDBRANCH  72  95
ENDBRANCH  46  47
ENDBRANCH  39  41
ENDBRANCH  38  39
ENDBRANCH  37  38
ENDBRANCH  36  37
ENDBRANCH  35  36
ENDBRANCH  34  35
ENDBRANCH  33  34
ENDBRANCH  32  33
ENDBRANCH   1  32
TORSDOF 28
ENDMDL
