MODEL 1
REMARK VINA RESULT:      -8.3      0.000      0.000
REMARK SMILES CS(=O)(=O)c1cc(F)ccc1N1CCC[C@@H](C(=O)OCCOCCOCCOCCOC(=O)c2ccc(-c3c4nc(c(-c5cc(S(=O)(=O)[O-])ccc5F)c5ccc([nH]5)c(-c5cc(S(=O)(=O)[O-])ccc5F)c5nc(c(-c6cc(S(=O)(=O)[O-])ccc6F)c6ccc3[nH]6)C=C5)C=C4)cc2)C1
REMARK SMILES IDX 26 1 25 2 24 3 23 4 22 5 21 6 20 7 19 8 17 9 18 10 16 11
REMARK SMILES IDX 12 12 13 13 97 14 14 15 15 16 11 17 5 18 6 19 7 20 10 21
REMARK SMILES IDX 8 22 9 23 2 24 1 25 3 26 4 27 27 28 28 29 29 30 30 31 31 32
REMARK SMILES IDX 32 33 33 34 34 35 35 36 96 37 36 38 95 39 37 40 38 41 39 42
REMARK SMILES IDX 89 43 40 44 94 45 88 46 90 47 41 48 93 49 87 50 86 51 42 53
REMARK SMILES IDX 74 54 54 55 73 56 55 57 58 58 72 59 91 60 56 61 57 62 71 64
REMARK SMILES IDX 92 65 59 66 43 67 44 68 52 69 45 70 51 71 53 72 50 73 46 74
REMARK SMILES IDX 47 75 48 76 49 77 75 78 76 79 84 80 77 81 83 82 85 83 82 84
REMARK SMILES IDX 78 85 79 86 80 87 81 88 60 89 61 90 69 91 62 92 68 93 70 94
REMARK SMILES IDX 67 95 63 96 64 97 65 98 66 99
REMARK H PARENT 90 52 58 63
REMARK Flexibility Score: inf
ROOT
ATOM      1  C   UNL A   1      42.955  16.433  39.380  1.00  0.00     0.188 C 
ENDROOT
BRANCH   1   2
ATOM      2  O   UNL A   1      43.061  15.787  40.645  1.00  0.00    -0.377 OA
BRANCH   2   3
ATOM      3  C   UNL A   1      41.942  15.144  41.221  1.00  0.00     0.188 C 
BRANCH   3   4
ATOM      4  C   UNL A   1      41.486  13.824  40.585  1.00  0.00     0.188 C 
BRANCH   4   5
ATOM      5  O   UNL A   1      41.856  12.598  41.178  1.00  0.00    -0.376 OA
BRANCH   5   6
ATOM      6  C   UNL A   1      41.196  12.100  42.334  1.00  0.00     0.202 C 
BRANCH   6   7
ATOM      7  C   UNL A   1      41.841  11.957  43.725  1.00  0.00     0.261 C 
BRANCH   7   8
ATOM      8  O   UNL A   1      42.482  13.118  44.285  1.00  0.00    -0.463 OA
BRANCH   8   9
ATOM      9  C   UNL A   1      43.715  12.905  44.796  1.00  0.00     0.310 C 
ATOM     10  O   UNL A   1      44.048  11.858  45.351  1.00  0.00    -0.252 OA
BRANCH   9  11
ATOM     11  C   UNL A   1      44.724  14.024  44.610  1.00  0.00     0.118 C 
ATOM     12  N   UNL A   1      45.458  16.297  44.093  1.00  0.00    -0.370 N 
ATOM     13  C   UNL A   1      46.269  16.434  45.303  1.00  0.00     0.116 C 
ATOM     14  C   UNL A   1      44.261  15.436  44.217  1.00  0.00     0.131 C 
ATOM     15  C   UNL A   1      46.718  15.054  45.777  1.00  0.00     0.022 C 
ATOM     16  C   UNL A   1      45.537  14.101  45.915  1.00  0.00     0.019 C 
BRANCH  12  17
ATOM     17  C   UNL A   1      45.916  16.840  42.908  1.00  0.00     0.056 A 
ATOM     18  C   UNL A   1      45.671  18.147  42.446  1.00  0.00     0.093 A 
ATOM     19  C   UNL A   1      46.248  18.618  41.243  1.00  0.00     0.061 A 
ATOM     20  C   UNL A   1      47.074  17.798  40.496  1.00  0.00     0.124 A 
ATOM     21  C   UNL A   1      46.762  16.043  42.099  1.00  0.00     0.030 A 
ATOM     22  F   UNL A   1      47.632  18.261  39.370  1.00  0.00    -0.207 F 
ATOM     23  C   UNL A   1      47.340  16.510  40.913  1.00  0.00     0.041 A 
BRANCH  18  24
ATOM     24  S   UNL A   1      44.769  19.385  43.366  1.00  0.00     0.177 S 
ATOM     25  C   UNL A   1      44.601  20.700  42.191  1.00  0.00     0.164 C 
ATOM     26  O   UNL A   1      45.659  19.858  44.415  1.00  0.00    -0.224 OA
ATOM     27  O   UNL A   1      43.448  18.902  43.710  1.00  0.00    -0.224 OA
ENDBRANCH  18  24
ENDBRANCH  12  17
ENDBRANCH   9  11
ENDBRANCH   8   9
ENDBRANCH   7   8
ENDBRANCH   6   7
ENDBRANCH   5   6
ENDBRANCH   4   5
ENDBRANCH   3   4
ENDBRANCH   2   3
ENDBRANCH   1   2
BRANCH   1  28
ATOM     28  C   UNL A   1      44.133  16.433  38.389  1.00  0.00     0.188 C 
BRANCH  28  29
ATOM     29  O   UNL A   1      44.702  17.712  38.158  1.00  0.00    -0.376 OA
BRANCH  29  30
ATOM     30  C   UNL A   1      45.056  18.058  36.827  1.00  0.00     0.202 C 
BRANCH  30  31
ATOM     31  C   UNL A   1      46.096  19.175  36.645  1.00  0.00     0.261 C 
BRANCH  31  32
ATOM     32  O   UNL A   1      45.742  20.231  35.734  1.00  0.00    -0.460 OA
BRANCH  32  33
ATOM     33  C   UNL A   1      46.769  20.909  35.167  1.00  0.00     0.338 C 
ATOM     34  O   UNL A   1      47.767  20.423  34.678  1.00  0.00    -0.246 OA
BRANCH  33  35
ATOM     35  C   UNL A   1      46.397  22.337  35.055  1.00  0.00     0.060 A 
ATOM     36  C   UNL A   1      45.048  22.680  35.200  1.00  0.00     0.016 A 
ATOM     37  C   UNL A   1      47.344  23.316  34.743  1.00  0.00     0.016 A 
ATOM     38  C   UNL A   1      44.629  23.988  34.962  1.00  0.00     0.010 A 
ATOM     39  C   UNL A   1      46.919  24.627  34.490  1.00  0.00     0.010 A 
ATOM     40  C   UNL A   1      45.553  24.957  34.547  1.00  0.00    -0.014 A 
BRANCH  40  41
ATOM     41  C   UNL A   1      45.039  26.222  33.956  1.00  0.00     0.031 A 
ATOM     42  C   UNL A   1      44.566  26.203  32.524  1.00  0.00     0.074 A 
ATOM     43  C   UNL A   1      44.886  27.334  34.699  1.00  0.00     0.049 A 
ATOM     44  N   UNL A   1      44.038  27.164  31.812  1.00  0.00    -0.248 NA
ATOM     45  C   UNL A   1      44.700  24.926  31.803  1.00  0.00     0.031 C 
ATOM     46  C   UNL A   1      45.232  27.456  36.114  1.00  0.00     0.029 A 
ATOM     47  N   UNL A   1      44.375  28.567  34.371  1.00  0.00    -0.354 N 
ATOM     48  C   UNL A   1      43.768  26.606  30.567  1.00  0.00     0.074 A 
ATOM     49  C   UNL A   1      44.233  25.238  30.604  1.00  0.00     0.031 C 
ATOM     50  C   UNL A   1      44.903  28.690  36.538  1.00  0.00     0.029 A 
ATOM     51  C   UNL A   1      44.358  29.458  35.418  1.00  0.00     0.049 A 
ATOM     52  H   UNL A   1      44.050  28.791  33.468  1.00  0.00     0.167 HD
ATOM     53  C   UNL A   1      43.166  27.175  29.495  1.00  0.00     0.034 A 
ATOM     54  C   UNL A   1      43.960  30.748  35.468  1.00  0.00     0.034 A 
ATOM     55  C   UNL A   1      42.703  28.538  29.462  1.00  0.00     0.049 A 
ATOM     56  C   UNL A   1      43.408  31.401  34.225  1.00  0.00     0.074 A 
ATOM     57  C   UNL A   1      42.085  29.208  28.422  1.00  0.00     0.029 A 
ATOM     58  N   UNL A   1      42.810  29.438  30.512  1.00  0.00    -0.354 N 
ATOM     59  N   UNL A   1      43.193  30.870  33.044  1.00  0.00    -0.248 NA
ATOM     60  C   UNL A   1      43.051  32.825  34.316  1.00  0.00     0.031 C 
ATOM     61  C   UNL A   1      41.885  30.533  28.815  1.00  0.00     0.029 A 
ATOM     62  C   UNL A   1      42.303  30.668  30.130  1.00  0.00     0.049 A 
ATOM     63  H   UNL A   1      43.189  29.233  31.397  1.00  0.00     0.167 HD
ATOM     64  C   UNL A   1      42.651  31.886  32.262  1.00  0.00     0.074 A 
ATOM     65  C   UNL A   1      42.577  33.065  33.099  1.00  0.00     0.031 C 
ATOM     66  C   UNL A   1      42.240  31.839  30.971  1.00  0.00     0.034 A 
BRANCH  53  67
ATOM     67  C   UNL A   1      43.004  26.337  28.254  1.00  0.00     0.023 A 
ATOM     68  C   UNL A   1      42.035  25.322  28.174  1.00  0.00     0.031 A 
ATOM     69  C   UNL A   1      43.812  26.574  27.129  1.00  0.00     0.131 A 
ATOM     70  C   UNL A   1      41.925  24.554  27.005  1.00  0.00     0.055 A 
ATOM     71  C   UNL A   1      43.653  25.850  25.946  1.00  0.00     0.041 A 
ATOM     72  F   UNL A   1      44.765  27.518  27.159  1.00  0.00    -0.206 F 
ATOM     73  C   UNL A   1      42.710  24.828  25.882  1.00  0.00     0.022 A 
BRANCH  70  74
ATOM     74  S   UNL A   1      40.798  23.135  27.001  1.00  0.00     0.124 S 
ATOM     75  O   UNL A   1      41.165  22.463  28.245  1.00  0.00    -0.237 OA
ATOM     76  O   UNL A   1      39.486  23.772  26.983  1.00  0.00    -0.237 OA
ATOM     77  O   UNL A   1      41.157  22.416  25.781  1.00  0.00    -0.744 OA
ENDBRANCH  70  74
ENDBRANCH  53  67
BRANCH  54  78
ATOM     78  C   UNL A   1      44.091  31.514  36.739  1.00  0.00     0.023 A 
ATOM     79  C   UNL A   1      43.008  31.655  37.620  1.00  0.00     0.031 A 
ATOM     80  C   UNL A   1      45.315  32.111  37.095  1.00  0.00     0.131 A 
ATOM     81  C   UNL A   1      43.165  32.385  38.809  1.00  0.00     0.055 A 
ATOM     82  C   UNL A   1      45.477  32.803  38.296  1.00  0.00     0.041 A 
ATOM     83  F   UNL A   1      46.381  32.004  36.287  1.00  0.00    -0.206 F 
ATOM     84  C   UNL A   1      44.397  32.946  39.160  1.00  0.00     0.022 A 
BRANCH  81  85
ATOM     85  S   UNL A   1      41.729  32.608  39.895  1.00  0.00     0.124 S 
ATOM     86  O   UNL A   1      41.976  33.936  40.444  1.00  0.00    -0.237 OA
ATOM     87  O   UNL A   1      40.617  32.496  38.958  1.00  0.00    -0.237 OA
ATOM     88  O   UNL A   1      41.849  31.506  40.847  1.00  0.00    -0.744 OA
ENDBRANCH  81  85
ENDBRANCH  54  78
BRANCH  66  89
ATOM     89  C   UNL A   1      41.636  33.079  30.364  1.00  0.00     0.023 A 
ATOM     90  C   UNL A   1      42.421  34.015  29.672  1.00  0.00     0.031 A 
ATOM     91  C   UNL A   1      40.240  33.253  30.375  1.00  0.00     0.131 A 
ATOM     92  C   UNL A   1      41.801  35.089  29.014  1.00  0.00     0.055 A 
ATOM     93  C   UNL A   1      39.627  34.299  29.685  1.00  0.00     0.041 A 
ATOM     94  F   UNL A   1      39.449  32.377  31.014  1.00  0.00    -0.206 F 
ATOM     95  C   UNL A   1      40.409  35.224  28.998  1.00  0.00     0.022 A 
BRANCH  92  96
ATOM     96  S   UNL A   1      42.836  36.309  28.161  1.00  0.00     0.124 S 
ATOM     97  O   UNL A   1      43.219  35.587  26.952  1.00  0.00    -0.237 OA
ATOM     98  O   UNL A   1      41.918  37.428  27.971  1.00  0.00    -0.237 OA
ATOM     99  O   UNL A   1      43.924  36.558  29.106  1.00  0.00    -0.744 OA
ENDBRANCH  92  96
ENDBRANCH  66  89
ENDBRANCH  40  41
ENDBRANCH  33  35
ENDBRANCH  32  33
ENDBRANCH  31  32
ENDBRANCH  30  31
ENDBRANCH  29  30
ENDBRANCH  28  29
ENDBRANCH   1  28
TORSDOF 25
ENDMDL
MODEL 2
REMARK VINA RESULT:      -8.2     11.958     17.564
REMARK SMILES CS(=O)(=O)c1cc(F)ccc1N1CCC[C@@H](C(=O)OCCOCCOCCOCCOC(=O)c2ccc(-c3c4nc(c(-c5cc(S(=O)(=O)[O-])ccc5F)c5ccc([nH]5)c(-c5cc(S(=O)(=O)[O-])ccc5F)c5nc(c(-c6cc(S(=O)(=O)[O-])ccc6F)c6ccc3[nH]6)C=C5)C=C4)cc2)C1
REMARK SMILES IDX 26 1 25 2 24 3 23 4 22 5 21 6 20 7 19 8 17 9 18 10 16 11
REMARK SMILES IDX 12 12 13 13 97 14 14 15 15 16 11 17 5 18 6 19 7 20 10 21
REMARK SMILES IDX 8 22 9 23 2 24 1 25 3 26 4 27 27 28 28 29 29 30 30 31 31 32
REMARK SMILES IDX 32 33 33 34 34 35 35 36 96 37 36 38 95 39 37 40 38 41 39 42
REMARK SMILES IDX 89 43 40 44 94 45 88 46 90 47 41 48 93 49 87 50 86 51 42 53
REMARK SMILES IDX 74 54 54 55 73 56 55 57 58 58 72 59 91 60 56 61 57 62 71 64
REMARK SMILES IDX 92 65 59 66 43 67 44 68 52 69 45 70 51 71 53 72 50 73 46 74
REMARK SMILES IDX 47 75 48 76 49 77 75 78 76 79 84 80 77 81 83 82 85 83 82 84
REMARK SMILES IDX 78 85 79 86 80 87 81 88 60 89 61 90 69 91 62 92 68 93 70 94
REMARK SMILES IDX 67 95 63 96 64 97 65 98 66 99
REMARK H PARENT 90 52 58 63
REMARK Flexibility Score: inf
ROOT
ATOM      1  C   UNL A   1      53.178  40.774  29.669  1.00  0.00     0.188 C 
ENDROOT
BRANCH   1   2
ATOM      2  O   UNL A   1      51.779  40.739  29.403  1.00  0.00    -0.377 OA
BRANCH   2   3
ATOM      3  C   UNL A   1      50.843  40.984  30.434  1.00  0.00     0.188 C 
BRANCH   3   4
ATOM      4  C   UNL A   1      49.369  41.114  30.028  1.00  0.00     0.188 C 
BRANCH   4   5
ATOM      5  O   UNL A   1      48.997  40.934  28.680  1.00  0.00    -0.376 OA
BRANCH   5   6
ATOM      6  C   UNL A   1      47.643  41.037  28.259  1.00  0.00     0.202 C 
BRANCH   6   7
ATOM      7  C   UNL A   1      46.651  39.862  28.182  1.00  0.00     0.261 C 
BRANCH   7   8
ATOM      8  O   UNL A   1      45.645  39.906  27.152  1.00  0.00    -0.463 OA
BRANCH   8   9
ATOM      9  C   UNL A   1      44.717  40.878  27.296  1.00  0.00     0.310 C 
ATOM     10  O   UNL A   1      44.558  41.789  26.484  1.00  0.00    -0.252 OA
BRANCH   9  11
ATOM     11  C   UNL A   1      43.815  40.773  28.512  1.00  0.00     0.118 C 
ATOM     12  N   UNL A   1      42.911  41.449  30.680  1.00  0.00    -0.370 N 
ATOM     13  C   UNL A   1      41.515  41.372  30.251  1.00  0.00     0.116 C 
ATOM     14  C   UNL A   1      43.885  41.825  29.630  1.00  0.00     0.131 C 
ATOM     15  C   UNL A   1      41.387  40.378  29.099  1.00  0.00     0.022 C 
ATOM     16  C   UNL A   1      42.373  40.690  27.981  1.00  0.00     0.019 C 
BRANCH  12  17
ATOM     17  C   UNL A   1      43.250  41.040  31.956  1.00  0.00     0.056 A 
ATOM     18  C   UNL A   1      43.490  41.882  33.059  1.00  0.00     0.093 A 
ATOM     19  C   UNL A   1      43.766  41.349  34.339  1.00  0.00     0.061 A 
ATOM     20  C   UNL A   1      43.800  39.979  34.534  1.00  0.00     0.124 A 
ATOM     21  C   UNL A   1      43.305  39.649  32.211  1.00  0.00     0.030 A 
ATOM     22  F   UNL A   1      44.041  39.485  35.755  1.00  0.00    -0.207 F 
ATOM     23  C   UNL A   1      43.571  39.119  33.479  1.00  0.00     0.041 A 
BRANCH  18  24
ATOM     24  S   UNL A   1      43.321  43.660  33.021  1.00  0.00     0.177 S 
ATOM     25  C   UNL A   1      44.862  44.184  32.321  1.00  0.00     0.164 C 
ATOM     26  O   UNL A   1      43.304  44.109  34.404  1.00  0.00    -0.224 OA
ATOM     27  O   UNL A   1      42.251  44.052  32.127  1.00  0.00    -0.224 OA
ENDBRANCH  18  24
ENDBRANCH  12  17
ENDBRANCH   9  11
ENDBRANCH   8   9
ENDBRANCH   7   8
ENDBRANCH   6   7
ENDBRANCH   5   6
ENDBRANCH   4   5
ENDBRANCH   3   4
ENDBRANCH   2   3
ENDBRANCH   1   2
BRANCH   1  28
ATOM     28  C   UNL A   1      53.966  39.479  29.937  1.00  0.00     0.188 C 
BRANCH  28  29
ATOM     29  O   UNL A   1      53.155  38.339  30.175  1.00  0.00    -0.376 OA
BRANCH  29  30
ATOM     30  C   UNL A   1      52.817  38.026  31.518  1.00  0.00     0.202 C 
BRANCH  30  31
ATOM     31  C   UNL A   1      51.464  37.339  31.759  1.00  0.00     0.261 C 
BRANCH  31  32
ATOM     32  O   UNL A   1      50.608  37.946  32.744  1.00  0.00    -0.460 OA
BRANCH  32  33
ATOM     33  C   UNL A   1      50.535  37.324  33.945  1.00  0.00     0.338 C 
ATOM     34  O   UNL A   1      51.450  37.152  34.723  1.00  0.00    -0.246 OA
BRANCH  33  35
ATOM     35  C   UNL A   1      49.114  37.056  34.261  1.00  0.00     0.060 A 
ATOM     36  C   UNL A   1      48.697  35.723  34.338  1.00  0.00     0.016 A 
ATOM     37  C   UNL A   1      48.191  38.094  34.409  1.00  0.00     0.016 A 
ATOM     38  C   UNL A   1      47.345  35.421  34.491  1.00  0.00     0.010 A 
ATOM     39  C   UNL A   1      46.830  37.789  34.548  1.00  0.00     0.010 A 
ATOM     40  C   UNL A   1      46.395  36.451  34.536  1.00  0.00    -0.014 A 
BRANCH  40  41
ATOM     41  C   UNL A   1      44.962  36.107  34.333  1.00  0.00     0.031 A 
ATOM     42  C   UNL A   1      44.476  35.870  32.925  1.00  0.00     0.074 A 
ATOM     43  C   UNL A   1      44.135  35.896  35.373  1.00  0.00     0.049 A 
ATOM     44  N   UNL A   1      43.289  35.514  32.506  1.00  0.00    -0.248 NA
ATOM     45  C   UNL A   1      45.464  36.049  31.848  1.00  0.00     0.031 C 
ATOM     46  C   UNL A   1      44.505  36.017  36.782  1.00  0.00     0.029 A 
ATOM     47  N   UNL A   1      42.816  35.511  35.405  1.00  0.00    -0.354 N 
ATOM     48  C   UNL A   1      43.392  35.418  31.121  1.00  0.00     0.074 A 
ATOM     49  C   UNL A   1      44.740  35.798  30.768  1.00  0.00     0.031 C 
ATOM     50  C   UNL A   1      43.443  35.690  37.541  1.00  0.00     0.029 A 
ATOM     51  C   UNL A   1      42.307  35.374  36.675  1.00  0.00     0.049 A 
ATOM     52  H   UNL A   1      42.284  35.348  34.592  1.00  0.00     0.167 HD
ATOM     53  C   UNL A   1      42.453  35.028  30.227  1.00  0.00     0.034 A 
ATOM     54  C   UNL A   1      41.067  35.042  37.094  1.00  0.00     0.034 A 
ATOM     55  C   UNL A   1      41.111  34.649  30.584  1.00  0.00     0.049 A 
ATOM     56  C   UNL A   1      39.999  34.733  36.074  1.00  0.00     0.074 A 
ATOM     57  C   UNL A   1      40.084  34.243  29.750  1.00  0.00     0.029 A 
ATOM     58  N   UNL A   1      40.606  34.634  31.876  1.00  0.00    -0.354 N 
ATOM     59  N   UNL A   1      40.101  34.681  34.766  1.00  0.00    -0.248 NA
ATOM     60  C   UNL A   1      38.649  34.441  36.580  1.00  0.00     0.031 C 
ATOM     61  C   UNL A   1      38.940  34.053  30.528  1.00  0.00     0.029 A 
ATOM     62  C   UNL A   1      39.274  34.261  31.857  1.00  0.00     0.049 A 
ATOM     63  H   UNL A   1      41.120  34.855  32.686  1.00  0.00     0.167 HD
ATOM     64  C   UNL A   1      38.840  34.327  34.297  1.00  0.00     0.074 A 
ATOM     65  C   UNL A   1      37.987  34.183  35.458  1.00  0.00     0.031 C 
ATOM     66  C   UNL A   1      38.431  34.127  33.020  1.00  0.00     0.034 A 
BRANCH  53  67
ATOM     67  C   UNL A   1      42.831  35.023  28.769  1.00  0.00     0.023 A 
ATOM     68  C   UNL A   1      43.452  33.910  28.175  1.00  0.00     0.031 A 
ATOM     69  C   UNL A   1      42.545  36.135  27.959  1.00  0.00     0.131 A 
ATOM     70  C   UNL A   1      43.801  33.950  26.817  1.00  0.00     0.055 A 
ATOM     71  C   UNL A   1      42.836  36.142  26.594  1.00  0.00     0.041 A 
ATOM     72  F   UNL A   1      41.972  37.230  28.481  1.00  0.00    -0.206 F 
ATOM     73  C   UNL A   1      43.475  35.048  26.017  1.00  0.00     0.022 A 
BRANCH  70  74
ATOM     74  S   UNL A   1      44.765  32.578  26.127  1.00  0.00     0.124 S 
ATOM     75  O   UNL A   1      43.923  31.431  26.457  1.00  0.00    -0.237 OA
ATOM     76  O   UNL A   1      44.844  32.927  24.714  1.00  0.00    -0.237 OA
ATOM     77  O   UNL A   1      46.029  32.648  26.857  1.00  0.00    -0.744 OA
ENDBRANCH  70  74
ENDBRANCH  53  67
BRANCH  54  78
ATOM     78  C   UNL A   1      40.762  35.008  38.552  1.00  0.00     0.023 A 
ATOM     79  C   UNL A   1      40.710  33.796  39.257  1.00  0.00     0.031 A 
ATOM     80  C   UNL A   1      40.527  36.199  39.264  1.00  0.00     0.131 A 
ATOM     81  C   UNL A   1      40.419  33.800  40.631  1.00  0.00     0.055 A 
ATOM     82  C   UNL A   1      40.276  36.200  40.637  1.00  0.00     0.041 A 
ATOM     83  F   UNL A   1      40.566  37.384  38.635  1.00  0.00    -0.206 F 
ATOM     84  C   UNL A   1      40.218  34.994  41.328  1.00  0.00     0.022 A 
BRANCH  81  85
ATOM     85  S   UNL A   1      40.292  32.213  41.502  1.00  0.00     0.124 S 
ATOM     86  O   UNL A   1      39.077  31.653  40.920  1.00  0.00    -0.237 OA
ATOM     87  O   UNL A   1      41.543  31.560  41.132  1.00  0.00    -0.237 OA
ATOM     88  O   UNL A   1      40.189  32.604  42.906  1.00  0.00    -0.744 OA
ENDBRANCH  81  85
ENDBRANCH  54  78
BRANCH  66  89
ATOM     89  C   UNL A   1      37.007  33.695  32.781  1.00  0.00     0.023 A 
ATOM     90  C   UNL A   1      35.992  34.628  32.516  1.00  0.00     0.031 A 
ATOM     91  C   UNL A   1      36.698  32.325  32.695  1.00  0.00     0.131 A 
ATOM     92  C   UNL A   1      34.708  34.176  32.174  1.00  0.00     0.055 A 
ATOM     93  C   UNL A   1      35.431  31.884  32.315  1.00  0.00     0.041 A 
ATOM     94  F   UNL A   1      37.640  31.398  32.929  1.00  0.00    -0.206 F 
ATOM     95  C   UNL A   1      34.427  32.811  32.050  1.00  0.00     0.022 A 
BRANCH  92  96
ATOM     96  S   UNL A   1      33.400  35.397  31.876  1.00  0.00     0.124 S 
ATOM     97  O   UNL A   1      33.099  35.177  30.465  1.00  0.00    -0.237 OA
ATOM     98  O   UNL A   1      32.363  34.990  32.820  1.00  0.00    -0.237 OA
ATOM     99  O   UNL A   1      34.045  36.673  32.182  1.00  0.00    -0.744 OA
ENDBRANCH  92  96
ENDBRANCH  66  89
ENDBRANCH  40  41
ENDBRANCH  33  35
ENDBRANCH  32  33
ENDBRANCH  31  32
ENDBRANCH  30  31
ENDBRANCH  29  30
ENDBRANCH  28  29
ENDBRANCH   1  28
TORSDOF 25
ENDMDL
MODEL 3
REMARK VINA RESULT:      -8.1     11.009     14.907
REMARK SMILES CS(=O)(=O)c1cc(F)ccc1N1CCC[C@@H](C(=O)OCCOCCOCCOCCOC(=O)c2ccc(-c3c4nc(c(-c5cc(S(=O)(=O)[O-])ccc5F)c5ccc([nH]5)c(-c5cc(S(=O)(=O)[O-])ccc5F)c5nc(c(-c6cc(S(=O)(=O)[O-])ccc6F)c6ccc3[nH]6)C=C5)C=C4)cc2)C1
REMARK SMILES IDX 26 1 25 2 24 3 23 4 22 5 21 6 20 7 19 8 17 9 18 10 16 11
REMARK SMILES IDX 12 12 13 13 97 14 14 15 15 16 11 17 5 18 6 19 7 20 10 21
REMARK SMILES IDX 8 22 9 23 2 24 1 25 3 26 4 27 27 28 28 29 29 30 30 31 31 32
REMARK SMILES IDX 32 33 33 34 34 35 35 36 96 37 36 38 95 39 37 40 38 41 39 42
REMARK SMILES IDX 89 43 40 44 94 45 88 46 90 47 41 48 93 49 87 50 86 51 42 53
REMARK SMILES IDX 74 54 54 55 73 56 55 57 58 58 72 59 91 60 56 61 57 62 71 64
REMARK SMILES IDX 92 65 59 66 43 67 44 68 52 69 45 70 51 71 53 72 50 73 46 74
REMARK SMILES IDX 47 75 48 76 49 77 75 78 76 79 84 80 77 81 83 82 85 83 82 84
REMARK SMILES IDX 78 85 79 86 80 87 81 88 60 89 61 90 69 91 62 92 68 93 70 94
REMARK SMILES IDX 67 95 63 96 64 97 65 98 66 99
REMARK H PARENT 90 52 58 63
REMARK Flexibility Score: inf
ROOT
ATOM      1  C   UNL A   1      39.320  23.252  26.599  1.00  0.00     0.188 C 
ENDROOT
BRANCH   1   2
ATOM      2  O   UNL A   1      39.039  21.945  26.106  1.00  0.00    -0.377 OA
BRANCH   2   3
ATOM      3  C   UNL A   1      37.935  21.720  25.253  1.00  0.00     0.188 C 
BRANCH   3   4
ATOM      4  C   UNL A   1      36.786  22.735  25.309  1.00  0.00     0.188 C 
BRANCH   4   5
ATOM      5  O   UNL A   1      35.752  22.568  26.254  1.00  0.00    -0.376 OA
BRANCH   5   6
ATOM      6  C   UNL A   1      34.658  21.692  26.016  1.00  0.00     0.202 C 
BRANCH   6   7
ATOM      7  C   UNL A   1      34.228  21.175  24.631  1.00  0.00     0.261 C 
BRANCH   7   8
ATOM      8  O   UNL A   1      33.024  21.720  24.060  1.00  0.00    -0.463 OA
BRANCH   8   9
ATOM      9  C   UNL A   1      33.103  23.015  23.680  1.00  0.00     0.310 C 
ATOM     10  O   UNL A   1      33.728  23.394  22.690  1.00  0.00    -0.252 OA
BRANCH   9  11
ATOM     11  C   UNL A   1      32.324  24.012  24.519  1.00  0.00     0.118 C 
ATOM     12  N   UNL A   1      30.877  25.942  24.913  1.00  0.00    -0.370 N 
ATOM     13  C   UNL A   1      29.974  25.226  25.814  1.00  0.00     0.116 C 
ATOM     14  C   UNL A   1      31.503  25.125  23.849  1.00  0.00     0.131 C 
ATOM     15  C   UNL A   1      30.719  24.068  26.473  1.00  0.00     0.022 C 
ATOM     16  C   UNL A   1      31.406  23.186  25.438  1.00  0.00     0.019 C 
BRANCH  12  17
ATOM     17  C   UNL A   1      31.199  27.258  25.184  1.00  0.00     0.056 A 
ATOM     18  C   UNL A   1      30.846  28.375  24.402  1.00  0.00     0.093 A 
ATOM     19  C   UNL A   1      31.174  29.688  24.813  1.00  0.00     0.061 A 
ATOM     20  C   UNL A   1      31.847  29.901  26.003  1.00  0.00     0.124 A 
ATOM     21  C   UNL A   1      31.893  27.535  26.387  1.00  0.00     0.030 A 
ATOM     22  F   UNL A   1      32.134  31.150  26.392  1.00  0.00    -0.207 F 
ATOM     23  C   UNL A   1      32.211  28.834  26.799  1.00  0.00     0.041 A 
BRANCH  18  24
ATOM     24  S   UNL A   1      29.837  28.292  22.931  1.00  0.00     0.177 S 
ATOM     25  C   UNL A   1      29.571  30.000  22.543  1.00  0.00     0.164 C 
ATOM     26  O   UNL A   1      28.554  27.739  23.334  1.00  0.00    -0.224 OA
ATOM     27  O   UNL A   1      30.571  27.680  21.843  1.00  0.00    -0.224 OA
ENDBRANCH  18  24
ENDBRANCH  12  17
ENDBRANCH   9  11
ENDBRANCH   8   9
ENDBRANCH   7   8
ENDBRANCH   6   7
ENDBRANCH   5   6
ENDBRANCH   4   5
ENDBRANCH   3   4
ENDBRANCH   2   3
ENDBRANCH   1   2
BRANCH   1  28
ATOM     28  C   UNL A   1      40.722  23.617  27.121  1.00  0.00     0.188 C 
BRANCH  28  29
ATOM     29  O   UNL A   1      41.789  23.103  26.341  1.00  0.00    -0.376 OA
BRANCH  29  30
ATOM     30  C   UNL A   1      43.118  23.393  26.748  1.00  0.00     0.202 C 
BRANCH  30  31
ATOM     31  C   UNL A   1      44.057  24.002  25.695  1.00  0.00     0.261 C 
BRANCH  31  32
ATOM     32  O   UNL A   1      44.287  25.420  25.792  1.00  0.00    -0.460 OA
BRANCH  32  33
ATOM     33  C   UNL A   1      43.219  26.221  25.561  1.00  0.00     0.338 C 
ATOM     34  O   UNL A   1      42.413  26.103  24.662  1.00  0.00    -0.246 OA
BRANCH  33  35
ATOM     35  C   UNL A   1      43.067  27.157  26.697  1.00  0.00     0.060 A 
ATOM     36  C   UNL A   1      42.292  28.306  26.505  1.00  0.00     0.016 A 
ATOM     37  C   UNL A   1      43.728  26.947  27.910  1.00  0.00     0.016 A 
ATOM     38  C   UNL A   1      42.236  29.286  27.495  1.00  0.00     0.010 A 
ATOM     39  C   UNL A   1      43.682  27.939  28.899  1.00  0.00     0.010 A 
ATOM     40  C   UNL A   1      42.979  29.137  28.674  1.00  0.00    -0.014 A 
BRANCH  40  41
ATOM     41  C   UNL A   1      43.192  30.330  29.536  1.00  0.00     0.031 A 
ATOM     42  C   UNL A   1      44.478  31.103  29.383  1.00  0.00     0.074 A 
ATOM     43  C   UNL A   1      42.226  30.788  30.354  1.00  0.00     0.049 A 
ATOM     44  N   UNL A   1      44.865  32.197  29.986  1.00  0.00    -0.248 NA
ATOM     45  C   UNL A   1      45.451  30.577  28.412  1.00  0.00     0.031 C 
ATOM     46  C   UNL A   1      40.911  30.175  30.533  1.00  0.00     0.029 A 
ATOM     47  N   UNL A   1      42.194  31.894  31.170  1.00  0.00    -0.354 N 
ATOM     48  C   UNL A   1      46.119  32.493  29.461  1.00  0.00     0.074 A 
ATOM     49  C   UNL A   1      46.448  31.440  28.527  1.00  0.00     0.031 C 
ATOM     50  C   UNL A   1      40.193  30.925  31.388  1.00  0.00     0.029 A 
ATOM     51  C   UNL A   1      41.007  32.051  31.848  1.00  0.00     0.049 A 
ATOM     52  H   UNL A   1      42.952  32.516  31.262  1.00  0.00     0.167 HD
ATOM     53  C   UNL A   1      46.917  33.557  29.718  1.00  0.00     0.034 A 
ATOM     54  C   UNL A   1      40.623  32.986  32.743  1.00  0.00     0.034 A 
ATOM     55  C   UNL A   1      46.584  34.604  30.648  1.00  0.00     0.049 A 
ATOM     56  C   UNL A   1      41.578  34.096  33.110  1.00  0.00     0.074 A 
ATOM     57  C   UNL A   1      47.327  35.723  30.981  1.00  0.00     0.029 A 
ATOM     58  N   UNL A   1      45.417  34.662  31.396  1.00  0.00    -0.354 N 
ATOM     59  N   UNL A   1      42.776  34.342  32.632  1.00  0.00    -0.248 NA
ATOM     60  C   UNL A   1      41.136  35.050  34.137  1.00  0.00     0.031 C 
ATOM     61  C   UNL A   1      46.645  36.417  31.983  1.00  0.00     0.029 A 
ATOM     62  C   UNL A   1      45.439  35.777  32.216  1.00  0.00     0.049 A 
ATOM     63  H   UNL A   1      44.684  34.007  31.350  1.00  0.00     0.167 HD
ATOM     64  C   UNL A   1      43.217  35.491  33.280  1.00  0.00     0.074 A 
ATOM     65  C   UNL A   1      42.163  35.890  34.189  1.00  0.00     0.031 C 
ATOM     66  C   UNL A   1      44.385  36.162  33.124  1.00  0.00     0.034 A 
BRANCH  53  67
ATOM     67  C   UNL A   1      48.243  33.628  29.009  1.00  0.00     0.023 A 
ATOM     68  C   UNL A   1      48.401  34.353  27.815  1.00  0.00     0.031 A 
ATOM     69  C   UNL A   1      49.369  32.982  29.548  1.00  0.00     0.131 A 
ATOM     70  C   UNL A   1      49.651  34.383  27.178  1.00  0.00     0.055 A 
ATOM     71  C   UNL A   1      50.625  33.070  28.944  1.00  0.00     0.041 A 
ATOM     72  F   UNL A   1      49.268  32.261  30.675  1.00  0.00    -0.206 F 
ATOM     73  C   UNL A   1      50.769  33.768  27.748  1.00  0.00     0.022 A 
BRANCH  70  74
ATOM     74  S   UNL A   1      49.777  35.167  25.549  1.00  0.00     0.124 S 
ATOM     75  O   UNL A   1      50.609  36.330  25.846  1.00  0.00    -0.237 OA
ATOM     76  O   UNL A   1      50.400  34.124  24.743  1.00  0.00    -0.237 OA
ATOM     77  O   UNL A   1      48.389  35.471  25.207  1.00  0.00    -0.744 OA
ENDBRANCH  70  74
ENDBRANCH  53  67
BRANCH  54  78
ATOM     78  C   UNL A   1      39.276  32.899  33.372  1.00  0.00     0.023 A 
ATOM     79  C   UNL A   1      38.156  33.506  32.783  1.00  0.00     0.031 A 
ATOM     80  C   UNL A   1      39.089  32.194  34.576  1.00  0.00     0.131 A 
ATOM     81  C   UNL A   1      36.900  33.405  33.403  1.00  0.00     0.055 A 
ATOM     82  C   UNL A   1      37.832  32.064  35.168  1.00  0.00     0.041 A 
ATOM     83  F   UNL A   1      40.129  31.595  35.178  1.00  0.00    -0.206 F 
ATOM     84  C   UNL A   1      36.728  32.675  34.583  1.00  0.00     0.022 A 
BRANCH  81  85
ATOM     85  S   UNL A   1      35.484  34.257  32.654  1.00  0.00     0.124 S 
ATOM     86  O   UNL A   1      35.654  33.929  31.244  1.00  0.00    -0.237 OA
ATOM     87  O   UNL A   1      34.355  33.627  33.330  1.00  0.00    -0.237 OA
ATOM     88  O   UNL A   1      35.709  35.659  33.001  1.00  0.00    -0.744 OA
ENDBRANCH  81  85
ENDBRANCH  54  78
BRANCH  66  89
ATOM     89  C   UNL A   1      44.601  37.423  33.919  1.00  0.00     0.023 A 
ATOM     90  C   UNL A   1      45.233  37.402  35.172  1.00  0.00     0.031 A 
ATOM     91  C   UNL A   1      44.280  38.670  33.352  1.00  0.00     0.131 A 
ATOM     92  C   UNL A   1      45.528  38.611  35.821  1.00  0.00     0.055 A 
ATOM     93  C   UNL A   1      44.612  39.868  33.983  1.00  0.00     0.041 A 
ATOM     94  F   UNL A   1      43.684  38.739  32.151  1.00  0.00    -0.206 F 
ATOM     95  C   UNL A   1      45.242  39.843  35.224  1.00  0.00     0.022 A 
BRANCH  92  96
ATOM     96  S   UNL A   1      46.309  38.560  37.457  1.00  0.00     0.124 S 
ATOM     97  O   UNL A   1      47.636  39.099  37.175  1.00  0.00    -0.237 OA
ATOM     98  O   UNL A   1      45.432  39.412  38.255  1.00  0.00    -0.237 OA
ATOM     99  O   UNL A   1      46.277  37.141  37.809  1.00  0.00    -0.744 OA
ENDBRANCH  92  96
ENDBRANCH  66  89
ENDBRANCH  40  41
ENDBRANCH  33  35
ENDBRANCH  32  33
ENDBRANCH  31  32
ENDBRANCH  30  31
ENDBRANCH  29  30
ENDBRANCH  28  29
ENDBRANCH   1  28
TORSDOF 25
ENDMDL
