MODEL 1
REMARK VINA RESULT:     -10.0      0.000      0.000
REMARK SMILES COc1ccc(CCc2nnc(NC(=O)[C@@H]3[C@@H](C(=O)OCCOCCOCCOCCOC(=O)c4ccc(-c5c6nc(c(-c7cc(S(=O)(=O)[O-])ccc7F)c7ccc([nH]7)c(-c7cc(S(=O)(=O)[O-])ccc7F)c7nc(c(-c8cc(S(=O)(=O)[O-])ccc8F)c8ccc5[nH]8)C=C7)C=C6)cc4)C3(C)C)s2)cc1
REMARK SMILES IDX 24 1 23 2 22 3 21 4 20 5 18 6 19 7 17 8 16 9 98 10 99 11
REMARK SMILES IDX 100 12 14 13 13 14 15 16 12 17 9 18 10 19 101 20 11 21 8 22
REMARK SMILES IDX 7 23 6 24 3 25 4 26 103 27 5 28 102 29 2 30 1 31 25 32 26 33
REMARK SMILES IDX 27 34 28 35 29 36 30 37 31 38 32 39 33 40 34 41 35 42 36 43
REMARK SMILES IDX 97 44 37 45 96 46 38 47 39 48 40 49 90 50 41 51 95 52 89 53
REMARK SMILES IDX 91 54 42 55 94 56 88 57 87 58 43 60 75 61 55 62 74 63 56 64
REMARK SMILES IDX 59 65 73 66 92 67 57 68 58 69 72 71 93 72 60 73 44 74 45 75
REMARK SMILES IDX 53 76 46 77 52 78 54 79 51 80 47 81 48 82 49 83 50 84 76 85
REMARK SMILES IDX 77 86 85 87 78 88 84 89 86 90 83 91 79 92 80 93 81 94 82 95
REMARK SMILES IDX 61 96 62 97 70 98 63 99 69 100 71 101 68 102 64 103 65 104
REMARK SMILES IDX 66 105 67 106
REMARK H PARENT 13 15 91 59 59 70
REMARK Flexibility Score: inf
ROOT
ATOM      1  C   UNL A   1      33.321  31.087  27.291  1.00  0.00     0.188 C 
ENDROOT
BRANCH   1   2
ATOM      2  O   UNL A   1      34.241  30.006  27.385  1.00  0.00    -0.376 OA
BRANCH   2   3
ATOM      3  C   UNL A   1      34.263  29.124  26.268  1.00  0.00     0.202 C 
BRANCH   3   4
ATOM      4  C   UNL A   1      33.184  29.377  25.208  1.00  0.00     0.261 C 
BRANCH   4   5
ATOM      5  O   UNL A   1      33.218  28.471  24.094  1.00  0.00    -0.463 OA
BRANCH   5   6
ATOM      6  C   UNL A   1      32.089  28.355  23.372  1.00  0.00     0.310 C 
ATOM      7  O   UNL A   1      31.834  28.966  22.341  1.00  0.00    -0.252 OA
BRANCH   6   8
ATOM      8  C   UNL A   1      31.166  27.305  23.866  1.00  0.00     0.118 C 
ATOM      9  C   UNL A   1      31.791  26.199  24.685  1.00  0.00     0.100 C 
ATOM     10  C   UNL A   1      30.973  25.839  23.468  1.00  0.00    -0.009 C 
ATOM     11  C   UNL A   1      31.772  25.130  22.391  1.00  0.00     0.013 C 
ATOM     12  C   UNL A   1      29.584  25.264  23.620  1.00  0.00     0.013 C 
BRANCH   9  13
ATOM     13  C   UNL A   1      31.418  26.106  26.119  1.00  0.00     0.230 C 
ATOM     14  N   UNL A   1      31.627  24.910  26.768  1.00  0.00    -0.300 N 
ATOM     15  H   UNL A   1      31.221  24.784  27.655  1.00  0.00     0.172 HD
ATOM     16  O   UNL A   1      30.867  27.038  26.699  1.00  0.00    -0.274 OA
BRANCH  14  17
ATOM     17  C   UNL A   1      32.368  23.888  26.244  1.00  0.00     0.212 A 
ATOM     18  C   UNL A   1      33.088  22.218  24.748  1.00  0.00     0.119 A 
ATOM     19  N   UNL A   1      34.089  22.738  25.427  1.00  0.00    -0.142 NA
ATOM     20  S   UNL A   1      31.533  22.744  25.295  1.00  0.00    -0.080 S 
ATOM     21  N   UNL A   1      33.664  23.711  26.296  1.00  0.00    -0.120 NA
BRANCH  18  22
ATOM     22  C   UNL A   1      33.260  21.303  23.581  1.00  0.00     0.074 C 
BRANCH  22  23
ATOM     23  C   UNL A   1      32.209  20.184  23.536  1.00  0.00     0.043 C 
BRANCH  23  24
ATOM     24  C   UNL A   1      32.675  18.821  23.999  1.00  0.00    -0.047 A 
ATOM     25  C   UNL A   1      33.442  16.243  24.851  1.00  0.00     0.118 A 
ATOM     26  C   UNL A   1      33.657  16.644  23.534  1.00  0.00     0.046 A 
ATOM     27  C   UNL A   1      32.883  17.143  25.755  1.00  0.00     0.046 A 
ATOM     28  C   UNL A   1      33.260  17.913  23.105  1.00  0.00     0.007 A 
ATOM     29  C   UNL A   1      32.505  18.425  25.333  1.00  0.00     0.007 A 
BRANCH  25  30
ATOM     30  O   UNL A   1      33.852  14.976  25.161  1.00  0.00    -0.497 OA
ATOM     31  C   UNL A   1      32.847  14.155  25.754  1.00  0.00     0.278 C 
ENDBRANCH  25  30
ENDBRANCH  23  24
ENDBRANCH  22  23
ENDBRANCH  18  22
ENDBRANCH  14  17
ENDBRANCH   9  13
ENDBRANCH   6   8
ENDBRANCH   5   6
ENDBRANCH   4   5
ENDBRANCH   3   4
ENDBRANCH   2   3
ENDBRANCH   1   2
BRANCH   1  32
ATOM     32  C   UNL A   1      33.664  32.300  28.167  1.00  0.00     0.188 C 
BRANCH  32  33
ATOM     33  O   UNL A   1      34.642  33.219  27.714  1.00  0.00    -0.377 OA
BRANCH  33  34
ATOM     34  C   UNL A   1      35.064  34.280  28.565  1.00  0.00     0.188 C 
BRANCH  34  35
ATOM     35  C   UNL A   1      34.033  35.056  29.407  1.00  0.00     0.188 C 
BRANCH  35  36
ATOM     36  O   UNL A   1      33.520  34.348  30.530  1.00  0.00    -0.376 OA
BRANCH  36  37
ATOM     37  C   UNL A   1      34.466  33.987  31.528  1.00  0.00     0.202 C 
BRANCH  37  38
ATOM     38  C   UNL A   1      34.897  32.515  31.499  1.00  0.00     0.261 C 
BRANCH  38  39
ATOM     39  O   UNL A   1      35.525  32.046  32.704  1.00  0.00    -0.460 OA
BRANCH  39  40
ATOM     40  C   UNL A   1      36.518  32.808  33.213  1.00  0.00     0.338 C 
ATOM     41  O   UNL A   1      36.449  33.569  34.160  1.00  0.00    -0.246 OA
BRANCH  40  42
ATOM     42  C   UNL A   1      37.769  32.434  32.529  1.00  0.00     0.060 A 
ATOM     43  C   UNL A   1      37.945  32.815  31.195  1.00  0.00     0.016 A 
ATOM     44  C   UNL A   1      38.751  31.697  33.197  1.00  0.00     0.016 A 
ATOM     45  C   UNL A   1      39.093  32.422  30.509  1.00  0.00     0.010 A 
ATOM     46  C   UNL A   1      39.893  31.292  32.504  1.00  0.00     0.010 A 
ATOM     47  C   UNL A   1      40.053  31.624  31.148  1.00  0.00    -0.014 A 
BRANCH  47  48
ATOM     48  C   UNL A   1      41.120  30.985  30.342  1.00  0.00     0.031 A 
ATOM     49  C   UNL A   1      42.409  31.736  30.138  1.00  0.00     0.074 A 
ATOM     50  C   UNL A   1      40.962  29.750  29.832  1.00  0.00     0.049 A 
ATOM     51  N   UNL A   1      43.494  31.372  29.505  1.00  0.00    -0.248 NA
ATOM     52  C   UNL A   1      42.476  33.083  30.725  1.00  0.00     0.031 C 
ATOM     53  C   UNL A   1      39.769  28.919  29.981  1.00  0.00     0.029 A 
ATOM     54  N   UNL A   1      41.820  28.980  29.089  1.00  0.00    -0.354 N 
ATOM     55  C   UNL A   1      44.376  32.441  29.624  1.00  0.00     0.074 A 
ATOM     56  C   UNL A   1      43.680  33.482  30.349  1.00  0.00     0.031 C 
ATOM     57  C   UNL A   1      39.975  27.746  29.355  1.00  0.00     0.029 A 
ATOM     58  C   UNL A   1      41.301  27.754  28.742  1.00  0.00     0.049 A 
ATOM     59  H   UNL A   1      42.721  29.276  28.830  1.00  0.00     0.167 HD
ATOM     60  C   UNL A   1      45.653  32.542  29.177  1.00  0.00     0.034 A 
ATOM     61  C   UNL A   1      41.839  26.762  28.004  1.00  0.00     0.034 A 
ATOM     62  C   UNL A   1      46.326  31.505  28.435  1.00  0.00     0.049 A 
ATOM     63  C   UNL A   1      43.232  26.931  27.449  1.00  0.00     0.074 A 
ATOM     64  C   UNL A   1      47.627  31.487  27.959  1.00  0.00     0.029 A 
ATOM     65  N   UNL A   1      45.745  30.306  28.038  1.00  0.00    -0.354 N 
ATOM     66  N   UNL A   1      44.065  27.936  27.588  1.00  0.00    -0.248 NA
ATOM     67  C   UNL A   1      43.752  25.822  26.639  1.00  0.00     0.031 C 
ATOM     68  C   UNL A   1      47.807  30.315  27.214  1.00  0.00     0.029 A 
ATOM     69  C   UNL A   1      46.645  29.563  27.287  1.00  0.00     0.049 A 
ATOM     70  H   UNL A   1      44.827  30.026  28.258  1.00  0.00     0.167 HD
ATOM     71  C   UNL A   1      45.218  27.570  26.897  1.00  0.00     0.074 A 
ATOM     72  C   UNL A   1      44.976  26.245  26.361  1.00  0.00     0.031 C 
ATOM     73  C   UNL A   1      46.375  28.261  26.725  1.00  0.00     0.034 A 
BRANCH  60  74
ATOM     74  C   UNL A   1      46.372  33.844  29.437  1.00  0.00     0.023 A 
ATOM     75  C   UNL A   1      46.860  34.181  30.713  1.00  0.00     0.031 A 
ATOM     76  C   UNL A   1      46.527  34.785  28.404  1.00  0.00     0.131 A 
ATOM     77  C   UNL A   1      47.410  35.452  30.938  1.00  0.00     0.055 A 
ATOM     78  C   UNL A   1      47.146  36.018  28.617  1.00  0.00     0.041 A 
ATOM     79  F   UNL A   1      46.060  34.529  27.171  1.00  0.00    -0.206 F 
ATOM     80  C   UNL A   1      47.576  36.364  29.894  1.00  0.00     0.022 A 
BRANCH  77  81
ATOM     81  S   UNL A   1      47.763  35.954  32.646  1.00  0.00     0.124 S 
ATOM     82  O   UNL A   1      48.995  36.723  32.480  1.00  0.00    -0.237 OA
ATOM     83  O   UNL A   1      46.574  36.720  33.001  1.00  0.00    -0.237 OA
ATOM     84  O   UNL A   1      47.922  34.684  33.351  1.00  0.00    -0.744 OA
ENDBRANCH  77  81
ENDBRANCH  60  74
BRANCH  61  85
ATOM     85  C   UNL A   1      41.056  25.532  27.700  1.00  0.00     0.023 A 
ATOM     86  C   UNL A   1      41.611  24.255  27.868  1.00  0.00     0.031 A 
ATOM     87  C   UNL A   1      39.762  25.628  27.161  1.00  0.00     0.131 A 
ATOM     88  C   UNL A   1      40.885  23.122  27.465  1.00  0.00     0.055 A 
ATOM     89  C   UNL A   1      39.024  24.498  26.810  1.00  0.00     0.041 A 
ATOM     90  F   UNL A   1      39.199  26.829  26.961  1.00  0.00    -0.206 F 
ATOM     91  C   UNL A   1      39.590  23.234  26.954  1.00  0.00     0.022 A 
BRANCH  88  92
ATOM     92  S   UNL A   1      41.687  21.498  27.543  1.00  0.00     0.124 S 
ATOM     93  O   UNL A   1      42.217  21.365  26.190  1.00  0.00    -0.237 OA
ATOM     94  O   UNL A   1      42.672  21.693  28.603  1.00  0.00    -0.237 OA
ATOM     95  O   UNL A   1      40.589  20.593  27.875  1.00  0.00    -0.744 OA
ENDBRANCH  88  92
ENDBRANCH  61  85
BRANCH  73  96
ATOM     96  C   UNL A   1      47.463  27.575  25.934  1.00  0.00     0.023 A 
ATOM     97  C   UNL A   1      48.494  26.858  26.569  1.00  0.00     0.031 A 
ATOM     98  C   UNL A   1      47.493  27.673  24.531  1.00  0.00     0.131 A 
ATOM     99  C   UNL A   1      49.547  26.326  25.808  1.00  0.00     0.055 A 
ATOM    100  C   UNL A   1      48.510  27.086  23.775  1.00  0.00     0.041 A 
ATOM    101  F   UNL A   1      46.538  28.347  23.872  1.00  0.00    -0.206 F 
ATOM    102  C   UNL A   1      49.553  26.423  24.415  1.00  0.00     0.022 A 
BRANCH  99 103
ATOM    103  S   UNL A   1      50.969  25.608  26.676  1.00  0.00     0.124 S 
ATOM    104  O   UNL A   1      51.880  25.312  25.575  1.00  0.00    -0.237 OA
ATOM    105  O   UNL A   1      51.374  26.693  27.563  1.00  0.00    -0.237 OA
ATOM    106  O   UNL A   1      50.406  24.437  27.346  1.00  0.00    -0.744 OA
ENDBRANCH  99 103
ENDBRANCH  73  96
ENDBRANCH  47  48
ENDBRANCH  40  42
ENDBRANCH  39  40
ENDBRANCH  38  39
ENDBRANCH  37  38
ENDBRANCH  36  37
ENDBRANCH  35  36
ENDBRANCH  34  35
ENDBRANCH  33  34
ENDBRANCH  32  33
ENDBRANCH   1  32
TORSDOF 29
ENDMDL
MODEL 2
REMARK VINA RESULT:      -9.8      3.729      7.222
REMARK SMILES COc1ccc(CCc2nnc(NC(=O)[C@@H]3[C@@H](C(=O)OCCOCCOCCOCCOC(=O)c4ccc(-c5c6nc(c(-c7cc(S(=O)(=O)[O-])ccc7F)c7ccc([nH]7)c(-c7cc(S(=O)(=O)[O-])ccc7F)c7nc(c(-c8cc(S(=O)(=O)[O-])ccc8F)c8ccc5[nH]8)C=C7)C=C6)cc4)C3(C)C)s2)cc1
REMARK SMILES IDX 24 1 23 2 22 3 21 4 20 5 18 6 19 7 17 8 16 9 98 10 99 11
REMARK SMILES IDX 100 12 14 13 13 14 15 16 12 17 9 18 10 19 101 20 11 21 8 22
REMARK SMILES IDX 7 23 6 24 3 25 4 26 103 27 5 28 102 29 2 30 1 31 25 32 26 33
REMARK SMILES IDX 27 34 28 35 29 36 30 37 31 38 32 39 33 40 34 41 35 42 36 43
REMARK SMILES IDX 97 44 37 45 96 46 38 47 39 48 40 49 90 50 41 51 95 52 89 53
REMARK SMILES IDX 91 54 42 55 94 56 88 57 87 58 43 60 75 61 55 62 74 63 56 64
REMARK SMILES IDX 59 65 73 66 92 67 57 68 58 69 72 71 93 72 60 73 44 74 45 75
REMARK SMILES IDX 53 76 46 77 52 78 54 79 51 80 47 81 48 82 49 83 50 84 76 85
REMARK SMILES IDX 77 86 85 87 78 88 84 89 86 90 83 91 79 92 80 93 81 94 82 95
REMARK SMILES IDX 61 96 62 97 70 98 63 99 69 100 71 101 68 102 64 103 65 104
REMARK SMILES IDX 66 105 67 106
REMARK H PARENT 13 15 91 59 59 70
REMARK Flexibility Score: inf
ROOT
ATOM      1  C   UNL A   1      35.237  32.971  28.273  1.00  0.00     0.188 C 
ENDROOT
BRANCH   1   2
ATOM      2  O   UNL A   1      34.495  32.253  27.295  1.00  0.00    -0.376 OA
BRANCH   2   3
ATOM      3  C   UNL A   1      34.045  30.963  27.695  1.00  0.00     0.202 C 
BRANCH   3   4
ATOM      4  C   UNL A   1      32.702  30.521  27.099  1.00  0.00     0.261 C 
BRANCH   4   5
ATOM      5  O   UNL A   1      32.809  29.757  25.889  1.00  0.00    -0.463 OA
BRANCH   5   6
ATOM      6  C   UNL A   1      32.864  28.418  26.020  1.00  0.00     0.310 C 
ATOM      7  O   UNL A   1      33.757  27.790  26.576  1.00  0.00    -0.252 OA
BRANCH   6   8
ATOM      8  C   UNL A   1      31.658  27.717  25.516  1.00  0.00     0.118 C 
ATOM      9  C   UNL A   1      31.900  26.411  24.794  1.00  0.00     0.100 C 
ATOM     10  C   UNL A   1      31.115  27.499  24.100  1.00  0.00    -0.009 C 
ATOM     11  C   UNL A   1      31.780  28.013  22.838  1.00  0.00     0.013 C 
ATOM     12  C   UNL A   1      29.616  27.387  23.951  1.00  0.00     0.013 C 
BRANCH   9  13
ATOM     13  C   UNL A   1      31.402  25.166  25.432  1.00  0.00     0.230 C 
ATOM     14  N   UNL A   1      31.926  23.966  25.010  1.00  0.00    -0.300 N 
ATOM     15  H   UNL A   1      31.479  23.136  25.293  1.00  0.00     0.172 HD
ATOM     16  O   UNL A   1      30.495  25.191  26.259  1.00  0.00    -0.274 OA
BRANCH  14  17
ATOM     17  C   UNL A   1      33.035  23.865  24.217  1.00  0.00     0.212 A 
ATOM     18  C   UNL A   1      35.223  23.330  23.531  1.00  0.00     0.119 A 
ATOM     19  N   UNL A   1      34.372  23.316  22.526  1.00  0.00    -0.142 NA
ATOM     20  S   UNL A   1      34.547  23.942  25.001  1.00  0.00    -0.080 S 
ATOM     21  N   UNL A   1      33.100  23.627  22.932  1.00  0.00    -0.120 NA
BRANCH  18  22
ATOM     22  C   UNL A   1      36.624  22.822  23.443  1.00  0.00     0.074 C 
BRANCH  22  23
ATOM     23  C   UNL A   1      37.000  21.895  24.610  1.00  0.00     0.043 C 
BRANCH  23  24
ATOM     24  C   UNL A   1      38.031  22.436  25.577  1.00  0.00    -0.047 A 
ATOM     25  C   UNL A   1      40.018  23.465  27.295  1.00  0.00     0.118 A 
ATOM     26  C   UNL A   1      38.940  24.258  26.909  1.00  0.00     0.046 A 
ATOM     27  C   UNL A   1      40.084  22.144  26.858  1.00  0.00     0.046 A 
ATOM     28  C   UNL A   1      37.965  23.757  26.042  1.00  0.00     0.007 A 
ATOM     29  C   UNL A   1      39.095  21.631  26.008  1.00  0.00     0.007 A 
BRANCH  25  30
ATOM     30  O   UNL A   1      40.923  24.058  28.130  1.00  0.00    -0.497 OA
ATOM     31  C   UNL A   1      41.281  25.392  27.769  1.00  0.00     0.278 C 
ENDBRANCH  25  30
ENDBRANCH  23  24
ENDBRANCH  22  23
ENDBRANCH  18  22
ENDBRANCH  14  17
ENDBRANCH   9  13
ENDBRANCH   6   8
ENDBRANCH   5   6
ENDBRANCH   4   5
ENDBRANCH   3   4
ENDBRANCH   2   3
ENDBRANCH   1   2
BRANCH   1  32
ATOM     32  C   UNL A   1      34.463  33.288  29.560  1.00  0.00     0.188 C 
BRANCH  32  33
ATOM     33  O   UNL A   1      33.397  34.220  29.506  1.00  0.00    -0.377 OA
BRANCH  33  34
ATOM     34  C   UNL A   1      33.378  35.325  30.405  1.00  0.00     0.188 C 
BRANCH  34  35
ATOM     35  C   UNL A   1      34.065  35.219  31.779  1.00  0.00     0.188 C 
BRANCH  35  36
ATOM     36  O   UNL A   1      33.376  34.422  32.737  1.00  0.00    -0.376 OA
BRANCH  36  37
ATOM     37  C   UNL A   1      34.065  33.268  33.203  1.00  0.00     0.202 C 
BRANCH  37  38
ATOM     38  C   UNL A   1      35.219  33.559  34.170  1.00  0.00     0.261 C 
BRANCH  38  39
ATOM     39  O   UNL A   1      36.468  32.940  33.823  1.00  0.00    -0.460 OA
BRANCH  39  40
ATOM     40  C   UNL A   1      37.289  32.602  34.843  1.00  0.00     0.338 C 
ATOM     41  O   UNL A   1      37.066  32.718  36.034  1.00  0.00    -0.246 OA
BRANCH  40  42
ATOM     42  C   UNL A   1      38.452  31.901  34.273  1.00  0.00     0.060 A 
ATOM     43  C   UNL A   1      39.726  32.198  34.771  1.00  0.00     0.016 A 
ATOM     44  C   UNL A   1      38.287  30.971  33.243  1.00  0.00     0.016 A 
ATOM     45  C   UNL A   1      40.847  31.591  34.207  1.00  0.00     0.010 A 
ATOM     46  C   UNL A   1      39.412  30.376  32.670  1.00  0.00     0.010 A 
ATOM     47  C   UNL A   1      40.699  30.709  33.126  1.00  0.00    -0.014 A 
BRANCH  47  48
ATOM     48  C   UNL A   1      41.897  30.289  32.361  1.00  0.00     0.031 A 
ATOM     49  C   UNL A   1      42.553  28.983  32.719  1.00  0.00     0.074 A 
ATOM     50  C   UNL A   1      42.370  31.035  31.346  1.00  0.00     0.049 A 
ATOM     51  N   UNL A   1      43.584  28.391  32.174  1.00  0.00    -0.248 NA
ATOM     52  C   UNL A   1      41.966  28.250  33.852  1.00  0.00     0.031 C 
ATOM     53  C   UNL A   1      41.807  32.306  30.895  1.00  0.00     0.029 A 
ATOM     54  N   UNL A   1      43.434  30.820  30.508  1.00  0.00    -0.354 N 
ATOM     55  C   UNL A   1      43.765  27.213  32.891  1.00  0.00     0.074 A 
ATOM     56  C   UNL A   1      42.766  27.200  33.938  1.00  0.00     0.031 C 
ATOM     57  C   UNL A   1      42.528  32.754  29.851  1.00  0.00     0.029 A 
ATOM     58  C   UNL A   1      43.615  31.817  29.579  1.00  0.00     0.049 A 
ATOM     59  H   UNL A   1      44.013  30.027  30.566  1.00  0.00     0.167 HD
ATOM     60  C   UNL A   1      44.676  26.227  32.689  1.00  0.00     0.034 A 
ATOM     61  C   UNL A   1      44.561  31.956  28.628  1.00  0.00     0.034 A 
ATOM     62  C   UNL A   1      45.681  26.265  31.656  1.00  0.00     0.049 A 
ATOM     63  C   UNL A   1      45.612  30.885  28.475  1.00  0.00     0.074 A 
ATOM     64  C   UNL A   1      46.634  25.310  31.342  1.00  0.00     0.029 A 
ATOM     65  N   UNL A   1      45.881  27.325  30.780  1.00  0.00    -0.354 N 
ATOM     66  N   UNL A   1      45.759  29.764  29.142  1.00  0.00    -0.248 NA
ATOM     67  C   UNL A   1      46.623  31.104  27.432  1.00  0.00     0.031 C 
ATOM     68  C   UNL A   1      47.453  25.824  30.330  1.00  0.00     0.029 A 
ATOM     69  C   UNL A   1      46.967  27.068  29.957  1.00  0.00     0.049 A 
ATOM     70  H   UNL A   1      45.331  28.141  30.749  1.00  0.00     0.167 HD
ATOM     71  C   UNL A   1      46.871  29.135  28.586  1.00  0.00     0.074 A 
ATOM     72  C   UNL A   1      47.340  29.994  27.517  1.00  0.00     0.031 C 
ATOM     73  C   UNL A   1      47.449  27.952  28.922  1.00  0.00     0.034 A 
BRANCH  60  74
ATOM     74  C   UNL A   1      44.649  25.060  33.647  1.00  0.00     0.023 A 
ATOM     75  C   UNL A   1      45.165  25.159  34.952  1.00  0.00     0.031 A 
ATOM     76  C   UNL A   1      44.146  23.816  33.231  1.00  0.00     0.131 A 
ATOM     77  C   UNL A   1      45.234  24.017  35.765  1.00  0.00     0.055 A 
ATOM     78  C   UNL A   1      44.146  22.702  34.072  1.00  0.00     0.041 A 
ATOM     79  F   UNL A   1      43.662  23.654  31.988  1.00  0.00    -0.206 F 
ATOM     80  C   UNL A   1      44.708  22.795  35.342  1.00  0.00     0.022 A 
BRANCH  77  81
ATOM     81  S   UNL A   1      46.159  24.115  37.323  1.00  0.00     0.124 S 
ATOM     82  O   UNL A   1      47.530  23.893  36.868  1.00  0.00    -0.237 OA
ATOM     83  O   UNL A   1      45.851  25.462  37.788  1.00  0.00    -0.237 OA
ATOM     84  O   UNL A   1      45.595  23.032  38.126  1.00  0.00    -0.744 OA
ENDBRANCH  77  81
ENDBRANCH  60  74
BRANCH  61  85
ATOM     85  C   UNL A   1      44.597  33.169  27.765  1.00  0.00     0.023 A 
ATOM     86  C   UNL A   1      45.080  34.394  28.248  1.00  0.00     0.031 A 
ATOM     87  C   UNL A   1      44.071  33.131  26.462  1.00  0.00     0.131 A 
ATOM     88  C   UNL A   1      44.994  35.542  27.445  1.00  0.00     0.055 A 
ATOM     89  C   UNL A   1      44.034  34.263  25.648  1.00  0.00     0.041 A 
ATOM     90  F   UNL A   1      43.576  31.988  25.964  1.00  0.00    -0.206 F 
ATOM     91  C   UNL A   1      44.490  35.481  26.143  1.00  0.00     0.022 A 
BRANCH  88  92
ATOM     92  S   UNL A   1      45.475  37.142  28.152  1.00  0.00     0.124 S 
ATOM     93  O   UNL A   1      44.183  37.691  28.547  1.00  0.00    -0.237 OA
ATOM     94  O   UNL A   1      46.362  36.740  29.240  1.00  0.00    -0.237 OA
ATOM     95  O   UNL A   1      46.130  37.822  27.037  1.00  0.00    -0.744 OA
ENDBRANCH  88  92
ENDBRANCH  61  85
BRANCH  73  96
ATOM     96  C   UNL A   1      48.644  27.525  28.103  1.00  0.00     0.023 A 
ATOM     97  C   UNL A   1      49.958  27.814  28.513  1.00  0.00     0.031 A 
ATOM     98  C   UNL A   1      48.465  26.857  26.878  1.00  0.00     0.131 A 
ATOM     99  C   UNL A   1      51.038  27.497  27.674  1.00  0.00     0.055 A 
ATOM    100  C   UNL A   1      49.548  26.488  26.078  1.00  0.00     0.041 A 
ATOM    101  F   UNL A   1      47.234  26.559  26.435  1.00  0.00    -0.206 F 
ATOM    102  C   UNL A   1      50.842  26.822  26.467  1.00  0.00     0.022 A 
BRANCH  99 103
ATOM    103  S   UNL A   1      52.693  28.084  28.129  1.00  0.00     0.124 S 
ATOM    104  O   UNL A   1      53.486  27.690  26.968  1.00  0.00    -0.237 OA
ATOM    105  O   UNL A   1      52.480  29.518  28.298  1.00  0.00    -0.237 OA
ATOM    106  O   UNL A   1      52.991  27.353  29.359  1.00  0.00    -0.744 OA
ENDBRANCH  99 103
ENDBRANCH  73  96
ENDBRANCH  47  48
ENDBRANCH  40  42
ENDBRANCH  39  40
ENDBRANCH  38  39
ENDBRANCH  37  38
ENDBRANCH  36  37
ENDBRANCH  35  36
ENDBRANCH  34  35
ENDBRANCH  33  34
ENDBRANCH  32  33
ENDBRANCH   1  32
TORSDOF 29
ENDMDL
MODEL 3
REMARK VINA RESULT:      -9.7      4.936      7.009
REMARK SMILES COc1ccc(CCc2nnc(NC(=O)[C@@H]3[C@@H](C(=O)OCCOCCOCCOCCOC(=O)c4ccc(-c5c6nc(c(-c7cc(S(=O)(=O)[O-])ccc7F)c7ccc([nH]7)c(-c7cc(S(=O)(=O)[O-])ccc7F)c7nc(c(-c8cc(S(=O)(=O)[O-])ccc8F)c8ccc5[nH]8)C=C7)C=C6)cc4)C3(C)C)s2)cc1
REMARK SMILES IDX 24 1 23 2 22 3 21 4 20 5 18 6 19 7 17 8 16 9 98 10 99 11
REMARK SMILES IDX 100 12 14 13 13 14 15 16 12 17 9 18 10 19 101 20 11 21 8 22
REMARK SMILES IDX 7 23 6 24 3 25 4 26 103 27 5 28 102 29 2 30 1 31 25 32 26 33
REMARK SMILES IDX 27 34 28 35 29 36 30 37 31 38 32 39 33 40 34 41 35 42 36 43
REMARK SMILES IDX 97 44 37 45 96 46 38 47 39 48 40 49 90 50 41 51 95 52 89 53
REMARK SMILES IDX 91 54 42 55 94 56 88 57 87 58 43 60 75 61 55 62 74 63 56 64
REMARK SMILES IDX 59 65 73 66 92 67 57 68 58 69 72 71 93 72 60 73 44 74 45 75
REMARK SMILES IDX 53 76 46 77 52 78 54 79 51 80 47 81 48 82 49 83 50 84 76 85
REMARK SMILES IDX 77 86 85 87 78 88 84 89 86 90 83 91 79 92 80 93 81 94 82 95
REMARK SMILES IDX 61 96 62 97 70 98 63 99 69 100 71 101 68 102 64 103 65 104
REMARK SMILES IDX 66 105 67 106
REMARK H PARENT 13 15 91 59 59 70
REMARK Flexibility Score: inf
ROOT
ATOM      1  C   UNL A   1      33.416  30.721  27.435  1.00  0.00     0.188 C 
ENDROOT
BRANCH   1   2
ATOM      2  O   UNL A   1      34.532  29.840  27.434  1.00  0.00    -0.376 OA
BRANCH   2   3
ATOM      3  C   UNL A   1      34.576  28.910  26.356  1.00  0.00     0.202 C 
BRANCH   3   4
ATOM      4  C   UNL A   1      33.253  28.199  26.047  1.00  0.00     0.261 C 
BRANCH   4   5
ATOM      5  O   UNL A   1      33.355  27.147  25.075  1.00  0.00    -0.463 OA
BRANCH   5   6
ATOM      6  C   UNL A   1      32.217  26.778  24.459  1.00  0.00     0.310 C 
ATOM      7  O   UNL A   1      31.490  27.512  23.802  1.00  0.00    -0.252 OA
BRANCH   6   8
ATOM      8  C   UNL A   1      31.937  25.323  24.537  1.00  0.00     0.118 C 
ATOM      9  C   UNL A   1      33.042  24.461  25.104  1.00  0.00     0.100 C 
ATOM     10  C   UNL A   1      32.479  24.131  23.742  1.00  0.00    -0.009 C 
ATOM     11  C   UNL A   1      33.499  24.237  22.625  1.00  0.00     0.013 C 
ATOM     12  C   UNL A   1      31.553  22.951  23.560  1.00  0.00     0.013 C 
BRANCH   9  13
ATOM     13  C   UNL A   1      32.793  23.787  26.403  1.00  0.00     0.230 C 
ATOM     14  N   UNL A   1      33.557  22.687  26.720  1.00  0.00    -0.300 N 
ATOM     15  H   UNL A   1      33.281  22.132  27.484  1.00  0.00     0.172 HD
ATOM     16  O   UNL A   1      31.883  24.145  27.146  1.00  0.00    -0.274 OA
BRANCH  14  17
ATOM     17  C   UNL A   1      34.679  22.324  26.028  1.00  0.00     0.212 A 
ATOM     18  C   UNL A   1      36.947  21.912  25.551  1.00  0.00     0.119 A 
ATOM     19  N   UNL A   1      36.148  21.102  24.890  1.00  0.00    -0.142 NA
ATOM     20  S   UNL A   1      36.112  23.170  26.396  1.00  0.00    -0.080 S 
ATOM     21  N   UNL A   1      34.829  21.345  25.172  1.00  0.00    -0.120 NA
BRANCH  18  22
ATOM     22  C   UNL A   1      38.430  21.746  25.621  1.00  0.00     0.074 C 
BRANCH  22  23
ATOM     23  C   UNL A   1      39.065  22.518  26.788  1.00  0.00     0.043 C 
BRANCH  23  24
ATOM     24  C   UNL A   1      40.577  22.496  26.848  1.00  0.00    -0.047 A 
ATOM     25  C   UNL A   1      43.397  22.552  26.914  1.00  0.00     0.118 A 
ATOM     26  C   UNL A   1      42.658  22.901  28.042  1.00  0.00     0.046 A 
ATOM     27  C   UNL A   1      42.730  22.134  25.765  1.00  0.00     0.046 A 
ATOM     28  C   UNL A   1      41.262  22.893  28.006  1.00  0.00     0.007 A 
ATOM     29  C   UNL A   1      41.330  22.101  25.733  1.00  0.00     0.007 A 
BRANCH  25  30
ATOM     30  O   UNL A   1      44.756  22.611  27.052  1.00  0.00    -0.497 OA
ATOM     31  C   UNL A   1      45.228  23.718  27.818  1.00  0.00     0.278 C 
ENDBRANCH  25  30
ENDBRANCH  23  24
ENDBRANCH  22  23
ENDBRANCH  18  22
ENDBRANCH  14  17
ENDBRANCH   9  13
ENDBRANCH   6   8
ENDBRANCH   5   6
ENDBRANCH   4   5
ENDBRANCH   3   4
ENDBRANCH   2   3
ENDBRANCH   1   2
BRANCH   1  32
ATOM     32  C   UNL A   1      33.685  32.097  28.061  1.00  0.00     0.188 C 
BRANCH  32  33
ATOM     33  O   UNL A   1      34.815  32.836  27.633  1.00  0.00    -0.377 OA
BRANCH  33  34
ATOM     34  C   UNL A   1      35.065  34.126  28.180  1.00  0.00     0.188 C 
BRANCH  34  35
ATOM     35  C   UNL A   1      34.133  35.306  27.844  1.00  0.00     0.188 C 
BRANCH  35  36
ATOM     36  O   UNL A   1      33.007  35.447  28.704  1.00  0.00    -0.376 OA
BRANCH  36  37
ATOM     37  C   UNL A   1      33.291  35.778  30.058  1.00  0.00     0.202 C 
BRANCH  37  38
ATOM     38  C   UNL A   1      33.185  34.605  31.041  1.00  0.00     0.261 C 
BRANCH  38  39
ATOM     39  O   UNL A   1      33.330  34.963  32.425  1.00  0.00    -0.460 OA
BRANCH  39  40
ATOM     40  C   UNL A   1      34.477  35.584  32.780  1.00  0.00     0.338 C 
ATOM     41  O   UNL A   1      34.593  36.703  33.245  1.00  0.00    -0.246 OA
BRANCH  40  42
ATOM     42  C   UNL A   1      35.573  34.606  32.669  1.00  0.00     0.060 A 
ATOM     43  C   UNL A   1      35.467  33.396  33.364  1.00  0.00     0.016 A 
ATOM     44  C   UNL A   1      36.705  34.890  31.900  1.00  0.00     0.016 A 
ATOM     45  C   UNL A   1      36.517  32.480  33.322  1.00  0.00     0.010 A 
ATOM     46  C   UNL A   1      37.762  33.978  31.871  1.00  0.00     0.010 A 
ATOM     47  C   UNL A   1      37.686  32.785  32.610  1.00  0.00    -0.014 A 
BRANCH  47  48
ATOM     48  C   UNL A   1      38.892  31.943  32.797  1.00  0.00     0.031 A 
ATOM     49  C   UNL A   1      39.710  32.133  34.046  1.00  0.00     0.074 A 
ATOM     50  C   UNL A   1      39.233  31.007  31.893  1.00  0.00     0.049 A 
ATOM     51  N   UNL A   1      40.778  31.495  34.448  1.00  0.00    -0.248 NA
ATOM     52  C   UNL A   1      39.259  33.192  34.963  1.00  0.00     0.031 C 
ATOM     53  C   UNL A   1      38.508  30.718  30.657  1.00  0.00     0.029 A 
ATOM     54  N   UNL A   1      40.279  30.120  31.887  1.00  0.00    -0.354 N 
ATOM     55  C   UNL A   1      41.125  32.069  35.667  1.00  0.00     0.074 A 
ATOM     56  C   UNL A   1      40.178  33.135  35.914  1.00  0.00     0.031 C 
ATOM     57  C   UNL A   1      39.128  29.712  30.015  1.00  0.00     0.029 A 
ATOM     58  C   UNL A   1      40.305  29.305  30.779  1.00  0.00     0.049 A 
ATOM     59  H   UNL A   1      40.948  30.072  32.606  1.00  0.00     0.167 HD
ATOM     60  C   UNL A   1      42.134  31.731  36.508  1.00  0.00     0.034 A 
ATOM     61  C   UNL A   1      41.188  28.349  30.426  1.00  0.00     0.034 A 
ATOM     62  C   UNL A   1      43.085  30.681  36.237  1.00  0.00     0.049 A 
ATOM     63  C   UNL A   1      42.349  28.046  31.340  1.00  0.00     0.074 A 
ATOM     64  C   UNL A   1      44.128  30.233  37.031  1.00  0.00     0.029 A 
ATOM     65  N   UNL A   1      43.124  29.925  35.072  1.00  0.00    -0.354 N 
ATOM     66  N   UNL A   1      42.652  28.578  32.501  1.00  0.00    -0.248 NA
ATOM     67  C   UNL A   1      43.283  27.007  30.889  1.00  0.00     0.031 C 
ATOM     68  C   UNL A   1      44.840  29.263  36.315  1.00  0.00     0.029 A 
ATOM     69  C   UNL A   1      44.198  29.047  35.106  1.00  0.00     0.049 A 
ATOM     70  H   UNL A   1      42.482  30.002  34.329  1.00  0.00     0.167 HD
ATOM     71  C   UNL A   1      43.805  27.923  32.928  1.00  0.00     0.074 A 
ATOM     72  C   UNL A   1      44.127  26.945  31.908  1.00  0.00     0.031 C 
ATOM     73  C   UNL A   1      44.530  28.106  34.062  1.00  0.00     0.034 A 
BRANCH  60  74
ATOM     74  C   UNL A   1      42.283  32.551  37.767  1.00  0.00     0.023 A 
ATOM     75  C   UNL A   1      41.924  32.045  39.029  1.00  0.00     0.031 A 
ATOM     76  C   UNL A   1      42.745  33.877  37.697  1.00  0.00     0.131 A 
ATOM     77  C   UNL A   1      41.960  32.882  40.155  1.00  0.00     0.055 A 
ATOM     78  C   UNL A   1      42.854  34.681  38.833  1.00  0.00     0.041 A 
ATOM     79  F   UNL A   1      43.082  34.422  36.516  1.00  0.00    -0.206 F 
ATOM     80  C   UNL A   1      42.444  34.189  40.069  1.00  0.00     0.022 A 
BRANCH  77  81
ATOM     81  S   UNL A   1      41.223  32.289  41.703  1.00  0.00     0.124 S 
ATOM     82  O   UNL A   1      42.141  31.215  42.076  1.00  0.00    -0.237 OA
ATOM     83  O   UNL A   1      41.255  33.479  42.544  1.00  0.00    -0.237 OA
ATOM     84  O   UNL A   1      39.890  31.844  41.300  1.00  0.00    -0.744 OA
ENDBRANCH  77  81
ENDBRANCH  60  74
BRANCH  61  85
ATOM     85  C   UNL A   1      41.047  27.628  29.130  1.00  0.00     0.023 A 
ATOM     86  C   UNL A   1      41.899  27.898  28.049  1.00  0.00     0.031 A 
ATOM     87  C   UNL A   1      40.000  26.711  28.936  1.00  0.00     0.131 A 
ATOM     88  C   UNL A   1      41.667  27.283  26.809  1.00  0.00     0.055 A 
ATOM     89  C   UNL A   1      39.803  26.064  27.717  1.00  0.00     0.041 A 
ATOM     90  F   UNL A   1      39.144  26.439  29.934  1.00  0.00    -0.206 F 
ATOM     91  C   UNL A   1      40.635  26.355  26.640  1.00  0.00     0.022 A 
BRANCH  88  92
ATOM     92  S   UNL A   1      42.682  27.771  25.387  1.00  0.00     0.124 S 
ATOM     93  O   UNL A   1      41.962  28.941  24.898  1.00  0.00    -0.237 OA
ATOM     94  O   UNL A   1      43.977  28.027  26.011  1.00  0.00    -0.237 OA
ATOM     95  O   UNL A   1      42.633  26.597  24.518  1.00  0.00    -0.744 OA
ENDBRANCH  88  92
ENDBRANCH  61  85
BRANCH  73  96
ATOM     96  C   UNL A   1      45.731  27.211  34.251  1.00  0.00     0.023 A 
ATOM     97  C   UNL A   1      45.618  25.945  34.855  1.00  0.00     0.031 A 
ATOM     98  C   UNL A   1      47.011  27.645  33.861  1.00  0.00     0.131 A 
ATOM     99  C   UNL A   1      46.771  25.187  35.112  1.00  0.00     0.055 A 
ATOM    100  C   UNL A   1      48.146  26.858  34.062  1.00  0.00     0.041 A 
ATOM    101  F   UNL A   1      47.179  28.844  33.283  1.00  0.00    -0.206 F 
ATOM    102  C   UNL A   1      48.032  25.629  34.706  1.00  0.00     0.022 A 
BRANCH  99 103
ATOM    103  S   UNL A   1      46.613  23.668  36.091  1.00  0.00     0.124 S 
ATOM    104  O   UNL A   1      46.957  22.639  35.115  1.00  0.00    -0.237 OA
ATOM    105  O   UNL A   1      47.583  23.883  37.160  1.00  0.00    -0.237 OA
ATOM    106  O   UNL A   1      45.213  23.677  36.514  1.00  0.00    -0.744 OA
ENDBRANCH  99 103
ENDBRANCH  73  96
ENDBRANCH  47  48
ENDBRANCH  40  42
ENDBRANCH  39  40
ENDBRANCH  38  39
ENDBRANCH  37  38
ENDBRANCH  36  37
ENDBRANCH  35  36
ENDBRANCH  34  35
ENDBRANCH  33  34
ENDBRANCH  32  33
ENDBRANCH   1  32
TORSDOF 29
ENDMDL
