MODEL 1
REMARK VINA RESULT:     -10.3      0.000      0.000
REMARK SMILES Cc1cccc(Nc2ccccc2C(=O)OCCOCCOCCOCCOC(=O)c2ccc(-c3c4nc(c(-c5cc(S(=O)(=O)[O-])ccc5F)c5ccc([nH]5)c(-c5cc(S(=O)(=O)[O-])ccc5F)c5nc(c(-c6cc(S(=O)(=O)[O-])ccc6F)c6ccc3[nH]6)C=C5)C=C4)cc2)c1C
REMARK SMILES IDX 23 1 22 2 21 3 20 4 19 5 18 6 17 7 16 8 14 9 15 10 13 11
REMARK SMILES IDX 8 12 9 13 10 14 12 15 11 16 7 17 6 19 1 20 2 21 3 22 94 23
REMARK SMILES IDX 4 24 95 25 5 26 24 27 25 28 26 29 27 30 28 31 29 32 30 33
REMARK SMILES IDX 31 34 32 35 93 36 33 37 92 38 34 39 35 40 36 41 86 42 37 43
REMARK SMILES IDX 91 44 85 45 87 46 38 47 90 48 84 49 83 50 39 52 71 53 51 54
REMARK SMILES IDX 70 55 52 56 55 57 69 58 88 59 53 60 54 61 68 63 89 64 56 65
REMARK SMILES IDX 40 66 41 67 49 68 42 69 48 70 50 71 47 72 43 73 44 74 45 75
REMARK SMILES IDX 46 76 72 77 73 78 81 79 74 80 80 81 82 82 79 83 75 84 76 85
REMARK SMILES IDX 77 86 78 87 57 88 58 89 66 90 59 91 65 92 67 93 64 94 60 95
REMARK SMILES IDX 61 96 62 97 63 98
REMARK H PARENT 7 18 87 51 55 62
REMARK Flexibility Score: inf
ROOT
ATOM      1  C   UNL A   1      36.074  22.942  23.499  1.00  0.00     0.188 C 
ENDROOT
BRANCH   1   2
ATOM      2  O   UNL A   1      34.948  23.490  24.174  1.00  0.00    -0.377 OA
BRANCH   2   3
ATOM      3  C   UNL A   1      34.992  23.734  25.570  1.00  0.00     0.188 C 
BRANCH   3   4
ATOM      4  C   UNL A   1      33.681  23.910  26.372  1.00  0.00     0.188 C 
BRANCH   4   5
ATOM      5  O   UNL A   1      32.672  24.675  25.751  1.00  0.00    -0.376 OA
BRANCH   5   6
ATOM      6  C   UNL A   1      31.425  24.913  26.374  1.00  0.00     0.202 C 
BRANCH   6   7
ATOM      7  C   UNL A   1      30.129  25.206  25.608  1.00  0.00     0.261 C 
BRANCH   7   8
ATOM      8  O   UNL A   1      29.900  26.558  25.230  1.00  0.00    -0.460 OA
BRANCH   8   9
ATOM      9  C   UNL A   1      30.090  26.861  23.930  1.00  0.00     0.340 C 
ATOM     10  O   UNL A   1      30.537  26.110  23.074  1.00  0.00    -0.246 OA
BRANCH   9  11
ATOM     11  C   UNL A   1      29.474  28.178  23.617  1.00  0.00     0.083 A 
ATOM     12  C   UNL A   1      30.113  29.430  23.735  1.00  0.00     0.053 A 
ATOM     13  C   UNL A   1      29.342  30.578  23.456  1.00  0.00     0.027 A 
ATOM     14  C   UNL A   1      28.000  30.496  23.074  1.00  0.00     0.002 A 
ATOM     15  C   UNL A   1      28.119  28.103  23.233  1.00  0.00     0.018 A 
ATOM     16  C   UNL A   1      27.385  29.255  22.963  1.00  0.00     0.001 A 
BRANCH  12  17
ATOM     17  N   UNL A   1      31.480  29.661  24.010  1.00  0.00    -0.355 N 
ATOM     18  H   UNL A   1      31.978  30.061  23.260  1.00  0.00     0.167 HD
BRANCH  17  19
ATOM     19  C   UNL A   1      32.266  29.427  25.159  1.00  0.00     0.042 A 
ATOM     20  C   UNL A   1      33.990  31.372  27.942  1.00  0.00     0.044 C 
ATOM     21  C   UNL A   1      33.531  30.228  27.079  1.00  0.00    -0.046 A 
ATOM     22  C   UNL A   1      34.272  29.038  27.080  1.00  0.00     0.004 A 
ATOM     23  C   UNL A   1      32.443  30.377  26.187  1.00  0.00    -0.025 A 
ATOM     24  C   UNL A   1      33.985  28.025  26.172  1.00  0.00     0.002 A 
ATOM     25  C   UNL A   1      31.495  31.539  26.352  1.00  0.00     0.047 C 
ATOM     26  C   UNL A   1      33.016  28.236  25.193  1.00  0.00     0.026 A 
ENDBRANCH  17  19
ENDBRANCH  12  17
ENDBRANCH   9  11
ENDBRANCH   8   9
ENDBRANCH   7   8
ENDBRANCH   6   7
ENDBRANCH   5   6
ENDBRANCH   4   5
ENDBRANCH   3   4
ENDBRANCH   2   3
ENDBRANCH   1   2
BRANCH   1  27
ATOM     27  C   UNL A   1      37.241  22.277  24.264  1.00  0.00     0.188 C 
BRANCH  27  28
ATOM     28  O   UNL A   1      37.017  20.932  24.650  1.00  0.00    -0.376 OA
BRANCH  28  29
ATOM     29  C   UNL A   1      38.098  20.206  25.203  1.00  0.00     0.202 C 
BRANCH  29  30
ATOM     30  C   UNL A   1      39.193  21.003  25.924  1.00  0.00     0.261 C 
BRANCH  30  31
ATOM     31  O   UNL A   1      40.067  20.254  26.779  1.00  0.00    -0.460 OA
BRANCH  31  32
ATOM     32  C   UNL A   1      41.302  19.975  26.306  1.00  0.00     0.338 C 
ATOM     33  O   UNL A   1      41.633  18.998  25.653  1.00  0.00    -0.246 OA
BRANCH  32  34
ATOM     34  C   UNL A   1      42.143  21.162  26.547  1.00  0.00     0.060 A 
ATOM     35  C   UNL A   1      42.455  21.527  27.864  1.00  0.00     0.016 A 
ATOM     36  C   UNL A   1      42.640  21.898  25.469  1.00  0.00     0.016 A 
ATOM     37  C   UNL A   1      43.244  22.651  28.106  1.00  0.00     0.010 A 
ATOM     38  C   UNL A   1      43.407  23.038  25.715  1.00  0.00     0.010 A 
ATOM     39  C   UNL A   1      43.684  23.437  27.034  1.00  0.00    -0.014 A 
BRANCH  39  40
ATOM     40  C   UNL A   1      44.237  24.787  27.295  1.00  0.00     0.031 A 
ATOM     41  C   UNL A   1      43.287  25.864  27.741  1.00  0.00     0.074 A 
ATOM     42  C   UNL A   1      45.548  25.049  27.151  1.00  0.00     0.049 A 
ATOM     43  N   UNL A   1      43.509  27.132  27.963  1.00  0.00    -0.248 NA
ATOM     44  C   UNL A   1      41.893  25.446  27.952  1.00  0.00     0.031 C 
ATOM     45  C   UNL A   1      46.566  24.073  26.771  1.00  0.00     0.029 A 
ATOM     46  N   UNL A   1      46.240  26.223  27.299  1.00  0.00    -0.354 N 
ATOM     47  C   UNL A   1      42.278  27.670  28.327  1.00  0.00     0.074 A 
ATOM     48  C   UNL A   1      41.313  26.594  28.257  1.00  0.00     0.031 C 
ATOM     49  C   UNL A   1      47.755  24.695  26.696  1.00  0.00     0.029 A 
ATOM     50  C   UNL A   1      47.573  26.119  26.979  1.00  0.00     0.049 A 
ATOM     51  H   UNL A   1      45.824  27.061  27.604  1.00  0.00     0.167 HD
ATOM     52  C   UNL A   1      41.986  28.942  28.690  1.00  0.00     0.034 A 
ATOM     53  C   UNL A   1      48.525  27.071  26.888  1.00  0.00     0.034 A 
ATOM     54  C   UNL A   1      42.965  30.001  28.735  1.00  0.00     0.049 A 
ATOM     55  C   UNL A   1      48.164  28.501  27.209  1.00  0.00     0.074 A 
ATOM     56  C   UNL A   1      42.791  31.320  29.115  1.00  0.00     0.029 A 
ATOM     57  N   UNL A   1      44.298  29.870  28.362  1.00  0.00    -0.354 N 
ATOM     58  N   UNL A   1      47.004  29.001  27.574  1.00  0.00    -0.248 NA
ATOM     59  C   UNL A   1      49.240  29.495  27.113  1.00  0.00     0.031 C 
ATOM     60  C   UNL A   1      43.988  32.004  28.882  1.00  0.00     0.029 A 
ATOM     61  C   UNL A   1      44.942  31.094  28.455  1.00  0.00     0.049 A 
ATOM     62  H   UNL A   1      44.722  29.030  28.073  1.00  0.00     0.167 HD
ATOM     63  C   UNL A   1      47.220  30.362  27.777  1.00  0.00     0.074 A 
ATOM     64  C   UNL A   1      48.623  30.600  27.506  1.00  0.00     0.031 C 
ATOM     65  C   UNL A   1      46.340  31.325  28.159  1.00  0.00     0.034 A 
BRANCH  52  66
ATOM     66  C   UNL A   1      40.539  29.260  28.990  1.00  0.00     0.023 A 
ATOM     67  C   UNL A   1      40.057  29.386  30.305  1.00  0.00     0.031 A 
ATOM     68  C   UNL A   1      39.610  29.375  27.939  1.00  0.00     0.131 A 
ATOM     69  C   UNL A   1      38.680  29.522  30.537  1.00  0.00     0.055 A 
ATOM     70  C   UNL A   1      38.254  29.609  28.174  1.00  0.00     0.041 A 
ATOM     71  F   UNL A   1      40.001  29.237  26.662  1.00  0.00    -0.206 F 
ATOM     72  C   UNL A   1      37.778  29.663  29.480  1.00  0.00     0.022 A 
BRANCH  69  73
ATOM     73  S   UNL A   1      38.065  29.324  32.233  1.00  0.00     0.124 S 
ATOM     74  O   UNL A   1      38.736  28.095  32.649  1.00  0.00    -0.237 OA
ATOM     75  O   UNL A   1      38.520  30.550  32.878  1.00  0.00    -0.237 OA
ATOM     76  O   UNL A   1      36.619  29.208  32.061  1.00  0.00    -0.744 OA
ENDBRANCH  69  73
ENDBRANCH  52  66
BRANCH  53  77
ATOM     77  C   UNL A   1      49.896  26.711  26.423  1.00  0.00     0.023 A 
ATOM     78  C   UNL A   1      50.340  27.029  25.130  1.00  0.00     0.031 A 
ATOM     79  C   UNL A   1      50.780  26.018  27.272  1.00  0.00     0.131 A 
ATOM     80  C   UNL A   1      51.622  26.632  24.714  1.00  0.00     0.055 A 
ATOM     81  C   UNL A   1      52.071  25.672  26.872  1.00  0.00     0.041 A 
ATOM     82  F   UNL A   1      50.405  25.686  28.518  1.00  0.00    -0.206 F 
ATOM     83  C   UNL A   1      52.495  25.972  25.581  1.00  0.00     0.022 A 
BRANCH  80  84
ATOM     84  S   UNL A   1      52.113  26.937  22.995  1.00  0.00     0.124 S 
ATOM     85  O   UNL A   1      50.823  26.957  22.316  1.00  0.00    -0.237 OA
ATOM     86  O   UNL A   1      52.803  28.219  23.100  1.00  0.00    -0.237 OA
ATOM     87  O   UNL A   1      52.970  25.797  22.678  1.00  0.00    -0.744 OA
ENDBRANCH  80  84
ENDBRANCH  53  77
BRANCH  65  88
ATOM     88  C   UNL A   1      46.883  32.724  28.348  1.00  0.00     0.023 A 
ATOM     89  C   UNL A   1      47.038  33.615  27.272  1.00  0.00     0.031 A 
ATOM     90  C   UNL A   1      47.249  33.173  29.631  1.00  0.00     0.131 A 
ATOM     91  C   UNL A   1      47.598  34.885  27.489  1.00  0.00     0.055 A 
ATOM     92  C   UNL A   1      47.738  34.461  29.851  1.00  0.00     0.041 A 
ATOM     93  F   UNL A   1      47.130  32.365  30.698  1.00  0.00    -0.206 F 
ATOM     94  C   UNL A   1      47.928  35.321  28.775  1.00  0.00     0.022 A 
BRANCH  91  95
ATOM     95  S   UNL A   1      47.990  35.922  26.053  1.00  0.00     0.124 S 
ATOM     96  O   UNL A   1      46.848  36.830  26.016  1.00  0.00    -0.237 OA
ATOM     97  O   UNL A   1      49.266  36.517  26.436  1.00  0.00    -0.237 OA
ATOM     98  O   UNL A   1      48.059  34.967  24.948  1.00  0.00    -0.744 OA
ENDBRANCH  91  95
ENDBRANCH  65  88
ENDBRANCH  39  40
ENDBRANCH  32  34
ENDBRANCH  31  32
ENDBRANCH  30  31
ENDBRANCH  29  30
ENDBRANCH  28  29
ENDBRANCH  27  28
ENDBRANCH   1  27
TORSDOF 25
ENDMDL
MODEL 2
REMARK VINA RESULT:     -10.1      5.833     10.170
REMARK SMILES Cc1cccc(Nc2ccccc2C(=O)OCCOCCOCCOCCOC(=O)c2ccc(-c3c4nc(c(-c5cc(S(=O)(=O)[O-])ccc5F)c5ccc([nH]5)c(-c5cc(S(=O)(=O)[O-])ccc5F)c5nc(c(-c6cc(S(=O)(=O)[O-])ccc6F)c6ccc3[nH]6)C=C5)C=C4)cc2)c1C
REMARK SMILES IDX 23 1 22 2 21 3 20 4 19 5 18 6 17 7 16 8 14 9 15 10 13 11
REMARK SMILES IDX 8 12 9 13 10 14 12 15 11 16 7 17 6 19 1 20 2 21 3 22 94 23
REMARK SMILES IDX 4 24 95 25 5 26 24 27 25 28 26 29 27 30 28 31 29 32 30 33
REMARK SMILES IDX 31 34 32 35 93 36 33 37 92 38 34 39 35 40 36 41 86 42 37 43
REMARK SMILES IDX 91 44 85 45 87 46 38 47 90 48 84 49 83 50 39 52 71 53 51 54
REMARK SMILES IDX 70 55 52 56 55 57 69 58 88 59 53 60 54 61 68 63 89 64 56 65
REMARK SMILES IDX 40 66 41 67 49 68 42 69 48 70 50 71 47 72 43 73 44 74 45 75
REMARK SMILES IDX 46 76 72 77 73 78 81 79 74 80 80 81 82 82 79 83 75 84 76 85
REMARK SMILES IDX 77 86 78 87 57 88 58 89 66 90 59 91 65 92 67 93 64 94 60 95
REMARK SMILES IDX 61 96 62 97 63 98
REMARK H PARENT 7 18 87 51 55 62
REMARK Flexibility Score: inf
ROOT
ATOM      1  C   UNL A   1      31.420  28.775  25.500  1.00  0.00     0.188 C 
ENDROOT
BRANCH   1   2
ATOM      2  O   UNL A   1      31.424  27.391  25.175  1.00  0.00    -0.377 OA
BRANCH   2   3
ATOM      3  C   UNL A   1      30.736  26.916  24.030  1.00  0.00     0.188 C 
BRANCH   3   4
ATOM      4  C   UNL A   1      30.198  25.467  23.989  1.00  0.00     0.188 C 
BRANCH   4   5
ATOM      5  O   UNL A   1      31.127  24.451  24.295  1.00  0.00    -0.376 OA
BRANCH   5   6
ATOM      6  C   UNL A   1      30.903  23.523  25.339  1.00  0.00     0.202 C 
BRANCH   6   7
ATOM      7  C   UNL A   1      31.849  22.364  25.670  1.00  0.00     0.261 C 
BRANCH   7   8
ATOM      8  O   UNL A   1      31.595  21.123  25.022  1.00  0.00    -0.460 OA
BRANCH   8   9
ATOM      9  C   UNL A   1      32.229  20.913  23.851  1.00  0.00     0.340 C 
ATOM     10  O   UNL A   1      32.343  21.721  22.940  1.00  0.00    -0.246 OA
BRANCH   9  11
ATOM     11  C   UNL A   1      32.974  19.626  23.897  1.00  0.00     0.083 A 
ATOM     12  C   UNL A   1      34.150  19.387  24.639  1.00  0.00     0.053 A 
ATOM     13  C   UNL A   1      34.752  18.118  24.503  1.00  0.00     0.027 A 
ATOM     14  C   UNL A   1      34.217  17.127  23.675  1.00  0.00     0.002 A 
ATOM     15  C   UNL A   1      32.440  18.621  23.063  1.00  0.00     0.018 A 
ATOM     16  C   UNL A   1      33.058  17.379  22.952  1.00  0.00     0.001 A 
BRANCH  12  17
ATOM     17  N   UNL A   1      34.745  20.251  25.586  1.00  0.00    -0.355 N 
ATOM     18  H   UNL A   1      34.439  20.103  26.511  1.00  0.00     0.167 HD
BRANCH  17  19
ATOM     19  C   UNL A   1      35.695  21.286  25.456  1.00  0.00     0.042 A 
ATOM     20  C   UNL A   1      39.426  21.878  25.940  1.00  0.00     0.044 C 
ATOM     21  C   UNL A   1      37.971  22.129  25.645  1.00  0.00    -0.046 A 
ATOM     22  C   UNL A   1      37.472  23.435  25.757  1.00  0.00     0.004 A 
ATOM     23  C   UNL A   1      37.086  21.059  25.377  1.00  0.00    -0.025 A 
ATOM     24  C   UNL A   1      36.107  23.680  25.664  1.00  0.00     0.002 A 
ATOM     25  C   UNL A   1      37.640  19.705  25.008  1.00  0.00     0.047 C 
ATOM     26  C   UNL A   1      35.224  22.608  25.556  1.00  0.00     0.026 A 
ENDBRANCH  17  19
ENDBRANCH  12  17
ENDBRANCH   9  11
ENDBRANCH   8   9
ENDBRANCH   7   8
ENDBRANCH   6   7
ENDBRANCH   5   6
ENDBRANCH   4   5
ENDBRANCH   3   4
ENDBRANCH   2   3
ENDBRANCH   1   2
BRANCH   1  27
ATOM     27  C   UNL A   1      32.634  29.686  25.207  1.00  0.00     0.188 C 
BRANCH  27  28
ATOM     28  O   UNL A   1      33.394  30.057  26.344  1.00  0.00    -0.376 OA
BRANCH  28  29
ATOM     29  C   UNL A   1      32.837  30.996  27.244  1.00  0.00     0.202 C 
BRANCH  29  30
ATOM     30  C   UNL A   1      33.727  32.164  27.691  1.00  0.00     0.261 C 
BRANCH  30  31
ATOM     31  O   UNL A   1      33.163  33.477  27.564  1.00  0.00    -0.460 OA
BRANCH  31  32
ATOM     32  C   UNL A   1      33.401  34.350  28.567  1.00  0.00     0.338 C 
ATOM     33  O   UNL A   1      32.728  35.323  28.866  1.00  0.00    -0.246 OA
BRANCH  32  34
ATOM     34  C   UNL A   1      34.513  33.805  29.369  1.00  0.00     0.060 A 
ATOM     35  C   UNL A   1      35.833  34.102  29.004  1.00  0.00     0.016 A 
ATOM     36  C   UNL A   1      34.246  33.020  30.493  1.00  0.00     0.016 A 
ATOM     37  C   UNL A   1      36.894  33.589  29.749  1.00  0.00     0.010 A 
ATOM     38  C   UNL A   1      35.310  32.486  31.222  1.00  0.00     0.010 A 
ATOM     39  C   UNL A   1      36.636  32.740  30.833  1.00  0.00    -0.014 A 
BRANCH  39  40
ATOM     40  C   UNL A   1      37.742  31.945  31.418  1.00  0.00     0.031 A 
ATOM     41  C   UNL A   1      38.258  32.346  32.772  1.00  0.00     0.074 A 
ATOM     42  C   UNL A   1      38.268  30.891  30.771  1.00  0.00     0.049 A 
ATOM     43  N   UNL A   1      39.255  31.861  33.462  1.00  0.00    -0.248 NA
ATOM     44  C   UNL A   1      37.551  33.457  33.428  1.00  0.00     0.031 C 
ATOM     45  C   UNL A   1      37.816  30.384  29.478  1.00  0.00     0.029 A 
ATOM     46  N   UNL A   1      39.308  30.066  31.116  1.00  0.00    -0.354 N 
ATOM     47  C   UNL A   1      39.308  32.617  34.629  1.00  0.00     0.074 A 
ATOM     48  C   UNL A   1      38.264  33.614  34.531  1.00  0.00     0.031 C 
ATOM     49  C   UNL A   1      38.591  29.342  29.128  1.00  0.00     0.029 A 
ATOM     50  C   UNL A   1      39.618  29.139  30.150  1.00  0.00     0.049 A 
ATOM     51  H   UNL A   1      39.788  30.131  31.973  1.00  0.00     0.167 HD
ATOM     52  C   UNL A   1      40.147  32.485  35.685  1.00  0.00     0.034 A 
ATOM     53  C   UNL A   1      40.636  28.256  30.082  1.00  0.00     0.034 A 
ATOM     54  C   UNL A   1      41.192  31.492  35.751  1.00  0.00     0.049 A 
ATOM     55  C   UNL A   1      41.618  28.182  31.227  1.00  0.00     0.074 A 
ATOM     56  C   UNL A   1      42.083  31.246  36.781  1.00  0.00     0.029 A 
ATOM     57  N   UNL A   1      41.506  30.597  34.734  1.00  0.00    -0.354 N 
ATOM     58  N   UNL A   1      41.649  28.884  32.338  1.00  0.00    -0.248 NA
ATOM     59  C   UNL A   1      42.696  27.192  31.113  1.00  0.00     0.031 C 
ATOM     60  C   UNL A   1      42.991  30.273  36.350  1.00  0.00     0.029 A 
ATOM     61  C   UNL A   1      42.607  29.835  35.092  1.00  0.00     0.049 A 
ATOM     62  H   UNL A   1      41.018  30.518  33.883  1.00  0.00     0.167 HD
ATOM     63  C   UNL A   1      42.735  28.401  33.065  1.00  0.00     0.074 A 
ATOM     64  C   UNL A   1      43.322  27.340  32.272  1.00  0.00     0.031 C 
ATOM     65  C   UNL A   1      43.199  28.792  34.281  1.00  0.00     0.034 A 
BRANCH  52  66
ATOM     66  C   UNL A   1      40.008  33.488  36.808  1.00  0.00     0.023 A 
ATOM     67  C   UNL A   1      40.864  34.597  36.931  1.00  0.00     0.031 A 
ATOM     68  C   UNL A   1      39.040  33.293  37.810  1.00  0.00     0.131 A 
ATOM     69  C   UNL A   1      40.799  35.408  38.074  1.00  0.00     0.055 A 
ATOM     70  C   UNL A   1      38.917  34.162  38.896  1.00  0.00     0.041 A 
ATOM     71  F   UNL A   1      38.211  32.239  37.766  1.00  0.00    -0.206 F 
ATOM     72  C   UNL A   1      39.813  35.216  39.044  1.00  0.00     0.022 A 
BRANCH  69  73
ATOM     73  S   UNL A   1      42.138  36.599  38.366  1.00  0.00     0.124 S 
ATOM     74  O   UNL A   1      41.442  37.654  39.098  1.00  0.00    -0.237 OA
ATOM     75  O   UNL A   1      43.096  35.813  39.134  1.00  0.00    -0.237 OA
ATOM     76  O   UNL A   1      42.569  36.966  37.018  1.00  0.00    -0.744 OA
ENDBRANCH  69  73
ENDBRANCH  52  66
BRANCH  53  77
ATOM     77  C   UNL A   1      40.810  27.412  28.865  1.00  0.00     0.023 A 
ATOM     78  C   UNL A   1      41.803  27.691  27.913  1.00  0.00     0.031 A 
ATOM     79  C   UNL A   1      39.960  26.314  28.629  1.00  0.00     0.131 A 
ATOM     80  C   UNL A   1      41.905  26.899  26.757  1.00  0.00     0.055 A 
ATOM     81  C   UNL A   1      40.099  25.500  27.505  1.00  0.00     0.041 A 
ATOM     82  F   UNL A   1      38.991  26.005  29.506  1.00  0.00    -0.206 F 
ATOM     83  C   UNL A   1      41.072  25.797  26.556  1.00  0.00     0.022 A 
BRANCH  80  84
ATOM     84  S   UNL A   1      43.108  27.369  25.483  1.00  0.00     0.124 S 
ATOM     85  O   UNL A   1      44.105  28.089  26.266  1.00  0.00    -0.237 OA
ATOM     86  O   UNL A   1      43.517  26.069  24.960  1.00  0.00    -0.237 OA
ATOM     87  O   UNL A   1      42.325  28.188  24.561  1.00  0.00    -0.744 OA
ENDBRANCH  80  84
ENDBRANCH  53  77
BRANCH  65  88
ATOM     88  C   UNL A   1      44.381  28.038  34.848  1.00  0.00     0.023 A 
ATOM     89  C   UNL A   1      45.704  28.467  34.649  1.00  0.00     0.031 A 
ATOM     90  C   UNL A   1      44.176  26.869  35.605  1.00  0.00     0.131 A 
ATOM     91  C   UNL A   1      46.772  27.703  35.148  1.00  0.00     0.055 A 
ATOM     92  C   UNL A   1      45.238  26.153  36.160  1.00  0.00     0.041 A 
ATOM     93  F   UNL A   1      42.935  26.406  35.825  1.00  0.00    -0.206 F 
ATOM     94  C   UNL A   1      46.546  26.562  35.921  1.00  0.00     0.022 A 
BRANCH  91  95
ATOM     95  S   UNL A   1      48.465  28.162  34.684  1.00  0.00     0.124 S 
ATOM     96  O   UNL A   1      48.402  28.116  33.227  1.00  0.00    -0.237 OA
ATOM     97  O   UNL A   1      48.603  29.489  35.276  1.00  0.00    -0.237 OA
ATOM     98  O   UNL A   1      49.284  27.120  35.302  1.00  0.00    -0.744 OA
ENDBRANCH  91  95
ENDBRANCH  65  88
ENDBRANCH  39  40
ENDBRANCH  32  34
ENDBRANCH  31  32
ENDBRANCH  30  31
ENDBRANCH  29  30
ENDBRANCH  28  29
ENDBRANCH  27  28
ENDBRANCH   1  27
TORSDOF 25
ENDMDL
MODEL 3
REMARK VINA RESULT:      -9.9      1.929      2.350
REMARK SMILES Cc1cccc(Nc2ccccc2C(=O)OCCOCCOCCOCCOC(=O)c2ccc(-c3c4nc(c(-c5cc(S(=O)(=O)[O-])ccc5F)c5ccc([nH]5)c(-c5cc(S(=O)(=O)[O-])ccc5F)c5nc(c(-c6cc(S(=O)(=O)[O-])ccc6F)c6ccc3[nH]6)C=C5)C=C4)cc2)c1C
REMARK SMILES IDX 23 1 22 2 21 3 20 4 19 5 18 6 17 7 16 8 14 9 15 10 13 11
REMARK SMILES IDX 8 12 9 13 10 14 12 15 11 16 7 17 6 19 1 20 2 21 3 22 94 23
REMARK SMILES IDX 4 24 95 25 5 26 24 27 25 28 26 29 27 30 28 31 29 32 30 33
REMARK SMILES IDX 31 34 32 35 93 36 33 37 92 38 34 39 35 40 36 41 86 42 37 43
REMARK SMILES IDX 91 44 85 45 87 46 38 47 90 48 84 49 83 50 39 52 71 53 51 54
REMARK SMILES IDX 70 55 52 56 55 57 69 58 88 59 53 60 54 61 68 63 89 64 56 65
REMARK SMILES IDX 40 66 41 67 49 68 42 69 48 70 50 71 47 72 43 73 44 74 45 75
REMARK SMILES IDX 46 76 72 77 73 78 81 79 74 80 80 81 82 82 79 83 75 84 76 85
REMARK SMILES IDX 77 86 78 87 57 88 58 89 66 90 59 91 65 92 67 93 64 94 60 95
REMARK SMILES IDX 61 96 62 97 63 98
REMARK H PARENT 7 18 87 51 55 62
REMARK Flexibility Score: inf
ROOT
ATOM      1  C   UNL A   1      36.153  22.759  23.503  1.00  0.00     0.188 C 
ENDROOT
BRANCH   1   2
ATOM      2  O   UNL A   1      34.741  22.912  23.592  1.00  0.00    -0.377 OA
BRANCH   2   3
ATOM      3  C   UNL A   1      34.031  22.415  24.713  1.00  0.00     0.188 C 
BRANCH   3   4
ATOM      4  C   UNL A   1      32.534  22.753  24.900  1.00  0.00     0.188 C 
BRANCH   4   5
ATOM      5  O   UNL A   1      32.068  23.902  24.225  1.00  0.00    -0.376 OA
BRANCH   5   6
ATOM      6  C   UNL A   1      30.822  24.495  24.533  1.00  0.00     0.202 C 
BRANCH   6   7
ATOM      7  C   UNL A   1      29.970  25.268  23.520  1.00  0.00     0.261 C 
BRANCH   7   8
ATOM      8  O   UNL A   1      29.742  26.646  23.794  1.00  0.00    -0.460 OA
BRANCH   8   9
ATOM      9  C   UNL A   1      30.047  27.515  22.810  1.00  0.00     0.340 C 
ATOM     10  O   UNL A   1      30.608  27.242  21.758  1.00  0.00    -0.246 OA
BRANCH   9  11
ATOM     11  C   UNL A   1      29.408  28.832  23.075  1.00  0.00     0.083 A 
ATOM     12  C   UNL A   1      30.028  29.929  23.708  1.00  0.00     0.053 A 
ATOM     13  C   UNL A   1      29.237  31.077  23.933  1.00  0.00     0.027 A 
ATOM     14  C   UNL A   1      27.894  31.140  23.548  1.00  0.00     0.002 A 
ATOM     15  C   UNL A   1      28.052  28.902  22.691  1.00  0.00     0.018 A 
ATOM     16  C   UNL A   1      27.299  30.049  22.926  1.00  0.00     0.001 A 
BRANCH  12  17
ATOM     17  N   UNL A   1      31.392  30.047  24.058  1.00  0.00    -0.355 N 
ATOM     18  H   UNL A   1      31.898  30.677  23.494  1.00  0.00     0.167 HD
BRANCH  17  19
ATOM     19  C   UNL A   1      32.166  29.430  25.064  1.00  0.00     0.042 A 
ATOM     20  C   UNL A   1      34.141  26.228  25.653  1.00  0.00     0.044 C 
ATOM     21  C   UNL A   1      33.494  27.565  25.894  1.00  0.00    -0.046 A 
ATOM     22  C   UNL A   1      33.204  27.952  27.210  1.00  0.00     0.004 A 
ATOM     23  C   UNL A   1      33.069  28.375  24.814  1.00  0.00    -0.025 A 
ATOM     24  C   UNL A   1      32.453  29.094  27.462  1.00  0.00     0.002 A 
ATOM     25  C   UNL A   1      33.589  28.101  23.424  1.00  0.00     0.047 C 
ATOM     26  C   UNL A   1      31.905  29.803  26.396  1.00  0.00     0.026 A 
ENDBRANCH  17  19
ENDBRANCH  12  17
ENDBRANCH   9  11
ENDBRANCH   8   9
ENDBRANCH   7   8
ENDBRANCH   6   7
ENDBRANCH   5   6
ENDBRANCH   4   5
ENDBRANCH   3   4
ENDBRANCH   2   3
ENDBRANCH   1   2
BRANCH   1  27
ATOM     27  C   UNL A   1      36.982  22.148  24.655  1.00  0.00     0.188 C 
BRANCH  27  28
ATOM     28  O   UNL A   1      37.034  20.732  24.671  1.00  0.00    -0.376 OA
BRANCH  28  29
ATOM     29  C   UNL A   1      38.241  20.112  25.073  1.00  0.00     0.202 C 
BRANCH  29  30
ATOM     30  C   UNL A   1      39.244  20.959  25.867  1.00  0.00     0.261 C 
BRANCH  30  31
ATOM     31  O   UNL A   1      40.074  20.254  26.801  1.00  0.00    -0.460 OA
BRANCH  31  32
ATOM     32  C   UNL A   1      41.338  19.977  26.415  1.00  0.00     0.338 C 
ATOM     33  O   UNL A   1      41.727  18.967  25.851  1.00  0.00    -0.246 OA
BRANCH  32  34
ATOM     34  C   UNL A   1      42.137  21.201  26.616  1.00  0.00     0.060 A 
ATOM     35  C   UNL A   1      42.688  21.463  27.878  1.00  0.00     0.016 A 
ATOM     36  C   UNL A   1      42.357  22.075  25.548  1.00  0.00     0.016 A 
ATOM     37  C   UNL A   1      43.439  22.619  28.083  1.00  0.00     0.010 A 
ATOM     38  C   UNL A   1      43.088  23.245  25.763  1.00  0.00     0.010 A 
ATOM     39  C   UNL A   1      43.602  23.538  27.038  1.00  0.00    -0.014 A 
BRANCH  39  40
ATOM     40  C   UNL A   1      44.114  24.897  27.333  1.00  0.00     0.031 A 
ATOM     41  C   UNL A   1      43.142  25.917  27.858  1.00  0.00     0.074 A 
ATOM     42  C   UNL A   1      45.407  25.216  27.151  1.00  0.00     0.049 A 
ATOM     43  N   UNL A   1      43.324  27.183  28.123  1.00  0.00    -0.248 NA
ATOM     44  C   UNL A   1      41.774  25.437  28.104  1.00  0.00     0.031 C 
ATOM     45  C   UNL A   1      46.446  24.297  26.693  1.00  0.00     0.029 A 
ATOM     46  N   UNL A   1      46.060  26.410  27.319  1.00  0.00    -0.354 N 
ATOM     47  C   UNL A   1      42.089  27.658  28.554  1.00  0.00     0.074 A 
ATOM     48  C   UNL A   1      41.163  26.549  28.477  1.00  0.00     0.031 C 
ATOM     49  C   UNL A   1      47.607  24.968  26.599  1.00  0.00     0.029 A 
ATOM     50  C   UNL A   1      47.382  26.372  26.946  1.00  0.00     0.049 A 
ATOM     51  H   UNL A   1      45.624  27.219  27.674  1.00  0.00     0.167 HD
ATOM     52  C   UNL A   1      41.762  28.903  28.979  1.00  0.00     0.034 A 
ATOM     53  C   UNL A   1      48.293  27.363  26.858  1.00  0.00     0.034 A 
ATOM     54  C   UNL A   1      42.702  29.997  29.030  1.00  0.00     0.049 A 
ATOM     55  C   UNL A   1      47.890  28.764  27.250  1.00  0.00     0.074 A 
ATOM     56  C   UNL A   1      42.492  31.292  29.470  1.00  0.00     0.029 A 
ATOM     57  N   UNL A   1      44.023  29.933  28.602  1.00  0.00    -0.354 N 
ATOM     58  N   UNL A   1      46.727  29.203  27.678  1.00  0.00    -0.248 NA
ATOM     59  C   UNL A   1      48.924  29.803  27.154  1.00  0.00     0.031 C 
ATOM     60  C   UNL A   1      43.653  32.032  29.219  1.00  0.00     0.029 A 
ATOM     61  C   UNL A   1      44.624  31.177  28.720  1.00  0.00     0.049 A 
ATOM     62  H   UNL A   1      44.467  29.122  28.263  1.00  0.00     0.167 HD
ATOM     63  C   UNL A   1      46.899  30.563  27.928  1.00  0.00     0.074 A 
ATOM     64  C   UNL A   1      48.280  30.867  27.614  1.00  0.00     0.031 C 
ATOM     65  C   UNL A   1      45.999  31.475  28.382  1.00  0.00     0.034 A 
BRANCH  52  66
ATOM     66  C   UNL A   1      40.317  29.151  29.345  1.00  0.00     0.023 A 
ATOM     67  C   UNL A   1      39.882  29.197  30.682  1.00  0.00     0.031 A 
ATOM     68  C   UNL A   1      39.346  29.279  28.335  1.00  0.00     0.131 A 
ATOM     69  C   UNL A   1      38.510  29.270  30.969  1.00  0.00     0.055 A 
ATOM     70  C   UNL A   1      37.992  29.450  28.630  1.00  0.00     0.041 A 
ATOM     71  F   UNL A   1      39.693  29.216  27.040  1.00  0.00    -0.206 F 
ATOM     72  C   UNL A   1      37.564  29.425  29.954  1.00  0.00     0.022 A 
BRANCH  69  73
ATOM     73  S   UNL A   1      37.967  28.970  32.675  1.00  0.00     0.124 S 
ATOM     74  O   UNL A   1      36.711  29.715  32.721  1.00  0.00    -0.237 OA
ATOM     75  O   UNL A   1      37.852  27.518  32.718  1.00  0.00    -0.237 OA
ATOM     76  O   UNL A   1      39.048  29.536  33.482  1.00  0.00    -0.744 OA
ENDBRANCH  69  73
ENDBRANCH  52  66
BRANCH  53  77
ATOM     77  C   UNL A   1      49.657  27.076  26.327  1.00  0.00     0.023 A 
ATOM     78  C   UNL A   1      50.756  26.899  27.182  1.00  0.00     0.031 A 
ATOM     79  C   UNL A   1      49.881  26.993  24.939  1.00  0.00     0.131 A 
ATOM     80  C   UNL A   1      52.033  26.675  26.641  1.00  0.00     0.055 A 
ATOM     81  C   UNL A   1      51.142  26.719  24.409  1.00  0.00     0.041 A 
ATOM     82  F   UNL A   1      48.865  27.158  24.077  1.00  0.00    -0.206 F 
ATOM     83  C   UNL A   1      52.229  26.566  25.262  1.00  0.00     0.022 A 
BRANCH  80  84
ATOM     84  S   UNL A   1      53.453  26.587  27.766  1.00  0.00     0.124 S 
ATOM     85  O   UNL A   1      54.040  27.912  27.608  1.00  0.00    -0.237 OA
ATOM     86  O   UNL A   1      52.807  26.320  29.048  1.00  0.00    -0.237 OA
ATOM     87  O   UNL A   1      54.245  25.482  27.231  1.00  0.00    -0.744 OA
ENDBRANCH  80  84
ENDBRANCH  53  77
BRANCH  65  88
ATOM     88  C   UNL A   1      46.496  32.886  28.607  1.00  0.00     0.023 A 
ATOM     89  C   UNL A   1      47.045  33.295  29.834  1.00  0.00     0.031 A 
ATOM     90  C   UNL A   1      46.419  33.835  27.571  1.00  0.00     0.131 A 
ATOM     91  C   UNL A   1      47.442  34.630  30.013  1.00  0.00     0.055 A 
ATOM     92  C   UNL A   1      46.882  35.142  27.732  1.00  0.00     0.041 A 
ATOM     93  F   UNL A   1      45.899  33.505  26.378  1.00  0.00    -0.206 F 
ATOM     94  C   UNL A   1      47.384  35.550  28.963  1.00  0.00     0.022 A 
BRANCH  91  95
ATOM     95  S   UNL A   1      47.936  35.179  31.670  1.00  0.00     0.124 S 
ATOM     96  O   UNL A   1      47.020  34.428  32.522  1.00  0.00    -0.237 OA
ATOM     97  O   UNL A   1      49.337  34.776  31.728  1.00  0.00    -0.237 OA
ATOM     98  O   UNL A   1      47.708  36.623  31.636  1.00  0.00    -0.744 OA
ENDBRANCH  91  95
ENDBRANCH  65  88
ENDBRANCH  39  40
ENDBRANCH  32  34
ENDBRANCH  31  32
ENDBRANCH  30  31
ENDBRANCH  29  30
ENDBRANCH  28  29
ENDBRANCH  27  28
ENDBRANCH   1  27
TORSDOF 25
ENDMDL
