MODEL 1
REMARK VINA RESULT:      -9.4      0.000      0.000
REMARK SMILES C[C@H](C(=O)OCCOCCOCCOCCOC(=O)c1ccc(-c2c3nc(c(-c4cc(S(=O)(=O)[O-])ccc4F)c4ccc([nH]4)c(-c4cc(S(=O)(=O)[O-])ccc4F)c4nc(c(-c5cc(S(=O)(=O)[O-])ccc5F)c5ccc2[nH]5)C=C4)C=C3)cc1)[C@H](C)[NH+]1CC[NH+](CCO)CC1
REMARK SMILES IDX 10 1 9 2 8 3 7 4 6 5 5 6 3 7 4 8 2 9 1 10 83 11 84 12 85 13
REMARK SMILES IDX 86 14 93 15 87 17 92 18 88 19 89 21 90 22 91 23 11 25 12 26
REMARK SMILES IDX 13 27 14 28 15 29 16 30 17 31 18 32 19 33 20 34 21 35 82 36
REMARK SMILES IDX 22 37 81 38 23 39 24 40 25 41 75 42 26 43 80 44 74 45 76 46
REMARK SMILES IDX 27 47 79 48 73 49 72 50 28 52 60 53 40 54 59 55 41 56 44 57
REMARK SMILES IDX 58 58 77 59 42 60 43 61 57 63 78 64 45 65 29 66 30 67 38 68
REMARK SMILES IDX 31 69 37 70 39 71 36 72 32 73 33 74 34 75 35 76 61 77 62 78
REMARK SMILES IDX 70 79 63 80 69 81 71 82 68 83 64 84 65 85 66 86 67 87 46 88
REMARK SMILES IDX 47 89 55 90 48 91 54 92 56 93 53 94 49 95 50 96 51 97 52 98
REMARK H PARENT 85 16 88 20 91 24 76 51 44 62
REMARK Flexibility Score: inf
ROOT
ATOM      1  C   UNL A   1      33.310  27.294  25.772  1.00  0.00     0.188 C 
ENDROOT
BRANCH   1   2
ATOM      2  C   UNL A   1      31.855  26.812  25.770  1.00  0.00     0.188 C 
BRANCH   2   3
ATOM      3  O   UNL A   1      31.424  26.061  26.899  1.00  0.00    -0.376 OA
BRANCH   3   4
ATOM      4  C   UNL A   1      31.443  24.636  26.789  1.00  0.00     0.202 C 
BRANCH   4   5
ATOM      5  C   UNL A   1      30.422  23.977  25.843  1.00  0.00     0.261 C 
BRANCH   5   6
ATOM      6  O   UNL A   1      30.888  22.722  25.302  1.00  0.00    -0.463 OA
BRANCH   6   7
ATOM      7  C   UNL A   1      31.529  22.765  24.109  1.00  0.00     0.314 C 
ATOM      8  O   UNL A   1      31.169  23.469  23.169  1.00  0.00    -0.252 OA
BRANCH   7   9
ATOM      9  C   UNL A   1      32.832  21.956  24.059  1.00  0.00     0.154 C 
ATOM     10  C   UNL A   1      33.307  21.857  25.519  1.00  0.00     0.026 C 
BRANCH   9  11
ATOM     11  C   UNL A   1      32.810  20.590  23.274  1.00  0.00     0.195 C 
ATOM     12  C   UNL A   1      31.835  20.649  22.068  1.00  0.00     0.076 C 
BRANCH  11  13
ATOM     13  N   UNL A   1      32.416  19.451  24.156  1.00  0.00    -0.323 N 
ATOM     14  C   UNL A   1      32.168  18.166  23.457  1.00  0.00     0.324 C 
ATOM     15  C   UNL A   1      33.381  19.158  25.238  1.00  0.00     0.324 C 
ATOM     16  H   UNL A   1      31.540  19.803  24.540  1.00  0.00     0.348 HD
ATOM     17  C   UNL A   1      33.428  17.399  22.987  1.00  0.00     0.324 C 
ATOM     18  C   UNL A   1      34.673  18.425  24.802  1.00  0.00     0.324 C 
ATOM     19  N   UNL A   1      34.490  17.223  23.982  1.00  0.00    -0.324 N 
ATOM     20  H   UNL A   1      35.344  17.107  23.435  1.00  0.00     0.348 HD
BRANCH  19  21
ATOM     21  C   UNL A   1      34.467  15.962  24.737  1.00  0.00     0.291 C 
BRANCH  21  22
ATOM     22  C   UNL A   1      33.123  15.296  25.079  1.00  0.00     0.217 C 
BRANCH  22  23
ATOM     23  O   UNL A   1      32.548  15.813  26.276  1.00  0.00    -0.391 OA
ATOM     24  H   UNL A   1      33.245  16.192  26.833  1.00  0.00     0.210 HD
ENDBRANCH  22  23
ENDBRANCH  21  22
ENDBRANCH  19  21
ENDBRANCH  11  13
ENDBRANCH   9  11
ENDBRANCH   7   9
ENDBRANCH   6   7
ENDBRANCH   5   6
ENDBRANCH   4   5
ENDBRANCH   3   4
ENDBRANCH   2   3
ENDBRANCH   1   2
BRANCH   1  25
ATOM     25  O   UNL A   1      34.063  26.829  24.663  1.00  0.00    -0.377 OA
BRANCH  25  26
ATOM     26  C   UNL A   1      34.023  25.457  24.272  1.00  0.00     0.188 C 
BRANCH  26  27
ATOM     27  C   UNL A   1      35.316  24.649  24.361  1.00  0.00     0.188 C 
BRANCH  27  28
ATOM     28  O   UNL A   1      35.492  23.602  23.402  1.00  0.00    -0.376 OA
BRANCH  28  29
ATOM     29  C   UNL A   1      36.748  22.927  23.354  1.00  0.00     0.202 C 
BRANCH  29  30
ATOM     30  C   UNL A   1      36.853  21.646  24.181  1.00  0.00     0.261 C 
BRANCH  30  31
ATOM     31  O   UNL A   1      37.227  21.890  25.546  1.00  0.00    -0.460 OA
BRANCH  31  32
ATOM     32  C   UNL A   1      38.512  21.594  25.843  1.00  0.00     0.338 C 
ATOM     33  O   UNL A   1      39.136  20.596  25.499  1.00  0.00    -0.246 OA
BRANCH  32  34
ATOM     34  C   UNL A   1      39.136  22.722  26.549  1.00  0.00     0.060 A 
ATOM     35  C   UNL A   1      38.527  23.982  26.465  1.00  0.00     0.016 A 
ATOM     36  C   UNL A   1      40.365  22.566  27.194  1.00  0.00     0.016 A 
ATOM     37  C   UNL A   1      39.176  25.103  26.973  1.00  0.00     0.010 A 
ATOM     38  C   UNL A   1      41.021  23.692  27.692  1.00  0.00     0.010 A 
ATOM     39  C   UNL A   1      40.448  24.968  27.543  1.00  0.00    -0.014 A 
BRANCH  39  40
ATOM     40  C   UNL A   1      41.264  26.174  27.808  1.00  0.00     0.031 A 
ATOM     41  C   UNL A   1      40.655  27.289  28.612  1.00  0.00     0.074 A 
ATOM     42  C   UNL A   1      42.524  26.264  27.349  1.00  0.00     0.049 A 
ATOM     43  N   UNL A   1      41.137  28.468  28.899  1.00  0.00    -0.248 NA
ATOM     44  C   UNL A   1      39.311  27.037  29.158  1.00  0.00     0.031 C 
ATOM     45  C   UNL A   1      43.229  25.217  26.611  1.00  0.00     0.029 A 
ATOM     46  N   UNL A   1      43.431  27.289  27.432  1.00  0.00    -0.354 N 
ATOM     47  C   UNL A   1      40.153  29.107  29.647  1.00  0.00     0.074 A 
ATOM     48  C   UNL A   1      39.034  28.195  29.738  1.00  0.00     0.031 C 
ATOM     49  C   UNL A   1      44.459  25.659  26.300  1.00  0.00     0.029 A 
ATOM     50  C   UNL A   1      44.610  27.033  26.774  1.00  0.00     0.049 A 
ATOM     51  H   UNL A   1      43.254  28.127  27.917  1.00  0.00     0.167 HD
ATOM     52  C   UNL A   1      40.187  30.341  30.210  1.00  0.00     0.034 A 
ATOM     53  C   UNL A   1      45.671  27.833  26.554  1.00  0.00     0.034 A 
ATOM     54  C   UNL A   1      41.314  31.234  30.095  1.00  0.00     0.049 A 
ATOM     55  C   UNL A   1      45.650  29.237  27.111  1.00  0.00     0.074 A 
ATOM     56  C   UNL A   1      41.469  32.500  30.633  1.00  0.00     0.029 A 
ATOM     57  N   UNL A   1      42.475  30.962  29.380  1.00  0.00    -0.354 N 
ATOM     58  N   UNL A   1      44.717  29.834  27.819  1.00  0.00    -0.248 NA
ATOM     59  C   UNL A   1      46.827  30.074  26.843  1.00  0.00     0.031 C 
ATOM     60  C   UNL A   1      42.684  33.023  30.175  1.00  0.00     0.029 A 
ATOM     61  C   UNL A   1      43.331  32.051  29.429  1.00  0.00     0.049 A 
ATOM     62  H   UNL A   1      42.661  30.120  28.907  1.00  0.00     0.167 HD
ATOM     63  C   UNL A   1      45.213  31.103  28.110  1.00  0.00     0.074 A 
ATOM     64  C   UNL A   1      46.530  31.179  27.511  1.00  0.00     0.031 C 
ATOM     65  C   UNL A   1      44.638  32.113  28.815  1.00  0.00     0.034 A 
BRANCH  52  66
ATOM     66  C   UNL A   1      38.950  30.809  30.937  1.00  0.00     0.023 A 
ATOM     67  C   UNL A   1      37.958  31.579  30.303  1.00  0.00     0.031 A 
ATOM     68  C   UNL A   1      38.774  30.508  32.301  1.00  0.00     0.131 A 
ATOM     69  C   UNL A   1      36.879  32.083  31.048  1.00  0.00     0.055 A 
ATOM     70  C   UNL A   1      37.656  30.942  33.015  1.00  0.00     0.041 A 
ATOM     71  F   UNL A   1      39.700  29.801  32.969  1.00  0.00    -0.206 F 
ATOM     72  C   UNL A   1      36.707  31.748  32.393  1.00  0.00     0.022 A 
BRANCH  69  73
ATOM     73  S   UNL A   1      35.790  33.311  30.275  1.00  0.00     0.124 S 
ATOM     74  O   UNL A   1      35.616  34.274  31.358  1.00  0.00    -0.237 OA
ATOM     75  O   UNL A   1      36.585  33.763  29.138  1.00  0.00    -0.237 OA
ATOM     76  O   UNL A   1      34.594  32.543  29.935  1.00  0.00    -0.744 OA
ENDBRANCH  69  73
ENDBRANCH  52  66
BRANCH  53  77
ATOM     77  C   UNL A   1      46.827  27.350  25.745  1.00  0.00     0.023 A 
ATOM     78  C   UNL A   1      47.038  27.812  24.437  1.00  0.00     0.031 A 
ATOM     79  C   UNL A   1      47.711  26.381  26.251  1.00  0.00     0.131 A 
ATOM     80  C   UNL A   1      48.077  27.272  23.663  1.00  0.00     0.055 A 
ATOM     81  C   UNL A   1      48.778  25.888  25.499  1.00  0.00     0.041 A 
ATOM     82  F   UNL A   1      47.556  25.904  27.497  1.00  0.00    -0.206 F 
ATOM     83  C   UNL A   1      48.957  26.325  24.189  1.00  0.00     0.022 A 
BRANCH  80  84
ATOM     84  S   UNL A   1      48.205  27.763  21.922  1.00  0.00     0.124 S 
ATOM     85  O   UNL A   1      46.895  28.358  21.685  1.00  0.00    -0.237 OA
ATOM     86  O   UNL A   1      49.334  28.686  21.951  1.00  0.00    -0.237 OA
ATOM     87  O   UNL A   1      48.453  26.499  21.231  1.00  0.00    -0.744 OA
ENDBRANCH  80  84
ENDBRANCH  53  77
BRANCH  65  88
ATOM     88  C   UNL A   1      45.458  33.366  29.017  1.00  0.00     0.023 A 
ATOM     89  C   UNL A   1      45.617  34.323  28.000  1.00  0.00     0.031 A 
ATOM     90  C   UNL A   1      46.095  33.600  30.250  1.00  0.00     0.131 A 
ATOM     91  C   UNL A   1      46.441  35.438  28.214  1.00  0.00     0.055 A 
ATOM     92  C   UNL A   1      46.858  34.746  30.479  1.00  0.00     0.041 A 
ATOM     93  F   UNL A   1      45.982  32.718  31.256  1.00  0.00    -0.206 F 
ATOM     94  C   UNL A   1      47.046  35.666  29.452  1.00  0.00     0.022 A 
BRANCH  91  95
ATOM     95  S   UNL A   1      46.798  36.537  26.815  1.00  0.00     0.124 S 
ATOM     96  O   UNL A   1      45.804  37.589  26.996  1.00  0.00    -0.237 OA
ATOM     97  O   UNL A   1      48.185  36.919  27.065  1.00  0.00    -0.237 OA
ATOM     98  O   UNL A   1      46.592  35.683  25.647  1.00  0.00    -0.744 OA
ENDBRANCH  91  95
ENDBRANCH  65  88
ENDBRANCH  39  40
ENDBRANCH  32  34
ENDBRANCH  31  32
ENDBRANCH  30  31
ENDBRANCH  29  30
ENDBRANCH  28  29
ENDBRANCH  27  28
ENDBRANCH  26  27
ENDBRANCH  25  26
ENDBRANCH   1  25
TORSDOF 28
ENDMDL
MODEL 2
REMARK VINA RESULT:      -9.2      3.145      9.095
REMARK SMILES C[C@H](C(=O)OCCOCCOCCOCCOC(=O)c1ccc(-c2c3nc(c(-c4cc(S(=O)(=O)[O-])ccc4F)c4ccc([nH]4)c(-c4cc(S(=O)(=O)[O-])ccc4F)c4nc(c(-c5cc(S(=O)(=O)[O-])ccc5F)c5ccc2[nH]5)C=C4)C=C3)cc1)[C@H](C)[NH+]1CC[NH+](CCO)CC1
REMARK SMILES IDX 10 1 9 2 8 3 7 4 6 5 5 6 3 7 4 8 2 9 1 10 83 11 84 12 85 13
REMARK SMILES IDX 86 14 93 15 87 17 92 18 88 19 89 21 90 22 91 23 11 25 12 26
REMARK SMILES IDX 13 27 14 28 15 29 16 30 17 31 18 32 19 33 20 34 21 35 82 36
REMARK SMILES IDX 22 37 81 38 23 39 24 40 25 41 75 42 26 43 80 44 74 45 76 46
REMARK SMILES IDX 27 47 79 48 73 49 72 50 28 52 60 53 40 54 59 55 41 56 44 57
REMARK SMILES IDX 58 58 77 59 42 60 43 61 57 63 78 64 45 65 29 66 30 67 38 68
REMARK SMILES IDX 31 69 37 70 39 71 36 72 32 73 33 74 34 75 35 76 61 77 62 78
REMARK SMILES IDX 70 79 63 80 69 81 71 82 68 83 64 84 65 85 66 86 67 87 46 88
REMARK SMILES IDX 47 89 55 90 48 91 54 92 56 93 53 94 49 95 50 96 51 97 52 98
REMARK H PARENT 85 16 88 20 91 24 76 51 44 62
REMARK Flexibility Score: inf
ROOT
ATOM      1  C   UNL A   1      38.312  22.159  25.748  1.00  0.00     0.188 C 
ENDROOT
BRANCH   1   2
ATOM      2  C   UNL A   1      37.031  22.945  25.444  1.00  0.00     0.188 C 
BRANCH   2   3
ATOM      3  O   UNL A   1      35.803  22.360  25.859  1.00  0.00    -0.376 OA
BRANCH   3   4
ATOM      4  C   UNL A   1      35.431  21.115  25.264  1.00  0.00     0.202 C 
BRANCH   4   5
ATOM      5  C   UNL A   1      33.950  20.701  25.334  1.00  0.00     0.261 C 
BRANCH   5   6
ATOM      6  O   UNL A   1      33.095  21.756  25.825  1.00  0.00    -0.463 OA
BRANCH   6   7
ATOM      7  C   UNL A   1      32.593  22.620  24.910  1.00  0.00     0.314 C 
ATOM      8  O   UNL A   1      33.094  22.806  23.805  1.00  0.00    -0.252 OA
BRANCH   7   9
ATOM      9  C   UNL A   1      31.258  23.264  25.309  1.00  0.00     0.154 C 
ATOM     10  C   UNL A   1      31.113  22.999  26.819  1.00  0.00     0.026 C 
BRANCH   9  11
ATOM     11  C   UNL A   1      31.012  24.757  24.871  1.00  0.00     0.195 C 
ATOM     12  C   UNL A   1      30.270  24.829  23.510  1.00  0.00     0.076 C 
BRANCH  11  13
ATOM     13  N   UNL A   1      32.291  25.521  24.764  1.00  0.00    -0.323 N 
ATOM     14  C   UNL A   1      32.296  26.608  23.754  1.00  0.00     0.324 C 
ATOM     15  C   UNL A   1      32.745  26.128  26.034  1.00  0.00     0.324 C 
ATOM     16  H   UNL A   1      32.929  24.782  24.469  1.00  0.00     0.348 HD
ATOM     17  C   UNL A   1      31.530  27.895  24.145  1.00  0.00     0.324 C 
ATOM     18  C   UNL A   1      31.978  27.397  26.479  1.00  0.00     0.324 C 
ATOM     19  N   UNL A   1      31.825  28.451  25.469  1.00  0.00    -0.324 N 
ATOM     20  H   UNL A   1      30.992  28.983  25.722  1.00  0.00     0.348 HD
BRANCH  19  21
ATOM     21  C   UNL A   1      32.853  29.500  25.517  1.00  0.00     0.291 C 
BRANCH  21  22
ATOM     22  C   UNL A   1      33.113  30.261  26.830  1.00  0.00     0.217 C 
BRANCH  22  23
ATOM     23  O   UNL A   1      34.431  30.797  26.897  1.00  0.00    -0.391 OA
ATOM     24  H   UNL A   1      34.726  31.046  26.006  1.00  0.00     0.210 HD
ENDBRANCH  22  23
ENDBRANCH  21  22
ENDBRANCH  19  21
ENDBRANCH  11  13
ENDBRANCH   9  11
ENDBRANCH   7   9
ENDBRANCH   6   7
ENDBRANCH   5   6
ENDBRANCH   4   5
ENDBRANCH   3   4
ENDBRANCH   2   3
ENDBRANCH   1   2
BRANCH   1  25
ATOM     25  O   UNL A   1      39.241  22.875  26.547  1.00  0.00    -0.377 OA
BRANCH  25  26
ATOM     26  C   UNL A   1      40.633  22.567  26.506  1.00  0.00     0.188 C 
BRANCH  26  27
ATOM     27  C   UNL A   1      41.213  21.725  27.641  1.00  0.00     0.188 C 
BRANCH  27  28
ATOM     28  O   UNL A   1      40.779  20.364  27.726  1.00  0.00    -0.376 OA
BRANCH  28  29
ATOM     29  C   UNL A   1      40.890  19.541  26.567  1.00  0.00     0.202 C 
BRANCH  29  30
ATOM     30  C   UNL A   1      42.308  19.126  26.172  1.00  0.00     0.261 C 
BRANCH  30  31
ATOM     31  O   UNL A   1      42.764  19.765  24.970  1.00  0.00    -0.460 OA
BRANCH  31  32
ATOM     32  C   UNL A   1      44.101  19.730  24.780  1.00  0.00     0.338 C 
ATOM     33  O   UNL A   1      44.765  18.772  24.400  1.00  0.00    -0.246 OA
BRANCH  32  34
ATOM     34  C   UNL A   1      44.670  21.072  24.967  1.00  0.00     0.060 A 
ATOM     35  C   UNL A   1      45.259  21.382  26.201  1.00  0.00     0.016 A 
ATOM     36  C   UNL A   1      44.527  22.050  23.980  1.00  0.00     0.016 A 
ATOM     37  C   UNL A   1      45.653  22.688  26.475  1.00  0.00     0.010 A 
ATOM     38  C   UNL A   1      44.911  23.362  24.260  1.00  0.00     0.010 A 
ATOM     39  C   UNL A   1      45.433  23.691  25.523  1.00  0.00    -0.014 A 
BRANCH  39  40
ATOM     40  C   UNL A   1      45.567  25.113  25.914  1.00  0.00     0.031 A 
ATOM     41  C   UNL A   1      46.927  25.750  25.845  1.00  0.00     0.074 A 
ATOM     42  C   UNL A   1      44.494  25.819  26.310  1.00  0.00     0.049 A 
ATOM     43  N   UNL A   1      47.306  26.945  26.214  1.00  0.00    -0.248 NA
ATOM     44  C   UNL A   1      48.007  24.918  25.292  1.00  0.00     0.031 C 
ATOM     45  C   UNL A   1      43.123  25.313  26.357  1.00  0.00     0.029 A 
ATOM     46  N   UNL A   1      44.394  27.111  26.756  1.00  0.00    -0.354 N 
ATOM     47  C   UNL A   1      48.672  27.006  25.951  1.00  0.00     0.074 A 
ATOM     48  C   UNL A   1      49.057  25.714  25.425  1.00  0.00     0.031 C 
ATOM     49  C   UNL A   1      42.318  26.287  26.815  1.00  0.00     0.029 A 
ATOM     50  C   UNL A   1      43.122  27.462  27.139  1.00  0.00     0.049 A 
ATOM     51  H   UNL A   1      45.160  27.728  26.796  1.00  0.00     0.167 HD
ATOM     52  C   UNL A   1      49.520  28.048  26.128  1.00  0.00     0.034 A 
ATOM     53  C   UNL A   1      42.672  28.594  27.717  1.00  0.00     0.034 A 
ATOM     54  C   UNL A   1      49.110  29.323  26.665  1.00  0.00     0.049 A 
ATOM     55  C   UNL A   1      43.653  29.709  27.992  1.00  0.00     0.074 A 
ATOM     56  C   UNL A   1      49.876  30.455  26.877  1.00  0.00     0.029 A 
ATOM     57  N   UNL A   1      47.822  29.629  27.089  1.00  0.00    -0.354 N 
ATOM     58  N   UNL A   1      44.942  29.760  27.739  1.00  0.00    -0.248 NA
ATOM     59  C   UNL A   1      43.118  30.921  28.626  1.00  0.00     0.031 C 
ATOM     60  C   UNL A   1      49.073  31.415  27.503  1.00  0.00     0.029 A 
ATOM     61  C   UNL A   1      47.783  30.918  27.598  1.00  0.00     0.049 A 
ATOM     62  H   UNL A   1      47.051  29.020  27.036  1.00  0.00     0.167 HD
ATOM     63  C   UNL A   1      45.361  31.023  28.151  1.00  0.00     0.074 A 
ATOM     64  C   UNL A   1      44.186  31.703  28.657  1.00  0.00     0.031 C 
ATOM     65  C   UNL A   1      46.602  31.577  28.109  1.00  0.00     0.034 A 
BRANCH  52  66
ATOM     66  C   UNL A   1      50.977  27.823  25.801  1.00  0.00     0.023 A 
ATOM     67  C   UNL A   1      51.493  28.036  24.509  1.00  0.00     0.031 A 
ATOM     68  C   UNL A   1      51.860  27.353  26.790  1.00  0.00     0.131 A 
ATOM     69  C   UNL A   1      52.829  27.709  24.226  1.00  0.00     0.055 A 
ATOM     70  C   UNL A   1      53.209  27.110  26.522  1.00  0.00     0.041 A 
ATOM     71  F   UNL A   1      51.422  27.103  28.034  1.00  0.00    -0.206 F 
ATOM     72  C   UNL A   1      53.697  27.274  25.229  1.00  0.00     0.022 A 
BRANCH  69  73
ATOM     73  S   UNL A   1      53.373  27.712  22.495  1.00  0.00     0.124 S 
ATOM     74  O   UNL A   1      54.444  28.706  22.524  1.00  0.00    -0.237 OA
ATOM     75  O   UNL A   1      53.791  26.328  22.295  1.00  0.00    -0.237 OA
ATOM     76  O   UNL A   1      52.177  28.116  21.760  1.00  0.00    -0.744 OA
ENDBRANCH  69  73
ENDBRANCH  52  66
BRANCH  53  77
ATOM     77  C   UNL A   1      41.239  28.724  28.109  1.00  0.00     0.023 A 
ATOM     78  C   UNL A   1      40.829  28.512  29.434  1.00  0.00     0.031 A 
ATOM     79  C   UNL A   1      40.249  29.015  27.152  1.00  0.00     0.131 A 
ATOM     80  C   UNL A   1      39.464  28.547  29.758  1.00  0.00     0.055 A 
ATOM     81  C   UNL A   1      38.899  29.105  27.490  1.00  0.00     0.041 A 
ATOM     82  F   UNL A   1      40.586  29.227  25.869  1.00  0.00    -0.206 F 
ATOM     83  C   UNL A   1      38.497  28.857  28.799  1.00  0.00     0.022 A 
BRANCH  80  84
ATOM     84  S   UNL A   1      38.961  28.090  31.440  1.00  0.00     0.124 S 
ATOM     85  O   UNL A   1      37.907  29.063  31.707  1.00  0.00    -0.237 OA
ATOM     86  O   UNL A   1      38.528  26.708  31.259  1.00  0.00    -0.237 OA
ATOM     87  O   UNL A   1      40.184  28.262  32.219  1.00  0.00    -0.744 OA
ENDBRANCH  80  84
ENDBRANCH  53  77
BRANCH  65  88
ATOM     88  C   UNL A   1      46.734  33.007  28.578  1.00  0.00     0.023 A 
ATOM     89  C   UNL A   1      46.648  34.092  27.689  1.00  0.00     0.031 A 
ATOM     90  C   UNL A   1      46.958  33.284  29.939  1.00  0.00     0.131 A 
ATOM     91  C   UNL A   1      46.843  35.399  28.162  1.00  0.00     0.055 A 
ATOM     92  C   UNL A   1      47.082  34.590  30.414  1.00  0.00     0.041 A 
ATOM     93  F   UNL A   1      47.054  32.287  30.833  1.00  0.00    -0.206 F 
ATOM     94  C   UNL A   1      47.040  35.656  29.521  1.00  0.00     0.022 A 
BRANCH  91  95
ATOM     95  S   UNL A   1      46.941  36.754  26.959  1.00  0.00     0.124 S 
ATOM     96  O   UNL A   1      48.364  37.077  26.984  1.00  0.00    -0.237 OA
ATOM     97  O   UNL A   1      46.451  36.123  25.738  1.00  0.00    -0.237 OA
ATOM     98  O   UNL A   1      46.063  37.777  27.523  1.00  0.00    -0.744 OA
ENDBRANCH  91  95
ENDBRANCH  65  88
ENDBRANCH  39  40
ENDBRANCH  32  34
ENDBRANCH  31  32
ENDBRANCH  30  31
ENDBRANCH  29  30
ENDBRANCH  28  29
ENDBRANCH  27  28
ENDBRANCH  26  27
ENDBRANCH  25  26
ENDBRANCH   1  25
TORSDOF 28
ENDMDL
MODEL 3
REMARK VINA RESULT:      -9.1      5.232      8.377
REMARK SMILES C[C@H](C(=O)OCCOCCOCCOCCOC(=O)c1ccc(-c2c3nc(c(-c4cc(S(=O)(=O)[O-])ccc4F)c4ccc([nH]4)c(-c4cc(S(=O)(=O)[O-])ccc4F)c4nc(c(-c5cc(S(=O)(=O)[O-])ccc5F)c5ccc2[nH]5)C=C4)C=C3)cc1)[C@H](C)[NH+]1CC[NH+](CCO)CC1
REMARK SMILES IDX 10 1 9 2 8 3 7 4 6 5 5 6 3 7 4 8 2 9 1 10 83 11 84 12 85 13
REMARK SMILES IDX 86 14 93 15 87 17 92 18 88 19 89 21 90 22 91 23 11 25 12 26
REMARK SMILES IDX 13 27 14 28 15 29 16 30 17 31 18 32 19 33 20 34 21 35 82 36
REMARK SMILES IDX 22 37 81 38 23 39 24 40 25 41 75 42 26 43 80 44 74 45 76 46
REMARK SMILES IDX 27 47 79 48 73 49 72 50 28 52 60 53 40 54 59 55 41 56 44 57
REMARK SMILES IDX 58 58 77 59 42 60 43 61 57 63 78 64 45 65 29 66 30 67 38 68
REMARK SMILES IDX 31 69 37 70 39 71 36 72 32 73 33 74 34 75 35 76 61 77 62 78
REMARK SMILES IDX 70 79 63 80 69 81 71 82 68 83 64 84 65 85 66 86 67 87 46 88
REMARK SMILES IDX 47 89 55 90 48 91 54 92 56 93 53 94 49 95 50 96 51 97 52 98
REMARK H PARENT 85 16 88 20 91 24 76 51 44 62
REMARK Flexibility Score: inf
ROOT
ATOM      1  C   UNL A   1      34.032  30.360  26.996  1.00  0.00     0.188 C 
ENDROOT
BRANCH   1   2
ATOM      2  C   UNL A   1      32.532  30.093  26.824  1.00  0.00     0.188 C 
BRANCH   2   3
ATOM      3  O   UNL A   1      32.163  29.013  25.974  1.00  0.00    -0.376 OA
BRANCH   3   4
ATOM      4  C   UNL A   1      33.195  28.408  25.192  1.00  0.00     0.202 C 
BRANCH   4   5
ATOM      5  C   UNL A   1      33.117  26.889  24.954  1.00  0.00     0.261 C 
BRANCH   5   6
ATOM      6  O   UNL A   1      33.200  26.124  26.177  1.00  0.00    -0.463 OA
BRANCH   6   7
ATOM      7  C   UNL A   1      33.103  24.777  26.069  1.00  0.00     0.314 C 
ATOM      8  O   UNL A   1      32.342  24.094  26.749  1.00  0.00    -0.252 OA
BRANCH   7   9
ATOM      9  C   UNL A   1      33.931  24.169  24.929  1.00  0.00     0.154 C 
ATOM     10  C   UNL A   1      35.366  24.069  25.476  1.00  0.00     0.026 C 
BRANCH   9  11
ATOM     11  C   UNL A   1      33.385  22.855  24.255  1.00  0.00     0.195 C 
ATOM     12  C   UNL A   1      32.134  23.147  23.383  1.00  0.00     0.076 C 
BRANCH  11  13
ATOM     13  N   UNL A   1      33.032  21.816  25.269  1.00  0.00    -0.323 N 
ATOM     14  C   UNL A   1      32.061  20.791  24.814  1.00  0.00     0.324 C 
ATOM     15  C   UNL A   1      34.194  21.080  25.814  1.00  0.00     0.324 C 
ATOM     16  H   UNL A   1      32.602  22.395  25.990  1.00  0.00     0.348 HD
ATOM     17  C   UNL A   1      32.622  19.707  23.862  1.00  0.00     0.324 C 
ATOM     18  C   UNL A   1      34.808  20.012  24.876  1.00  0.00     0.324 C 
ATOM     19  N   UNL A   1      33.868  19.056  24.280  1.00  0.00    -0.324 N 
ATOM     20  H   UNL A   1      34.294  18.726  23.414  1.00  0.00     0.348 HD
BRANCH  19  21
ATOM     21  C   UNL A   1      33.724  17.795  25.020  1.00  0.00     0.291 C 
BRANCH  21  22
ATOM     22  C   UNL A   1      33.218  16.533  24.297  1.00  0.00     0.217 C 
BRANCH  22  23
ATOM     23  O   UNL A   1      32.135  15.911  24.981  1.00  0.00    -0.391 OA
ATOM     24  H   UNL A   1      32.451  15.110  25.429  1.00  0.00     0.210 HD
ENDBRANCH  22  23
ENDBRANCH  21  22
ENDBRANCH  19  21
ENDBRANCH  11  13
ENDBRANCH   9  11
ENDBRANCH   7   9
ENDBRANCH   6   7
ENDBRANCH   5   6
ENDBRANCH   4   5
ENDBRANCH   3   4
ENDBRANCH   2   3
ENDBRANCH   1   2
BRANCH   1  25
ATOM     25  O   UNL A   1      34.379  30.828  28.289  1.00  0.00    -0.377 OA
BRANCH  25  26
ATOM     26  C   UNL A   1      34.857  32.159  28.484  1.00  0.00     0.188 C 
BRANCH  26  27
ATOM     27  C   UNL A   1      33.989  33.311  27.984  1.00  0.00     0.188 C 
BRANCH  27  28
ATOM     28  O   UNL A   1      34.262  34.609  28.521  1.00  0.00    -0.376 OA
BRANCH  28  29
ATOM     29  C   UNL A   1      33.204  35.563  28.567  1.00  0.00     0.202 C 
BRANCH  29  30
ATOM     30  C   UNL A   1      32.904  36.167  29.940  1.00  0.00     0.261 C 
BRANCH  30  31
ATOM     31  O   UNL A   1      32.706  35.174  30.957  1.00  0.00    -0.460 OA
BRANCH  31  32
ATOM     32  C   UNL A   1      33.506  35.301  32.038  1.00  0.00     0.338 C 
ATOM     33  O   UNL A   1      33.301  35.995  33.028  1.00  0.00    -0.246 OA
BRANCH  32  34
ATOM     34  C   UNL A   1      34.638  34.368  31.937  1.00  0.00     0.060 A 
ATOM     35  C   UNL A   1      34.462  33.054  32.391  1.00  0.00     0.016 A 
ATOM     36  C   UNL A   1      35.890  34.812  31.505  1.00  0.00     0.016 A 
ATOM     37  C   UNL A   1      35.554  32.195  32.472  1.00  0.00     0.010 A 
ATOM     38  C   UNL A   1      36.986  33.954  31.598  1.00  0.00     0.010 A 
ATOM     39  C   UNL A   1      36.828  32.659  32.122  1.00  0.00    -0.014 A 
BRANCH  39  40
ATOM     40  C   UNL A   1      38.022  31.864  32.485  1.00  0.00     0.031 A 
ATOM     41  C   UNL A   1      38.720  32.169  33.782  1.00  0.00     0.074 A 
ATOM     42  C   UNL A   1      38.464  30.883  31.679  1.00  0.00     0.049 A 
ATOM     43  N   UNL A   1      39.824  31.670  34.270  1.00  0.00    -0.248 NA
ATOM     44  C   UNL A   1      38.086  33.184  34.638  1.00  0.00     0.031 C 
ATOM     45  C   UNL A   1      37.827  30.468  30.429  1.00  0.00     0.029 A 
ATOM     46  N   UNL A   1      39.558  30.065  31.789  1.00  0.00    -0.354 N 
ATOM     47  C   UNL A   1      40.027  32.319  35.485  1.00  0.00     0.074 A 
ATOM     48  C   UNL A   1      38.949  33.271  35.638  1.00  0.00     0.031 C 
ATOM     49  C   UNL A   1      38.549  29.475  29.884  1.00  0.00     0.029 A 
ATOM     50  C   UNL A   1      39.722  29.220  30.718  1.00  0.00     0.049 A 
ATOM     51  H   UNL A   1      40.168  30.081  32.562  1.00  0.00     0.167 HD
ATOM     52  C   UNL A   1      41.020  32.129  36.388  1.00  0.00     0.034 A 
ATOM     53  C   UNL A   1      40.723  28.364  30.433  1.00  0.00     0.034 A 
ATOM     54  C   UNL A   1      42.089  31.178  36.204  1.00  0.00     0.049 A 
ATOM     55  C   UNL A   1      41.869  28.237  31.409  1.00  0.00     0.074 A 
ATOM     56  C   UNL A   1      43.141  30.889  37.055  1.00  0.00     0.029 A 
ATOM     57  N   UNL A   1      42.251  30.371  35.084  1.00  0.00    -0.354 N 
ATOM     58  N   UNL A   1      42.053  28.853  32.556  1.00  0.00    -0.248 NA
ATOM     59  C   UNL A   1      42.939  27.296  31.055  1.00  0.00     0.031 C 
ATOM     60  C   UNL A   1      43.981  29.971  36.415  1.00  0.00     0.029 A 
ATOM     61  C   UNL A   1      43.407  29.615  35.204  1.00  0.00     0.049 A 
ATOM     62  H   UNL A   1      41.636  30.341  34.316  1.00  0.00     0.167 HD
ATOM     63  C   UNL A   1      43.242  28.344  33.075  1.00  0.00     0.074 A 
ATOM     64  C   UNL A   1      43.723  27.365  32.121  1.00  0.00     0.031 C 
ATOM     65  C   UNL A   1      43.877  28.650  34.236  1.00  0.00     0.034 A 
BRANCH  52  66
ATOM     66  C   UNL A   1      41.025  33.012  37.613  1.00  0.00     0.023 A 
ATOM     67  C   UNL A   1      40.234  32.727  38.741  1.00  0.00     0.031 A 
ATOM     68  C   UNL A   1      41.808  34.180  37.640  1.00  0.00     0.131 A 
ATOM     69  C   UNL A   1      40.188  33.635  39.812  1.00  0.00     0.055 A 
ATOM     70  C   UNL A   1      41.823  35.035  38.744  1.00  0.00     0.041 A 
ATOM     71  F   UNL A   1      42.563  34.522  36.583  1.00  0.00    -0.206 F 
ATOM     72  C   UNL A   1      40.997  34.773  39.833  1.00  0.00     0.022 A 
BRANCH  69  73
ATOM     73  S   UNL A   1      38.939  33.387  41.105  1.00  0.00     0.124 S 
ATOM     74  O   UNL A   1      39.130  34.578  41.930  1.00  0.00    -0.237 OA
ATOM     75  O   UNL A   1      37.699  33.333  40.338  1.00  0.00    -0.237 OA
ATOM     76  O   UNL A   1      39.341  32.131  41.734  1.00  0.00    -0.744 OA
ENDBRANCH  69  73
ENDBRANCH  52  66
BRANCH  53  77
ATOM     77  C   UNL A   1      40.715  27.589  29.159  1.00  0.00     0.023 A 
ATOM     78  C   UNL A   1      41.622  27.879  28.129  1.00  0.00     0.031 A 
ATOM     79  C   UNL A   1      39.766  26.575  28.935  1.00  0.00     0.131 A 
ATOM     80  C   UNL A   1      41.532  27.198  26.906  1.00  0.00     0.055 A 
ATOM     81  C   UNL A   1      39.717  25.860  27.738  1.00  0.00     0.041 A 
ATOM     82  F   UNL A   1      38.874  26.256  29.888  1.00  0.00    -0.206 F 
ATOM     83  C   UNL A   1      40.596  26.181  26.707  1.00  0.00     0.022 A 
BRANCH  80  84
ATOM     84  S   UNL A   1      42.602  27.726  25.539  1.00  0.00     0.124 S 
ATOM     85  O   UNL A   1      42.591  26.546  24.682  1.00  0.00    -0.237 OA
ATOM     86  O   UNL A   1      41.889  28.894  25.033  1.00  0.00    -0.237 OA
ATOM     87  O   UNL A   1      43.875  28.011  26.196  1.00  0.00    -0.744 OA
ENDBRANCH  80  84
ENDBRANCH  53  77
BRANCH  65  88
ATOM     88  C   UNL A   1      45.134  27.877  34.559  1.00  0.00     0.023 A 
ATOM     89  C   UNL A   1      46.404  28.314  34.144  1.00  0.00     0.031 A 
ATOM     90  C   UNL A   1      45.056  26.678  35.291  1.00  0.00     0.131 A 
ATOM     91  C   UNL A   1      47.535  27.528  34.412  1.00  0.00     0.055 A 
ATOM     92  C   UNL A   1      46.192  25.936  35.614  1.00  0.00     0.041 A 
ATOM     93  F   UNL A   1      43.869  26.210  35.711  1.00  0.00    -0.206 F 
ATOM     94  C   UNL A   1      47.440  26.353  35.161  1.00  0.00     0.022 A 
BRANCH  91  95
ATOM     95  S   UNL A   1      49.122  28.009  33.677  1.00  0.00     0.124 S 
ATOM     96  O   UNL A   1      50.047  27.788  34.784  1.00  0.00    -0.237 OA
ATOM     97  O   UNL A   1      49.239  27.084  32.554  1.00  0.00    -0.237 OA
ATOM     98  O   UNL A   1      48.920  29.409  33.308  1.00  0.00    -0.744 OA
ENDBRANCH  91  95
ENDBRANCH  65  88
ENDBRANCH  39  40
ENDBRANCH  32  34
ENDBRANCH  31  32
ENDBRANCH  30  31
ENDBRANCH  29  30
ENDBRANCH  28  29
ENDBRANCH  27  28
ENDBRANCH  26  27
ENDBRANCH  25  26
ENDBRANCH   1  25
TORSDOF 28
ENDMDL
