MODEL 1
REMARK VINA RESULT:     -10.0      0.000      0.000
REMARK SMILES O=C(OCCOCCOCCOCCOC(=O)c1ccc(C[NH2+][C@H]2CCCNC2=O)nc1)c1ccc(-c2c3nc(c(-c4cc(S(=O)(=O)[O-])ccc4F)c4ccc([nH]4)c(-c4cc(S(=O)(=O)[O-])ccc4F)c4nc(c(-c5cc(S(=O)(=O)[O-])ccc5F)c5ccc2[nH]5)C=C4)C=C3)cc1
REMARK SMILES IDX 9 1 8 2 7 3 6 4 5 5 4 6 3 7 2 8 1 9 33 10 34 11 95 12 35 13
REMARK SMILES IDX 94 14 36 15 37 16 38 17 88 18 39 19 93 20 87 21 89 22 40 23
REMARK SMILES IDX 92 24 86 25 85 26 41 28 73 29 53 30 72 31 54 32 57 33 71 34
REMARK SMILES IDX 90 35 55 36 56 37 70 39 91 40 58 41 42 42 43 43 51 44 44 45
REMARK SMILES IDX 50 46 52 47 49 48 45 49 46 50 47 51 48 52 74 53 75 54 83 55
REMARK SMILES IDX 76 56 82 57 84 58 81 59 77 60 78 61 79 62 80 63 59 64 60 65
REMARK SMILES IDX 68 66 61 67 67 68 69 69 66 70 62 71 63 72 64 73 65 74 10 75
REMARK SMILES IDX 11 76 12 77 13 78 14 79 15 80 16 81 17 82 18 83 19 84 32 85
REMARK SMILES IDX 20 86 31 87 21 88 22 89 23 90 24 93 25 94 29 95 26 96 28 97
REMARK SMILES IDX 30 98 27 99
REMARK H PARENT 89 27 57 38 23 91 23 92 28 100
REMARK Flexibility Score: inf
ROOT
ATOM      1  O   UNL A   1      32.979  25.042  26.382  1.00  0.00    -0.377 OA
ENDROOT
BRANCH   1   2
ATOM      2  C   UNL A   1      33.877  23.943  26.228  1.00  0.00     0.188 C 
BRANCH   2   3
ATOM      3  C   UNL A   1      35.135  24.237  25.410  1.00  0.00     0.188 C 
BRANCH   3   4
ATOM      4  O   UNL A   1      36.072  23.163  25.505  1.00  0.00    -0.376 OA
BRANCH   4   5
ATOM      5  C   UNL A   1      36.390  22.520  24.269  1.00  0.00     0.202 C 
BRANCH   5   6
ATOM      6  C   UNL A   1      37.331  21.320  24.402  1.00  0.00     0.261 C 
BRANCH   6   7
ATOM      7  O   UNL A   1      37.865  21.196  25.728  1.00  0.00    -0.460 OA
BRANCH   7   8
ATOM      8  C   UNL A   1      39.140  21.436  26.131  1.00  0.00     0.338 C 
ATOM      9  O   UNL A   1      39.932  20.493  26.129  1.00  0.00    -0.246 OA
BRANCH   8  10
ATOM     10  C   UNL A   1      39.649  22.774  26.575  1.00  0.00     0.060 A 
ATOM     11  C   UNL A   1      39.234  24.010  26.073  1.00  0.00     0.016 A 
ATOM     12  C   UNL A   1      40.583  22.780  27.626  1.00  0.00     0.016 A 
ATOM     13  C   UNL A   1      39.776  25.204  26.527  1.00  0.00     0.010 A 
ATOM     14  C   UNL A   1      41.115  23.979  28.113  1.00  0.00     0.010 A 
ATOM     15  C   UNL A   1      40.733  25.193  27.535  1.00  0.00    -0.014 A 
BRANCH  15  16
ATOM     16  C   UNL A   1      41.445  26.454  27.806  1.00  0.00     0.031 A 
ATOM     17  C   UNL A   1      40.726  27.492  28.615  1.00  0.00     0.074 A 
ATOM     18  C   UNL A   1      42.743  26.580  27.480  1.00  0.00     0.049 A 
ATOM     19  N   UNL A   1      41.103  28.693  28.954  1.00  0.00    -0.248 NA
ATOM     20  C   UNL A   1      39.397  27.111  29.126  1.00  0.00     0.031 C 
ATOM     21  C   UNL A   1      43.552  25.542  26.836  1.00  0.00     0.029 A 
ATOM     22  N   UNL A   1      43.619  27.613  27.673  1.00  0.00    -0.354 N 
ATOM     23  C   UNL A   1      40.052  29.220  29.695  1.00  0.00     0.074 A 
ATOM     24  C   UNL A   1      39.015  28.215  29.744  1.00  0.00     0.031 C 
ATOM     25  C   UNL A   1      44.811  25.989  26.701  1.00  0.00     0.029 A 
ATOM     26  C   UNL A   1      44.878  27.367  27.176  1.00  0.00     0.049 A 
ATOM     27  H   UNL A   1      43.372  28.452  28.124  1.00  0.00     0.167 HD
ATOM     28  C   UNL A   1      39.968  30.443  30.271  1.00  0.00     0.034 A 
ATOM     29  C   UNL A   1      45.942  28.189  27.083  1.00  0.00     0.034 A 
ATOM     30  C   UNL A   1      41.025  31.416  30.174  1.00  0.00     0.049 A 
ATOM     31  C   UNL A   1      45.778  29.594  27.613  1.00  0.00     0.074 A 
ATOM     32  C   UNL A   1      41.046  32.725  30.618  1.00  0.00     0.029 A 
ATOM     33  N   UNL A   1      42.260  31.175  29.578  1.00  0.00    -0.354 N 
ATOM     34  N   UNL A   1      44.742  30.130  28.224  1.00  0.00    -0.248 NA
ATOM     35  C   UNL A   1      46.910  30.507  27.435  1.00  0.00     0.031 C 
ATOM     36  C   UNL A   1      42.268  33.291  30.232  1.00  0.00     0.029 A 
ATOM     37  C   UNL A   1      43.042  32.316  29.619  1.00  0.00     0.049 A 
ATOM     38  H   UNL A   1      42.537  30.315  29.185  1.00  0.00     0.167 HD
ATOM     39  C   UNL A   1      45.108  31.439  28.518  1.00  0.00     0.074 A 
ATOM     40  C   UNL A   1      46.469  31.599  28.040  1.00  0.00     0.031 C 
ATOM     41  C   UNL A   1      44.394  32.426  29.120  1.00  0.00     0.034 A 
BRANCH  28  42
ATOM     42  C   UNL A   1      38.658  30.796  30.931  1.00  0.00     0.023 A 
ATOM     43  C   UNL A   1      37.656  31.525  30.263  1.00  0.00     0.031 A 
ATOM     44  C   UNL A   1      38.456  30.496  32.290  1.00  0.00     0.131 A 
ATOM     45  C   UNL A   1      36.545  32.004  30.977  1.00  0.00     0.055 A 
ATOM     46  C   UNL A   1      37.309  30.905  32.974  1.00  0.00     0.041 A 
ATOM     47  F   UNL A   1      39.391  29.835  32.990  1.00  0.00    -0.206 F 
ATOM     48  C   UNL A   1      36.353  31.679  32.322  1.00  0.00     0.022 A 
BRANCH  45  49
ATOM     49  S   UNL A   1      35.441  33.199  30.171  1.00  0.00     0.124 S 
ATOM     50  O   UNL A   1      34.405  32.324  29.628  1.00  0.00    -0.237 OA
ATOM     51  O   UNL A   1      35.037  34.055  31.280  1.00  0.00    -0.237 OA
ATOM     52  O   UNL A   1      36.296  33.836  29.170  1.00  0.00    -0.744 OA
ENDBRANCH  45  49
ENDBRANCH  28  42
BRANCH  29  53
ATOM     53  C   UNL A   1      47.197  27.752  26.397  1.00  0.00     0.023 A 
ATOM     54  C   UNL A   1      47.378  27.921  25.015  1.00  0.00     0.031 A 
ATOM     55  C   UNL A   1      48.217  27.097  27.113  1.00  0.00     0.131 A 
ATOM     56  C   UNL A   1      48.527  27.405  24.389  1.00  0.00     0.055 A 
ATOM     57  C   UNL A   1      49.384  26.639  26.497  1.00  0.00     0.041 A 
ATOM     58  F   UNL A   1      48.098  26.890  28.434  1.00  0.00    -0.206 F 
ATOM     59  C   UNL A   1      49.537  26.780  25.122  1.00  0.00     0.022 A 
BRANCH  56  60
ATOM     60  S   UNL A   1      48.637  27.468  22.578  1.00  0.00     0.124 S 
ATOM     61  O   UNL A   1      49.888  28.191  22.381  1.00  0.00    -0.237 OA
ATOM     62  O   UNL A   1      48.651  26.052  22.226  1.00  0.00    -0.237 OA
ATOM     63  O   UNL A   1      47.429  28.193  22.188  1.00  0.00    -0.744 OA
ENDBRANCH  56  60
ENDBRANCH  29  53
BRANCH  41  64
ATOM     64  C   UNL A   1      45.102  33.740  29.321  1.00  0.00     0.023 A 
ATOM     65  C   UNL A   1      44.965  34.796  28.404  1.00  0.00     0.031 A 
ATOM     66  C   UNL A   1      45.925  33.932  30.444  1.00  0.00     0.131 A 
ATOM     67  C   UNL A   1      45.691  35.979  28.597  1.00  0.00     0.055 A 
ATOM     68  C   UNL A   1      46.591  35.136  30.665  1.00  0.00     0.041 A 
ATOM     69  F   UNL A   1      46.086  32.953  31.349  1.00  0.00    -0.206 F 
ATOM     70  C   UNL A   1      46.487  36.164  29.731  1.00  0.00     0.022 A 
BRANCH  67  71
ATOM     71  S   UNL A   1      45.651  37.241  27.296  1.00  0.00     0.124 S 
ATOM     72  O   UNL A   1      46.925  37.018  26.619  1.00  0.00    -0.237 OA
ATOM     73  O   UNL A   1      44.455  36.875  26.542  1.00  0.00    -0.237 OA
ATOM     74  O   UNL A   1      45.554  38.496  28.039  1.00  0.00    -0.744 OA
ENDBRANCH  67  71
ENDBRANCH  41  64
ENDBRANCH  15  16
ENDBRANCH   8  10
ENDBRANCH   7   8
ENDBRANCH   6   7
ENDBRANCH   5   6
ENDBRANCH   4   5
ENDBRANCH   3   4
ENDBRANCH   2   3
ENDBRANCH   1   2
BRANCH   1  75
ATOM     75  C   UNL A   1      33.356  26.269  25.764  1.00  0.00     0.188 C 
BRANCH  75  76
ATOM     76  C   UNL A   1      32.901  27.602  26.397  1.00  0.00     0.188 C 
BRANCH  76  77
ATOM     77  O   UNL A   1      31.812  28.238  25.743  1.00  0.00    -0.376 OA
BRANCH  77  78
ATOM     78  C   UNL A   1      32.169  29.165  24.721  1.00  0.00     0.202 C 
BRANCH  78  79
ATOM     79  C   UNL A   1      33.137  28.594  23.675  1.00  0.00     0.261 C 
BRANCH  79  80
ATOM     80  O   UNL A   1      32.556  28.352  22.379  1.00  0.00    -0.460 OA
BRANCH  80  81
ATOM     81  C   UNL A   1      31.370  27.706  22.340  1.00  0.00     0.339 C 
ATOM     82  O   UNL A   1      30.274  28.194  22.125  1.00  0.00    -0.246 OA
BRANCH  81  83
ATOM     83  C   UNL A   1      31.636  26.259  22.388  1.00  0.00     0.078 A 
ATOM     84  C   UNL A   1      30.921  25.378  23.200  1.00  0.00     0.019 A 
ATOM     85  C   UNL A   1      32.727  25.769  21.689  1.00  0.00     0.127 A 
ATOM     86  C   UNL A   1      31.322  24.041  23.274  1.00  0.00     0.031 A 
ATOM     87  N   UNL A   1      33.138  24.481  21.753  1.00  0.00    -0.254 NA
ATOM     88  C   UNL A   1      32.431  23.622  22.537  1.00  0.00     0.094 A 
BRANCH  88  89
ATOM     89  C   UNL A   1      32.879  22.159  22.583  1.00  0.00     0.318 C 
BRANCH  89  90
ATOM     90  N   UNL A   1      33.134  21.709  23.956  1.00  0.00    -0.331 N 
ATOM     91  H   UNL A   1      32.915  22.484  24.582  1.00  0.00     0.347 HD
ATOM     92  H   UNL A   1      34.111  21.418  23.969  1.00  0.00     0.347 HD
BRANCH  90  93
ATOM     93  C   UNL A   1      32.371  20.536  24.415  1.00  0.00     0.272 C 
ATOM     94  C   UNL A   1      32.154  19.498  23.304  1.00  0.00     0.077 C 
ATOM     95  C   UNL A   1      32.932  19.998  25.754  1.00  0.00     0.278 C 
ATOM     96  C   UNL A   1      32.924  18.202  23.516  1.00  0.00     0.028 C 
ATOM     97  N   UNL A   1      33.056  18.645  25.901  1.00  0.00    -0.351 N 
ATOM     98  O   UNL A   1      33.278  20.735  26.677  1.00  0.00    -0.268 OA
ATOM     99  C   UNL A   1      32.649  17.682  24.914  1.00  0.00     0.116 C 
ATOM    100  H   UNL A   1      33.450  18.307  26.738  1.00  0.00     0.163 HD
ENDBRANCH  90  93
ENDBRANCH  89  90
ENDBRANCH  88  89
ENDBRANCH  81  83
ENDBRANCH  80  81
ENDBRANCH  79  80
ENDBRANCH  78  79
ENDBRANCH  77  78
ENDBRANCH  76  77
ENDBRANCH  75  76
ENDBRANCH   1  75
TORSDOF 26
ENDMDL
MODEL 2
REMARK VINA RESULT:      -9.9      2.472      7.700
REMARK SMILES O=C(OCCOCCOCCOCCOC(=O)c1ccc(C[NH2+][C@H]2CCCNC2=O)nc1)c1ccc(-c2c3nc(c(-c4cc(S(=O)(=O)[O-])ccc4F)c4ccc([nH]4)c(-c4cc(S(=O)(=O)[O-])ccc4F)c4nc(c(-c5cc(S(=O)(=O)[O-])ccc5F)c5ccc2[nH]5)C=C4)C=C3)cc1
REMARK SMILES IDX 9 1 8 2 7 3 6 4 5 5 4 6 3 7 2 8 1 9 33 10 34 11 95 12 35 13
REMARK SMILES IDX 94 14 36 15 37 16 38 17 88 18 39 19 93 20 87 21 89 22 40 23
REMARK SMILES IDX 92 24 86 25 85 26 41 28 73 29 53 30 72 31 54 32 57 33 71 34
REMARK SMILES IDX 90 35 55 36 56 37 70 39 91 40 58 41 42 42 43 43 51 44 44 45
REMARK SMILES IDX 50 46 52 47 49 48 45 49 46 50 47 51 48 52 74 53 75 54 83 55
REMARK SMILES IDX 76 56 82 57 84 58 81 59 77 60 78 61 79 62 80 63 59 64 60 65
REMARK SMILES IDX 68 66 61 67 67 68 69 69 66 70 62 71 63 72 64 73 65 74 10 75
REMARK SMILES IDX 11 76 12 77 13 78 14 79 15 80 16 81 17 82 18 83 19 84 32 85
REMARK SMILES IDX 20 86 31 87 21 88 22 89 23 90 24 93 25 94 29 95 26 96 28 97
REMARK SMILES IDX 30 98 27 99
REMARK H PARENT 89 27 57 38 23 91 23 92 28 100
REMARK Flexibility Score: inf
ROOT
ATOM      1  O   UNL A   1      32.417  25.651  26.453  1.00  0.00    -0.377 OA
ENDROOT
BRANCH   1   2
ATOM      2  C   UNL A   1      33.396  24.662  26.134  1.00  0.00     0.188 C 
BRANCH   2   3
ATOM      3  C   UNL A   1      34.561  25.150  25.273  1.00  0.00     0.188 C 
BRANCH   3   4
ATOM      4  O   UNL A   1      35.330  24.052  24.780  1.00  0.00    -0.376 OA
BRANCH   4   5
ATOM      5  C   UNL A   1      36.305  23.534  25.687  1.00  0.00     0.202 C 
BRANCH   5   6
ATOM      6  C   UNL A   1      37.337  22.603  25.045  1.00  0.00     0.261 C 
BRANCH   6   7
ATOM      7  O   UNL A   1      38.246  22.057  26.012  1.00  0.00    -0.460 OA
BRANCH   7   8
ATOM      8  C   UNL A   1      39.443  22.569  26.401  1.00  0.00     0.338 C 
ATOM      9  O   UNL A   1      40.423  21.824  26.378  1.00  0.00    -0.246 OA
BRANCH   8  10
ATOM     10  C   UNL A   1      39.652  23.983  26.853  1.00  0.00     0.060 A 
ATOM     11  C   UNL A   1      40.113  25.033  26.056  1.00  0.00     0.016 A 
ATOM     12  C   UNL A   1      39.295  24.283  28.179  1.00  0.00     0.016 A 
ATOM     13  C   UNL A   1      40.298  26.311  26.562  1.00  0.00     0.010 A 
ATOM     14  C   UNL A   1      39.449  25.575  28.695  1.00  0.00     0.010 A 
ATOM     15  C   UNL A   1      39.986  26.584  27.889  1.00  0.00    -0.014 A 
BRANCH  15  16
ATOM     16  C   UNL A   1      40.427  27.879  28.436  1.00  0.00     0.031 A 
ATOM     17  C   UNL A   1      41.899  28.160  28.443  1.00  0.00     0.074 A 
ATOM     18  C   UNL A   1      39.521  28.822  28.750  1.00  0.00     0.049 A 
ATOM     19  N   UNL A   1      42.548  29.191  28.905  1.00  0.00    -0.248 NA
ATOM     20  C   UNL A   1      42.759  27.133  27.827  1.00  0.00     0.031 C 
ATOM     21  C   UNL A   1      38.070  28.673  28.610  1.00  0.00     0.029 A 
ATOM     22  N   UNL A   1      39.682  30.098  29.216  1.00  0.00    -0.354 N 
ATOM     23  C   UNL A   1      43.891  28.929  28.659  1.00  0.00     0.074 A 
ATOM     24  C   UNL A   1      43.966  27.635  28.021  1.00  0.00     0.031 C 
ATOM     25  C   UNL A   1      37.476  29.823  28.971  1.00  0.00     0.029 A 
ATOM     26  C   UNL A   1      38.495  30.756  29.438  1.00  0.00     0.049 A 
ATOM     27  H   UNL A   1      40.563  30.506  29.378  1.00  0.00     0.167 HD
ATOM     28  C   UNL A   1      44.961  29.706  28.955  1.00  0.00     0.034 A 
ATOM     29  C   UNL A   1      38.271  31.961  29.999  1.00  0.00     0.034 A 
ATOM     30  C   UNL A   1      44.830  30.982  29.611  1.00  0.00     0.049 A 
ATOM     31  C   UNL A   1      39.479  32.752  30.443  1.00  0.00     0.074 A 
ATOM     32  C   UNL A   1      45.821  31.833  30.061  1.00  0.00     0.029 A 
ATOM     33  N   UNL A   1      43.614  31.586  29.915  1.00  0.00    -0.354 N 
ATOM     34  N   UNL A   1      40.754  32.457  30.305  1.00  0.00    -0.248 NA
ATOM     35  C   UNL A   1      39.225  34.023  31.125  1.00  0.00     0.031 C 
ATOM     36  C   UNL A   1      45.202  32.919  30.693  1.00  0.00     0.029 A 
ATOM     37  C   UNL A   1      43.826  32.787  30.569  1.00  0.00     0.049 A 
ATOM     38  H   UNL A   1      42.729  31.213  29.695  1.00  0.00     0.167 HD
ATOM     39  C   UNL A   1      41.454  33.518  30.869  1.00  0.00     0.074 A 
ATOM     40  C   UNL A   1      40.457  34.469  31.324  1.00  0.00     0.031 C 
ATOM     41  C   UNL A   1      42.794  33.698  31.009  1.00  0.00     0.034 A 
BRANCH  28  42
ATOM     42  C   UNL A   1      46.323  29.125  28.670  1.00  0.00     0.023 A 
ATOM     43  C   UNL A   1      46.823  28.996  27.360  1.00  0.00     0.031 A 
ATOM     44  C   UNL A   1      47.087  28.584  29.720  1.00  0.00     0.131 A 
ATOM     45  C   UNL A   1      48.002  28.268  27.129  1.00  0.00     0.055 A 
ATOM     46  C   UNL A   1      48.301  27.933  29.491  1.00  0.00     0.041 A 
ATOM     47  F   UNL A   1      46.646  28.644  30.986  1.00  0.00    -0.206 F 
ATOM     48  C   UNL A   1      48.756  27.756  28.187  1.00  0.00     0.022 A 
BRANCH  45  49
ATOM     49  S   UNL A   1      48.447  27.852  25.419  1.00  0.00     0.124 S 
ATOM     50  O   UNL A   1      49.732  28.530  25.275  1.00  0.00    -0.237 OA
ATOM     51  O   UNL A   1      48.494  26.394  25.449  1.00  0.00    -0.237 OA
ATOM     52  O   UNL A   1      47.356  28.424  24.631  1.00  0.00    -0.744 OA
ENDBRANCH  45  49
ENDBRANCH  28  42
BRANCH  29  53
ATOM     53  C   UNL A   1      36.880  32.447  30.253  1.00  0.00     0.023 A 
ATOM     54  C   UNL A   1      36.135  33.102  29.259  1.00  0.00     0.031 A 
ATOM     55  C   UNL A   1      36.293  32.317  31.527  1.00  0.00     0.131 A 
ATOM     56  C   UNL A   1      34.871  33.637  29.566  1.00  0.00     0.055 A 
ATOM     57  C   UNL A   1      35.013  32.796  31.811  1.00  0.00     0.041 A 
ATOM     58  F   UNL A   1      36.959  31.715  32.526  1.00  0.00    -0.206 F 
ATOM     59  C   UNL A   1      34.299  33.474  30.829  1.00  0.00     0.022 A 
BRANCH  56  60
ATOM     60  S   UNL A   1      34.022  34.644  28.317  1.00  0.00     0.124 S 
ATOM     61  O   UNL A   1      35.007  34.677  27.242  1.00  0.00    -0.237 OA
ATOM     62  O   UNL A   1      32.818  33.859  28.062  1.00  0.00    -0.237 OA
ATOM     63  O   UNL A   1      33.800  35.917  28.999  1.00  0.00    -0.744 OA
ENDBRANCH  56  60
ENDBRANCH  29  53
BRANCH  41  64
ATOM     64  C   UNL A   1      43.235  34.990  31.644  1.00  0.00     0.023 A 
ATOM     65  C   UNL A   1      43.326  35.129  33.039  1.00  0.00     0.031 A 
ATOM     66  C   UNL A   1      43.564  36.094  30.839  1.00  0.00     0.131 A 
ATOM     67  C   UNL A   1      43.681  36.368  33.590  1.00  0.00     0.055 A 
ATOM     68  C   UNL A   1      43.981  37.304  31.392  1.00  0.00     0.041 A 
ATOM     69  F   UNL A   1      43.493  36.009  29.501  1.00  0.00    -0.206 F 
ATOM     70  C   UNL A   1      44.028  37.450  32.776  1.00  0.00     0.022 A 
BRANCH  67  71
ATOM     71  S   UNL A   1      43.594  36.573  35.389  1.00  0.00     0.124 S 
ATOM     72  O   UNL A   1      42.222  37.032  35.575  1.00  0.00    -0.237 OA
ATOM     73  O   UNL A   1      43.887  35.226  35.872  1.00  0.00    -0.237 OA
ATOM     74  O   UNL A   1      44.626  37.569  35.670  1.00  0.00    -0.744 OA
ENDBRANCH  67  71
ENDBRANCH  41  64
ENDBRANCH  15  16
ENDBRANCH   8  10
ENDBRANCH   7   8
ENDBRANCH   6   7
ENDBRANCH   5   6
ENDBRANCH   4   5
ENDBRANCH   3   4
ENDBRANCH   2   3
ENDBRANCH   1   2
BRANCH   1  75
ATOM     75  C   UNL A   1      32.855  27.007  26.459  1.00  0.00     0.188 C 
BRANCH  75  76
ATOM     76  C   UNL A   1      31.841  28.124  26.793  1.00  0.00     0.188 C 
BRANCH  76  77
ATOM     77  O   UNL A   1      31.303  28.803  25.667  1.00  0.00    -0.376 OA
BRANCH  77  78
ATOM     78  C   UNL A   1      32.257  29.430  24.816  1.00  0.00     0.202 C 
BRANCH  78  79
ATOM     79  C   UNL A   1      32.963  28.463  23.854  1.00  0.00     0.261 C 
BRANCH  79  80
ATOM     80  O   UNL A   1      32.433  28.445  22.515  1.00  0.00    -0.460 OA
BRANCH  80  81
ATOM     81  C   UNL A   1      31.300  27.741  22.303  1.00  0.00     0.339 C 
ATOM     82  O   UNL A   1      30.218  28.177  21.950  1.00  0.00    -0.246 OA
BRANCH  81  83
ATOM     83  C   UNL A   1      31.634  26.308  22.363  1.00  0.00     0.078 A 
ATOM     84  C   UNL A   1      30.922  25.390  23.136  1.00  0.00     0.019 A 
ATOM     85  C   UNL A   1      32.781  25.875  21.720  1.00  0.00     0.127 A 
ATOM     86  C   UNL A   1      31.384  24.074  23.229  1.00  0.00     0.031 A 
ATOM     87  N   UNL A   1      33.252  24.609  21.803  1.00  0.00    -0.254 NA
ATOM     88  C   UNL A   1      32.549  23.713  22.550  1.00  0.00     0.094 A 
BRANCH  88  89
ATOM     89  C   UNL A   1      33.066  22.274  22.616  1.00  0.00     0.318 C 
BRANCH  89  90
ATOM     90  N   UNL A   1      33.412  21.881  23.987  1.00  0.00    -0.331 N 
ATOM     91  H   UNL A   1      33.335  22.710  24.576  1.00  0.00     0.347 HD
ATOM     92  H   UNL A   1      34.352  21.491  23.928  1.00  0.00     0.347 HD
BRANCH  90  93
ATOM     93  C   UNL A   1      32.588  20.824  24.595  1.00  0.00     0.272 C 
ATOM     94  C   UNL A   1      32.293  19.669  23.626  1.00  0.00     0.077 C 
ATOM     95  C   UNL A   1      33.135  20.425  25.987  1.00  0.00     0.278 C 
ATOM     96  C   UNL A   1      32.988  18.366  23.995  1.00  0.00     0.028 C 
ATOM     97  N   UNL A   1      33.180  19.097  26.304  1.00  0.00    -0.351 N 
ATOM     98  O   UNL A   1      33.537  21.250  26.809  1.00  0.00    -0.268 OA
ATOM     99  C   UNL A   1      32.703  18.044  25.449  1.00  0.00     0.116 C 
ATOM    100  H   UNL A   1      33.566  18.843  27.174  1.00  0.00     0.163 HD
ENDBRANCH  90  93
ENDBRANCH  89  90
ENDBRANCH  88  89
ENDBRANCH  81  83
ENDBRANCH  80  81
ENDBRANCH  79  80
ENDBRANCH  78  79
ENDBRANCH  77  78
ENDBRANCH  76  77
ENDBRANCH  75  76
ENDBRANCH   1  75
TORSDOF 26
ENDMDL
MODEL 3
REMARK VINA RESULT:      -9.7      2.454      7.590
REMARK SMILES O=C(OCCOCCOCCOCCOC(=O)c1ccc(C[NH2+][C@H]2CCCNC2=O)nc1)c1ccc(-c2c3nc(c(-c4cc(S(=O)(=O)[O-])ccc4F)c4ccc([nH]4)c(-c4cc(S(=O)(=O)[O-])ccc4F)c4nc(c(-c5cc(S(=O)(=O)[O-])ccc5F)c5ccc2[nH]5)C=C4)C=C3)cc1
REMARK SMILES IDX 9 1 8 2 7 3 6 4 5 5 4 6 3 7 2 8 1 9 33 10 34 11 95 12 35 13
REMARK SMILES IDX 94 14 36 15 37 16 38 17 88 18 39 19 93 20 87 21 89 22 40 23
REMARK SMILES IDX 92 24 86 25 85 26 41 28 73 29 53 30 72 31 54 32 57 33 71 34
REMARK SMILES IDX 90 35 55 36 56 37 70 39 91 40 58 41 42 42 43 43 51 44 44 45
REMARK SMILES IDX 50 46 52 47 49 48 45 49 46 50 47 51 48 52 74 53 75 54 83 55
REMARK SMILES IDX 76 56 82 57 84 58 81 59 77 60 78 61 79 62 80 63 59 64 60 65
REMARK SMILES IDX 68 66 61 67 67 68 69 69 66 70 62 71 63 72 64 73 65 74 10 75
REMARK SMILES IDX 11 76 12 77 13 78 14 79 15 80 16 81 17 82 18 83 19 84 32 85
REMARK SMILES IDX 20 86 31 87 21 88 22 89 23 90 24 93 25 94 29 95 26 96 28 97
REMARK SMILES IDX 30 98 27 99
REMARK H PARENT 89 27 57 38 23 91 23 92 28 100
REMARK Flexibility Score: inf
ROOT
ATOM      1  O   UNL A   1      32.440  25.552  26.407  1.00  0.00    -0.377 OA
ENDROOT
BRANCH   1   2
ATOM      2  C   UNL A   1      33.503  24.638  26.133  1.00  0.00     0.188 C 
BRANCH   2   3
ATOM      3  C   UNL A   1      34.604  25.172  25.217  1.00  0.00     0.188 C 
BRANCH   3   4
ATOM      4  O   UNL A   1      35.415  24.108  24.716  1.00  0.00    -0.376 OA
BRANCH   4   5
ATOM      5  C   UNL A   1      36.367  23.580  25.640  1.00  0.00     0.202 C 
BRANCH   5   6
ATOM      6  C   UNL A   1      37.428  22.673  25.011  1.00  0.00     0.261 C 
BRANCH   6   7
ATOM      7  O   UNL A   1      38.320  22.124  25.992  1.00  0.00    -0.460 OA
BRANCH   7   8
ATOM      8  C   UNL A   1      39.508  22.635  26.405  1.00  0.00     0.338 C 
ATOM      9  O   UNL A   1      40.482  21.882  26.432  1.00  0.00    -0.246 OA
BRANCH   8  10
ATOM     10  C   UNL A   1      39.715  24.059  26.828  1.00  0.00     0.060 A 
ATOM     11  C   UNL A   1      40.212  25.084  26.020  1.00  0.00     0.016 A 
ATOM     12  C   UNL A   1      39.319  24.396  28.134  1.00  0.00     0.016 A 
ATOM     13  C   UNL A   1      40.393  26.373  26.500  1.00  0.00     0.010 A 
ATOM     14  C   UNL A   1      39.468  25.698  28.621  1.00  0.00     0.010 A 
ATOM     15  C   UNL A   1      40.040  26.682  27.808  1.00  0.00    -0.014 A 
BRANCH  15  16
ATOM     16  C   UNL A   1      40.475  27.987  28.336  1.00  0.00     0.031 A 
ATOM     17  C   UNL A   1      41.942  28.293  28.297  1.00  0.00     0.074 A 
ATOM     18  C   UNL A   1      39.563  28.915  28.675  1.00  0.00     0.049 A 
ATOM     19  N   UNL A   1      42.586  29.338  28.735  1.00  0.00    -0.248 NA
ATOM     20  C   UNL A   1      42.799  27.279  27.659  1.00  0.00     0.031 C 
ATOM     21  C   UNL A   1      38.111  28.741  28.581  1.00  0.00     0.029 A 
ATOM     22  N   UNL A   1      39.716  30.196  29.131  1.00  0.00    -0.354 N 
ATOM     23  C   UNL A   1      43.926  29.098  28.449  1.00  0.00     0.074 A 
ATOM     24  C   UNL A   1      44.003  27.803  27.813  1.00  0.00     0.031 C 
ATOM     25  C   UNL A   1      37.508  29.882  28.955  1.00  0.00     0.029 A 
ATOM     26  C   UNL A   1      38.525  30.835  29.387  1.00  0.00     0.049 A 
ATOM     27  H   UNL A   1      40.594  30.619  29.264  1.00  0.00     0.167 HD
ATOM     28  C   UNL A   1      44.990  29.894  28.708  1.00  0.00     0.034 A 
ATOM     29  C   UNL A   1      38.297  32.038  29.950  1.00  0.00     0.034 A 
ATOM     30  C   UNL A   1      44.858  31.170  29.364  1.00  0.00     0.049 A 
ATOM     31  C   UNL A   1      39.504  32.851  30.354  1.00  0.00     0.074 A 
ATOM     32  C   UNL A   1      45.847  32.040  29.780  1.00  0.00     0.029 A 
ATOM     33  N   UNL A   1      43.641  31.755  29.702  1.00  0.00    -0.354 N 
ATOM     34  N   UNL A   1      40.780  32.578  30.177  1.00  0.00    -0.248 NA
ATOM     35  C   UNL A   1      39.250  34.121  31.039  1.00  0.00     0.031 C 
ATOM     36  C   UNL A   1      45.229  33.118  30.426  1.00  0.00     0.029 A 
ATOM     37  C   UNL A   1      43.852  32.962  30.345  1.00  0.00     0.049 A 
ATOM     38  H   UNL A   1      42.757  31.365  29.511  1.00  0.00     0.167 HD
ATOM     39  C   UNL A   1      41.478  33.653  30.716  1.00  0.00     0.074 A 
ATOM     40  C   UNL A   1      40.479  34.589  31.197  1.00  0.00     0.031 C 
ATOM     41  C   UNL A   1      42.818  33.857  30.813  1.00  0.00     0.034 A 
BRANCH  28  42
ATOM     42  C   UNL A   1      46.353  29.335  28.384  1.00  0.00     0.023 A 
ATOM     43  C   UNL A   1      47.039  28.477  29.264  1.00  0.00     0.031 A 
ATOM     44  C   UNL A   1      47.027  29.762  27.225  1.00  0.00     0.131 A 
ATOM     45  C   UNL A   1      48.381  28.146  29.016  1.00  0.00     0.055 A 
ATOM     46  C   UNL A   1      48.335  29.362  26.942  1.00  0.00     0.041 A 
ATOM     47  F   UNL A   1      46.439  30.609  26.366  1.00  0.00    -0.206 F 
ATOM     48  C   UNL A   1      49.026  28.564  27.849  1.00  0.00     0.022 A 
BRANCH  45  49
ATOM     49  S   UNL A   1      49.327  27.307  30.318  1.00  0.00     0.124 S 
ATOM     50  O   UNL A   1      50.608  27.080  29.653  1.00  0.00    -0.237 OA
ATOM     51  O   UNL A   1      49.331  28.292  31.393  1.00  0.00    -0.237 OA
ATOM     52  O   UNL A   1      48.549  26.097  30.583  1.00  0.00    -0.744 OA
ENDBRANCH  45  49
ENDBRANCH  28  42
BRANCH  29  53
ATOM     53  C   UNL A   1      36.906  32.501  30.245  1.00  0.00     0.023 A 
ATOM     54  C   UNL A   1      36.147  33.204  29.296  1.00  0.00     0.031 A 
ATOM     55  C   UNL A   1      36.335  32.299  31.517  1.00  0.00     0.131 A 
ATOM     56  C   UNL A   1      34.883  33.714  29.645  1.00  0.00     0.055 A 
ATOM     57  C   UNL A   1      35.055  32.754  31.840  1.00  0.00     0.041 A 
ATOM     58  F   UNL A   1      37.015  31.648  32.474  1.00  0.00    -0.206 F 
ATOM     59  C   UNL A   1      34.326  33.480  30.904  1.00  0.00     0.022 A 
BRANCH  56  60
ATOM     60  S   UNL A   1      34.015  34.781  28.461  1.00  0.00     0.124 S 
ATOM     61  O   UNL A   1      32.705  34.145  28.392  1.00  0.00    -0.237 OA
ATOM     62  O   UNL A   1      34.065  36.077  29.129  1.00  0.00    -0.237 OA
ATOM     63  O   UNL A   1      34.826  34.675  27.250  1.00  0.00    -0.744 OA
ENDBRANCH  56  60
ENDBRANCH  29  53
BRANCH  41  64
ATOM     64  C   UNL A   1      43.256  35.159  31.430  1.00  0.00     0.023 A 
ATOM     65  C   UNL A   1      43.516  36.294  30.644  1.00  0.00     0.031 A 
ATOM     66  C   UNL A   1      43.417  35.260  32.822  1.00  0.00     0.131 A 
ATOM     67  C   UNL A   1      43.981  37.467  31.253  1.00  0.00     0.055 A 
ATOM     68  C   UNL A   1      43.815  36.450  33.429  1.00  0.00     0.041 A 
ATOM     69  F   UNL A   1      43.179  34.203  33.616  1.00  0.00    -0.206 F 
ATOM     70  C   UNL A   1      44.113  37.559  32.641  1.00  0.00     0.022 A 
BRANCH  67  71
ATOM     71  S   UNL A   1      44.498  38.845  30.195  1.00  0.00     0.124 S 
ATOM     72  O   UNL A   1      45.490  38.209  29.333  1.00  0.00    -0.237 OA
ATOM     73  O   UNL A   1      43.247  39.232  29.549  1.00  0.00    -0.237 OA
ATOM     74  O   UNL A   1      45.033  39.822  31.142  1.00  0.00    -0.744 OA
ENDBRANCH  67  71
ENDBRANCH  41  64
ENDBRANCH  15  16
ENDBRANCH   8  10
ENDBRANCH   7   8
ENDBRANCH   6   7
ENDBRANCH   5   6
ENDBRANCH   4   5
ENDBRANCH   3   4
ENDBRANCH   2   3
ENDBRANCH   1   2
BRANCH   1  75
ATOM     75  C   UNL A   1      32.747  26.940  26.300  1.00  0.00     0.188 C 
BRANCH  75  76
ATOM     76  C   UNL A   1      31.627  27.977  26.536  1.00  0.00     0.188 C 
BRANCH  76  77
ATOM     77  O   UNL A   1      31.363  28.838  25.436  1.00  0.00    -0.376 OA
BRANCH  77  78
ATOM     78  C   UNL A   1      32.511  29.418  24.824  1.00  0.00     0.202 C 
BRANCH  78  79
ATOM     79  C   UNL A   1      33.143  28.542  23.733  1.00  0.00     0.261 C 
BRANCH  79  80
ATOM     80  O   UNL A   1      32.474  28.585  22.458  1.00  0.00    -0.460 OA
BRANCH  80  81
ATOM     81  C   UNL A   1      31.324  27.887  22.334  1.00  0.00     0.339 C 
ATOM     82  O   UNL A   1      30.222  28.328  22.056  1.00  0.00    -0.246 OA
BRANCH  81  83
ATOM     83  C   UNL A   1      31.653  26.453  22.382  1.00  0.00     0.078 A 
ATOM     84  C   UNL A   1      30.970  25.539  23.185  1.00  0.00     0.019 A 
ATOM     85  C   UNL A   1      32.769  26.013  21.690  1.00  0.00     0.127 A 
ATOM     86  C   UNL A   1      31.429  24.221  23.260  1.00  0.00     0.031 A 
ATOM     87  N   UNL A   1      33.236  24.744  21.755  1.00  0.00    -0.254 NA
ATOM     88  C   UNL A   1      32.561  23.853  22.532  1.00  0.00     0.094 A 
BRANCH  88  89
ATOM     89  C   UNL A   1      33.072  22.411  22.578  1.00  0.00     0.318 C 
BRANCH  89  90
ATOM     90  N   UNL A   1      33.432  22.003  23.941  1.00  0.00    -0.331 N 
ATOM     91  H   UNL A   1      33.368  22.827  24.538  1.00  0.00     0.347 HD
ATOM     92  H   UNL A   1      34.368  21.606  23.866  1.00  0.00     0.347 HD
BRANCH  90  93
ATOM     93  C   UNL A   1      32.607  20.946  24.549  1.00  0.00     0.272 C 
ATOM     94  C   UNL A   1      32.226  19.842  23.551  1.00  0.00     0.077 C 
ATOM     95  C   UNL A   1      33.213  20.473  25.893  1.00  0.00     0.278 C 
ATOM     96  C   UNL A   1      32.898  18.504  23.830  1.00  0.00     0.028 C 
ATOM     97  N   UNL A   1      33.232  19.132  26.153  1.00  0.00    -0.351 N 
ATOM     98  O   UNL A   1      33.683  21.251  26.724  1.00  0.00    -0.268 OA
ATOM     99  C   UNL A   1      32.678  18.131  25.284  1.00  0.00     0.116 C 
ATOM    100  H   UNL A   1      33.654  18.831  26.991  1.00  0.00     0.163 HD
ENDBRANCH  90  93
ENDBRANCH  89  90
ENDBRANCH  88  89
ENDBRANCH  81  83
ENDBRANCH  80  81
ENDBRANCH  79  80
ENDBRANCH  78  79
ENDBRANCH  77  78
ENDBRANCH  76  77
ENDBRANCH  75  76
ENDBRANCH   1  75
TORSDOF 26
ENDMDL
