MODEL 1
REMARK VINA RESULT:      -8.9      0.000      0.000
REMARK SMILES O=C(Cn1c2ccccc2c(=O)c2cc(F)ccc21)OCCOCCOCCOCCOC(=O)c1ccc(-c2c3nc(c(-c4cc(S(=O)(=O)[O-])ccc4F)c4ccc([nH]4)c(-c4cc(S(=O)(=O)[O-])ccc4F)c4nc(c(-c5cc(S(=O)(=O)[O-])ccc5F)c5ccc2[nH]5)C=C4)C=C3)cc1
REMARK SMILES IDX 27 1 26 2 25 3 24 4 23 5 22 6 21 7 20 8 2 9 1 10 3 11 4 12
REMARK SMILES IDX 5 13 19 14 6 15 10 16 13 17 18 18 7 19 9 20 11 21 14 22
REMARK SMILES IDX 17 23 8 24 12 25 15 26 16 27 28 28 29 29 30 30 31 31 32 32
REMARK SMILES IDX 33 33 34 34 35 35 36 36 97 37 37 38 96 39 38 40 39 41 40 42
REMARK SMILES IDX 90 43 41 44 95 45 89 46 91 47 42 48 94 49 88 50 87 51 43 53
REMARK SMILES IDX 75 54 55 55 74 56 56 57 59 58 73 59 92 60 57 61 58 62 72 64
REMARK SMILES IDX 93 65 60 66 44 67 45 68 53 69 46 70 52 71 54 72 51 73 47 74
REMARK SMILES IDX 48 75 49 76 50 77 76 78 77 79 85 80 78 81 84 82 86 83 83 84
REMARK SMILES IDX 79 85 80 86 81 87 82 88 61 89 62 90 70 91 63 92 69 93 71 94
REMARK SMILES IDX 68 95 64 96 65 97 66 98 67 99
REMARK H PARENT 91 52 59 63
REMARK Flexibility Score: inf
ROOT
ATOM      1  C   UNL A   1      34.222  29.090  26.930  1.00  0.00     0.188 C 
ENDROOT
BRANCH   1   2
ATOM      2  O   UNL A   1      32.974  29.766  26.986  1.00  0.00    -0.377 OA
BRANCH   2   3
ATOM      3  C   UNL A   1      32.343  29.938  25.725  1.00  0.00     0.188 C 
BRANCH   3   4
ATOM      4  C   UNL A   1      32.459  28.719  24.800  1.00  0.00     0.188 C 
BRANCH   4   5
ATOM      5  O   UNL A   1      31.423  27.763  24.951  1.00  0.00    -0.376 OA
BRANCH   5   6
ATOM      6  C   UNL A   1      30.617  27.341  23.868  1.00  0.00     0.202 C 
BRANCH   6   7
ATOM      7  C   UNL A   1      31.240  27.363  22.479  1.00  0.00     0.261 C 
BRANCH   7   8
ATOM      8  O   UNL A   1      31.718  26.111  21.949  1.00  0.00    -0.462 OA
BRANCH   8   9
ATOM      9  C   UNL A   1      32.874  25.456  22.161  1.00  0.00     0.326 C 
ATOM     10  O   UNL A   1      33.940  26.050  21.983  1.00  0.00    -0.250 OA
BRANCH   9  11
ATOM     11  C   UNL A   1      32.883  23.988  22.481  1.00  0.00     0.245 C 
BRANCH  11  12
ATOM     12  N   UNL A   1      33.336  23.451  23.783  1.00  0.00    -0.329 N 
ATOM     13  C   UNL A   1      34.684  23.203  24.102  1.00  0.00     0.053 A 
ATOM     14  C   UNL A   1      32.301  23.424  24.774  1.00  0.00     0.053 A 
ATOM     15  C   UNL A   1      35.711  23.007  23.166  1.00  0.00     0.027 A 
ATOM     16  C   UNL A   1      35.081  23.182  25.452  1.00  0.00     0.046 A 
ATOM     17  C   UNL A   1      32.628  23.154  26.114  1.00  0.00     0.049 A 
ATOM     18  C   UNL A   1      30.935  23.649  24.492  1.00  0.00     0.030 A 
ATOM     19  C   UNL A   1      37.063  23.077  23.530  1.00  0.00     0.002 A 
ATOM     20  C   UNL A   1      36.430  23.242  25.832  1.00  0.00     0.014 A 
ATOM     21  C   UNL A   1      34.049  23.081  26.503  1.00  0.00     0.197 A 
ATOM     22  C   UNL A   1      31.646  23.020  27.107  1.00  0.00     0.053 A 
ATOM     23  C   UNL A   1      29.954  23.563  25.486  1.00  0.00     0.041 A 
ATOM     24  C   UNL A   1      37.421  23.245  24.860  1.00  0.00     0.001 A 
ATOM     25  O   UNL A   1      34.356  22.938  27.682  1.00  0.00    -0.288 OA
ATOM     26  C   UNL A   1      30.317  23.221  26.778  1.00  0.00     0.124 A 
ATOM     27  F   UNL A   1      29.371  23.104  27.718  1.00  0.00    -0.207 F 
ENDBRANCH  11  12
ENDBRANCH   9  11
ENDBRANCH   8   9
ENDBRANCH   7   8
ENDBRANCH   6   7
ENDBRANCH   5   6
ENDBRANCH   4   5
ENDBRANCH   3   4
ENDBRANCH   2   3
ENDBRANCH   1   2
BRANCH   1  28
ATOM     28  C   UNL A   1      35.358  29.681  27.798  1.00  0.00     0.188 C 
BRANCH  28  29
ATOM     29  O   UNL A   1      35.938  30.947  27.507  1.00  0.00    -0.376 OA
BRANCH  29  30
ATOM     30  C   UNL A   1      35.715  32.043  28.379  1.00  0.00     0.202 C 
BRANCH  30  31
ATOM     31  C   UNL A   1      36.443  32.084  29.729  1.00  0.00     0.261 C 
BRANCH  31  32
ATOM     32  O   UNL A   1      35.643  31.740  30.869  1.00  0.00    -0.460 OA
BRANCH  32  33
ATOM     33  C   UNL A   1      36.230  30.910  31.775  1.00  0.00     0.338 C 
ATOM     34  O   UNL A   1      36.250  29.699  31.747  1.00  0.00    -0.246 OA
BRANCH  33  35
ATOM     35  C   UNL A   1      37.051  31.728  32.707  1.00  0.00     0.060 A 
ATOM     36  C   UNL A   1      36.638  32.998  33.117  1.00  0.00     0.016 A 
ATOM     37  C   UNL A   1      38.286  31.218  33.132  1.00  0.00     0.016 A 
ATOM     38  C   UNL A   1      37.445  33.735  33.991  1.00  0.00     0.010 A 
ATOM     39  C   UNL A   1      39.104  31.968  33.982  1.00  0.00     0.010 A 
ATOM     40  C   UNL A   1      38.672  33.219  34.446  1.00  0.00    -0.014 A 
BRANCH  40  41
ATOM     41  C   UNL A   1      39.360  33.854  35.597  1.00  0.00     0.031 A 
ATOM     42  C   UNL A   1      40.529  34.777  35.439  1.00  0.00     0.074 A 
ATOM     43  C   UNL A   1      38.904  33.543  36.827  1.00  0.00     0.049 A 
ATOM     44  N   UNL A   1      41.168  35.443  36.366  1.00  0.00    -0.248 NA
ATOM     45  C   UNL A   1      41.055  34.980  34.082  1.00  0.00     0.031 C 
ATOM     46  C   UNL A   1      37.800  32.617  37.087  1.00  0.00     0.029 A 
ATOM     47  N   UNL A   1      39.300  33.950  38.075  1.00  0.00    -0.354 N 
ATOM     48  C   UNL A   1      42.157  36.164  35.709  1.00  0.00     0.074 A 
ATOM     49  C   UNL A   1      42.060  35.821  34.305  1.00  0.00     0.031 C 
ATOM     50  C   UNL A   1      37.603  32.531  38.409  1.00  0.00     0.029 A 
ATOM     51  C   UNL A   1      38.582  33.370  39.095  1.00  0.00     0.049 A 
ATOM     52  H   UNL A   1      40.028  34.595  38.227  1.00  0.00     0.167 HD
ATOM     53  C   UNL A   1      43.044  37.043  36.240  1.00  0.00     0.034 A 
ATOM     54  C   UNL A   1      38.694  33.490  40.434  1.00  0.00     0.034 A 
ATOM     55  C   UNL A   1      43.118  37.365  37.645  1.00  0.00     0.049 A 
ATOM     56  C   UNL A   1      39.702  34.459  40.993  1.00  0.00     0.074 A 
ATOM     57  C   UNL A   1      43.935  38.299  38.260  1.00  0.00     0.029 A 
ATOM     58  N   UNL A   1      42.375  36.766  38.652  1.00  0.00    -0.354 N 
ATOM     59  N   UNL A   1      40.534  35.241  40.346  1.00  0.00    -0.248 NA
ATOM     60  C   UNL A   1      39.781  34.584  42.455  1.00  0.00     0.031 C 
ATOM     61  C   UNL A   1      43.745  38.211  39.638  1.00  0.00     0.029 A 
ATOM     62  C   UNL A   1      42.747  37.281  39.885  1.00  0.00     0.049 A 
ATOM     63  H   UNL A   1      41.686  36.078  38.512  1.00  0.00     0.167 HD
ATOM     64  C   UNL A   1      41.216  35.965  41.318  1.00  0.00     0.074 A 
ATOM     65  C   UNL A   1      40.682  35.549  42.598  1.00  0.00     0.031 C 
ATOM     66  C   UNL A   1      42.200  36.884  41.160  1.00  0.00     0.034 A 
BRANCH  53  67
ATOM     67  C   UNL A   1      43.997  37.780  35.330  1.00  0.00     0.023 A 
ATOM     68  C   UNL A   1      43.591  38.975  34.703  1.00  0.00     0.031 A 
ATOM     69  C   UNL A   1      45.198  37.183  34.910  1.00  0.00     0.131 A 
ATOM     70  C   UNL A   1      44.350  39.500  33.648  1.00  0.00     0.055 A 
ATOM     71  C   UNL A   1      45.970  37.732  33.885  1.00  0.00     0.041 A 
ATOM     72  F   UNL A   1      45.621  36.038  35.469  1.00  0.00    -0.206 F 
ATOM     73  C   UNL A   1      45.537  38.886  33.238  1.00  0.00     0.022 A 
BRANCH  70  74
ATOM     74  S   UNL A   1      43.782  40.946  32.712  1.00  0.00     0.124 S 
ATOM     75  O   UNL A   1      42.412  40.565  32.375  1.00  0.00    -0.237 OA
ATOM     76  O   UNL A   1      43.906  42.017  33.698  1.00  0.00    -0.237 OA
ATOM     77  O   UNL A   1      44.701  41.015  31.582  1.00  0.00    -0.744 OA
ENDBRANCH  70  74
ENDBRANCH  53  67
BRANCH  54  78
ATOM     78  C   UNL A   1      37.783  32.699  41.310  1.00  0.00     0.023 A 
ATOM     79  C   UNL A   1      36.477  33.151  41.579  1.00  0.00     0.031 A 
ATOM     80  C   UNL A   1      38.232  31.547  41.975  1.00  0.00     0.131 A 
ATOM     81  C   UNL A   1      35.693  32.495  42.536  1.00  0.00     0.055 A 
ATOM     82  C   UNL A   1      37.419  30.852  42.872  1.00  0.00     0.041 A 
ATOM     83  F   UNL A   1      39.476  31.089  41.768  1.00  0.00    -0.206 F 
ATOM     84  C   UNL A   1      36.149  31.335  43.169  1.00  0.00     0.022 A 
BRANCH  81  85
ATOM     85  S   UNL A   1      34.121  33.208  43.094  1.00  0.00     0.124 S 
ATOM     86  O   UNL A   1      33.741  32.298  44.170  1.00  0.00    -0.237 OA
ATOM     87  O   UNL A   1      34.531  34.546  43.514  1.00  0.00    -0.237 OA
ATOM     88  O   UNL A   1      33.281  33.165  41.902  1.00  0.00    -0.744 OA
ENDBRANCH  81  85
ENDBRANCH  54  78
BRANCH  66  89
ATOM     89  C   UNL A   1      42.799  37.533  42.386  1.00  0.00     0.023 A 
ATOM     90  C   UNL A   1      43.848  36.896  43.077  1.00  0.00     0.031 A 
ATOM     91  C   UNL A   1      42.210  38.668  42.971  1.00  0.00     0.131 A 
ATOM     92  C   UNL A   1      44.232  37.358  44.342  1.00  0.00     0.055 A 
ATOM     93  C   UNL A   1      42.634  39.157  44.207  1.00  0.00     0.041 A 
ATOM     94  F   UNL A   1      41.201  39.304  42.355  1.00  0.00    -0.206 F 
ATOM     95  C   UNL A   1      43.635  38.490  44.907  1.00  0.00     0.022 A 
BRANCH  92  96
ATOM     96  S   UNL A   1      45.442  36.451  45.344  1.00  0.00     0.124 S 
ATOM     97  O   UNL A   1      46.209  35.739  44.323  1.00  0.00    -0.237 OA
ATOM     98  O   UNL A   1      46.155  37.533  46.017  1.00  0.00    -0.237 OA
ATOM     99  O   UNL A   1      44.623  35.605  46.206  1.00  0.00    -0.744 OA
ENDBRANCH  92  96
ENDBRANCH  66  89
ENDBRANCH  40  41
ENDBRANCH  33  35
ENDBRANCH  32  33
ENDBRANCH  31  32
ENDBRANCH  30  31
ENDBRANCH  29  30
ENDBRANCH  28  29
ENDBRANCH   1  28
TORSDOF 24
ENDMDL
MODEL 2
REMARK VINA RESULT:      -8.8     10.805     16.742
REMARK SMILES O=C(Cn1c2ccccc2c(=O)c2cc(F)ccc21)OCCOCCOCCOCCOC(=O)c1ccc(-c2c3nc(c(-c4cc(S(=O)(=O)[O-])ccc4F)c4ccc([nH]4)c(-c4cc(S(=O)(=O)[O-])ccc4F)c4nc(c(-c5cc(S(=O)(=O)[O-])ccc5F)c5ccc2[nH]5)C=C4)C=C3)cc1
REMARK SMILES IDX 27 1 26 2 25 3 24 4 23 5 22 6 21 7 20 8 2 9 1 10 3 11 4 12
REMARK SMILES IDX 5 13 19 14 6 15 10 16 13 17 18 18 7 19 9 20 11 21 14 22
REMARK SMILES IDX 17 23 8 24 12 25 15 26 16 27 28 28 29 29 30 30 31 31 32 32
REMARK SMILES IDX 33 33 34 34 35 35 36 36 97 37 37 38 96 39 38 40 39 41 40 42
REMARK SMILES IDX 90 43 41 44 95 45 89 46 91 47 42 48 94 49 88 50 87 51 43 53
REMARK SMILES IDX 75 54 55 55 74 56 56 57 59 58 73 59 92 60 57 61 58 62 72 64
REMARK SMILES IDX 93 65 60 66 44 67 45 68 53 69 46 70 52 71 54 72 51 73 47 74
REMARK SMILES IDX 48 75 49 76 50 77 76 78 77 79 85 80 78 81 84 82 86 83 83 84
REMARK SMILES IDX 79 85 80 86 81 87 82 88 61 89 62 90 70 91 63 92 69 93 71 94
REMARK SMILES IDX 68 95 64 96 65 97 66 98 67 99
REMARK H PARENT 91 52 59 63
REMARK Flexibility Score: inf
ROOT
ATOM      1  C   UNL A   1      44.938  42.748  27.570  1.00  0.00     0.188 C 
ENDROOT
BRANCH   1   2
ATOM      2  O   UNL A   1      45.346  42.627  26.215  1.00  0.00    -0.377 OA
BRANCH   2   3
ATOM      3  C   UNL A   1      44.377  43.059  25.270  1.00  0.00     0.188 C 
BRANCH   3   4
ATOM      4  C   UNL A   1      43.268  42.032  25.003  1.00  0.00     0.188 C 
BRANCH   4   5
ATOM      5  O   UNL A   1      42.936  41.864  23.634  1.00  0.00    -0.376 OA
BRANCH   5   6
ATOM      6  C   UNL A   1      41.740  42.371  23.076  1.00  0.00     0.202 C 
BRANCH   6   7
ATOM      7  C   UNL A   1      41.864  43.472  22.032  1.00  0.00     0.261 C 
BRANCH   7   8
ATOM      8  O   UNL A   1      41.264  43.231  20.743  1.00  0.00    -0.462 OA
BRANCH   8   9
ATOM      9  C   UNL A   1      41.445  43.853  19.564  1.00  0.00     0.326 C 
ATOM     10  O   UNL A   1      40.459  44.252  18.940  1.00  0.00    -0.250 OA
BRANCH   9  11
ATOM     11  C   UNL A   1      42.810  43.950  18.944  1.00  0.00     0.245 C 
BRANCH  11  12
ATOM     12  N   UNL A   1      43.543  45.227  18.809  1.00  0.00    -0.329 N 
ATOM     13  C   UNL A   1      43.189  46.242  17.900  1.00  0.00     0.053 A 
ATOM     14  C   UNL A   1      44.509  45.438  19.847  1.00  0.00     0.053 A 
ATOM     15  C   UNL A   1      42.418  46.054  16.743  1.00  0.00     0.027 A 
ATOM     16  C   UNL A   1      43.584  47.568  18.158  1.00  0.00     0.046 A 
ATOM     17  C   UNL A   1      45.122  46.696  19.983  1.00  0.00     0.049 A 
ATOM     18  C   UNL A   1      44.906  44.441  20.766  1.00  0.00     0.030 A 
ATOM     19  C   UNL A   1      41.842  47.133  16.058  1.00  0.00     0.002 A 
ATOM     20  C   UNL A   1      43.023  48.658  17.475  1.00  0.00     0.014 A 
ATOM     21  C   UNL A   1      44.629  47.823  19.170  1.00  0.00     0.197 A 
ATOM     22  C   UNL A   1      46.142  46.928  20.917  1.00  0.00     0.053 A 
ATOM     23  C   UNL A   1      45.890  44.680  21.732  1.00  0.00     0.041 A 
ATOM     24  C   UNL A   1      42.106  48.436  16.457  1.00  0.00     0.001 A 
ATOM     25  O   UNL A   1      45.087  48.948  19.339  1.00  0.00    -0.288 OA
ATOM     26  C   UNL A   1      46.518  45.913  21.779  1.00  0.00     0.124 A 
ATOM     27  F   UNL A   1      47.484  46.126  22.680  1.00  0.00    -0.207 F 
ENDBRANCH  11  12
ENDBRANCH   9  11
ENDBRANCH   8   9
ENDBRANCH   7   8
ENDBRANCH   6   7
ENDBRANCH   5   6
ENDBRANCH   4   5
ENDBRANCH   3   4
ENDBRANCH   2   3
ENDBRANCH   1   2
BRANCH   1  28
ATOM     28  C   UNL A   1      44.955  41.445  28.406  1.00  0.00     0.188 C 
BRANCH  28  29
ATOM     29  O   UNL A   1      43.916  40.478  28.303  1.00  0.00    -0.376 OA
BRANCH  29  30
ATOM     30  C   UNL A   1      44.216  39.102  28.458  1.00  0.00     0.202 C 
BRANCH  30  31
ATOM     31  C   UNL A   1      43.096  38.068  28.277  1.00  0.00     0.261 C 
BRANCH  31  32
ATOM     32  O   UNL A   1      43.535  36.717  28.074  1.00  0.00    -0.460 OA
BRANCH  32  33
ATOM     33  C   UNL A   1      42.549  35.800  27.870  1.00  0.00     0.338 C 
ATOM     34  O   UNL A   1      41.696  35.826  27.010  1.00  0.00    -0.246 OA
BRANCH  33  35
ATOM     35  C   UNL A   1      42.810  34.621  28.739  1.00  0.00     0.060 A 
ATOM     36  C   UNL A   1      41.800  34.053  29.518  1.00  0.00     0.016 A 
ATOM     37  C   UNL A   1      44.117  34.114  28.801  1.00  0.00     0.016 A 
ATOM     38  C   UNL A   1      42.092  32.948  30.326  1.00  0.00     0.010 A 
ATOM     39  C   UNL A   1      44.413  33.028  29.630  1.00  0.00     0.010 A 
ATOM     40  C   UNL A   1      43.393  32.414  30.371  1.00  0.00    -0.014 A 
BRANCH  40  41
ATOM     41  C   UNL A   1      43.623  31.076  30.971  1.00  0.00     0.031 A 
ATOM     42  C   UNL A   1      43.534  29.804  30.185  1.00  0.00     0.074 A 
ATOM     43  C   UNL A   1      43.896  31.040  32.290  1.00  0.00     0.049 A 
ATOM     44  N   UNL A   1      43.780  28.584  30.586  1.00  0.00    -0.248 NA
ATOM     45  C   UNL A   1      43.114  29.903  28.780  1.00  0.00     0.031 C 
ATOM     46  C   UNL A   1      43.959  32.222  33.153  1.00  0.00     0.029 A 
ATOM     47  N   UNL A   1      44.161  29.994  33.137  1.00  0.00    -0.354 N 
ATOM     48  C   UNL A   1      43.570  27.766  29.483  1.00  0.00     0.074 A 
ATOM     49  C   UNL A   1      43.134  28.628  28.403  1.00  0.00     0.031 C 
ATOM     50  C   UNL A   1      44.248  31.837  34.402  1.00  0.00     0.029 A 
ATOM     51  C   UNL A   1      44.364  30.382  34.442  1.00  0.00     0.049 A 
ATOM     52  H   UNL A   1      44.200  29.057  32.841  1.00  0.00     0.167 HD
ATOM     53  C   UNL A   1      43.747  26.425  29.390  1.00  0.00     0.034 A 
ATOM     54  C   UNL A   1      44.612  29.655  35.551  1.00  0.00     0.034 A 
ATOM     55  C   UNL A   1      44.181  25.591  30.485  1.00  0.00     0.049 A 
ATOM     56  C   UNL A   1      44.784  28.165  35.417  1.00  0.00     0.074 A 
ATOM     57  C   UNL A   1      44.461  24.234  30.461  1.00  0.00     0.029 A 
ATOM     58  N   UNL A   1      44.386  26.012  31.791  1.00  0.00    -0.354 N 
ATOM     59  N   UNL A   1      44.722  27.426  34.336  1.00  0.00    -0.248 NA
ATOM     60  C   UNL A   1      45.079  27.407  36.641  1.00  0.00     0.031 C 
ATOM     61  C   UNL A   1      44.754  23.822  31.759  1.00  0.00     0.029 A 
ATOM     62  C   UNL A   1      44.743  24.934  32.586  1.00  0.00     0.049 A 
ATOM     63  H   UNL A   1      44.291  26.939  32.107  1.00  0.00     0.167 HD
ATOM     64  C   UNL A   1      44.991  26.124  34.743  1.00  0.00     0.074 A 
ATOM     65  C   UNL A   1      45.244  26.178  36.168  1.00  0.00     0.031 C 
ATOM     66  C   UNL A   1      45.018  24.989  34.002  1.00  0.00     0.034 A 
BRANCH  53  67
ATOM     67  C   UNL A   1      43.528  25.735  28.065  1.00  0.00     0.023 A 
ATOM     68  C   UNL A   1      44.631  25.262  27.326  1.00  0.00     0.031 A 
ATOM     69  C   UNL A   1      42.269  25.758  27.441  1.00  0.00     0.131 A 
ATOM     70  C   UNL A   1      44.462  24.890  25.986  1.00  0.00     0.055 A 
ATOM     71  C   UNL A   1      42.100  25.349  26.117  1.00  0.00     0.041 A 
ATOM     72  F   UNL A   1      41.191  26.210  28.100  1.00  0.00    -0.206 F 
ATOM     73  C   UNL A   1      43.203  24.929  25.379  1.00  0.00     0.022 A 
BRANCH  70  74
ATOM     74  S   UNL A   1      45.880  24.425  24.954  1.00  0.00     0.124 S 
ATOM     75  O   UNL A   1      46.376  25.731  24.523  1.00  0.00    -0.237 OA
ATOM     76  O   UNL A   1      46.732  23.718  25.906  1.00  0.00    -0.237 OA
ATOM     77  O   UNL A   1      45.293  23.607  23.899  1.00  0.00    -0.744 OA
ENDBRANCH  70  74
ENDBRANCH  53  67
BRANCH  54  78
ATOM     78  C   UNL A   1      44.758  30.358  36.858  1.00  0.00     0.023 A 
ATOM     79  C   UNL A   1      43.623  30.793  37.568  1.00  0.00     0.031 A 
ATOM     80  C   UNL A   1      46.023  30.703  37.361  1.00  0.00     0.131 A 
ATOM     81  C   UNL A   1      43.775  31.601  38.701  1.00  0.00     0.055 A 
ATOM     82  C   UNL A   1      46.170  31.444  38.534  1.00  0.00     0.041 A 
ATOM     83  F   UNL A   1      47.134  30.329  36.708  1.00  0.00    -0.206 F 
ATOM     84  C   UNL A   1      45.043  31.912  39.201  1.00  0.00     0.022 A 
BRANCH  81  85
ATOM     85  S   UNL A   1      42.337  32.393  39.475  1.00  0.00     0.124 S 
ATOM     86  O   UNL A   1      42.840  33.736  39.745  1.00  0.00    -0.237 OA
ATOM     87  O   UNL A   1      41.335  32.295  38.416  1.00  0.00    -0.237 OA
ATOM     88  O   UNL A   1      42.079  31.565  40.649  1.00  0.00    -0.744 OA
ENDBRANCH  81  85
ENDBRANCH  54  78
BRANCH  66  89
ATOM     89  C   UNL A   1      45.328  23.677  34.684  1.00  0.00     0.023 A 
ATOM     90  C   UNL A   1      46.667  23.312  34.930  1.00  0.00     0.031 A 
ATOM     91  C   UNL A   1      44.326  22.717  34.907  1.00  0.00     0.131 A 
ATOM     92  C   UNL A   1      46.971  22.003  35.323  1.00  0.00     0.055 A 
ATOM     93  C   UNL A   1      44.631  21.430  35.353  1.00  0.00     0.041 A 
ATOM     94  F   UNL A   1      43.036  23.013  34.679  1.00  0.00    -0.206 F 
ATOM     95  C   UNL A   1      45.960  21.062  35.543  1.00  0.00     0.022 A 
BRANCH  92  96
ATOM     96  S   UNL A   1      48.692  21.444  35.462  1.00  0.00     0.124 S 
ATOM     97  O   UNL A   1      49.046  21.198  34.066  1.00  0.00    -0.237 OA
ATOM     98  O   UNL A   1      49.341  22.600  36.075  1.00  0.00    -0.237 OA
ATOM     99  O   UNL A   1      48.608  20.252  36.300  1.00  0.00    -0.744 OA
ENDBRANCH  92  96
ENDBRANCH  66  89
ENDBRANCH  40  41
ENDBRANCH  33  35
ENDBRANCH  32  33
ENDBRANCH  31  32
ENDBRANCH  30  31
ENDBRANCH  29  30
ENDBRANCH  28  29
ENDBRANCH   1  28
TORSDOF 24
ENDMDL
MODEL 3
REMARK VINA RESULT:      -8.8      1.492      1.645
REMARK SMILES O=C(Cn1c2ccccc2c(=O)c2cc(F)ccc21)OCCOCCOCCOCCOC(=O)c1ccc(-c2c3nc(c(-c4cc(S(=O)(=O)[O-])ccc4F)c4ccc([nH]4)c(-c4cc(S(=O)(=O)[O-])ccc4F)c4nc(c(-c5cc(S(=O)(=O)[O-])ccc5F)c5ccc2[nH]5)C=C4)C=C3)cc1
REMARK SMILES IDX 27 1 26 2 25 3 24 4 23 5 22 6 21 7 20 8 2 9 1 10 3 11 4 12
REMARK SMILES IDX 5 13 19 14 6 15 10 16 13 17 18 18 7 19 9 20 11 21 14 22
REMARK SMILES IDX 17 23 8 24 12 25 15 26 16 27 28 28 29 29 30 30 31 31 32 32
REMARK SMILES IDX 33 33 34 34 35 35 36 36 97 37 37 38 96 39 38 40 39 41 40 42
REMARK SMILES IDX 90 43 41 44 95 45 89 46 91 47 42 48 94 49 88 50 87 51 43 53
REMARK SMILES IDX 75 54 55 55 74 56 56 57 59 58 73 59 92 60 57 61 58 62 72 64
REMARK SMILES IDX 93 65 60 66 44 67 45 68 53 69 46 70 52 71 54 72 51 73 47 74
REMARK SMILES IDX 48 75 49 76 50 77 76 78 77 79 85 80 78 81 84 82 86 83 83 84
REMARK SMILES IDX 79 85 80 86 81 87 82 88 61 89 62 90 70 91 63 92 69 93 71 94
REMARK SMILES IDX 68 95 64 96 65 97 66 98 67 99
REMARK H PARENT 91 52 59 63
REMARK Flexibility Score: inf
ROOT
ATOM      1  C   UNL A   1      34.203  29.096  26.923  1.00  0.00     0.188 C 
ENDROOT
BRANCH   1   2
ATOM      2  O   UNL A   1      32.925  29.658  27.186  1.00  0.00    -0.377 OA
BRANCH   2   3
ATOM      3  C   UNL A   1      31.894  29.199  26.323  1.00  0.00     0.188 C 
BRANCH   3   4
ATOM      4  C   UNL A   1      32.214  27.871  25.622  1.00  0.00     0.188 C 
BRANCH   4   5
ATOM      5  O   UNL A   1      31.078  27.097  25.276  1.00  0.00    -0.376 OA
BRANCH   5   6
ATOM      6  C   UNL A   1      30.452  27.193  24.012  1.00  0.00     0.202 C 
BRANCH   6   7
ATOM      7  C   UNL A   1      31.349  27.377  22.796  1.00  0.00     0.261 C 
BRANCH   7   8
ATOM      8  O   UNL A   1      31.716  26.194  22.059  1.00  0.00    -0.462 OA
BRANCH   8   9
ATOM      9  C   UNL A   1      32.824  25.433  22.122  1.00  0.00     0.326 C 
ATOM     10  O   UNL A   1      33.906  25.921  21.787  1.00  0.00    -0.250 OA
BRANCH   9  11
ATOM     11  C   UNL A   1      32.739  23.972  22.464  1.00  0.00     0.245 C 
BRANCH  11  12
ATOM     12  N   UNL A   1      33.233  23.417  23.743  1.00  0.00    -0.329 N 
ATOM     13  C   UNL A   1      34.588  23.148  24.010  1.00  0.00     0.053 A 
ATOM     14  C   UNL A   1      32.235  23.392  24.771  1.00  0.00     0.053 A 
ATOM     15  C   UNL A   1      35.577  22.950  23.034  1.00  0.00     0.027 A 
ATOM     16  C   UNL A   1      35.035  23.108  25.344  1.00  0.00     0.046 A 
ATOM     17  C   UNL A   1      32.607  23.104  26.096  1.00  0.00     0.049 A 
ATOM     18  C   UNL A   1      30.862  23.637  24.542  1.00  0.00     0.030 A 
ATOM     19  C   UNL A   1      36.943  22.999  23.349  1.00  0.00     0.002 A 
ATOM     20  C   UNL A   1      36.397  23.148  25.674  1.00  0.00     0.014 A 
ATOM     21  C   UNL A   1      34.040  23.009  26.432  1.00  0.00     0.197 A 
ATOM     22  C   UNL A   1      31.660  22.972  27.122  1.00  0.00     0.053 A 
ATOM     23  C   UNL A   1      29.917  23.553  25.571  1.00  0.00     0.041 A 
ATOM     24  C   UNL A   1      37.352  23.148  24.667  1.00  0.00     0.001 A 
ATOM     25  O   UNL A   1      34.388  22.850  27.597  1.00  0.00    -0.288 OA
ATOM     26  C   UNL A   1      30.323  23.193  26.845  1.00  0.00     0.124 A 
ATOM     27  F   UNL A   1      29.411  23.077  27.818  1.00  0.00    -0.207 F 
ENDBRANCH  11  12
ENDBRANCH   9  11
ENDBRANCH   8   9
ENDBRANCH   7   8
ENDBRANCH   6   7
ENDBRANCH   5   6
ENDBRANCH   4   5
ENDBRANCH   3   4
ENDBRANCH   2   3
ENDBRANCH   1   2
BRANCH   1  28
ATOM     28  C   UNL A   1      35.378  29.651  27.763  1.00  0.00     0.188 C 
BRANCH  28  29
ATOM     29  O   UNL A   1      35.825  30.994  27.626  1.00  0.00    -0.376 OA
BRANCH  29  30
ATOM     30  C   UNL A   1      35.652  31.909  28.695  1.00  0.00     0.202 C 
BRANCH  30  31
ATOM     31  C   UNL A   1      36.482  31.730  29.973  1.00  0.00     0.261 C 
BRANCH  31  32
ATOM     32  O   UNL A   1      35.737  31.349  31.140  1.00  0.00    -0.460 OA
BRANCH  32  33
ATOM     33  C   UNL A   1      36.407  30.583  32.044  1.00  0.00     0.338 C 
ATOM     34  O   UNL A   1      36.542  29.379  32.020  1.00  0.00    -0.246 OA
BRANCH  33  35
ATOM     35  C   UNL A   1      37.151  31.479  32.968  1.00  0.00     0.060 A 
ATOM     36  C   UNL A   1      36.630  32.713  33.363  1.00  0.00     0.016 A 
ATOM     37  C   UNL A   1      38.425  31.082  33.402  1.00  0.00     0.016 A 
ATOM     38  C   UNL A   1      37.368  33.527  34.230  1.00  0.00     0.010 A 
ATOM     39  C   UNL A   1      39.173  31.909  34.245  1.00  0.00     0.010 A 
ATOM     40  C   UNL A   1      38.633  33.123  34.694  1.00  0.00    -0.014 A 
BRANCH  40  41
ATOM     41  C   UNL A   1      39.261  33.828  35.839  1.00  0.00     0.031 A 
ATOM     42  C   UNL A   1      40.448  34.730  35.688  1.00  0.00     0.074 A 
ATOM     43  C   UNL A   1      38.731  33.603  37.057  1.00  0.00     0.049 A 
ATOM     44  N   UNL A   1      41.040  35.451  36.605  1.00  0.00    -0.248 NA
ATOM     45  C   UNL A   1      41.053  34.838  34.354  1.00  0.00     0.031 C 
ATOM     46  C   UNL A   1      37.603  32.705  37.313  1.00  0.00     0.029 A 
ATOM     47  N   UNL A   1      39.058  34.089  38.297  1.00  0.00    -0.354 N 
ATOM     48  C   UNL A   1      42.073  36.120  35.961  1.00  0.00     0.074 A 
ATOM     49  C   UNL A   1      42.053  35.684  34.580  1.00  0.00     0.031 C 
ATOM     50  C   UNL A   1      37.330  32.708  38.623  1.00  0.00     0.029 A 
ATOM     51  C   UNL A   1      38.277  33.583  39.309  1.00  0.00     0.049 A 
ATOM     52  H   UNL A   1      39.784  34.737  38.448  1.00  0.00     0.167 HD
ATOM     53  C   UNL A   1      42.937  37.025  36.484  1.00  0.00     0.034 A 
ATOM     54  C   UNL A   1      38.313  33.791  40.642  1.00  0.00     0.034 A 
ATOM     55  C   UNL A   1      42.934  37.439  37.867  1.00  0.00     0.049 A 
ATOM     56  C   UNL A   1      39.297  34.788  41.193  1.00  0.00     0.074 A 
ATOM     57  C   UNL A   1      43.724  38.406  38.466  1.00  0.00     0.029 A 
ATOM     58  N   UNL A   1      42.128  36.914  38.866  1.00  0.00    -0.354 N 
ATOM     59  N   UNL A   1      40.174  35.518  40.546  1.00  0.00    -0.248 NA
ATOM     60  C   UNL A   1      39.293  35.009  42.646  1.00  0.00     0.031 C 
ATOM     61  C   UNL A   1      43.454  38.410  39.832  1.00  0.00     0.029 A 
ATOM     62  C   UNL A   1      42.433  37.506  40.081  1.00  0.00     0.049 A 
ATOM     63  H   UNL A   1      41.439  36.223  38.731  1.00  0.00     0.167 HD
ATOM     64  C   UNL A   1      40.807  36.300  41.507  1.00  0.00     0.074 A 
ATOM     65  C   UNL A   1      40.195  35.974  42.777  1.00  0.00     0.031 C 
ATOM     66  C   UNL A   1      41.809  37.199  41.346  1.00  0.00     0.034 A 
BRANCH  53  67
ATOM     67  C   UNL A   1      43.950  37.693  35.584  1.00  0.00     0.023 A 
ATOM     68  C   UNL A   1      43.607  38.870  34.889  1.00  0.00     0.031 A 
ATOM     69  C   UNL A   1      45.149  37.043  35.243  1.00  0.00     0.131 A 
ATOM     70  C   UNL A   1      44.425  39.324  33.846  1.00  0.00     0.055 A 
ATOM     71  C   UNL A   1      45.980  37.523  34.230  1.00  0.00     0.041 A 
ATOM     72  F   UNL A   1      45.513  35.913  35.870  1.00  0.00    -0.206 F 
ATOM     73  C   UNL A   1      45.610  38.659  33.515  1.00  0.00     0.022 A 
BRANCH  70  74
ATOM     74  S   UNL A   1      43.942  40.743  32.824  1.00  0.00     0.124 S 
ATOM     75  O   UNL A   1      42.484  40.688  32.909  1.00  0.00    -0.237 OA
ATOM     76  O   UNL A   1      44.566  41.857  33.532  1.00  0.00    -0.237 OA
ATOM     77  O   UNL A   1      44.497  40.434  31.511  1.00  0.00    -0.744 OA
ENDBRANCH  70  74
ENDBRANCH  53  67
BRANCH  54  78
ATOM     78  C   UNL A   1      37.343  33.067  41.513  1.00  0.00     0.023 A 
ATOM     79  C   UNL A   1      36.097  33.641  41.830  1.00  0.00     0.031 A 
ATOM     80  C   UNL A   1      37.684  31.851  42.126  1.00  0.00     0.131 A 
ATOM     81  C   UNL A   1      35.271  33.035  42.784  1.00  0.00     0.055 A 
ATOM     82  C   UNL A   1      36.823  31.211  43.019  1.00  0.00     0.041 A 
ATOM     83  F   UNL A   1      38.868  31.274  41.872  1.00  0.00    -0.206 F 
ATOM     84  C   UNL A   1      35.617  31.812  43.365  1.00  0.00     0.022 A 
BRANCH  81  85
ATOM     85  S   UNL A   1      33.795  33.886  43.407  1.00  0.00     0.124 S 
ATOM     86  O   UNL A   1      33.128  32.826  44.156  1.00  0.00    -0.237 OA
ATOM     87  O   UNL A   1      34.382  34.955  44.212  1.00  0.00    -0.237 OA
ATOM     88  O   UNL A   1      33.115  34.329  42.194  1.00  0.00    -0.744 OA
ENDBRANCH  81  85
ENDBRANCH  54  78
BRANCH  66  89
ATOM     89  C   UNL A   1      42.344  37.924  42.559  1.00  0.00     0.023 A 
ATOM     90  C   UNL A   1      41.844  39.198  42.894  1.00  0.00     0.031 A 
ATOM     91  C   UNL A   1      43.467  37.446  43.257  1.00  0.00     0.131 A 
ATOM     92  C   UNL A   1      42.504  39.976  43.853  1.00  0.00     0.055 A 
ATOM     93  C   UNL A   1      44.087  38.203  44.251  1.00  0.00     0.041 A 
ATOM     94  F   UNL A   1      43.985  36.242  42.969  1.00  0.00    -0.206 F 
ATOM     95  C   UNL A   1      43.618  39.483  44.539  1.00  0.00     0.022 A 
BRANCH  92  96
ATOM     96  S   UNL A   1      42.006  41.692  44.171  1.00  0.00     0.124 S 
ATOM     97  O   UNL A   1      41.210  42.001  42.986  1.00  0.00    -0.237 OA
ATOM     98  O   UNL A   1      41.250  41.565  45.414  1.00  0.00    -0.237 OA
ATOM     99  O   UNL A   1      43.271  42.412  44.274  1.00  0.00    -0.744 OA
ENDBRANCH  92  96
ENDBRANCH  66  89
ENDBRANCH  40  41
ENDBRANCH  33  35
ENDBRANCH  32  33
ENDBRANCH  31  32
ENDBRANCH  30  31
ENDBRANCH  29  30
ENDBRANCH  28  29
ENDBRANCH   1  28
TORSDOF 24
ENDMDL
