MODEL 1
REMARK VINA RESULT:      -9.7      0.000      0.000
REMARK SMILES CS(=O)(=O)c1ccc(C2=NN(c3ccc(C(=O)OCCOCCOCCOCCOC(=O)c4ccc(-c5c6nc(c(-c7cc(S(=O)(=O)[O-])ccc7F)c7ccc([nH]7)c(-c7cc(S(=O)(=O)[O-])ccc7F)c7nc(c(-c8cc(S(=O)(=O)[O-])ccc8F)c8ccc5[nH]8)C=C7)C=C6)cc4)cc3)[C@H](c3ccccc3)C2)cc1
REMARK SMILES IDX 24 1 23 2 22 3 21 4 20 5 19 6 18 7 16 8 17 9 15 10 12 11
REMARK SMILES IDX 13 12 97 13 14 14 96 15 11 16 9 17 10 18 105 19 98 20 8 21
REMARK SMILES IDX 5 22 6 23 107 24 7 25 106 26 2 27 1 28 3 29 4 30 99 31
REMARK SMILES IDX 100 32 104 33 101 34 103 35 102 36 25 37 26 38 27 39 28 40
REMARK SMILES IDX 29 41 30 42 31 43 32 44 33 45 34 46 95 47 35 48 94 49 36 50
REMARK SMILES IDX 37 51 38 52 88 53 39 54 93 55 87 56 89 57 40 58 92 59 86 60
REMARK SMILES IDX 85 61 41 63 73 64 53 65 72 66 54 67 57 68 71 69 90 70 55 71
REMARK SMILES IDX 56 72 70 74 91 75 58 76 42 77 43 78 51 79 44 80 50 81 52 82
REMARK SMILES IDX 49 83 45 84 46 85 47 86 48 87 74 88 75 89 83 90 76 91 82 92
REMARK SMILES IDX 84 93 81 94 77 95 78 96 79 97 80 98 59 99 60 100 68 101
REMARK SMILES IDX 61 102 67 103 69 104 66 105 62 106 63 107 64 108 65 109
REMARK H PARENT 89 62 57 73
REMARK Flexibility Score: inf
ROOT
ATOM      1  O   UNL A   1      41.729  28.909  30.749  1.00  0.00    -0.377 OA
ENDROOT
BRANCH   1   2
ATOM      2  C   UNL A   1      41.241  27.816  29.994  1.00  0.00     0.188 C 
BRANCH   2   3
ATOM      3  C   UNL A   1      42.224  27.316  28.921  1.00  0.00     0.188 C 
BRANCH   3   4
ATOM      4  O   UNL A   1      42.127  25.959  28.533  1.00  0.00    -0.376 OA
BRANCH   4   5
ATOM      5  C   UNL A   1      40.903  25.330  28.191  1.00  0.00     0.202 C 
BRANCH   5   6
ATOM      6  C   UNL A   1      40.681  24.209  27.156  1.00  0.00     0.261 C 
BRANCH   6   7
ATOM      7  O   UNL A   1      39.443  23.511  27.177  1.00  0.00    -0.460 OA
BRANCH   7   8
ATOM      8  C   UNL A   1      39.242  22.578  26.226  1.00  0.00     0.338 C 
ATOM      9  O   UNL A   1      40.034  21.733  25.845  1.00  0.00    -0.246 OA
BRANCH   8  10
ATOM     10  C   UNL A   1      37.810  22.623  25.840  1.00  0.00     0.060 A 
ATOM     11  C   UNL A   1      35.133  22.710  25.003  1.00  0.00     0.060 A 
ATOM     12  C   UNL A   1      36.052  21.878  24.349  1.00  0.00     0.029 A 
ATOM     13  C   UNL A   1      35.542  23.388  26.160  1.00  0.00     0.029 A 
ATOM     14  C   UNL A   1      37.387  21.841  24.760  1.00  0.00     0.018 A 
ATOM     15  C   UNL A   1      36.875  23.366  26.569  1.00  0.00     0.018 A 
BRANCH  11  16
ATOM     16  N   UNL A   1      33.881  23.003  24.443  1.00  0.00    -0.257 N 
ATOM     17  C   UNL A   1      32.285  24.408  24.255  1.00  0.00     0.071 C 
ATOM     18  N   UNL A   1      33.572  24.297  24.149  1.00  0.00    -0.176 NA
ATOM     19  C   UNL A   1      31.556  23.198  24.765  1.00  0.00     0.091 C 
ATOM     20  C   UNL A   1      32.725  22.220  24.936  1.00  0.00     0.144 C 
BRANCH  17  21
ATOM     21  C   UNL A   1      31.553  25.619  23.849  1.00  0.00    -0.002 A 
ATOM     22  C   UNL A   1      30.246  27.988  23.190  1.00  0.00     0.067 A 
ATOM     23  C   UNL A   1      30.317  27.591  24.528  1.00  0.00     0.021 A 
ATOM     24  C   UNL A   1      30.816  27.201  22.180  1.00  0.00     0.021 A 
ATOM     25  C   UNL A   1      30.959  26.394  24.853  1.00  0.00     0.011 A 
ATOM     26  C   UNL A   1      31.484  26.018  22.512  1.00  0.00     0.011 A 
BRANCH  22  27
ATOM     27  S   UNL A   1      29.438  29.509  22.741  1.00  0.00     0.175 S 
ATOM     28  C   UNL A   1      27.702  29.157  22.700  1.00  0.00     0.163 C 
ATOM     29  O   UNL A   1      29.840  29.816  21.380  1.00  0.00    -0.224 OA
ATOM     30  O   UNL A   1      29.689  30.443  23.821  1.00  0.00    -0.224 OA
ENDBRANCH  22  27
ENDBRANCH  17  21
BRANCH  20  31
ATOM     31  C   UNL A   1      32.630  20.857  24.256  1.00  0.00    -0.023 A 
ATOM     32  C   UNL A   1      32.707  19.633  24.932  1.00  0.00     0.006 A 
ATOM     33  C   UNL A   1      32.390  20.815  22.866  1.00  0.00     0.006 A 
ATOM     34  C   UNL A   1      32.522  18.422  24.252  1.00  0.00     0.000 A 
ATOM     35  C   UNL A   1      32.148  19.614  22.198  1.00  0.00     0.000 A 
ATOM     36  C   UNL A   1      32.218  18.413  22.893  1.00  0.00     0.000 A 
ENDBRANCH  20  31
ENDBRANCH  11  16
ENDBRANCH   8  10
ENDBRANCH   7   8
ENDBRANCH   6   7
ENDBRANCH   5   6
ENDBRANCH   4   5
ENDBRANCH   3   4
ENDBRANCH   2   3
ENDBRANCH   1   2
BRANCH   1  37
ATOM     37  C   UNL A   1      41.315  29.020  32.110  1.00  0.00     0.188 C 
BRANCH  37  38
ATOM     38  C   UNL A   1      41.816  30.171  33.015  1.00  0.00     0.188 C 
BRANCH  38  39
ATOM     39  O   UNL A   1      42.174  29.782  34.335  1.00  0.00    -0.376 OA
BRANCH  39  40
ATOM     40  C   UNL A   1      41.160  29.318  35.210  1.00  0.00     0.202 C 
BRANCH  40  41
ATOM     41  C   UNL A   1      41.577  28.279  36.260  1.00  0.00     0.261 C 
BRANCH  41  42
ATOM     42  O   UNL A   1      42.989  28.068  36.400  1.00  0.00    -0.460 OA
BRANCH  42  43
ATOM     43  C   UNL A   1      43.400  26.784  36.437  1.00  0.00     0.338 C 
ATOM     44  O   UNL A   1      43.214  25.986  37.343  1.00  0.00    -0.246 OA
BRANCH  43  45
ATOM     45  C   UNL A   1      43.951  26.430  35.114  1.00  0.00     0.060 A 
ATOM     46  C   UNL A   1      45.263  25.948  35.045  1.00  0.00     0.016 A 
ATOM     47  C   UNL A   1      43.196  26.605  33.952  1.00  0.00     0.016 A 
ATOM     48  C   UNL A   1      45.853  25.715  33.806  1.00  0.00     0.010 A 
ATOM     49  C   UNL A   1      43.794  26.384  32.706  1.00  0.00     0.010 A 
ATOM     50  C   UNL A   1      45.143  25.995  32.630  1.00  0.00    -0.014 A 
BRANCH  50  51
ATOM     51  C   UNL A   1      45.904  26.143  31.362  1.00  0.00     0.031 A 
ATOM     52  C   UNL A   1      47.032  27.145  31.333  1.00  0.00     0.074 A 
ATOM     53  C   UNL A   1      45.669  25.352  30.300  1.00  0.00     0.049 A 
ATOM     54  N   UNL A   1      47.849  27.453  30.359  1.00  0.00    -0.248 NA
ATOM     55  C   UNL A   1      47.268  27.900  32.575  1.00  0.00     0.031 C 
ATOM     56  C   UNL A   1      44.643  24.313  30.230  1.00  0.00     0.029 A 
ATOM     57  N   UNL A   1      46.286  25.298  29.075  1.00  0.00    -0.354 N 
ATOM     58  C   UNL A   1      48.700  28.426  30.875  1.00  0.00     0.074 A 
ATOM     59  C   UNL A   1      48.262  28.700  32.224  1.00  0.00     0.031 C 
ATOM     60  C   UNL A   1      44.700  23.726  29.021  1.00  0.00     0.029 A 
ATOM     61  C   UNL A   1      45.740  24.369  28.220  1.00  0.00     0.049 A 
ATOM     62  H   UNL A   1      47.051  25.869  28.832  1.00  0.00     0.167 HD
ATOM     63  C   UNL A   1      49.766  29.020  30.286  1.00  0.00     0.034 A 
ATOM     64  C   UNL A   1      46.034  24.089  26.932  1.00  0.00     0.034 A 
ATOM     65  C   UNL A   1      50.188  28.748  28.935  1.00  0.00     0.049 A 
ATOM     66  C   UNL A   1      47.167  24.839  26.265  1.00  0.00     0.074 A 
ATOM     67  C   UNL A   1      51.238  29.308  28.231  1.00  0.00     0.029 A 
ATOM     68  N   UNL A   1      49.578  27.838  28.082  1.00  0.00    -0.354 N 
ATOM     69  N   UNL A   1      47.961  25.761  26.763  1.00  0.00    -0.248 NA
ATOM     70  C   UNL A   1      47.454  24.498  24.865  1.00  0.00     0.031 C 
ATOM     71  C   UNL A   1      51.221  28.790  26.932  1.00  0.00     0.029 A 
ATOM     72  C   UNL A   1      50.216  27.840  26.851  1.00  0.00     0.049 A 
ATOM     73  H   UNL A   1      48.806  27.274  28.316  1.00  0.00     0.167 HD
ATOM     74  C   UNL A   1      48.862  26.077  25.748  1.00  0.00     0.074 A 
ATOM     75  C   UNL A   1      48.532  25.227  24.624  1.00  0.00     0.031 C 
ATOM     76  C   UNL A   1      49.871  26.988  25.738  1.00  0.00     0.034 A 
BRANCH  63  77
ATOM     77  C   UNL A   1      50.522  30.047  31.093  1.00  0.00     0.023 A 
ATOM     78  C   UNL A   1      51.570  29.681  31.956  1.00  0.00     0.031 A 
ATOM     79  C   UNL A   1      50.183  31.408  31.009  1.00  0.00     0.131 A 
ATOM     80  C   UNL A   1      52.204  30.656  32.741  1.00  0.00     0.055 A 
ATOM     81  C   UNL A   1      50.869  32.384  31.735  1.00  0.00     0.041 A 
ATOM     82  F   UNL A   1      49.172  31.814  30.225  1.00  0.00    -0.206 F 
ATOM     83  C   UNL A   1      51.880  32.009  32.615  1.00  0.00     0.022 A 
BRANCH  80  84
ATOM     84  S   UNL A   1      53.368  30.117  34.023  1.00  0.00     0.124 S 
ATOM     85  O   UNL A   1      53.153  31.124  35.059  1.00  0.00    -0.237 OA
ATOM     86  O   UNL A   1      52.898  28.772  34.332  1.00  0.00    -0.237 OA
ATOM     87  O   UNL A   1      54.667  30.187  33.356  1.00  0.00    -0.744 OA
ENDBRANCH  80  84
ENDBRANCH  63  77
BRANCH  64  88
ATOM     88  C   UNL A   1      45.227  23.099  26.157  1.00  0.00     0.023 A 
ATOM     89  C   UNL A   1      45.638  21.764  26.019  1.00  0.00     0.031 A 
ATOM     90  C   UNL A   1      44.081  23.506  25.448  1.00  0.00     0.131 A 
ATOM     91  C   UNL A   1      44.960  20.907  25.136  1.00  0.00     0.055 A 
ATOM     92  C   UNL A   1      43.367  22.631  24.627  1.00  0.00     0.041 A 
ATOM     93  F   UNL A   1      43.643  24.772  25.533  1.00  0.00    -0.206 F 
ATOM     94  C   UNL A   1      43.819  21.328  24.451  1.00  0.00     0.022 A 
BRANCH  91  95
ATOM     95  S   UNL A   1      45.677  19.277  24.784  1.00  0.00     0.124 S 
ATOM     96  O   UNL A   1      45.377  19.121  23.366  1.00  0.00    -0.237 OA
ATOM     97  O   UNL A   1      47.081  19.486  25.124  1.00  0.00    -0.237 OA
ATOM     98  O   UNL A   1      44.946  18.384  25.681  1.00  0.00    -0.744 OA
ENDBRANCH  91  95
ENDBRANCH  64  88
BRANCH  76  99
ATOM     99  C   UNL A   1      50.715  27.066  24.487  1.00  0.00     0.023 A 
ATOM    100  C   UNL A   1      50.299  27.792  23.356  1.00  0.00     0.031 A 
ATOM    101  C   UNL A   1      51.938  26.375  24.410  1.00  0.00     0.131 A 
ATOM    102  C   UNL A   1      51.053  27.739  22.174  1.00  0.00     0.055 A 
ATOM    103  C   UNL A   1      52.724  26.394  23.258  1.00  0.00     0.041 A 
ATOM    104  F   UNL A   1      52.390  25.664  25.457  1.00  0.00    -0.206 F 
ATOM    105  C   UNL A   1      52.273  27.061  22.123  1.00  0.00     0.022 A 
BRANCH 102 106
ATOM    106  S   UNL A   1      50.346  28.451  20.663  1.00  0.00     0.124 S 
ATOM    107  O   UNL A   1      51.409  28.216  19.692  1.00  0.00    -0.237 OA
ATOM    108  O   UNL A   1      49.133  27.659  20.484  1.00  0.00    -0.237 OA
ATOM    109  O   UNL A   1      50.125  29.853  21.016  1.00  0.00    -0.744 OA
ENDBRANCH 102 106
ENDBRANCH  76  99
ENDBRANCH  50  51
ENDBRANCH  43  45
ENDBRANCH  42  43
ENDBRANCH  41  42
ENDBRANCH  40  41
ENDBRANCH  39  40
ENDBRANCH  38  39
ENDBRANCH  37  38
ENDBRANCH   1  37
TORSDOF 27
ENDMDL
MODEL 2
REMARK VINA RESULT:      -9.4      8.961     15.362
REMARK SMILES CS(=O)(=O)c1ccc(C2=NN(c3ccc(C(=O)OCCOCCOCCOCCOC(=O)c4ccc(-c5c6nc(c(-c7cc(S(=O)(=O)[O-])ccc7F)c7ccc([nH]7)c(-c7cc(S(=O)(=O)[O-])ccc7F)c7nc(c(-c8cc(S(=O)(=O)[O-])ccc8F)c8ccc5[nH]8)C=C7)C=C6)cc4)cc3)[C@H](c3ccccc3)C2)cc1
REMARK SMILES IDX 24 1 23 2 22 3 21 4 20 5 19 6 18 7 16 8 17 9 15 10 12 11
REMARK SMILES IDX 13 12 97 13 14 14 96 15 11 16 9 17 10 18 105 19 98 20 8 21
REMARK SMILES IDX 5 22 6 23 107 24 7 25 106 26 2 27 1 28 3 29 4 30 99 31
REMARK SMILES IDX 100 32 104 33 101 34 103 35 102 36 25 37 26 38 27 39 28 40
REMARK SMILES IDX 29 41 30 42 31 43 32 44 33 45 34 46 95 47 35 48 94 49 36 50
REMARK SMILES IDX 37 51 38 52 88 53 39 54 93 55 87 56 89 57 40 58 92 59 86 60
REMARK SMILES IDX 85 61 41 63 73 64 53 65 72 66 54 67 57 68 71 69 90 70 55 71
REMARK SMILES IDX 56 72 70 74 91 75 58 76 42 77 43 78 51 79 44 80 50 81 52 82
REMARK SMILES IDX 49 83 45 84 46 85 47 86 48 87 74 88 75 89 83 90 76 91 82 92
REMARK SMILES IDX 84 93 81 94 77 95 78 96 79 97 80 98 59 99 60 100 68 101
REMARK SMILES IDX 61 102 67 103 69 104 66 105 62 106 63 107 64 108 65 109
REMARK H PARENT 89 62 57 73
REMARK Flexibility Score: inf
ROOT
ATOM      1  O   UNL A   1      36.494  33.726  31.513  1.00  0.00    -0.377 OA
ENDROOT
BRANCH   1   2
ATOM      2  C   UNL A   1      35.752  34.544  32.397  1.00  0.00     0.188 C 
BRANCH   2   3
ATOM      3  C   UNL A   1      34.393  33.947  32.802  1.00  0.00     0.188 C 
BRANCH   3   4
ATOM      4  O   UNL A   1      33.230  34.596  32.325  1.00  0.00    -0.376 OA
BRANCH   4   5
ATOM      5  C   UNL A   1      33.257  35.659  31.387  1.00  0.00     0.202 C 
BRANCH   5   6
ATOM      6  C   UNL A   1      33.221  35.554  29.849  1.00  0.00     0.261 C 
BRANCH   6   7
ATOM      7  O   UNL A   1      33.015  34.273  29.268  1.00  0.00    -0.460 OA
BRANCH   7   8
ATOM      8  C   UNL A   1      33.556  34.050  28.054  1.00  0.00     0.338 C 
ATOM      9  O   UNL A   1      34.431  34.699  27.508  1.00  0.00    -0.246 OA
BRANCH   8  10
ATOM     10  C   UNL A   1      33.038  32.751  27.557  1.00  0.00     0.060 A 
ATOM     11  C   UNL A   1      32.161  30.270  26.585  1.00  0.00     0.060 A 
ATOM     12  C   UNL A   1      33.358  30.363  27.307  1.00  0.00     0.029 A 
ATOM     13  C   UNL A   1      31.348  31.407  26.477  1.00  0.00     0.029 A 
ATOM     14  C   UNL A   1      33.800  31.601  27.784  1.00  0.00     0.018 A 
ATOM     15  C   UNL A   1      31.788  32.648  26.939  1.00  0.00     0.018 A 
BRANCH  11  16
ATOM     16  N   UNL A   1      31.841  29.125  25.841  1.00  0.00    -0.257 N 
ATOM     17  C   UNL A   1      32.485  27.230  25.099  1.00  0.00     0.071 C 
ATOM     18  N   UNL A   1      32.401  27.931  26.186  1.00  0.00    -0.176 NA
ATOM     19  C   UNL A   1      32.092  27.927  23.828  1.00  0.00     0.091 C 
ATOM     20  C   UNL A   1      31.677  29.298  24.379  1.00  0.00     0.144 C 
BRANCH  17  21
ATOM     21  C   UNL A   1      32.884  25.813  25.094  1.00  0.00    -0.002 A 
ATOM     22  C   UNL A   1      33.785  23.178  25.054  1.00  0.00     0.067 A 
ATOM     23  C   UNL A   1      34.133  24.040  24.012  1.00  0.00     0.021 A 
ATOM     24  C   UNL A   1      32.979  23.625  26.111  1.00  0.00     0.021 A 
ATOM     25  C   UNL A   1      33.667  25.356  24.026  1.00  0.00     0.011 A 
ATOM     26  C   UNL A   1      32.538  24.952  26.138  1.00  0.00     0.011 A 
BRANCH  22  27
ATOM     27  S   UNL A   1      34.364  21.496  25.069  1.00  0.00     0.175 S 
ATOM     28  C   UNL A   1      33.105  20.528  24.283  1.00  0.00     0.163 C 
ATOM     29  O   UNL A   1      34.415  21.077  26.458  1.00  0.00    -0.224 OA
ATOM     30  O   UNL A   1      35.551  21.463  24.236  1.00  0.00    -0.224 OA
ENDBRANCH  22  27
ENDBRANCH  17  21
BRANCH  20  31
ATOM     31  C   UNL A   1      30.293  29.830  24.022  1.00  0.00    -0.023 A 
ATOM     32  C   UNL A   1      29.875  31.149  24.243  1.00  0.00     0.006 A 
ATOM     33  C   UNL A   1      29.388  28.965  23.371  1.00  0.00     0.006 A 
ATOM     34  C   UNL A   1      28.620  31.589  23.806  1.00  0.00     0.000 A 
ATOM     35  C   UNL A   1      28.161  29.417  22.883  1.00  0.00     0.000 A 
ATOM     36  C   UNL A   1      27.774  30.732  23.105  1.00  0.00     0.000 A 
ENDBRANCH  20  31
ENDBRANCH  11  16
ENDBRANCH   8  10
ENDBRANCH   7   8
ENDBRANCH   6   7
ENDBRANCH   5   6
ENDBRANCH   4   5
ENDBRANCH   3   4
ENDBRANCH   2   3
ENDBRANCH   1   2
BRANCH   1  37
ATOM     37  C   UNL A   1      36.684  34.184  30.176  1.00  0.00     0.188 C 
BRANCH  37  38
ATOM     38  C   UNL A   1      37.731  33.534  29.240  1.00  0.00     0.188 C 
BRANCH  38  39
ATOM     39  O   UNL A   1      37.260  32.415  28.500  1.00  0.00    -0.376 OA
BRANCH  39  40
ATOM     40  C   UNL A   1      37.306  31.131  29.100  1.00  0.00     0.202 C 
BRANCH  40  41
ATOM     41  C   UNL A   1      38.673  30.433  29.130  1.00  0.00     0.261 C 
BRANCH  41  42
ATOM     42  O   UNL A   1      39.331  30.408  30.404  1.00  0.00    -0.460 OA
BRANCH  42  43
ATOM     43  C   UNL A   1      38.930  29.449  31.264  1.00  0.00     0.338 C 
ATOM     44  O   UNL A   1      38.751  28.268  31.006  1.00  0.00    -0.246 OA
BRANCH  43  45
ATOM     45  C   UNL A   1      38.926  30.014  32.627  1.00  0.00     0.060 A 
ATOM     46  C   UNL A   1      37.998  31.018  32.931  1.00  0.00     0.016 A 
ATOM     47  C   UNL A   1      39.848  29.586  33.586  1.00  0.00     0.016 A 
ATOM     48  C   UNL A   1      38.043  31.653  34.169  1.00  0.00     0.010 A 
ATOM     49  C   UNL A   1      39.901  30.235  34.824  1.00  0.00     0.010 A 
ATOM     50  C   UNL A   1      39.036  31.310  35.096  1.00  0.00    -0.014 A 
BRANCH  50  51
ATOM     51  C   UNL A   1      39.329  32.257  36.203  1.00  0.00     0.031 A 
ATOM     52  C   UNL A   1      40.461  33.235  36.010  1.00  0.00     0.074 A 
ATOM     53  C   UNL A   1      38.560  32.315  37.305  1.00  0.00     0.049 A 
ATOM     54  N   UNL A   1      40.907  34.164  36.815  1.00  0.00    -0.248 NA
ATOM     55  C   UNL A   1      41.187  33.151  34.732  1.00  0.00     0.031 C 
ATOM     56  C   UNL A   1      37.407  31.458  37.578  1.00  0.00     0.029 A 
ATOM     57  N   UNL A   1      38.632  33.140  38.400  1.00  0.00    -0.354 N 
ATOM     58  C   UNL A   1      41.953  34.781  36.136  1.00  0.00     0.074 A 
ATOM     59  C   UNL A   1      42.116  34.081  34.883  1.00  0.00     0.031 C 
ATOM     60  C   UNL A   1      36.881  31.801  38.768  1.00  0.00     0.029 A 
ATOM     61  C   UNL A   1      37.679  32.875  39.357  1.00  0.00     0.049 A 
ATOM     62  H   UNL A   1      39.301  33.856  38.491  1.00  0.00     0.167 HD
ATOM     63  C   UNL A   1      42.697  35.849  36.513  1.00  0.00     0.034 A 
ATOM     64  C   UNL A   1      37.491  33.425  40.575  1.00  0.00     0.034 A 
ATOM     65  C   UNL A   1      42.535  36.534  37.770  1.00  0.00     0.049 A 
ATOM     66  C   UNL A   1      38.401  34.552  41.014  1.00  0.00     0.074 A 
ATOM     67  C   UNL A   1      43.248  37.611  38.264  1.00  0.00     0.029 A 
ATOM     68  N   UNL A   1      41.593  36.204  38.737  1.00  0.00    -0.354 N 
ATOM     69  N   UNL A   1      39.391  35.122  40.364  1.00  0.00    -0.248 NA
ATOM     70  C   UNL A   1      38.156  35.122  42.346  1.00  0.00     0.031 C 
ATOM     71  C   UNL A   1      42.786  37.889  39.554  1.00  0.00     0.029 A 
ATOM     72  C   UNL A   1      41.724  37.043  39.833  1.00  0.00     0.049 A 
ATOM     73  H   UNL A   1      40.930  35.481  38.656  1.00  0.00     0.167 HD
ATOM     74  C   UNL A   1      39.857  36.140  41.194  1.00  0.00     0.074 A 
ATOM     75  C   UNL A   1      39.020  36.124  42.376  1.00  0.00     0.031 C 
ATOM     76  C   UNL A   1      40.884  37.010  41.006  1.00  0.00     0.034 A 
BRANCH  63  77
ATOM     77  C   UNL A   1      43.775  36.314  35.564  1.00  0.00     0.023 A 
ATOM     78  C   UNL A   1      43.539  37.332  34.623  1.00  0.00     0.031 A 
ATOM     79  C   UNL A   1      45.050  35.725  35.591  1.00  0.00     0.131 A 
ATOM     80  C   UNL A   1      44.544  37.689  33.711  1.00  0.00     0.055 A 
ATOM     81  C   UNL A   1      46.071  36.139  34.733  1.00  0.00     0.041 A 
ATOM     82  F   UNL A   1      45.325  34.728  36.448  1.00  0.00    -0.206 F 
ATOM     83  C   UNL A   1      45.818  37.120  33.779  1.00  0.00     0.022 A 
BRANCH  80  84
ATOM     84  S   UNL A   1      44.125  38.816  32.354  1.00  0.00     0.124 S 
ATOM     85  O   UNL A   1      45.382  39.537  32.171  1.00  0.00    -0.237 OA
ATOM     86  O   UNL A   1      43.752  37.899  31.284  1.00  0.00    -0.237 OA
ATOM     87  O   UNL A   1      43.030  39.617  32.900  1.00  0.00    -0.744 OA
ENDBRANCH  80  84
ENDBRANCH  63  77
BRANCH  64  88
ATOM     88  C   UNL A   1      36.443  32.899  41.502  1.00  0.00     0.023 A 
ATOM     89  C   UNL A   1      35.157  33.461  41.550  1.00  0.00     0.031 A 
ATOM     90  C   UNL A   1      36.750  31.891  42.435  1.00  0.00     0.131 A 
ATOM     91  C   UNL A   1      34.256  33.070  42.554  1.00  0.00     0.055 A 
ATOM     92  C   UNL A   1      35.827  31.455  43.387  1.00  0.00     0.041 A 
ATOM     93  F   UNL A   1      37.966  31.322  42.445  1.00  0.00    -0.206 F 
ATOM     94  C   UNL A   1      34.578  32.061  43.464  1.00  0.00     0.022 A 
BRANCH  91  95
ATOM     95  S   UNL A   1      32.711  34.003  42.747  1.00  0.00     0.124 S 
ATOM     96  O   UNL A   1      31.720  33.028  42.309  1.00  0.00    -0.237 OA
ATOM     97  O   UNL A   1      32.722  34.312  44.173  1.00  0.00    -0.237 OA
ATOM     98  O   UNL A   1      32.895  35.151  41.860  1.00  0.00    -0.744 OA
ENDBRANCH  91  95
ENDBRANCH  64  88
BRANCH  76  99
ATOM     99  C   UNL A   1      41.116  38.045  42.083  1.00  0.00     0.023 A 
ATOM    100  C   UNL A   1      40.357  39.228  42.150  1.00  0.00     0.031 A 
ATOM    101  C   UNL A   1      42.135  37.863  43.036  1.00  0.00     0.131 A 
ATOM    102  C   UNL A   1      40.685  40.217  43.090  1.00  0.00     0.055 A 
ATOM    103  C   UNL A   1      42.402  38.815  44.020  1.00  0.00     0.041 A 
ATOM    104  F   UNL A   1      42.894  36.755  43.024  1.00  0.00    -0.206 F 
ATOM    105  C   UNL A   1      41.689  40.010  44.038  1.00  0.00     0.022 A 
BRANCH 102 106
ATOM    106  S   UNL A   1      39.874  41.834  42.963  1.00  0.00     0.124 S 
ATOM    107  O   UNL A   1      40.438  42.545  44.105  1.00  0.00    -0.237 OA
ATOM    108  O   UNL A   1      40.305  42.296  41.648  1.00  0.00    -0.237 OA
ATOM    109  O   UNL A   1      38.452  41.514  43.072  1.00  0.00    -0.744 OA
ENDBRANCH 102 106
ENDBRANCH  76  99
ENDBRANCH  50  51
ENDBRANCH  43  45
ENDBRANCH  42  43
ENDBRANCH  41  42
ENDBRANCH  40  41
ENDBRANCH  39  40
ENDBRANCH  38  39
ENDBRANCH  37  38
ENDBRANCH   1  37
TORSDOF 27
ENDMDL
MODEL 3
REMARK VINA RESULT:      -9.4      8.122     13.412
REMARK SMILES CS(=O)(=O)c1ccc(C2=NN(c3ccc(C(=O)OCCOCCOCCOCCOC(=O)c4ccc(-c5c6nc(c(-c7cc(S(=O)(=O)[O-])ccc7F)c7ccc([nH]7)c(-c7cc(S(=O)(=O)[O-])ccc7F)c7nc(c(-c8cc(S(=O)(=O)[O-])ccc8F)c8ccc5[nH]8)C=C7)C=C6)cc4)cc3)[C@H](c3ccccc3)C2)cc1
REMARK SMILES IDX 24 1 23 2 22 3 21 4 20 5 19 6 18 7 16 8 17 9 15 10 12 11
REMARK SMILES IDX 13 12 97 13 14 14 96 15 11 16 9 17 10 18 105 19 98 20 8 21
REMARK SMILES IDX 5 22 6 23 107 24 7 25 106 26 2 27 1 28 3 29 4 30 99 31
REMARK SMILES IDX 100 32 104 33 101 34 103 35 102 36 25 37 26 38 27 39 28 40
REMARK SMILES IDX 29 41 30 42 31 43 32 44 33 45 34 46 95 47 35 48 94 49 36 50
REMARK SMILES IDX 37 51 38 52 88 53 39 54 93 55 87 56 89 57 40 58 92 59 86 60
REMARK SMILES IDX 85 61 41 63 73 64 53 65 72 66 54 67 57 68 71 69 90 70 55 71
REMARK SMILES IDX 56 72 70 74 91 75 58 76 42 77 43 78 51 79 44 80 50 81 52 82
REMARK SMILES IDX 49 83 45 84 46 85 47 86 48 87 74 88 75 89 83 90 76 91 82 92
REMARK SMILES IDX 84 93 81 94 77 95 78 96 79 97 80 98 59 99 60 100 68 101
REMARK SMILES IDX 61 102 67 103 69 104 66 105 62 106 63 107 64 108 65 109
REMARK H PARENT 89 62 57 73
REMARK Flexibility Score: inf
ROOT
ATOM      1  O   UNL A   1      37.180  33.408  31.479  1.00  0.00    -0.377 OA
ENDROOT
BRANCH   1   2
ATOM      2  C   UNL A   1      36.360  34.333  32.167  1.00  0.00     0.188 C 
BRANCH   2   3
ATOM      3  C   UNL A   1      35.169  33.683  32.895  1.00  0.00     0.188 C 
BRANCH   3   4
ATOM      4  O   UNL A   1      33.879  33.910  32.361  1.00  0.00    -0.376 OA
BRANCH   4   5
ATOM      5  C   UNL A   1      33.603  34.887  31.371  1.00  0.00     0.202 C 
BRANCH   5   6
ATOM      6  C   UNL A   1      33.713  34.731  29.841  1.00  0.00     0.261 C 
BRANCH   6   7
ATOM      7  O   UNL A   1      33.614  33.424  29.290  1.00  0.00    -0.460 OA
BRANCH   7   8
ATOM      8  C   UNL A   1      34.008  33.258  28.014  1.00  0.00     0.338 C 
ATOM      9  O   UNL A   1      34.910  33.845  27.440  1.00  0.00    -0.246 OA
BRANCH   8  10
ATOM     10  C   UNL A   1      33.279  32.091  27.460  1.00  0.00     0.060 A 
ATOM     11  C   UNL A   1      31.996  29.844  26.374  1.00  0.00     0.060 A 
ATOM     12  C   UNL A   1      33.216  29.704  27.049  1.00  0.00     0.029 A 
ATOM     13  C   UNL A   1      31.367  31.096  26.371  1.00  0.00     0.029 A 
ATOM     14  C   UNL A   1      33.860  30.824  27.582  1.00  0.00     0.018 A 
ATOM     15  C   UNL A   1      32.008  32.221  26.889  1.00  0.00     0.018 A 
BRANCH  11  16
ATOM     16  N   UNL A   1      31.478  28.814  25.575  1.00  0.00    -0.257 N 
ATOM     17  C   UNL A   1      31.789  26.890  24.705  1.00  0.00     0.071 C 
ATOM     18  N   UNL A   1      31.843  27.526  25.833  1.00  0.00    -0.176 NA
ATOM     19  C   UNL A   1      31.488  27.719  23.490  1.00  0.00     0.091 C 
ATOM     20  C   UNL A   1      31.314  29.101  24.132  1.00  0.00     0.144 C 
BRANCH  17  21
ATOM     21  C   UNL A   1      31.951  25.430  24.605  1.00  0.00    -0.002 A 
ATOM     22  C   UNL A   1      32.406  22.686  24.462  1.00  0.00     0.067 A 
ATOM     23  C   UNL A   1      33.306  23.565  23.855  1.00  0.00     0.021 A 
ATOM     24  C   UNL A   1      31.274  23.173  25.131  1.00  0.00     0.021 A 
ATOM     25  C   UNL A   1      33.066  24.940  23.915  1.00  0.00     0.011 A 
ATOM     26  C   UNL A   1      31.053  24.551  25.215  1.00  0.00     0.011 A 
BRANCH  22  27
ATOM     27  S   UNL A   1      32.682  20.929  24.407  1.00  0.00     0.175 S 
ATOM     28  C   UNL A   1      32.156  20.391  22.803  1.00  0.00     0.163 C 
ATOM     29  O   UNL A   1      31.779  20.328  25.373  1.00  0.00    -0.224 OA
ATOM     30  O   UNL A   1      34.116  20.735  24.507  1.00  0.00    -0.224 OA
ENDBRANCH  22  27
ENDBRANCH  17  21
BRANCH  20  31
ATOM     31  C   UNL A   1      30.028  29.872  23.849  1.00  0.00    -0.023 A 
ATOM     32  C   UNL A   1      29.861  31.242  24.088  1.00  0.00     0.006 A 
ATOM     33  C   UNL A   1      28.951  29.183  23.251  1.00  0.00     0.006 A 
ATOM     34  C   UNL A   1      28.681  31.899  23.719  1.00  0.00     0.000 A 
ATOM     35  C   UNL A   1      27.797  29.848  22.830  1.00  0.00     0.000 A 
ATOM     36  C   UNL A   1      27.661  31.209  23.068  1.00  0.00     0.000 A 
ENDBRANCH  20  31
ENDBRANCH  11  16
ENDBRANCH   8  10
ENDBRANCH   7   8
ENDBRANCH   6   7
ENDBRANCH   5   6
ENDBRANCH   4   5
ENDBRANCH   3   4
ENDBRANCH   2   3
ENDBRANCH   1   2
BRANCH   1  37
ATOM     37  C   UNL A   1      37.464  33.660  30.104  1.00  0.00     0.188 C 
BRANCH  37  38
ATOM     38  C   UNL A   1      37.837  32.514  29.134  1.00  0.00     0.188 C 
BRANCH  38  39
ATOM     39  O   UNL A   1      36.909  31.437  29.094  1.00  0.00    -0.376 OA
BRANCH  39  40
ATOM     40  C   UNL A   1      36.371  30.953  30.313  1.00  0.00     0.202 C 
BRANCH  40  41
ATOM     41  C   UNL A   1      36.558  29.456  30.603  1.00  0.00     0.261 C 
BRANCH  41  42
ATOM     42  O   UNL A   1      37.823  29.085  31.166  1.00  0.00    -0.460 OA
BRANCH  42  43
ATOM     43  C   UNL A   1      37.865  28.951  32.507  1.00  0.00     0.338 C 
ATOM     44  O   UNL A   1      37.398  28.030  33.162  1.00  0.00    -0.246 OA
BRANCH  43  45
ATOM     45  C   UNL A   1      38.738  30.006  33.057  1.00  0.00     0.060 A 
ATOM     46  C   UNL A   1      38.149  31.191  33.510  1.00  0.00     0.016 A 
ATOM     47  C   UNL A   1      40.126  29.843  33.092  1.00  0.00     0.016 A 
ATOM     48  C   UNL A   1      38.951  32.251  33.926  1.00  0.00     0.010 A 
ATOM     49  C   UNL A   1      40.932  30.913  33.496  1.00  0.00     0.010 A 
ATOM     50  C   UNL A   1      40.347  32.140  33.858  1.00  0.00    -0.014 A 
BRANCH  50  51
ATOM     51  C   UNL A   1      41.159  33.384  33.898  1.00  0.00     0.031 A 
ATOM     52  C   UNL A   1      41.674  33.928  32.589  1.00  0.00     0.074 A 
ATOM     53  C   UNL A   1      41.355  34.063  35.042  1.00  0.00     0.049 A 
ATOM     54  N   UNL A   1      42.392  34.996  32.354  1.00  0.00    -0.248 NA
ATOM     55  C   UNL A   1      41.331  33.159  31.380  1.00  0.00     0.031 C 
ATOM     56  C   UNL A   1      40.859  33.664  36.358  1.00  0.00     0.029 A 
ATOM     57  N   UNL A   1      42.021  35.241  35.276  1.00  0.00    -0.354 N 
ATOM     58  C   UNL A   1      42.573  35.033  30.975  1.00  0.00     0.074 A 
ATOM     59  C   UNL A   1      41.946  33.850  30.434  1.00  0.00     0.031 C 
ATOM     60  C   UNL A   1      41.243  34.581  37.265  1.00  0.00     0.029 A 
ATOM     61  C   UNL A   1      42.040  35.612  36.601  1.00  0.00     0.049 A 
ATOM     62  H   UNL A   1      42.444  35.770  34.563  1.00  0.00     0.167 HD
ATOM     63  C   UNL A   1      43.187  35.979  30.224  1.00  0.00     0.034 A 
ATOM     64  C   UNL A   1      42.650  36.653  37.206  1.00  0.00     0.034 A 
ATOM     65  C   UNL A   1      43.820  37.151  30.775  1.00  0.00     0.049 A 
ATOM     66  C   UNL A   1      43.415  37.644  36.355  1.00  0.00     0.074 A 
ATOM     67  C   UNL A   1      44.491  38.162  30.111  1.00  0.00     0.029 A 
ATOM     68  N   UNL A   1      43.864  37.467  32.127  1.00  0.00    -0.354 N 
ATOM     69  N   UNL A   1      43.583  37.664  35.051  1.00  0.00    -0.248 NA
ATOM     70  C   UNL A   1      44.058  38.763  37.056  1.00  0.00     0.031 C 
ATOM     71  C   UNL A   1      44.999  39.051  31.063  1.00  0.00     0.029 A 
ATOM     72  C   UNL A   1      44.571  38.645  32.317  1.00  0.00     0.049 A 
ATOM     73  H   UNL A   1      43.454  36.934  32.845  1.00  0.00     0.167 HD
ATOM     74  C   UNL A   1      44.317  38.816  34.779  1.00  0.00     0.074 A 
ATOM     75  C   UNL A   1      44.532  39.478  36.049  1.00  0.00     0.031 C 
ATOM     76  C   UNL A   1      44.779  39.289  33.591  1.00  0.00     0.034 A 
BRANCH  63  77
ATOM     77  C   UNL A   1      43.230  35.762  28.732  1.00  0.00     0.023 A 
ATOM     78  C   UNL A   1      44.114  34.838  28.147  1.00  0.00     0.031 A 
ATOM     79  C   UNL A   1      42.387  36.495  27.881  1.00  0.00     0.131 A 
ATOM     80  C   UNL A   1      44.173  34.713  26.750  1.00  0.00     0.055 A 
ATOM     81  C   UNL A   1      42.395  36.310  26.497  1.00  0.00     0.041 A 
ATOM     82  F   UNL A   1      41.542  37.413  28.379  1.00  0.00    -0.206 F 
ATOM     83  C   UNL A   1      43.300  35.422  25.923  1.00  0.00     0.022 A 
BRANCH  80  84
ATOM     84  S   UNL A   1      45.496  33.706  26.024  1.00  0.00     0.124 S 
ATOM     85  O   UNL A   1      46.372  33.497  27.174  1.00  0.00    -0.237 OA
ATOM     86  O   UNL A   1      44.774  32.532  25.549  1.00  0.00    -0.237 OA
ATOM     87  O   UNL A   1      46.046  34.567  24.979  1.00  0.00    -0.744 OA
ENDBRANCH  80  84
ENDBRANCH  63  77
BRANCH  64  88
ATOM     88  C   UNL A   1      42.622  36.802  38.693  1.00  0.00     0.023 A 
ATOM     89  C   UNL A   1      41.624  37.552  39.337  1.00  0.00     0.031 A 
ATOM     90  C   UNL A   1      43.663  36.283  39.485  1.00  0.00     0.131 A 
ATOM     91  C   UNL A   1      41.728  37.827  40.710  1.00  0.00     0.055 A 
ATOM     92  C   UNL A   1      43.723  36.499  40.864  1.00  0.00     0.041 A 
ATOM     93  F   UNL A   1      44.650  35.566  38.926  1.00  0.00    -0.206 F 
ATOM     94  C   UNL A   1      42.763  37.293  41.480  1.00  0.00     0.022 A 
BRANCH  91  95
ATOM     95  S   UNL A   1      40.571  39.013  41.449  1.00  0.00     0.124 S 
ATOM     96  O   UNL A   1      40.823  38.826  42.873  1.00  0.00    -0.237 OA
ATOM     97  O   UNL A   1      41.026  40.275  40.876  1.00  0.00    -0.237 OA
ATOM     98  O   UNL A   1      39.265  38.552  40.980  1.00  0.00    -0.744 OA
ENDBRANCH  91  95
ENDBRANCH  64  88
BRANCH  76  99
ATOM     99  C   UNL A   1      45.513  40.611  33.614  1.00  0.00     0.023 A 
ATOM    100  C   UNL A   1      46.903  40.683  33.820  1.00  0.00     0.031 A 
ATOM    101  C   UNL A   1      44.808  41.819  33.465  1.00  0.00     0.131 A 
ATOM    102  C   UNL A   1      47.527  41.932  33.957  1.00  0.00     0.055 A 
ATOM    103  C   UNL A   1      45.448  43.057  33.519  1.00  0.00     0.041 A 
ATOM    104  F   UNL A   1      43.480  41.816  33.265  1.00  0.00    -0.206 F 
ATOM    105  C   UNL A   1      46.812  43.120  33.788  1.00  0.00     0.022 A 
BRANCH 102 106
ATOM    106  S   UNL A   1      49.257  41.981  34.499  1.00  0.00     0.124 S 
ATOM    107  O   UNL A   1      49.273  40.967  35.548  1.00  0.00    -0.237 OA
ATOM    108  O   UNL A   1      49.976  41.643  33.275  1.00  0.00    -0.237 OA
ATOM    109  O   UNL A   1      49.432  43.357  34.961  1.00  0.00    -0.744 OA
ENDBRANCH 102 106
ENDBRANCH  76  99
ENDBRANCH  50  51
ENDBRANCH  43  45
ENDBRANCH  42  43
ENDBRANCH  41  42
ENDBRANCH  40  41
ENDBRANCH  39  40
ENDBRANCH  38  39
ENDBRANCH  37  38
ENDBRANCH   1  37
TORSDOF 27
ENDMDL
