MODEL 1
REMARK VINA RESULT:      -7.1      0.000      0.000
REMARK SMILES C[C@H]1Cc2cc(C(=O)[C@H](Br)CC(=O)OCCOCCOCCOCCOC(=O)c3ccc(-c4c5nc(c(-c6cc(S(=O)(=O)[O-])ccc6F)c6ccc([nH]6)c(-c6cc(S(=O)(=O)[O-])ccc6F)c6nc(c(-c7cc(S(=O)(=O)[O-])ccc7F)c7ccc4[nH]7)C=C6)C=C5)cc3)ccc2O1
REMARK SMILES IDX 20 1 19 2 18 3 17 4 16 5 15 6 14 7 12 8 13 9 11 10 9 11
REMARK SMILES IDX 10 12 7 13 8 14 6 15 1 16 2 17 3 18 95 19 4 20 94 21 5 22
REMARK SMILES IDX 93 23 92 24 21 25 22 26 23 27 24 28 25 29 26 30 27 31 28 32
REMARK SMILES IDX 29 33 30 34 91 35 31 36 90 37 32 38 33 39 34 40 84 41 35 42
REMARK SMILES IDX 89 43 83 44 85 45 36 46 88 47 82 48 81 49 37 51 69 52 49 53
REMARK SMILES IDX 68 54 50 55 53 56 67 57 86 58 51 59 52 60 66 62 87 63 54 64
REMARK SMILES IDX 38 65 39 66 47 67 40 68 46 69 48 70 45 71 41 72 42 73 43 74
REMARK SMILES IDX 44 75 70 76 71 77 79 78 72 79 78 80 80 81 77 82 73 83 74 84
REMARK SMILES IDX 75 85 76 86 55 87 56 88 64 89 57 90 63 91 65 92 62 93 58 94
REMARK SMILES IDX 59 95 60 96 61 97
REMARK H PARENT 85 50 53 61
REMARK Flexibility Score: inf
ROOT
ATOM      1  O   UNL A   1      39.708  27.404  30.183  1.00  0.00    -0.377 OA
ENDROOT
BRANCH   1   2
ATOM      2  C   UNL A   1      40.030  27.304  28.812  1.00  0.00     0.188 C 
BRANCH   2   3
ATOM      3  C   UNL A   1      40.220  28.622  28.048  1.00  0.00     0.188 C 
BRANCH   3   4
ATOM      4  O   UNL A   1      39.104  29.433  27.749  1.00  0.00    -0.376 OA
BRANCH   4   5
ATOM      5  C   UNL A   1      37.778  28.947  27.931  1.00  0.00     0.202 C 
BRANCH   5   6
ATOM      6  C   UNL A   1      36.588  29.850  28.300  1.00  0.00     0.261 C 
BRANCH   6   7
ATOM      7  O   UNL A   1      35.676  30.166  27.230  1.00  0.00    -0.463 OA
BRANCH   7   8
ATOM      8  C   UNL A   1      34.590  30.886  27.580  1.00  0.00     0.307 C 
ATOM      9  O   UNL A   1      34.639  31.987  28.124  1.00  0.00    -0.252 OA
BRANCH   8  10
ATOM     10  C   UNL A   1      33.259  30.328  27.138  1.00  0.00     0.146 C 
BRANCH  10  11
ATOM     11  C   UNL A   1      33.018  28.854  26.852  1.00  0.00     0.140 C 
ATOM     12  Br  UNL A   1      31.437  28.198  27.802  1.00  0.00    -0.080 Br
BRANCH  11  13
ATOM     13  C   UNL A   1      32.673  28.748  25.366  1.00  0.00     0.177 C 
ATOM     14  O   UNL A   1      32.057  29.658  24.797  1.00  0.00    -0.293 OA
BRANCH  13  15
ATOM     15  C   UNL A   1      33.128  27.605  24.503  1.00  0.00     0.019 A 
ATOM     16  C   UNL A   1      36.324  22.880  23.401  1.00  0.00     0.053 C 
ATOM     17  C   UNL A   1      34.912  23.382  23.679  1.00  0.00     0.174 C 
ATOM     18  C   UNL A   1      34.845  24.210  24.972  1.00  0.00     0.084 C 
ATOM     19  O   UNL A   1      34.458  24.186  22.552  1.00  0.00    -0.490 OA
ATOM     20  C   UNL A   1      34.161  25.419  24.471  1.00  0.00    -0.001 A 
ATOM     21  C   UNL A   1      33.976  25.340  23.109  1.00  0.00     0.123 A 
ATOM     22  C   UNL A   1      33.750  26.536  25.179  1.00  0.00     0.019 A 
ATOM     23  C   UNL A   1      33.368  26.366  22.408  1.00  0.00     0.047 A 
ATOM     24  C   UNL A   1      32.938  27.510  23.111  1.00  0.00     0.015 A 
ENDBRANCH  13  15
ENDBRANCH  11  13
ENDBRANCH  10  11
ENDBRANCH   8  10
ENDBRANCH   7   8
ENDBRANCH   6   7
ENDBRANCH   5   6
ENDBRANCH   4   5
ENDBRANCH   3   4
ENDBRANCH   2   3
ENDBRANCH   1   2
BRANCH   1  25
ATOM     25  C   UNL A   1      39.917  28.633  30.874  1.00  0.00     0.188 C 
BRANCH  25  26
ATOM     26  C   UNL A   1      38.723  29.484  31.351  1.00  0.00     0.188 C 
BRANCH  26  27
ATOM     27  O   UNL A   1      39.093  30.672  32.039  1.00  0.00    -0.376 OA
BRANCH  27  28
ATOM     28  C   UNL A   1      38.503  30.916  33.307  1.00  0.00     0.202 C 
BRANCH  28  29
ATOM     29  C   UNL A   1      38.821  32.269  33.960  1.00  0.00     0.261 C 
BRANCH  29  30
ATOM     30  O   UNL A   1      40.203  32.659  33.987  1.00  0.00    -0.460 OA
BRANCH  30  31
ATOM     31  C   UNL A   1      40.619  33.649  33.164  1.00  0.00     0.338 C 
ATOM     32  O   UNL A   1      40.273  34.815  33.190  1.00  0.00    -0.246 OA
BRANCH  31  33
ATOM     33  C   UNL A   1      41.736  33.107  32.361  1.00  0.00     0.060 A 
ATOM     34  C   UNL A   1      42.952  32.785  32.968  1.00  0.00     0.016 A 
ATOM     35  C   UNL A   1      41.572  32.949  30.978  1.00  0.00     0.016 A 
ATOM     36  C   UNL A   1      43.996  32.273  32.194  1.00  0.00     0.010 A 
ATOM     37  C   UNL A   1      42.620  32.441  30.204  1.00  0.00     0.010 A 
ATOM     38  C   UNL A   1      43.831  32.076  30.810  1.00  0.00    -0.014 A 
BRANCH  38  39
ATOM     39  C   UNL A   1      44.845  31.291  30.057  1.00  0.00     0.031 A 
ATOM     40  C   UNL A   1      44.673  29.839  29.739  1.00  0.00     0.074 A 
ATOM     41  C   UNL A   1      45.967  31.933  29.678  1.00  0.00     0.049 A 
ATOM     42  N   UNL A   1      45.436  29.070  29.006  1.00  0.00    -0.248 NA
ATOM     43  C   UNL A   1      43.509  29.157  30.320  1.00  0.00     0.031 C 
ATOM     44  C   UNL A   1      46.265  33.332  29.990  1.00  0.00     0.029 A 
ATOM     45  N   UNL A   1      47.057  31.510  28.961  1.00  0.00    -0.354 N 
ATOM     46  C   UNL A   1      44.846  27.812  29.024  1.00  0.00     0.074 A 
ATOM     47  C   UNL A   1      43.681  27.914  29.879  1.00  0.00     0.031 C 
ATOM     48  C   UNL A   1      47.445  33.658  29.449  1.00  0.00     0.029 A 
ATOM     49  C   UNL A   1      48.008  32.486  28.779  1.00  0.00     0.049 A 
ATOM     50  H   UNL A   1      47.149  30.595  28.609  1.00  0.00     0.167 HD
ATOM     51  C   UNL A   1      45.239  26.691  28.371  1.00  0.00     0.034 A 
ATOM     52  C   UNL A   1      49.198  32.456  28.145  1.00  0.00     0.034 A 
ATOM     53  C   UNL A   1      46.412  26.616  27.529  1.00  0.00     0.049 A 
ATOM     54  C   UNL A   1      49.609  31.201  27.423  1.00  0.00     0.074 A 
ATOM     55  C   UNL A   1      46.836  25.548  26.756  1.00  0.00     0.029 A 
ATOM     56  N   UNL A   1      47.352  27.623  27.360  1.00  0.00    -0.354 N 
ATOM     57  N   UNL A   1      48.966  30.062  27.326  1.00  0.00    -0.248 NA
ATOM     58  C   UNL A   1      50.892  31.226  26.707  1.00  0.00     0.031 C 
ATOM     59  C   UNL A   1      48.073  25.872  26.199  1.00  0.00     0.029 A 
ATOM     60  C   UNL A   1      48.379  27.181  26.537  1.00  0.00     0.049 A 
ATOM     61  H   UNL A   1      47.298  28.519  27.765  1.00  0.00     0.167 HD
ATOM     62  C   UNL A   1      49.754  29.242  26.523  1.00  0.00     0.074 A 
ATOM     63  C   UNL A   1      50.908  30.027  26.138  1.00  0.00     0.031 C 
ATOM     64  C   UNL A   1      49.534  27.957  26.146  1.00  0.00     0.034 A 
BRANCH  51  65
ATOM     65  C   UNL A   1      44.406  25.436  28.499  1.00  0.00     0.023 A 
ATOM     66  C   UNL A   1      43.306  25.230  27.643  1.00  0.00     0.031 A 
ATOM     67  C   UNL A   1      44.588  24.541  29.569  1.00  0.00     0.131 A 
ATOM     68  C   UNL A   1      42.407  24.186  27.898  1.00  0.00     0.055 A 
ATOM     69  C   UNL A   1      43.715  23.474  29.792  1.00  0.00     0.041 A 
ATOM     70  F   UNL A   1      45.612  24.699  30.423  1.00  0.00    -0.206 F 
ATOM     71  C   UNL A   1      42.610  23.303  28.964  1.00  0.00     0.022 A 
BRANCH  68  72
ATOM     72  S   UNL A   1      40.894  23.987  26.918  1.00  0.00     0.124 S 
ATOM     73  O   UNL A   1      41.203  22.796  26.130  1.00  0.00    -0.237 OA
ATOM     74  O   UNL A   1      39.879  23.805  27.952  1.00  0.00    -0.237 OA
ATOM     75  O   UNL A   1      40.803  25.227  26.155  1.00  0.00    -0.744 OA
ENDBRANCH  68  72
ENDBRANCH  51  65
BRANCH  52  76
ATOM     76  C   UNL A   1      50.023  33.698  28.125  1.00  0.00     0.023 A 
ATOM     77  C   UNL A   1      49.826  34.671  27.128  1.00  0.00     0.031 A 
ATOM     78  C   UNL A   1      51.113  33.853  28.996  1.00  0.00     0.131 A 
ATOM     79  C   UNL A   1      50.759  35.702  26.969  1.00  0.00     0.055 A 
ATOM     80  C   UNL A   1      51.994  34.932  28.885  1.00  0.00     0.041 A 
ATOM     81  F   UNL A   1      51.352  32.942  29.952  1.00  0.00    -0.206 F 
ATOM     82  C   UNL A   1      51.832  35.850  27.852  1.00  0.00     0.022 A 
BRANCH  79  83
ATOM     83  S   UNL A   1      50.700  36.787  25.515  1.00  0.00     0.124 S 
ATOM     84  O   UNL A   1      51.893  37.608  25.697  1.00  0.00    -0.237 OA
ATOM     85  O   UNL A   1      50.762  35.819  24.423  1.00  0.00    -0.237 OA
ATOM     86  O   UNL A   1      49.425  37.484  25.654  1.00  0.00    -0.744 OA
ENDBRANCH  79  83
ENDBRANCH  52  76
BRANCH  64  87
ATOM     87  C   UNL A   1      50.557  27.268  25.268  1.00  0.00     0.023 A 
ATOM     88  C   UNL A   1      51.710  26.699  25.843  1.00  0.00     0.031 A 
ATOM     89  C   UNL A   1      50.474  27.321  23.865  1.00  0.00     0.131 A 
ATOM     90  C   UNL A   1      52.757  26.257  25.022  1.00  0.00     0.055 A 
ATOM     91  C   UNL A   1      51.494  26.825  23.050  1.00  0.00     0.041 A 
ATOM     92  F   UNL A   1      49.402  27.861  23.264  1.00  0.00    -0.206 F 
ATOM     93  C   UNL A   1      52.650  26.307  23.629  1.00  0.00     0.022 A 
BRANCH  90  94
ATOM     94  S   UNL A   1      54.332  25.697  25.729  1.00  0.00     0.124 S 
ATOM     95  O   UNL A   1      54.545  24.433  25.027  1.00  0.00    -0.237 OA
ATOM     96  O   UNL A   1      55.238  26.779  25.355  1.00  0.00    -0.237 OA
ATOM     97  O   UNL A   1      54.053  25.574  27.156  1.00  0.00    -0.744 OA
ENDBRANCH  90  94
ENDBRANCH  64  87
ENDBRANCH  38  39
ENDBRANCH  31  33
ENDBRANCH  30  31
ENDBRANCH  29  30
ENDBRANCH  28  29
ENDBRANCH  27  28
ENDBRANCH  26  27
ENDBRANCH  25  26
ENDBRANCH   1  25
TORSDOF 26
ENDMDL
MODEL 2
REMARK VINA RESULT:      -7.0      7.902     13.621
REMARK SMILES C[C@H]1Cc2cc(C(=O)[C@H](Br)CC(=O)OCCOCCOCCOCCOC(=O)c3ccc(-c4c5nc(c(-c6cc(S(=O)(=O)[O-])ccc6F)c6ccc([nH]6)c(-c6cc(S(=O)(=O)[O-])ccc6F)c6nc(c(-c7cc(S(=O)(=O)[O-])ccc7F)c7ccc4[nH]7)C=C6)C=C5)cc3)ccc2O1
REMARK SMILES IDX 20 1 19 2 18 3 17 4 16 5 15 6 14 7 12 8 13 9 11 10 9 11
REMARK SMILES IDX 10 12 7 13 8 14 6 15 1 16 2 17 3 18 95 19 4 20 94 21 5 22
REMARK SMILES IDX 93 23 92 24 21 25 22 26 23 27 24 28 25 29 26 30 27 31 28 32
REMARK SMILES IDX 29 33 30 34 91 35 31 36 90 37 32 38 33 39 34 40 84 41 35 42
REMARK SMILES IDX 89 43 83 44 85 45 36 46 88 47 82 48 81 49 37 51 69 52 49 53
REMARK SMILES IDX 68 54 50 55 53 56 67 57 86 58 51 59 52 60 66 62 87 63 54 64
REMARK SMILES IDX 38 65 39 66 47 67 40 68 46 69 48 70 45 71 41 72 42 73 43 74
REMARK SMILES IDX 44 75 70 76 71 77 79 78 72 79 78 80 80 81 77 82 73 83 74 84
REMARK SMILES IDX 75 85 76 86 55 87 56 88 64 89 57 90 63 91 65 92 62 93 58 94
REMARK SMILES IDX 59 95 60 96 61 97
REMARK H PARENT 85 50 53 61
REMARK Flexibility Score: inf
ROOT
ATOM      1  O   UNL A   1      46.075  39.471  28.479  1.00  0.00    -0.377 OA
ENDROOT
BRANCH   1   2
ATOM      2  C   UNL A   1      45.382  39.347  27.256  1.00  0.00     0.188 C 
BRANCH   2   3
ATOM      3  C   UNL A   1      44.053  40.104  27.133  1.00  0.00     0.188 C 
BRANCH   3   4
ATOM      4  O   UNL A   1      43.364  40.127  25.901  1.00  0.00    -0.376 OA
BRANCH   4   5
ATOM      5  C   UNL A   1      42.705  41.308  25.455  1.00  0.00     0.202 C 
BRANCH   5   6
ATOM      6  C   UNL A   1      43.450  42.546  24.924  1.00  0.00     0.261 C 
BRANCH   6   7
ATOM      7  O   UNL A   1      44.154  42.377  23.679  1.00  0.00    -0.463 OA
BRANCH   7   8
ATOM      8  C   UNL A   1      43.451  42.667  22.565  1.00  0.00     0.307 C 
ATOM      9  O   UNL A   1      42.559  41.955  22.109  1.00  0.00    -0.252 OA
BRANCH   8  10
ATOM     10  C   UNL A   1      43.716  44.019  21.951  1.00  0.00     0.146 C 
BRANCH  10  11
ATOM     11  C   UNL A   1      44.545  44.224  20.692  1.00  0.00     0.140 C 
ATOM     12  Br  UNL A   1      45.681  42.670  20.332  1.00  0.00    -0.080 Br
BRANCH  11  13
ATOM     13  C   UNL A   1      43.559  44.286  19.524  1.00  0.00     0.177 C 
ATOM     14  O   UNL A   1      42.804  43.335  19.288  1.00  0.00    -0.293 OA
BRANCH  13  15
ATOM     15  C   UNL A   1      43.383  45.511  18.671  1.00  0.00     0.019 A 
ATOM     16  C   UNL A   1      44.671  50.937  17.045  1.00  0.00     0.053 C 
ATOM     17  C   UNL A   1      44.745  49.472  16.633  1.00  0.00     0.174 C 
ATOM     18  C   UNL A   1      45.423  48.611  17.711  1.00  0.00     0.084 C 
ATOM     19  O   UNL A   1      43.399  48.976  16.379  1.00  0.00    -0.490 OA
ATOM     20  C   UNL A   1      44.417  47.540  17.859  1.00  0.00    -0.001 A 
ATOM     21  C   UNL A   1      43.310  47.808  17.086  1.00  0.00     0.123 A 
ATOM     22  C   UNL A   1      44.471  46.407  18.653  1.00  0.00     0.019 A 
ATOM     23  C   UNL A   1      42.222  46.953  17.073  1.00  0.00     0.047 A 
ATOM     24  C   UNL A   1      42.259  45.791  17.872  1.00  0.00     0.015 A 
ENDBRANCH  13  15
ENDBRANCH  11  13
ENDBRANCH  10  11
ENDBRANCH   8  10
ENDBRANCH   7   8
ENDBRANCH   6   7
ENDBRANCH   5   6
ENDBRANCH   4   5
ENDBRANCH   3   4
ENDBRANCH   2   3
ENDBRANCH   1   2
BRANCH   1  25
ATOM     25  C   UNL A   1      46.843  40.643  28.745  1.00  0.00     0.188 C 
BRANCH  25  26
ATOM     26  C   UNL A   1      46.296  42.041  28.393  1.00  0.00     0.188 C 
BRANCH  26  27
ATOM     27  O   UNL A   1      46.399  42.989  29.448  1.00  0.00    -0.376 OA
BRANCH  27  28
ATOM     28  C   UNL A   1      45.246  43.226  30.242  1.00  0.00     0.202 C 
BRANCH  28  29
ATOM     29  C   UNL A   1      45.232  42.581  31.636  1.00  0.00     0.261 C 
BRANCH  29  30
ATOM     30  O   UNL A   1      44.263  41.543  31.852  1.00  0.00    -0.460 OA
BRANCH  30  31
ATOM     31  C   UNL A   1      44.488  40.630  32.823  1.00  0.00     0.338 C 
ATOM     32  O   UNL A   1      44.680  40.851  34.004  1.00  0.00    -0.246 OA
BRANCH  31  33
ATOM     33  C   UNL A   1      44.246  39.296  32.232  1.00  0.00     0.060 A 
ATOM     34  C   UNL A   1      43.592  39.176  31.004  1.00  0.00     0.016 A 
ATOM     35  C   UNL A   1      44.654  38.152  32.932  1.00  0.00     0.016 A 
ATOM     36  C   UNL A   1      43.374  37.908  30.460  1.00  0.00     0.010 A 
ATOM     37  C   UNL A   1      44.429  36.883  32.387  1.00  0.00     0.010 A 
ATOM     38  C   UNL A   1      43.809  36.753  31.136  1.00  0.00    -0.014 A 
BRANCH  38  39
ATOM     39  C   UNL A   1      43.808  35.447  30.428  1.00  0.00     0.031 A 
ATOM     40  C   UNL A   1      44.902  35.028  29.497  1.00  0.00     0.074 A 
ATOM     41  C   UNL A   1      42.753  34.634  30.631  1.00  0.00     0.049 A 
ATOM     42  N   UNL A   1      45.066  33.876  28.897  1.00  0.00    -0.248 NA
ATOM     43  C   UNL A   1      45.939  36.022  29.188  1.00  0.00     0.031 C 
ATOM     44  C   UNL A   1      41.601  34.969  31.470  1.00  0.00     0.029 A 
ATOM     45  N   UNL A   1      42.470  33.377  30.160  1.00  0.00    -0.354 N 
ATOM     46  C   UNL A   1      46.228  33.996  28.146  1.00  0.00     0.074 A 
ATOM     47  C   UNL A   1      46.705  35.351  28.334  1.00  0.00     0.031 C 
ATOM     48  C   UNL A   1      40.748  33.937  31.473  1.00  0.00     0.029 A 
ATOM     49  C   UNL A   1      41.271  32.878  30.612  1.00  0.00     0.049 A 
ATOM     50  H   UNL A   1      43.069  32.880  29.557  1.00  0.00     0.167 HD
ATOM     51  C   UNL A   1      46.838  33.052  27.388  1.00  0.00     0.034 A 
ATOM     52  C   UNL A   1      40.655  31.703  30.371  1.00  0.00     0.034 A 
ATOM     53  C   UNL A   1      46.336  31.708  27.212  1.00  0.00     0.049 A 
ATOM     54  C   UNL A   1      41.355  30.669  29.531  1.00  0.00     0.074 A 
ATOM     55  C   UNL A   1      46.935  30.657  26.538  1.00  0.00     0.029 A 
ATOM     56  N   UNL A   1      45.122  31.230  27.687  1.00  0.00    -0.354 N 
ATOM     57  N   UNL A   1      42.528  30.743  28.947  1.00  0.00    -0.248 NA
ATOM     58  C   UNL A   1      40.668  29.385  29.332  1.00  0.00     0.031 C 
ATOM     59  C   UNL A   1      46.048  29.581  26.522  1.00  0.00     0.029 A 
ATOM     60  C   UNL A   1      44.934  29.918  27.274  1.00  0.00     0.049 A 
ATOM     61  H   UNL A   1      44.487  31.746  28.234  1.00  0.00     0.167 HD
ATOM     62  C   UNL A   1      42.728  29.512  28.328  1.00  0.00     0.074 A 
ATOM     63  C   UNL A   1      41.567  28.702  28.634  1.00  0.00     0.031 C 
ATOM     64  C   UNL A   1      43.780  29.101  27.575  1.00  0.00     0.034 A 
BRANCH  51  65
ATOM     65  C   UNL A   1      48.135  33.394  26.691  1.00  0.00     0.023 A 
ATOM     66  C   UNL A   1      49.356  32.892  27.187  1.00  0.00     0.031 A 
ATOM     67  C   UNL A   1      48.184  34.348  25.659  1.00  0.00     0.131 A 
ATOM     68  C   UNL A   1      50.569  33.380  26.682  1.00  0.00     0.055 A 
ATOM     69  C   UNL A   1      49.394  34.796  25.127  1.00  0.00     0.041 A 
ATOM     70  F   UNL A   1      47.051  34.870  25.159  1.00  0.00    -0.206 F 
ATOM     71  C   UNL A   1      50.594  34.323  25.651  1.00  0.00     0.022 A 
BRANCH  68  72
ATOM     72  S   UNL A   1      52.156  32.879  27.404  1.00  0.00     0.124 S 
ATOM     73  O   UNL A   1      52.615  34.126  28.011  1.00  0.00    -0.237 OA
ATOM     74  O   UNL A   1      51.751  31.838  28.344  1.00  0.00    -0.237 OA
ATOM     75  O   UNL A   1      52.936  32.426  26.257  1.00  0.00    -0.744 OA
ENDBRANCH  68  72
ENDBRANCH  51  65
BRANCH  52  76
ATOM     76  C   UNL A   1      39.332  31.451  31.012  1.00  0.00     0.023 A 
ATOM     77  C   UNL A   1      38.161  32.025  30.484  1.00  0.00     0.031 A 
ATOM     78  C   UNL A   1      39.243  30.772  32.238  1.00  0.00     0.131 A 
ATOM     79  C   UNL A   1      36.974  31.991  31.226  1.00  0.00     0.055 A 
ATOM     80  C   UNL A   1      38.036  30.669  32.934  1.00  0.00     0.041 A 
ATOM     81  F   UNL A   1      40.336  30.223  32.790  1.00  0.00    -0.206 F 
ATOM     82  C   UNL A   1      36.899  31.300  32.439  1.00  0.00     0.022 A 
BRANCH  79  83
ATOM     83  S   UNL A   1      35.538  32.976  30.719  1.00  0.00     0.124 S 
ATOM     84  O   UNL A   1      35.890  34.305  31.207  1.00  0.00    -0.237 OA
ATOM     85  O   UNL A   1      35.562  32.810  29.268  1.00  0.00    -0.237 OA
ATOM     86  O   UNL A   1      34.418  32.330  31.398  1.00  0.00    -0.744 OA
ENDBRANCH  79  83
ENDBRANCH  52  76
BRANCH  64  87
ATOM     87  C   UNL A   1      43.760  27.703  26.995  1.00  0.00     0.023 A 
ATOM     88  C   UNL A   1      44.472  26.666  27.629  1.00  0.00     0.031 A 
ATOM     89  C   UNL A   1      43.182  27.437  25.741  1.00  0.00     0.131 A 
ATOM     90  C   UNL A   1      44.636  25.432  26.985  1.00  0.00     0.055 A 
ATOM     91  C   UNL A   1      43.297  26.187  25.129  1.00  0.00     0.041 A 
ATOM     92  F   UNL A   1      42.500  28.391  25.087  1.00  0.00    -0.206 F 
ATOM     93  C   UNL A   1      44.043  25.184  25.743  1.00  0.00     0.022 A 
BRANCH  90  94
ATOM     94  S   UNL A   1      45.704  24.143  27.684  1.00  0.00     0.124 S 
ATOM     95  O   UNL A   1      44.798  23.472  28.615  1.00  0.00    -0.237 OA
ATOM     96  O   UNL A   1      46.066  23.370  26.500  1.00  0.00    -0.237 OA
ATOM     97  O   UNL A   1      46.793  24.888  28.307  1.00  0.00    -0.744 OA
ENDBRANCH  90  94
ENDBRANCH  64  87
ENDBRANCH  38  39
ENDBRANCH  31  33
ENDBRANCH  30  31
ENDBRANCH  29  30
ENDBRANCH  28  29
ENDBRANCH  27  28
ENDBRANCH  26  27
ENDBRANCH  25  26
ENDBRANCH   1  25
TORSDOF 26
ENDMDL
MODEL 3
REMARK VINA RESULT:      -6.9      7.952     14.508
REMARK SMILES C[C@H]1Cc2cc(C(=O)[C@H](Br)CC(=O)OCCOCCOCCOCCOC(=O)c3ccc(-c4c5nc(c(-c6cc(S(=O)(=O)[O-])ccc6F)c6ccc([nH]6)c(-c6cc(S(=O)(=O)[O-])ccc6F)c6nc(c(-c7cc(S(=O)(=O)[O-])ccc7F)c7ccc4[nH]7)C=C6)C=C5)cc3)ccc2O1
REMARK SMILES IDX 20 1 19 2 18 3 17 4 16 5 15 6 14 7 12 8 13 9 11 10 9 11
REMARK SMILES IDX 10 12 7 13 8 14 6 15 1 16 2 17 3 18 95 19 4 20 94 21 5 22
REMARK SMILES IDX 93 23 92 24 21 25 22 26 23 27 24 28 25 29 26 30 27 31 28 32
REMARK SMILES IDX 29 33 30 34 91 35 31 36 90 37 32 38 33 39 34 40 84 41 35 42
REMARK SMILES IDX 89 43 83 44 85 45 36 46 88 47 82 48 81 49 37 51 69 52 49 53
REMARK SMILES IDX 68 54 50 55 53 56 67 57 86 58 51 59 52 60 66 62 87 63 54 64
REMARK SMILES IDX 38 65 39 66 47 67 40 68 46 69 48 70 45 71 41 72 42 73 43 74
REMARK SMILES IDX 44 75 70 76 71 77 79 78 72 79 78 80 80 81 77 82 73 83 74 84
REMARK SMILES IDX 75 85 76 86 55 87 56 88 64 89 57 90 63 91 65 92 62 93 58 94
REMARK SMILES IDX 59 95 60 96 61 97
REMARK H PARENT 85 50 53 61
REMARK Flexibility Score: inf
ROOT
ATOM      1  O   UNL A   1      45.099  33.223  42.835  1.00  0.00    -0.377 OA
ENDROOT
BRANCH   1   2
ATOM      2  C   UNL A   1      45.656  32.009  43.293  1.00  0.00     0.188 C 
BRANCH   2   3
ATOM      3  C   UNL A   1      44.766  30.763  43.204  1.00  0.00     0.188 C 
BRANCH   3   4
ATOM      4  O   UNL A   1      43.447  30.799  43.707  1.00  0.00    -0.376 OA
BRANCH   4   5
ATOM      5  C   UNL A   1      42.339  30.464  42.877  1.00  0.00     0.202 C 
BRANCH   5   6
ATOM      6  C   UNL A   1      41.544  31.502  42.065  1.00  0.00     0.261 C 
BRANCH   6   7
ATOM      7  O   UNL A   1      40.160  31.190  41.817  1.00  0.00    -0.463 OA
BRANCH   7   8
ATOM      8  C   UNL A   1      39.261  31.989  42.429  1.00  0.00     0.307 C 
ATOM      9  O   UNL A   1      39.560  32.898  43.200  1.00  0.00    -0.252 OA
BRANCH   8  10
ATOM     10  C   UNL A   1      37.824  31.806  42.009  1.00  0.00     0.146 C 
BRANCH  10  11
ATOM     11  C   UNL A   1      37.064  32.808  41.152  1.00  0.00     0.140 C 
ATOM     12  Br  UNL A   1      37.752  32.840  39.320  1.00  0.00    -0.080 Br
BRANCH  11  13
ATOM     13  C   UNL A   1      35.630  32.287  41.040  1.00  0.00     0.177 C 
ATOM     14  O   UNL A   1      35.367  31.324  40.311  1.00  0.00    -0.293 OA
BRANCH  13  15
ATOM     15  C   UNL A   1      34.496  32.839  41.857  1.00  0.00     0.019 A 
ATOM     16  C   UNL A   1      30.433  36.804  43.093  1.00  0.00     0.053 C 
ATOM     17  C   UNL A   1      30.664  35.383  42.591  1.00  0.00     0.174 C 
ATOM     18  C   UNL A   1      31.635  35.350  41.401  1.00  0.00     0.084 C 
ATOM     19  O   UNL A   1      31.187  34.569  43.680  1.00  0.00    -0.490 OA
ATOM     20  C   UNL A   1      32.591  34.329  41.874  1.00  0.00    -0.001 A 
ATOM     21  C   UNL A   1      32.282  33.936  43.157  1.00  0.00     0.123 A 
ATOM     22  C   UNL A   1      33.687  33.798  41.214  1.00  0.00     0.019 A 
ATOM     23  C   UNL A   1      33.048  32.996  43.822  1.00  0.00     0.047 A 
ATOM     24  C   UNL A   1      34.166  32.440  43.166  1.00  0.00     0.015 A 
ENDBRANCH  13  15
ENDBRANCH  11  13
ENDBRANCH  10  11
ENDBRANCH   8  10
ENDBRANCH   7   8
ENDBRANCH   6   7
ENDBRANCH   5   6
ENDBRANCH   4   5
ENDBRANCH   3   4
ENDBRANCH   2   3
ENDBRANCH   1   2
BRANCH   1  25
ATOM     25  C   UNL A   1      44.813  34.268  43.762  1.00  0.00     0.188 C 
BRANCH  25  26
ATOM     26  C   UNL A   1      44.909  35.747  43.338  1.00  0.00     0.188 C 
BRANCH  26  27
ATOM     27  O   UNL A   1      43.906  36.156  42.418  1.00  0.00    -0.376 OA
BRANCH  27  28
ATOM     28  C   UNL A   1      43.248  37.392  42.658  1.00  0.00     0.202 C 
BRANCH  28  29
ATOM     29  C   UNL A   1      41.815  37.309  43.202  1.00  0.00     0.261 C 
BRANCH  29  30
ATOM     30  O   UNL A   1      41.114  36.075  42.978  1.00  0.00    -0.460 OA
BRANCH  30  31
ATOM     31  C   UNL A   1      39.890  36.113  42.404  1.00  0.00     0.338 C 
ATOM     32  O   UNL A   1      38.837  36.397  42.945  1.00  0.00    -0.246 OA
BRANCH  31  33
ATOM     33  C   UNL A   1      40.087  35.958  40.946  1.00  0.00     0.060 A 
ATOM     34  C   UNL A   1      39.565  36.901  40.058  1.00  0.00     0.016 A 
ATOM     35  C   UNL A   1      40.778  34.838  40.464  1.00  0.00     0.016 A 
ATOM     36  C   UNL A   1      39.762  36.739  38.685  1.00  0.00     0.010 A 
ATOM     37  C   UNL A   1      40.970  34.676  39.088  1.00  0.00     0.010 A 
ATOM     38  C   UNL A   1      40.485  35.638  38.190  1.00  0.00    -0.014 A 
BRANCH  38  39
ATOM     39  C   UNL A   1      40.909  35.622  36.766  1.00  0.00     0.031 A 
ATOM     40  C   UNL A   1      42.243  36.126  36.312  1.00  0.00     0.074 A 
ATOM     41  C   UNL A   1      40.027  35.150  35.863  1.00  0.00     0.049 A 
ATOM     42  N   UNL A   1      42.769  36.076  35.115  1.00  0.00    -0.248 NA
ATOM     43  C   UNL A   1      43.093  36.779  37.317  1.00  0.00     0.031 C 
ATOM     44  C   UNL A   1      38.676  34.691  36.188  1.00  0.00     0.029 A 
ATOM     45  N   UNL A   1      40.122  34.979  34.505  1.00  0.00    -0.354 N 
ATOM     46  C   UNL A   1      44.017  36.678  35.217  1.00  0.00     0.074 A 
ATOM     47  C   UNL A   1      44.149  37.125  36.589  1.00  0.00     0.031 C 
ATOM     48  C   UNL A   1      38.077  34.270  35.068  1.00  0.00     0.029 A 
ATOM     49  C   UNL A   1      38.984  34.457  33.937  1.00  0.00     0.049 A 
ATOM     50  H   UNL A   1      40.928  35.207  33.987  1.00  0.00     0.167 HD
ATOM     51  C   UNL A   1      44.960  36.823  34.254  1.00  0.00     0.034 A 
ATOM     52  C   UNL A   1      38.693  34.156  32.655  1.00  0.00     0.034 A 
ATOM     53  C   UNL A   1      44.799  36.373  32.890  1.00  0.00     0.049 A 
ATOM     54  C   UNL A   1      39.759  34.321  31.605  1.00  0.00     0.074 A 
ATOM     55  C   UNL A   1      45.735  36.395  31.871  1.00  0.00     0.029 A 
ATOM     56  N   UNL A   1      43.636  35.843  32.346  1.00  0.00    -0.354 N 
ATOM     57  N   UNL A   1      40.989  34.755  31.746  1.00  0.00    -0.248 NA
ATOM     58  C   UNL A   1      39.414  33.938  30.229  1.00  0.00     0.031 C 
ATOM     59  C   UNL A   1      45.116  35.971  30.695  1.00  0.00     0.029 A 
ATOM     60  C   UNL A   1      43.819  35.585  30.995  1.00  0.00     0.049 A 
ATOM     61  H   UNL A   1      42.805  35.676  32.845  1.00  0.00     0.167 HD
ATOM     62  C   UNL A   1      41.571  34.679  30.484  1.00  0.00     0.074 A 
ATOM     63  C   UNL A   1      40.565  34.130  29.598  1.00  0.00     0.031 C 
ATOM     64  C   UNL A   1      42.823  35.036  30.102  1.00  0.00     0.034 A 
BRANCH  51  65
ATOM     65  C   UNL A   1      46.278  37.473  34.609  1.00  0.00     0.023 A 
ATOM     66  C   UNL A   1      47.309  36.706  35.189  1.00  0.00     0.031 A 
ATOM     67  C   UNL A   1      46.450  38.868  34.542  1.00  0.00     0.131 A 
ATOM     68  C   UNL A   1      48.441  37.341  35.717  1.00  0.00     0.055 A 
ATOM     69  C   UNL A   1      47.600  39.491  35.028  1.00  0.00     0.041 A 
ATOM     70  F   UNL A   1      45.493  39.647  34.013  1.00  0.00    -0.206 F 
ATOM     71  C   UNL A   1      48.595  38.728  35.633  1.00  0.00     0.022 A 
BRANCH  68  72
ATOM     72  S   UNL A   1      49.712  36.406  36.612  1.00  0.00     0.124 S 
ATOM     73  O   UNL A   1      50.072  35.381  35.637  1.00  0.00    -0.237 OA
ATOM     74  O   UNL A   1      50.730  37.425  36.852  1.00  0.00    -0.237 OA
ATOM     75  O   UNL A   1      49.017  35.916  37.798  1.00  0.00    -0.744 OA
ENDBRANCH  68  72
ENDBRANCH  51  65
BRANCH  52  76
ATOM     76  C   UNL A   1      37.344  33.601  32.346  1.00  0.00     0.023 A 
ATOM     77  C   UNL A   1      36.271  34.458  32.039  1.00  0.00     0.031 A 
ATOM     78  C   UNL A   1      37.073  32.232  32.507  1.00  0.00     0.131 A 
ATOM     79  C   UNL A   1      34.966  33.952  31.996  1.00  0.00     0.055 A 
ATOM     80  C   UNL A   1      35.780  31.720  32.379  1.00  0.00     0.041 A 
ATOM     81  F   UNL A   1      38.061  31.378  32.816  1.00  0.00    -0.206 F 
ATOM     82  C   UNL A   1      34.715  32.585  32.146  1.00  0.00     0.022 A 
BRANCH  79  83
ATOM     83  S   UNL A   1      33.542  35.072  31.907  1.00  0.00     0.124 S 
ATOM     84  O   UNL A   1      33.195  35.014  30.491  1.00  0.00    -0.237 OA
ATOM     85  O   UNL A   1      32.599  34.423  32.815  1.00  0.00    -0.237 OA
ATOM     86  O   UNL A   1      34.075  36.348  32.375  1.00  0.00    -0.744 OA
ENDBRANCH  79  83
ENDBRANCH  52  76
BRANCH  64  87
ATOM     87  C   UNL A   1      43.221  34.866  28.652  1.00  0.00     0.023 A 
ATOM     88  C   UNL A   1      44.072  33.809  28.274  1.00  0.00     0.031 A 
ATOM     89  C   UNL A   1      42.899  35.834  27.684  1.00  0.00     0.131 A 
ATOM     90  C   UNL A   1      44.615  33.775  26.982  1.00  0.00     0.055 A 
ATOM     91  C   UNL A   1      43.395  35.764  26.381  1.00  0.00     0.041 A 
ATOM     92  F   UNL A   1      42.100  36.868  27.993  1.00  0.00    -0.206 F 
ATOM     93  C   UNL A   1      44.273  34.741  26.031  1.00  0.00     0.022 A 
BRANCH  90  94
ATOM     94  S   UNL A   1      45.861  32.539  26.520  1.00  0.00     0.124 S 
ATOM     95  O   UNL A   1      46.920  33.374  25.958  1.00  0.00    -0.237 OA
ATOM     96  O   UNL A   1      46.171  31.920  27.806  1.00  0.00    -0.237 OA
ATOM     97  O   UNL A   1      45.170  31.684  25.561  1.00  0.00    -0.744 OA
ENDBRANCH  90  94
ENDBRANCH  64  87
ENDBRANCH  38  39
ENDBRANCH  31  33
ENDBRANCH  30  31
ENDBRANCH  29  30
ENDBRANCH  28  29
ENDBRANCH  27  28
ENDBRANCH  26  27
ENDBRANCH  25  26
ENDBRANCH   1  25
TORSDOF 26
ENDMDL
