MODEL 1
REMARK VINA RESULT:      -8.8      0.000      0.000
REMARK SMILES CCCC[C@@H](C(=O)OCCOCCOCCOCCOC(=O)c1ccc(-c2c3nc(c(-c4cc(S(=O)(=O)[O-])ccc4F)c4ccc([nH]4)c(-c4cc(S(=O)(=O)[O-])ccc4F)c4nc(c(-c5cc(S(=O)(=O)[O-])ccc5F)c5ccc2[nH]5)C=C4)C=C3)cc1)C1(O)Cc2ccccc2C1
REMARK SMILES IDX 14 1 13 2 12 3 11 4 10 5 9 6 8 7 6 8 7 9 5 10 4 11 3 12 2 13
REMARK SMILES IDX 1 14 86 15 88 16 95 17 89 18 94 19 90 20 93 21 91 22 92 23
REMARK SMILES IDX 87 24 15 26 16 27 17 28 18 29 19 30 20 31 21 32 22 33 23 34
REMARK SMILES IDX 24 35 85 36 25 37 84 38 26 39 27 40 28 41 78 42 29 43 83 44
REMARK SMILES IDX 77 45 79 46 30 47 82 48 76 49 75 50 31 52 63 53 43 54 62 55
REMARK SMILES IDX 44 56 47 57 61 58 80 59 45 60 46 61 60 63 81 64 48 65 32 66
REMARK SMILES IDX 33 67 41 68 34 69 40 70 42 71 39 72 35 73 36 74 37 75 38 76
REMARK SMILES IDX 64 77 65 78 73 79 66 80 72 81 74 82 71 83 67 84 68 85 69 86
REMARK SMILES IDX 70 87 49 88 50 89 58 90 51 91 57 92 59 93 56 94 52 95 53 96
REMARK SMILES IDX 54 97 55 98
REMARK H PARENT 87 25 79 51 47 62
REMARK Flexibility Score: inf
ROOT
ATOM      1  O   UNL A   1      41.676  19.500  26.192  1.00  0.00    -0.377 OA
ENDROOT
BRANCH   1   2
ATOM      2  C   UNL A   1      41.709  20.896  26.353  1.00  0.00     0.188 C 
BRANCH   2   3
ATOM      3  C   UNL A   1      40.443  21.547  26.915  1.00  0.00     0.188 C 
BRANCH   3   4
ATOM      4  O   UNL A   1      39.184  21.278  26.315  1.00  0.00    -0.376 OA
BRANCH   4   5
ATOM      5  C   UNL A   1      38.513  22.298  25.579  1.00  0.00     0.202 C 
BRANCH   5   6
ATOM      6  C   UNL A   1      37.023  22.556  25.869  1.00  0.00     0.261 C 
BRANCH   6   7
ATOM      7  O   UNL A   1      36.146  21.649  25.172  1.00  0.00    -0.463 OA
BRANCH   7   8
ATOM      8  C   UNL A   1      35.055  22.208  24.574  1.00  0.00     0.311 C 
ATOM      9  O   UNL A   1      35.087  22.815  23.509  1.00  0.00    -0.252 OA
BRANCH   8  10
ATOM     10  C   UNL A   1      33.724  21.775  25.232  1.00  0.00     0.131 C 
BRANCH  10  11
ATOM     11  C   UNL A   1      33.620  22.103  26.754  1.00  0.00     0.018 C 
BRANCH  11  12
ATOM     12  C   UNL A   1      32.713  23.244  27.246  1.00  0.00     0.001 C 
BRANCH  12  13
ATOM     13  C   UNL A   1      32.286  24.288  26.221  1.00  0.00    -0.003 C 
ATOM     14  C   UNL A   1      33.365  25.317  25.941  1.00  0.00     0.004 C 
ENDBRANCH  12  13
ENDBRANCH  11  12
ENDBRANCH  10  11
BRANCH  10  15
ATOM     15  C   UNL A   1      33.437  20.281  24.827  1.00  0.00     0.086 C 
ATOM     16  C   UNL A   1      32.599  19.439  25.853  1.00  0.00     0.072 C 
ATOM     17  C   UNL A   1      32.712  19.873  23.512  1.00  0.00     0.072 C 
ATOM     18  C   UNL A   1      32.566  18.113  25.138  1.00  0.00    -0.042 A 
ATOM     19  C   UNL A   1      32.742  18.350  23.763  1.00  0.00    -0.042 A 
ATOM     20  C   UNL A   1      32.864  16.899  25.749  1.00  0.00     0.004 A 
ATOM     21  C   UNL A   1      33.397  17.389  23.005  1.00  0.00     0.004 A 
ATOM     22  C   UNL A   1      33.526  15.945  24.985  1.00  0.00     0.000 A 
ATOM     23  C   UNL A   1      33.819  16.203  23.635  1.00  0.00     0.000 A 
BRANCH  15  24
ATOM     24  O   UNL A   1      34.750  19.700  24.620  1.00  0.00    -0.388 OA
ATOM     25  H   UNL A   1      35.153  20.085  23.826  1.00  0.00     0.211 HD
ENDBRANCH  15  24
ENDBRANCH  10  15
ENDBRANCH   8  10
ENDBRANCH   7   8
ENDBRANCH   6   7
ENDBRANCH   5   6
ENDBRANCH   4   5
ENDBRANCH   3   4
ENDBRANCH   2   3
ENDBRANCH   1   2
BRANCH   1  26
ATOM     26  C   UNL A   1      42.903  18.798  26.224  1.00  0.00     0.188 C 
BRANCH  26  27
ATOM     27  C   UNL A   1      43.926  18.906  25.077  1.00  0.00     0.188 C 
BRANCH  27  28
ATOM     28  O   UNL A   1      45.153  18.211  25.296  1.00  0.00    -0.376 OA
BRANCH  28  29
ATOM     29  C   UNL A   1      46.324  18.996  25.465  1.00  0.00     0.202 C 
BRANCH  29  30
ATOM     30  C   UNL A   1      46.350  20.272  24.615  1.00  0.00     0.261 C 
BRANCH  30  31
ATOM     31  O   UNL A   1      46.080  21.487  25.326  1.00  0.00    -0.460 OA
BRANCH  31  32
ATOM     32  C   UNL A   1      45.566  22.525  24.619  1.00  0.00     0.338 C 
ATOM     33  O   UNL A   1      45.102  22.488  23.503  1.00  0.00    -0.246 OA
BRANCH  32  34
ATOM     34  C   UNL A   1      45.452  23.663  25.561  1.00  0.00     0.060 A 
ATOM     35  C   UNL A   1      46.586  24.037  26.297  1.00  0.00     0.016 A 
ATOM     36  C   UNL A   1      44.285  24.431  25.612  1.00  0.00     0.016 A 
ATOM     37  C   UNL A   1      46.549  25.180  27.095  1.00  0.00     0.010 A 
ATOM     38  C   UNL A   1      44.237  25.554  26.439  1.00  0.00     0.010 A 
ATOM     39  C   UNL A   1      45.360  25.914  27.204  1.00  0.00    -0.014 A 
BRANCH  39  40
ATOM     40  C   UNL A   1      45.202  26.865  28.328  1.00  0.00     0.031 A 
ATOM     41  C   UNL A   1      45.429  28.320  28.022  1.00  0.00     0.074 A 
ATOM     42  C   UNL A   1      44.864  26.463  29.565  1.00  0.00     0.049 A 
ATOM     43  N   UNL A   1      45.372  29.358  28.811  1.00  0.00    -0.248 NA
ATOM     44  C   UNL A   1      45.776  28.639  26.626  1.00  0.00     0.031 C 
ATOM     45  C   UNL A   1      44.593  25.085  29.966  1.00  0.00     0.029 A 
ATOM     46  N   UNL A   1      44.696  27.190  30.717  1.00  0.00    -0.354 N 
ATOM     47  C   UNL A   1      45.665  30.454  28.006  1.00  0.00     0.074 A 
ATOM     48  C   UNL A   1      45.945  29.948  26.682  1.00  0.00     0.031 C 
ATOM     49  C   UNL A   1      44.304  25.064  31.280  1.00  0.00     0.029 A 
ATOM     50  C   UNL A   1      44.398  26.421  31.818  1.00  0.00     0.049 A 
ATOM     51  H   UNL A   1      44.783  28.170  30.753  1.00  0.00     0.167 HD
ATOM     52  C   UNL A   1      45.689  31.766  28.340  1.00  0.00     0.034 A 
ATOM     53  C   UNL A   1      44.241  26.780  33.109  1.00  0.00     0.034 A 
ATOM     54  C   UNL A   1      45.450  32.248  29.676  1.00  0.00     0.049 A 
ATOM     55  C   UNL A   1      44.364  28.240  33.481  1.00  0.00     0.074 A 
ATOM     56  C   UNL A   1      45.447  33.552  30.135  1.00  0.00     0.029 A 
ATOM     57  N   UNL A   1      45.193  31.437  30.776  1.00  0.00    -0.354 N 
ATOM     58  N   UNL A   1      44.612  29.275  32.707  1.00  0.00    -0.248 NA
ATOM     59  C   UNL A   1      44.178  28.582  34.897  1.00  0.00     0.031 C 
ATOM     60  C   UNL A   1      45.265  33.525  31.522  1.00  0.00     0.029 A 
ATOM     61  C   UNL A   1      45.069  32.210  31.919  1.00  0.00     0.049 A 
ATOM     62  H   UNL A   1      45.113  30.457  30.747  1.00  0.00     0.167 HD
ATOM     63  C   UNL A   1      44.581  30.391  33.542  1.00  0.00     0.074 A 
ATOM     64  C   UNL A   1      44.275  29.903  34.872  1.00  0.00     0.031 C 
ATOM     65  C   UNL A   1      44.781  31.701  33.241  1.00  0.00     0.034 A 
BRANCH  52  66
ATOM     66  C   UNL A   1      46.053  32.741  27.248  1.00  0.00     0.023 A 
ATOM     67  C   UNL A   1      47.375  33.188  27.064  1.00  0.00     0.031 A 
ATOM     68  C   UNL A   1      45.054  33.287  26.424  1.00  0.00     0.131 A 
ATOM     69  C   UNL A   1      47.648  34.207  26.140  1.00  0.00     0.055 A 
ATOM     70  C   UNL A   1      45.346  34.241  25.448  1.00  0.00     0.041 A 
ATOM     71  F   UNL A   1      43.770  32.924  26.573  1.00  0.00    -0.206 F 
ATOM     72  C   UNL A   1      46.646  34.719  25.313  1.00  0.00     0.022 A 
BRANCH  69  73
ATOM     73  S   UNL A   1      49.294  34.971  26.150  1.00  0.00     0.124 S 
ATOM     74  O   UNL A   1      49.812  34.573  24.843  1.00  0.00    -0.237 OA
ATOM     75  O   UNL A   1      48.983  36.387  26.311  1.00  0.00    -0.237 OA
ATOM     76  O   UNL A   1      49.956  34.342  27.292  1.00  0.00    -0.744 OA
ENDBRANCH  69  73
ENDBRANCH  52  66
BRANCH  53  77
ATOM     77  C   UNL A   1      43.992  25.748  34.159  1.00  0.00     0.023 A 
ATOM     78  C   UNL A   1      45.000  24.861  34.569  1.00  0.00     0.031 A 
ATOM     79  C   UNL A   1      42.713  25.597  34.726  1.00  0.00     0.131 A 
ATOM     80  C   UNL A   1      44.704  23.839  35.487  1.00  0.00     0.055 A 
ATOM     81  C   UNL A   1      42.436  24.611  35.676  1.00  0.00     0.041 A 
ATOM     82  F   UNL A   1      41.710  26.413  34.366  1.00  0.00    -0.206 F 
ATOM     83  C   UNL A   1      43.433  23.717  36.052  1.00  0.00     0.022 A 
BRANCH  80  84
ATOM     84  S   UNL A   1      45.988  22.617  35.877  1.00  0.00     0.124 S 
ATOM     85  O   UNL A   1      47.207  23.399  35.701  1.00  0.00    -0.237 OA
ATOM     86  O   UNL A   1      45.653  22.252  37.250  1.00  0.00    -0.237 OA
ATOM     87  O   UNL A   1      45.772  21.566  34.885  1.00  0.00    -0.744 OA
ENDBRANCH  80  84
ENDBRANCH  53  77
BRANCH  65  88
ATOM     88  C   UNL A   1      44.636  32.696  34.368  1.00  0.00     0.023 A 
ATOM     89  C   UNL A   1      43.420  33.353  34.625  1.00  0.00     0.031 A 
ATOM     90  C   UNL A   1      45.736  32.997  35.192  1.00  0.00     0.131 A 
ATOM     91  C   UNL A   1      43.349  34.322  35.637  1.00  0.00     0.055 A 
ATOM     92  C   UNL A   1      45.641  33.912  36.240  1.00  0.00     0.041 A 
ATOM     93  F   UNL A   1      46.922  32.399  34.993  1.00  0.00    -0.206 F 
ATOM     94  C   UNL A   1      44.448  34.593  36.459  1.00  0.00     0.022 A 
BRANCH  91  95
ATOM     95  S   UNL A   1      41.833  35.304  35.800  1.00  0.00     0.124 S 
ATOM     96  O   UNL A   1      40.973  34.703  34.785  1.00  0.00    -0.237 OA
ATOM     97  O   UNL A   1      41.450  35.058  37.187  1.00  0.00    -0.237 OA
ATOM     98  O   UNL A   1      42.273  36.667  35.510  1.00  0.00    -0.744 OA
ENDBRANCH  91  95
ENDBRANCH  65  88
ENDBRANCH  39  40
ENDBRANCH  32  34
ENDBRANCH  31  32
ENDBRANCH  30  31
ENDBRANCH  29  30
ENDBRANCH  28  29
ENDBRANCH  27  28
ENDBRANCH  26  27
ENDBRANCH   1  26
TORSDOF 28
ENDMDL
MODEL 2
REMARK VINA RESULT:      -8.7      4.580      7.897
REMARK SMILES CCCC[C@@H](C(=O)OCCOCCOCCOCCOC(=O)c1ccc(-c2c3nc(c(-c4cc(S(=O)(=O)[O-])ccc4F)c4ccc([nH]4)c(-c4cc(S(=O)(=O)[O-])ccc4F)c4nc(c(-c5cc(S(=O)(=O)[O-])ccc5F)c5ccc2[nH]5)C=C4)C=C3)cc1)C1(O)Cc2ccccc2C1
REMARK SMILES IDX 14 1 13 2 12 3 11 4 10 5 9 6 8 7 6 8 7 9 5 10 4 11 3 12 2 13
REMARK SMILES IDX 1 14 86 15 88 16 95 17 89 18 94 19 90 20 93 21 91 22 92 23
REMARK SMILES IDX 87 24 15 26 16 27 17 28 18 29 19 30 20 31 21 32 22 33 23 34
REMARK SMILES IDX 24 35 85 36 25 37 84 38 26 39 27 40 28 41 78 42 29 43 83 44
REMARK SMILES IDX 77 45 79 46 30 47 82 48 76 49 75 50 31 52 63 53 43 54 62 55
REMARK SMILES IDX 44 56 47 57 61 58 80 59 45 60 46 61 60 63 81 64 48 65 32 66
REMARK SMILES IDX 33 67 41 68 34 69 40 70 42 71 39 72 35 73 36 74 37 75 38 76
REMARK SMILES IDX 64 77 65 78 73 79 66 80 72 81 74 82 71 83 67 84 68 85 69 86
REMARK SMILES IDX 70 87 49 88 50 89 58 90 51 91 57 92 59 93 56 94 52 95 53 96
REMARK SMILES IDX 54 97 55 98
REMARK H PARENT 87 25 79 51 47 62
REMARK Flexibility Score: inf
ROOT
ATOM      1  O   UNL A   1      41.501  19.694  25.615  1.00  0.00    -0.377 OA
ENDROOT
BRANCH   1   2
ATOM      2  C   UNL A   1      41.152  20.603  26.629  1.00  0.00     0.188 C 
BRANCH   2   3
ATOM      3  C   UNL A   1      39.789  21.285  26.492  1.00  0.00     0.188 C 
BRANCH   3   4
ATOM      4  O   UNL A   1      38.940  20.957  25.401  1.00  0.00    -0.376 OA
BRANCH   4   5
ATOM      5  C   UNL A   1      37.846  21.808  25.068  1.00  0.00     0.202 C 
BRANCH   5   6
ATOM      6  C   UNL A   1      37.494  22.964  26.022  1.00  0.00     0.261 C 
BRANCH   6   7
ATOM      7  O   UNL A   1      36.460  23.825  25.509  1.00  0.00    -0.463 OA
BRANCH   7   8
ATOM      8  C   UNL A   1      35.189  23.554  25.925  1.00  0.00     0.311 C 
ATOM      9  O   UNL A   1      34.885  23.286  27.083  1.00  0.00    -0.252 OA
BRANCH   8  10
ATOM     10  C   UNL A   1      34.125  23.876  24.850  1.00  0.00     0.131 C 
BRANCH  10  11
ATOM     11  C   UNL A   1      34.645  23.790  23.382  1.00  0.00     0.018 C 
BRANCH  11  12
ATOM     12  C   UNL A   1      33.824  23.059  22.305  1.00  0.00     0.001 C 
BRANCH  12  13
ATOM     13  C   UNL A   1      32.379  22.715  22.644  1.00  0.00    -0.003 C 
ATOM     14  C   UNL A   1      32.153  21.225  22.823  1.00  0.00     0.004 C 
ENDBRANCH  12  13
ENDBRANCH  11  12
ENDBRANCH  10  11
BRANCH  10  15
ATOM     15  C   UNL A   1      33.411  25.221  25.252  1.00  0.00     0.086 C 
ATOM     16  C   UNL A   1      32.996  26.161  24.065  1.00  0.00     0.072 C 
ATOM     17  C   UNL A   1      32.101  25.279  26.090  1.00  0.00     0.072 C 
ATOM     18  C   UNL A   1      32.392  27.305  24.837  1.00  0.00    -0.042 A 
ATOM     19  C   UNL A   1      31.958  26.815  26.081  1.00  0.00    -0.042 A 
ATOM     20  C   UNL A   1      32.705  28.641  24.607  1.00  0.00     0.004 A 
ATOM     21  C   UNL A   1      32.000  27.667  27.177  1.00  0.00     0.004 A 
ATOM     22  C   UNL A   1      32.751  29.485  25.710  1.00  0.00     0.000 A 
ATOM     23  C   UNL A   1      32.434  28.993  26.988  1.00  0.00     0.000 A 
BRANCH  15  24
ATOM     24  O   UNL A   1      34.348  25.880  26.141  1.00  0.00    -0.388 OA
ATOM     25  H   UNL A   1      34.586  26.747  25.775  1.00  0.00     0.211 HD
ENDBRANCH  15  24
ENDBRANCH  10  15
ENDBRANCH   8  10
ENDBRANCH   7   8
ENDBRANCH   6   7
ENDBRANCH   5   6
ENDBRANCH   4   5
ENDBRANCH   3   4
ENDBRANCH   2   3
ENDBRANCH   1   2
BRANCH   1  26
ATOM     26  C   UNL A   1      42.717  18.984  25.747  1.00  0.00     0.188 C 
BRANCH  26  27
ATOM     27  C   UNL A   1      43.820  19.064  24.673  1.00  0.00     0.188 C 
BRANCH  27  28
ATOM     28  O   UNL A   1      45.152  18.934  25.168  1.00  0.00    -0.376 OA
BRANCH  28  29
ATOM     29  C   UNL A   1      45.856  20.131  25.462  1.00  0.00     0.202 C 
BRANCH  29  30
ATOM     30  C   UNL A   1      45.322  21.368  24.730  1.00  0.00     0.261 C 
BRANCH  30  31
ATOM     31  O   UNL A   1      44.935  22.459  25.575  1.00  0.00    -0.460 OA
BRANCH  31  32
ATOM     32  C   UNL A   1      43.734  23.043  25.332  1.00  0.00     0.338 C 
ATOM     33  O   UNL A   1      42.905  22.697  24.521  1.00  0.00    -0.246 OA
BRANCH  32  34
ATOM     34  C   UNL A   1      43.520  24.034  26.412  1.00  0.00     0.060 A 
ATOM     35  C   UNL A   1      42.771  23.648  27.534  1.00  0.00     0.016 A 
ATOM     36  C   UNL A   1      44.166  25.274  26.379  1.00  0.00     0.016 A 
ATOM     37  C   UNL A   1      42.658  24.511  28.623  1.00  0.00     0.010 A 
ATOM     38  C   UNL A   1      44.022  26.151  27.455  1.00  0.00     0.010 A 
ATOM     39  C   UNL A   1      43.245  25.783  28.566  1.00  0.00    -0.014 A 
BRANCH  39  40
ATOM     40  C   UNL A   1      42.802  26.823  29.523  1.00  0.00     0.031 A 
ATOM     41  C   UNL A   1      43.634  27.002  30.763  1.00  0.00     0.074 A 
ATOM     42  C   UNL A   1      41.716  27.585  29.304  1.00  0.00     0.049 A 
ATOM     43  N   UNL A   1      43.472  27.821  31.767  1.00  0.00    -0.248 NA
ATOM     44  C   UNL A   1      44.810  26.122  30.883  1.00  0.00     0.031 C 
ATOM     45  C   UNL A   1      40.855  27.516  28.125  1.00  0.00     0.029 A 
ATOM     46  N   UNL A   1      41.153  28.567  30.078  1.00  0.00    -0.354 N 
ATOM     47  C   UNL A   1      44.531  27.563  32.632  1.00  0.00     0.074 A 
ATOM     48  C   UNL A   1      45.298  26.481  32.056  1.00  0.00     0.031 C 
ATOM     49  C   UNL A   1      39.862  28.413  28.262  1.00  0.00     0.029 A 
ATOM     50  C   UNL A   1      40.000  29.097  29.548  1.00  0.00     0.049 A 
ATOM     51  H   UNL A   1      41.536  28.864  30.935  1.00  0.00     0.167 HD
ATOM     52  C   UNL A   1      44.840  28.180  33.796  1.00  0.00     0.034 A 
ATOM     53  C   UNL A   1      39.151  30.013  30.058  1.00  0.00     0.034 A 
ATOM     54  C   UNL A   1      44.040  29.227  34.375  1.00  0.00     0.049 A 
ATOM     55  C   UNL A   1      39.463  30.625  31.405  1.00  0.00     0.074 A 
ATOM     56  C   UNL A   1      44.251  29.927  35.549  1.00  0.00     0.029 A 
ATOM     57  N   UNL A   1      42.854  29.709  33.832  1.00  0.00    -0.354 N 
ATOM     58  N   UNL A   1      40.484  30.397  32.204  1.00  0.00    -0.248 NA
ATOM     59  C   UNL A   1      38.514  31.623  31.916  1.00  0.00     0.031 C 
ATOM     60  C   UNL A   1      43.158  30.776  35.753  1.00  0.00     0.029 A 
ATOM     61  C   UNL A   1      42.304  30.669  34.665  1.00  0.00     0.049 A 
ATOM     62  H   UNL A   1      42.462  29.411  32.980  1.00  0.00     0.167 HD
ATOM     63  C   UNL A   1      40.311  31.247  33.296  1.00  0.00     0.074 A 
ATOM     64  C   UNL A   1      39.099  32.000  33.043  1.00  0.00     0.031 C 
ATOM     65  C   UNL A   1      41.082  31.397  34.404  1.00  0.00     0.034 A 
BRANCH  52  66
ATOM     66  C   UNL A   1      46.057  27.676  34.533  1.00  0.00     0.023 A 
ATOM     67  C   UNL A   1      45.968  26.657  35.499  1.00  0.00     0.031 A 
ATOM     68  C   UNL A   1      47.312  28.271  34.318  1.00  0.00     0.131 A 
ATOM     69  C   UNL A   1      47.092  26.322  36.270  1.00  0.00     0.055 A 
ATOM     70  C   UNL A   1      48.445  27.874  35.029  1.00  0.00     0.041 A 
ATOM     71  F   UNL A   1      47.453  29.270  33.432  1.00  0.00    -0.206 F 
ATOM     72  C   UNL A   1      48.336  26.907  36.024  1.00  0.00     0.022 A 
BRANCH  69  73
ATOM     73  S   UNL A   1      46.868  25.235  37.705  1.00  0.00     0.124 S 
ATOM     74  O   UNL A   1      46.530  26.196  38.753  1.00  0.00    -0.237 OA
ATOM     75  O   UNL A   1      45.786  24.358  37.270  1.00  0.00    -0.237 OA
ATOM     76  O   UNL A   1      48.172  24.593  37.856  1.00  0.00    -0.744 OA
ENDBRANCH  69  73
ENDBRANCH  52  66
BRANCH  53  77
ATOM     77  C   UNL A   1      37.905  30.386  29.325  1.00  0.00     0.023 A 
ATOM     78  C   UNL A   1      37.465  31.717  29.258  1.00  0.00     0.031 A 
ATOM     79  C   UNL A   1      37.101  29.397  28.730  1.00  0.00     0.131 A 
ATOM     80  C   UNL A   1      36.237  32.020  28.645  1.00  0.00     0.055 A 
ATOM     81  C   UNL A   1      35.905  29.708  28.078  1.00  0.00     0.041 A 
ATOM     82  F   UNL A   1      37.470  28.106  28.770  1.00  0.00    -0.206 F 
ATOM     83  C   UNL A   1      35.462  31.026  28.044  1.00  0.00     0.022 A 
BRANCH  80  84
ATOM     84  S   UNL A   1      35.625  33.727  28.712  1.00  0.00     0.124 S 
ATOM     85  O   UNL A   1      35.333  33.994  27.308  1.00  0.00    -0.237 OA
ATOM     86  O   UNL A   1      34.470  33.602  29.596  1.00  0.00    -0.237 OA
ATOM     87  O   UNL A   1      36.753  34.473  29.267  1.00  0.00    -0.744 OA
ENDBRANCH  80  84
ENDBRANCH  53  77
BRANCH  65  88
ATOM     88  C   UNL A   1      40.653  32.445  35.404  1.00  0.00     0.023 A 
ATOM     89  C   UNL A   1      39.780  32.145  36.464  1.00  0.00     0.031 A 
ATOM     90  C   UNL A   1      41.120  33.766  35.287  1.00  0.00     0.131 A 
ATOM     91  C   UNL A   1      39.352  33.164  37.328  1.00  0.00     0.055 A 
ATOM     92  C   UNL A   1      40.744  34.762  36.189  1.00  0.00     0.041 A 
ATOM     93  F   UNL A   1      41.957  34.111  34.295  1.00  0.00    -0.206 F 
ATOM     94  C   UNL A   1      39.843  34.468  37.208  1.00  0.00     0.022 A 
BRANCH  91  95
ATOM     95  S   UNL A   1      38.063  32.790  38.546  1.00  0.00     0.124 S 
ATOM     96  O   UNL A   1      37.051  32.132  37.725  1.00  0.00    -0.237 OA
ATOM     97  O   UNL A   1      38.769  31.935  39.495  1.00  0.00    -0.237 OA
ATOM     98  O   UNL A   1      37.684  34.105  39.060  1.00  0.00    -0.744 OA
ENDBRANCH  91  95
ENDBRANCH  65  88
ENDBRANCH  39  40
ENDBRANCH  32  34
ENDBRANCH  31  32
ENDBRANCH  30  31
ENDBRANCH  29  30
ENDBRANCH  28  29
ENDBRANCH  27  28
ENDBRANCH  26  27
ENDBRANCH   1  26
TORSDOF 28
ENDMDL
MODEL 3
REMARK VINA RESULT:      -8.6      4.315      6.486
REMARK SMILES CCCC[C@@H](C(=O)OCCOCCOCCOCCOC(=O)c1ccc(-c2c3nc(c(-c4cc(S(=O)(=O)[O-])ccc4F)c4ccc([nH]4)c(-c4cc(S(=O)(=O)[O-])ccc4F)c4nc(c(-c5cc(S(=O)(=O)[O-])ccc5F)c5ccc2[nH]5)C=C4)C=C3)cc1)C1(O)Cc2ccccc2C1
REMARK SMILES IDX 14 1 13 2 12 3 11 4 10 5 9 6 8 7 6 8 7 9 5 10 4 11 3 12 2 13
REMARK SMILES IDX 1 14 86 15 88 16 95 17 89 18 94 19 90 20 93 21 91 22 92 23
REMARK SMILES IDX 87 24 15 26 16 27 17 28 18 29 19 30 20 31 21 32 22 33 23 34
REMARK SMILES IDX 24 35 85 36 25 37 84 38 26 39 27 40 28 41 78 42 29 43 83 44
REMARK SMILES IDX 77 45 79 46 30 47 82 48 76 49 75 50 31 52 63 53 43 54 62 55
REMARK SMILES IDX 44 56 47 57 61 58 80 59 45 60 46 61 60 63 81 64 48 65 32 66
REMARK SMILES IDX 33 67 41 68 34 69 40 70 42 71 39 72 35 73 36 74 37 75 38 76
REMARK SMILES IDX 64 77 65 78 73 79 66 80 72 81 74 82 71 83 67 84 68 85 69 86
REMARK SMILES IDX 70 87 49 88 50 89 58 90 51 91 57 92 59 93 56 94 52 95 53 96
REMARK SMILES IDX 54 97 55 98
REMARK H PARENT 87 25 79 51 47 62
REMARK Flexibility Score: inf
ROOT
ATOM      1  O   UNL A   1      42.217  19.641  25.286  1.00  0.00    -0.377 OA
ENDROOT
BRANCH   1   2
ATOM      2  C   UNL A   1      41.497  20.200  26.356  1.00  0.00     0.188 C 
BRANCH   2   3
ATOM      3  C   UNL A   1      39.972  20.182  26.235  1.00  0.00     0.188 C 
BRANCH   3   4
ATOM      4  O   UNL A   1      39.350  19.359  25.258  1.00  0.00    -0.376 OA
BRANCH   4   5
ATOM      5  C   UNL A   1      37.932  19.368  25.117  1.00  0.00     0.202 C 
BRANCH   5   6
ATOM      6  C   UNL A   1      37.235  20.694  24.763  1.00  0.00     0.261 C 
BRANCH   6   7
ATOM      7  O   UNL A   1      35.822  20.683  25.045  1.00  0.00    -0.463 OA
BRANCH   7   8
ATOM      8  C   UNL A   1      35.358  21.693  25.836  1.00  0.00     0.311 C 
ATOM      9  O   UNL A   1      34.864  21.528  26.946  1.00  0.00    -0.252 OA
BRANCH   8  10
ATOM     10  C   UNL A   1      35.757  23.093  25.315  1.00  0.00     0.131 C 
BRANCH  10  11
ATOM     11  C   UNL A   1      36.631  23.925  26.304  1.00  0.00     0.018 C 
BRANCH  11  12
ATOM     12  C   UNL A   1      38.160  23.980  26.137  1.00  0.00     0.001 C 
BRANCH  12  13
ATOM     13  C   UNL A   1      38.980  24.389  27.354  1.00  0.00    -0.003 C 
ATOM     14  C   UNL A   1      40.470  24.182  27.159  1.00  0.00     0.004 C 
ENDBRANCH  12  13
ENDBRANCH  11  12
ENDBRANCH  10  11
BRANCH  10  15
ATOM     15  C   UNL A   1      34.460  23.805  24.774  1.00  0.00     0.086 C 
ATOM     16  C   UNL A   1      33.993  25.077  25.566  1.00  0.00     0.072 C 
ATOM     17  C   UNL A   1      34.321  24.345  23.321  1.00  0.00     0.072 C 
ATOM     18  C   UNL A   1      32.757  25.434  24.781  1.00  0.00    -0.042 A 
ATOM     19  C   UNL A   1      32.894  24.910  23.483  1.00  0.00    -0.042 A 
ATOM     20  C   UNL A   1      31.527  25.718  25.365  1.00  0.00     0.004 A 
ATOM     21  C   UNL A   1      31.750  24.501  22.811  1.00  0.00     0.004 A 
ATOM     22  C   UNL A   1      30.387  25.299  24.689  1.00  0.00     0.000 A 
ATOM     23  C   UNL A   1      30.501  24.666  23.440  1.00  0.00     0.000 A 
BRANCH  15  24
ATOM     24  O   UNL A   1      33.442  22.772  24.792  1.00  0.00    -0.388 OA
ATOM     25  H   UNL A   1      32.840  22.923  25.539  1.00  0.00     0.211 HD
ENDBRANCH  15  24
ENDBRANCH  10  15
ENDBRANCH   8  10
ENDBRANCH   7   8
ENDBRANCH   6   7
ENDBRANCH   5   6
ENDBRANCH   4   5
ENDBRANCH   3   4
ENDBRANCH   2   3
ENDBRANCH   1   2
BRANCH   1  26
ATOM     26  C   UNL A   1      43.528  19.175  25.537  1.00  0.00     0.188 C 
BRANCH  26  27
ATOM     27  C   UNL A   1      44.705  19.538  24.611  1.00  0.00     0.188 C 
BRANCH  27  28
ATOM     28  O   UNL A   1      45.897  19.943  25.284  1.00  0.00    -0.376 OA
BRANCH  28  29
ATOM     29  C   UNL A   1      46.159  21.336  25.359  1.00  0.00     0.202 C 
BRANCH  29  30
ATOM     30  C   UNL A   1      46.045  22.069  24.017  1.00  0.00     0.261 C 
BRANCH  30  31
ATOM     31  O   UNL A   1      45.473  23.381  24.083  1.00  0.00    -0.460 OA
BRANCH  31  32
ATOM     32  C   UNL A   1      44.179  23.480  24.478  1.00  0.00     0.338 C 
ATOM     33  O   UNL A   1      43.249  22.801  24.110  1.00  0.00    -0.246 OA
BRANCH  32  34
ATOM     34  C   UNL A   1      44.160  24.413  25.630  1.00  0.00     0.060 A 
ATOM     35  C   UNL A   1      43.915  23.891  26.909  1.00  0.00     0.016 A 
ATOM     36  C   UNL A   1      44.517  25.755  25.465  1.00  0.00     0.016 A 
ATOM     37  C   UNL A   1      44.017  24.718  28.027  1.00  0.00     0.010 A 
ATOM     38  C   UNL A   1      44.583  26.590  26.581  1.00  0.00     0.010 A 
ATOM     39  C   UNL A   1      44.305  26.080  27.860  1.00  0.00    -0.014 A 
BRANCH  39  40
ATOM     40  C   UNL A   1      44.024  27.015  28.974  1.00  0.00     0.031 A 
ATOM     41  C   UNL A   1      45.121  27.217  29.983  1.00  0.00     0.074 A 
ATOM     42  C   UNL A   1      42.854  27.667  29.086  1.00  0.00     0.049 A 
ATOM     43  N   UNL A   1      45.143  27.960  31.055  1.00  0.00    -0.248 NA
ATOM     44  C   UNL A   1      46.364  26.463  29.743  1.00  0.00     0.031 C 
ATOM     45  C   UNL A   1      41.735  27.569  28.152  1.00  0.00     0.029 A 
ATOM     46  N   UNL A   1      42.416  28.542  30.048  1.00  0.00    -0.354 N 
ATOM     47  C   UNL A   1      46.404  27.772  31.613  1.00  0.00     0.074 A 
ATOM     48  C   UNL A   1      47.097  26.810  30.786  1.00  0.00     0.031 C 
ATOM     49  C   UNL A   1      40.730  28.346  28.597  1.00  0.00     0.029 A 
ATOM     50  C   UNL A   1      41.124  28.973  29.858  1.00  0.00     0.049 A 
ATOM     51  H   UNL A   1      42.975  28.833  30.805  1.00  0.00     0.167 HD
ATOM     52  C   UNL A   1      46.939  28.357  32.710  1.00  0.00     0.034 A 
ATOM     53  C   UNL A   1      40.352  29.766  30.630  1.00  0.00     0.034 A 
ATOM     54  C   UNL A   1      46.218  29.281  33.546  1.00  0.00     0.049 A 
ATOM     55  C   UNL A   1      40.935  30.336  31.903  1.00  0.00     0.074 A 
ATOM     56  C   UNL A   1      46.654  29.937  34.683  1.00  0.00     0.029 A 
ATOM     57  N   UNL A   1      44.895  29.662  33.349  1.00  0.00    -0.354 N 
ATOM     58  N   UNL A   1      42.140  30.177  32.408  1.00  0.00    -0.248 NA
ATOM     59  C   UNL A   1      40.059  31.199  32.705  1.00  0.00     0.031 C 
ATOM     60  C   UNL A   1      45.574  30.653  35.213  1.00  0.00     0.029 A 
ATOM     61  C   UNL A   1      44.488  30.513  34.362  1.00  0.00     0.049 A 
ATOM     62  H   UNL A   1      44.331  29.368  32.598  1.00  0.00     0.167 HD
ATOM     63  C   UNL A   1      42.171  30.946  33.571  1.00  0.00     0.074 A 
ATOM     64  C   UNL A   1      40.871  31.578  33.681  1.00  0.00     0.031 C 
ATOM     65  C   UNL A   1      43.179  31.119  34.464  1.00  0.00     0.034 A 
BRANCH  52  66
ATOM     66  C   UNL A   1      48.342  27.948  33.086  1.00  0.00     0.023 A 
ATOM     67  C   UNL A   1      49.471  28.597  32.551  1.00  0.00     0.031 A 
ATOM     68  C   UNL A   1      48.556  26.850  33.936  1.00  0.00     0.131 A 
ATOM     69  C   UNL A   1      50.755  28.091  32.805  1.00  0.00     0.055 A 
ATOM     70  C   UNL A   1      49.840  26.404  34.252  1.00  0.00     0.041 A 
ATOM     71  F   UNL A   1      47.519  26.171  34.452  1.00  0.00    -0.206 F 
ATOM     72  C   UNL A   1      50.948  27.014  33.672  1.00  0.00     0.022 A 
BRANCH  69  73
ATOM     73  S   UNL A   1      52.152  28.756  31.856  1.00  0.00     0.124 S 
ATOM     74  O   UNL A   1      53.108  27.653  31.926  1.00  0.00    -0.237 OA
ATOM     75  O   UNL A   1      51.556  29.002  30.548  1.00  0.00    -0.237 OA
ATOM     76  O   UNL A   1      52.536  29.951  32.604  1.00  0.00    -0.744 OA
ENDBRANCH  69  73
ENDBRANCH  52  66
BRANCH  53  77
ATOM     77  C   UNL A   1      38.933  30.041  30.255  1.00  0.00     0.023 A 
ATOM     78  C   UNL A   1      38.549  31.268  29.691  1.00  0.00     0.031 A 
ATOM     79  C   UNL A   1      37.927  29.093  30.515  1.00  0.00     0.131 A 
ATOM     80  C   UNL A   1      37.191  31.531  29.442  1.00  0.00     0.055 A 
ATOM     81  C   UNL A   1      36.584  29.339  30.220  1.00  0.00     0.041 A 
ATOM     82  F   UNL A   1      38.236  27.905  31.059  1.00  0.00    -0.206 F 
ATOM     83  C   UNL A   1      36.209  30.570  29.690  1.00  0.00     0.022 A 
BRANCH  80  84
ATOM     84  S   UNL A   1      36.714  33.182  28.858  1.00  0.00     0.124 S 
ATOM     85  O   UNL A   1      38.013  33.824  28.688  1.00  0.00    -0.237 OA
ATOM     86  O   UNL A   1      35.985  32.871  27.632  1.00  0.00    -0.237 OA
ATOM     87  O   UNL A   1      35.897  33.707  29.950  1.00  0.00    -0.744 OA
ENDBRANCH  80  84
ENDBRANCH  53  77
BRANCH  65  88
ATOM     88  C   UNL A   1      42.922  32.061  35.617  1.00  0.00     0.023 A 
ATOM     89  C   UNL A   1      43.153  33.444  35.511  1.00  0.00     0.031 A 
ATOM     90  C   UNL A   1      42.446  31.564  36.843  1.00  0.00     0.131 A 
ATOM     91  C   UNL A   1      42.968  34.272  36.628  1.00  0.00     0.055 A 
ATOM     92  C   UNL A   1      42.200  32.402  37.931  1.00  0.00     0.041 A 
ATOM     93  F   UNL A   1      42.207  30.252  37.003  1.00  0.00    -0.206 F 
ATOM     94  C   UNL A   1      42.475  33.762  37.833  1.00  0.00     0.022 A 
BRANCH  91  95
ATOM     95  S   UNL A   1      43.480  36.008  36.521  1.00  0.00     0.124 S 
ATOM     96  O   UNL A   1      44.922  35.912  36.726  1.00  0.00    -0.237 OA
ATOM     97  O   UNL A   1      43.049  36.378  35.176  1.00  0.00    -0.237 OA
ATOM     98  O   UNL A   1      42.742  36.651  37.607  1.00  0.00    -0.744 OA
ENDBRANCH  91  95
ENDBRANCH  65  88
ENDBRANCH  39  40
ENDBRANCH  32  34
ENDBRANCH  31  32
ENDBRANCH  30  31
ENDBRANCH  29  30
ENDBRANCH  28  29
ENDBRANCH  27  28
ENDBRANCH  26  27
ENDBRANCH   1  26
TORSDOF 28
ENDMDL
