MODEL 1
REMARK VINA RESULT:      -8.1      0.000      0.000
REMARK SMILES Cc1cc2c(c(C)c1Cl)C=C(C(=O)OCCOCCOCCOCCOC(=O)c1ccc(-c3c4nc(c(-c5cc(S(=O)(=O)[O-])ccc5F)c5ccc([nH]5)c(-c5cc(S(=O)(=O)[O-])ccc5F)c5nc(c(-c6cc(S(=O)(=O)[O-])ccc6F)c6ccc3[nH]6)C=C5)C=C4)cc1)[C@@H](C(F)(F)F)O2
REMARK SMILES IDX 21 1 20 2 19 3 18 4 17 5 16 6 15 7 14 8 12 9 13 10 11 11
REMARK SMILES IDX 1 12 2 13 3 14 8 15 4 16 6 17 9 18 5 19 97 20 7 21 10 22
REMARK SMILES IDX 92 23 93 24 94 25 95 26 96 27 22 28 23 29 24 30 25 31 26 32
REMARK SMILES IDX 27 33 28 34 29 35 30 36 91 37 31 38 90 39 32 40 33 41 34 42
REMARK SMILES IDX 84 43 35 44 89 45 83 46 85 47 36 48 88 49 82 50 81 51 37 53
REMARK SMILES IDX 69 54 49 55 68 56 50 57 53 58 67 59 86 60 51 61 52 62 66 64
REMARK SMILES IDX 87 65 54 66 38 67 39 68 47 69 40 70 46 71 48 72 45 73 41 74
REMARK SMILES IDX 42 75 43 76 44 77 70 78 71 79 79 80 72 81 78 82 80 83 77 84
REMARK SMILES IDX 73 85 74 86 75 87 76 88 55 89 56 90 64 91 57 92 63 93 65 94
REMARK SMILES IDX 62 95 58 96 59 97 60 98 61 99
REMARK H PARENT 85 52 53 63
REMARK Flexibility Score: inf
ROOT
ATOM      1  C   UNL A   1      43.858  18.636  25.204  1.00  0.00     0.188 C 
ENDROOT
BRANCH   1   2
ATOM      2  O   UNL A   1      42.794  18.991  26.088  1.00  0.00    -0.377 OA
BRANCH   2   3
ATOM      3  C   UNL A   1      42.372  20.345  26.097  1.00  0.00     0.188 C 
BRANCH   3   4
ATOM      4  C   UNL A   1      40.971  20.529  26.710  1.00  0.00     0.188 C 
BRANCH   4   5
ATOM      5  O   UNL A   1      40.650  21.874  27.015  1.00  0.00    -0.376 OA
BRANCH   5   6
ATOM      6  C   UNL A   1      41.411  22.632  27.942  1.00  0.00     0.202 C 
BRANCH   6   7
ATOM      7  C   UNL A   1      41.844  24.100  27.750  1.00  0.00     0.261 C 
BRANCH   7   8
ATOM      8  O   UNL A   1      41.280  25.077  28.624  1.00  0.00    -0.460 OA
BRANCH   8   9
ATOM      9  C   UNL A   1      40.330  25.891  28.132  1.00  0.00     0.338 C 
ATOM     10  O   UNL A   1      39.339  25.570  27.502  1.00  0.00    -0.246 OA
BRANCH   9  11
ATOM     11  C   UNL A   1      40.597  27.247  28.663  1.00  0.00     0.087 C 
ATOM     12  C   UNL A   1      40.404  33.087  31.418  1.00  0.00     0.046 C 
ATOM     13  C   UNL A   1      40.376  31.610  31.133  1.00  0.00    -0.028 A 
ATOM     14  C   UNL A   1      41.109  31.121  30.046  1.00  0.00     0.052 A 
ATOM     15  C   UNL A   1      39.599  30.712  31.890  1.00  0.00     0.047 A 
ATOM     16  C   UNL A   1      41.005  29.788  29.656  1.00  0.00     0.128 A 
ATOM     17  C   UNL A   1      39.511  29.347  31.533  1.00  0.00    -0.021 A 
ATOM     18  Cl  UNL A   1      38.712  31.328  33.253  1.00  0.00    -0.084 Cl
ATOM     19  C   UNL A   1      40.172  28.910  30.356  1.00  0.00     0.022 A 
ATOM     20  O   UNL A   1      41.744  29.450  28.561  1.00  0.00    -0.475 OA
ATOM     21  C   UNL A   1      38.748  28.348  32.373  1.00  0.00     0.047 C 
ATOM     22  C   UNL A   1      39.953  27.583  29.787  1.00  0.00     0.027 C 
ATOM     23  C   UNL A   1      41.616  28.122  27.988  1.00  0.00     0.316 C 
BRANCH  23  24
ATOM     24  C   UNL A   1      41.343  28.284  26.486  1.00  0.00     0.430 C 
ATOM     25  F   UNL A   1      41.416  27.094  25.841  1.00  0.00    -0.167 F 
ATOM     26  F   UNL A   1      40.115  28.789  26.239  1.00  0.00    -0.167 F 
ATOM     27  F   UNL A   1      42.245  29.111  25.906  1.00  0.00    -0.167 F 
ENDBRANCH  23  24
ENDBRANCH   9  11
ENDBRANCH   8   9
ENDBRANCH   7   8
ENDBRANCH   6   7
ENDBRANCH   5   6
ENDBRANCH   4   5
ENDBRANCH   3   4
ENDBRANCH   2   3
ENDBRANCH   1   2
BRANCH   1  28
ATOM     28  C   UNL A   1      45.305  18.449  25.720  1.00  0.00     0.188 C 
BRANCH  28  29
ATOM     29  O   UNL A   1      46.290  19.144  24.959  1.00  0.00    -0.376 OA
BRANCH  29  30
ATOM     30  C   UNL A   1      45.883  20.325  24.285  1.00  0.00     0.202 C 
BRANCH  30  31
ATOM     31  C   UNL A   1      45.878  21.598  25.143  1.00  0.00     0.261 C 
BRANCH  31  32
ATOM     32  O   UNL A   1      45.534  22.810  24.454  1.00  0.00    -0.460 OA
BRANCH  32  33
ATOM     33  C   UNL A   1      46.424  23.825  24.502  1.00  0.00     0.338 C 
ATOM     34  O   UNL A   1      47.286  24.082  23.681  1.00  0.00    -0.246 OA
BRANCH  33  35
ATOM     35  C   UNL A   1      46.042  24.695  25.633  1.00  0.00     0.060 A 
ATOM     36  C   UNL A   1      44.773  25.289  25.636  1.00  0.00     0.016 A 
ATOM     37  C   UNL A   1      46.926  24.903  26.695  1.00  0.00     0.016 A 
ATOM     38  C   UNL A   1      44.397  26.119  26.693  1.00  0.00     0.010 A 
ATOM     39  C   UNL A   1      46.557  25.754  27.739  1.00  0.00     0.010 A 
ATOM     40  C   UNL A   1      45.304  26.390  27.727  1.00  0.00    -0.014 A 
BRANCH  40  41
ATOM     41  C   UNL A   1      45.032  27.504  28.667  1.00  0.00     0.031 A 
ATOM     42  C   UNL A   1      44.581  27.155  30.059  1.00  0.00     0.074 A 
ATOM     43  C   UNL A   1      45.218  28.788  28.314  1.00  0.00     0.049 A 
ATOM     44  N   UNL A   1      44.241  27.943  31.044  1.00  0.00    -0.248 NA
ATOM     45  C   UNL A   1      44.508  25.720  30.384  1.00  0.00     0.031 C 
ATOM     46  C   UNL A   1      45.716  29.247  27.019  1.00  0.00     0.029 A 
ATOM     47  N   UNL A   1      45.013  29.946  29.024  1.00  0.00    -0.354 N 
ATOM     48  C   UNL A   1      43.924  27.104  32.106  1.00  0.00     0.074 A 
ATOM     49  C   UNL A   1      44.074  25.746  31.634  1.00  0.00     0.031 C 
ATOM     50  C   UNL A   1      45.783  30.591  27.030  1.00  0.00     0.029 A 
ATOM     51  C   UNL A   1      45.296  31.089  28.316  1.00  0.00     0.049 A 
ATOM     52  H   UNL A   1      44.691  29.955  29.955  1.00  0.00     0.167 HD
ATOM     53  C   UNL A   1      43.557  27.436  33.365  1.00  0.00     0.034 A 
ATOM     54  C   UNL A   1      45.160  32.387  28.661  1.00  0.00     0.034 A 
ATOM     55  C   UNL A   1      43.400  28.790  33.824  1.00  0.00     0.049 A 
ATOM     56  C   UNL A   1      44.629  32.732  30.032  1.00  0.00     0.074 A 
ATOM     57  C   UNL A   1      43.018  29.232  35.078  1.00  0.00     0.029 A 
ATOM     58  N   UNL A   1      43.611  29.921  33.048  1.00  0.00    -0.354 N 
ATOM     59  N   UNL A   1      44.300  31.928  31.017  1.00  0.00    -0.248 NA
ATOM     60  C   UNL A   1      44.446  34.159  30.338  1.00  0.00     0.031 C 
ATOM     61  C   UNL A   1      42.935  30.626  35.042  1.00  0.00     0.029 A 
ATOM     62  C   UNL A   1      43.336  31.059  33.788  1.00  0.00     0.049 A 
ATOM     63  H   UNL A   1      43.912  29.915  32.111  1.00  0.00     0.167 HD
ATOM     64  C   UNL A   1      43.894  32.753  32.064  1.00  0.00     0.074 A 
ATOM     65  C   UNL A   1      44.025  34.116  31.594  1.00  0.00     0.031 C 
ATOM     66  C   UNL A   1      43.461  32.412  33.303  1.00  0.00     0.034 A 
BRANCH  53  67
ATOM     67  C   UNL A   1      43.268  26.314  34.324  1.00  0.00     0.023 A 
ATOM     68  C   UNL A   1      44.298  25.517  34.852  1.00  0.00     0.031 A 
ATOM     69  C   UNL A   1      41.949  26.050  34.731  1.00  0.00     0.131 A 
ATOM     70  C   UNL A   1      43.988  24.470  35.732  1.00  0.00     0.055 A 
ATOM     71  C   UNL A   1      41.653  25.047  35.654  1.00  0.00     0.041 A 
ATOM     72  F   UNL A   1      40.926  26.768  34.237  1.00  0.00    -0.206 F 
ATOM     73  C   UNL A   1      42.675  24.247  36.156  1.00  0.00     0.022 A 
BRANCH  70  74
ATOM     74  S   UNL A   1      45.315  23.355  36.260  1.00  0.00     0.124 S 
ATOM     75  O   UNL A   1      45.248  23.487  37.713  1.00  0.00    -0.237 OA
ATOM     76  O   UNL A   1      44.888  22.072  35.716  1.00  0.00    -0.237 OA
ATOM     77  O   UNL A   1      46.509  23.928  35.643  1.00  0.00    -0.744 OA
ENDBRANCH  70  74
ENDBRANCH  53  67
BRANCH  54  78
ATOM     78  C   UNL A   1      45.501  33.464  27.688  1.00  0.00     0.023 A 
ATOM     79  C   UNL A   1      46.831  33.868  27.494  1.00  0.00     0.031 A 
ATOM     80  C   UNL A   1      44.496  34.124  26.960  1.00  0.00     0.131 A 
ATOM     81  C   UNL A   1      47.119  34.920  26.608  1.00  0.00     0.055 A 
ATOM     82  C   UNL A   1      44.790  35.141  26.050  1.00  0.00     0.041 A 
ATOM     83  F   UNL A   1      43.207  33.777  27.112  1.00  0.00    -0.206 F 
ATOM     84  C   UNL A   1      46.109  35.549  25.875  1.00  0.00     0.022 A 
BRANCH  81  85
ATOM     85  S   UNL A   1      48.836  35.484  26.455  1.00  0.00     0.124 S 
ATOM     86  O   UNL A   1      49.535  34.550  27.329  1.00  0.00    -0.237 OA
ATOM     87  O   UNL A   1      49.080  35.331  25.024  1.00  0.00    -0.237 OA
ATOM     88  O   UNL A   1      48.784  36.865  26.930  1.00  0.00    -0.744 OA
ENDBRANCH  81  85
ENDBRANCH  54  78
BRANCH  66  89
ATOM     89  C   UNL A   1      43.116  33.526  34.259  1.00  0.00     0.023 A 
ATOM     90  C   UNL A   1      41.786  33.915  34.483  1.00  0.00     0.031 A 
ATOM     91  C   UNL A   1      44.129  34.158  35.000  1.00  0.00     0.131 A 
ATOM     92  C   UNL A   1      41.504  34.927  35.413  1.00  0.00     0.055 A 
ATOM     93  C   UNL A   1      43.840  35.130  35.959  1.00  0.00     0.041 A 
ATOM     94  F   UNL A   1      45.417  33.817  34.828  1.00  0.00    -0.206 F 
ATOM     95  C   UNL A   1      42.520  35.523  36.165  1.00  0.00     0.022 A 
BRANCH  92  96
ATOM     96  S   UNL A   1      39.788  35.480  35.607  1.00  0.00     0.124 S 
ATOM     97  O   UNL A   1      39.348  34.702  36.760  1.00  0.00    -0.237 OA
ATOM     98  O   UNL A   1      39.942  36.914  35.828  1.00  0.00    -0.237 OA
ATOM     99  O   UNL A   1      39.163  35.115  34.336  1.00  0.00    -0.744 OA
ENDBRANCH  92  96
ENDBRANCH  66  89
ENDBRANCH  40  41
ENDBRANCH  33  35
ENDBRANCH  32  33
ENDBRANCH  31  32
ENDBRANCH  30  31
ENDBRANCH  29  30
ENDBRANCH  28  29
ENDBRANCH   1  28
TORSDOF 24
ENDMDL
MODEL 2
REMARK VINA RESULT:      -7.9      0.720      7.210
REMARK SMILES Cc1cc2c(c(C)c1Cl)C=C(C(=O)OCCOCCOCCOCCOC(=O)c1ccc(-c3c4nc(c(-c5cc(S(=O)(=O)[O-])ccc5F)c5ccc([nH]5)c(-c5cc(S(=O)(=O)[O-])ccc5F)c5nc(c(-c6cc(S(=O)(=O)[O-])ccc6F)c6ccc3[nH]6)C=C5)C=C4)cc1)[C@@H](C(F)(F)F)O2
REMARK SMILES IDX 21 1 20 2 19 3 18 4 17 5 16 6 15 7 14 8 12 9 13 10 11 11
REMARK SMILES IDX 1 12 2 13 3 14 8 15 4 16 6 17 9 18 5 19 97 20 7 21 10 22
REMARK SMILES IDX 92 23 93 24 94 25 95 26 96 27 22 28 23 29 24 30 25 31 26 32
REMARK SMILES IDX 27 33 28 34 29 35 30 36 91 37 31 38 90 39 32 40 33 41 34 42
REMARK SMILES IDX 84 43 35 44 89 45 83 46 85 47 36 48 88 49 82 50 81 51 37 53
REMARK SMILES IDX 69 54 49 55 68 56 50 57 53 58 67 59 86 60 51 61 52 62 66 64
REMARK SMILES IDX 87 65 54 66 38 67 39 68 47 69 40 70 46 71 48 72 45 73 41 74
REMARK SMILES IDX 42 75 43 76 44 77 70 78 71 79 79 80 72 81 78 82 80 83 77 84
REMARK SMILES IDX 73 85 74 86 75 87 76 88 55 89 56 90 64 91 57 92 63 93 65 94
REMARK SMILES IDX 62 95 58 96 59 97 60 98 61 99
REMARK H PARENT 85 52 53 63
REMARK Flexibility Score: inf
ROOT
ATOM      1  C   UNL A   1      43.611  18.773  25.155  1.00  0.00     0.188 C 
ENDROOT
BRANCH   1   2
ATOM      2  O   UNL A   1      42.595  19.102  26.104  1.00  0.00    -0.377 OA
BRANCH   2   3
ATOM      3  C   UNL A   1      42.044  20.407  26.050  1.00  0.00     0.188 C 
BRANCH   3   4
ATOM      4  C   UNL A   1      40.621  20.478  26.636  1.00  0.00     0.188 C 
BRANCH   4   5
ATOM      5  O   UNL A   1      40.218  21.783  27.007  1.00  0.00    -0.376 OA
BRANCH   5   6
ATOM      6  C   UNL A   1      41.084  22.662  27.709  1.00  0.00     0.202 C 
BRANCH   6   7
ATOM      7  C   UNL A   1      41.327  24.144  27.356  1.00  0.00     0.261 C 
BRANCH   7   8
ATOM      8  O   UNL A   1      41.005  25.122  28.345  1.00  0.00    -0.460 OA
BRANCH   8   9
ATOM      9  C   UNL A   1      39.958  25.932  28.113  1.00  0.00     0.338 C 
ATOM     10  O   UNL A   1      38.906  25.640  27.576  1.00  0.00    -0.246 OA
BRANCH   9  11
ATOM     11  C   UNL A   1      40.231  27.210  28.809  1.00  0.00     0.087 C 
ATOM     12  C   UNL A   1      40.037  32.712  32.189  1.00  0.00     0.046 C 
ATOM     13  C   UNL A   1      39.984  31.277  31.738  1.00  0.00    -0.028 A 
ATOM     14  C   UNL A   1      40.769  30.886  30.649  1.00  0.00     0.052 A 
ATOM     15  C   UNL A   1      39.133  30.329  32.341  1.00  0.00     0.047 A 
ATOM     16  C   UNL A   1      40.650  29.608  30.105  1.00  0.00     0.128 A 
ATOM     17  C   UNL A   1      39.027  29.017  31.827  1.00  0.00    -0.021 A 
ATOM     18  Cl  UNL A   1      38.180  30.823  33.710  1.00  0.00    -0.084 Cl
ATOM     19  C   UNL A   1      39.749  28.690  30.651  1.00  0.00     0.022 A 
ATOM     20  O   UNL A   1      41.447  29.367  29.025  1.00  0.00    -0.475 OA
ATOM     21  C   UNL A   1      38.184  27.959  32.503  1.00  0.00     0.047 C 
ATOM     22  C   UNL A   1      39.527  27.443  29.924  1.00  0.00     0.027 C 
ATOM     23  C   UNL A   1      41.316  28.117  28.299  1.00  0.00     0.316 C 
BRANCH  23  24
ATOM     24  C   UNL A   1      41.144  28.454  26.811  1.00  0.00     0.430 C 
ATOM     25  F   UNL A   1      42.057  29.369  26.405  1.00  0.00    -0.167 F 
ATOM     26  F   UNL A   1      41.295  27.371  26.019  1.00  0.00    -0.167 F 
ATOM     27  F   UNL A   1      39.917  28.971  26.561  1.00  0.00    -0.167 F 
ENDBRANCH  23  24
ENDBRANCH   9  11
ENDBRANCH   8   9
ENDBRANCH   7   8
ENDBRANCH   6   7
ENDBRANCH   5   6
ENDBRANCH   4   5
ENDBRANCH   3   4
ENDBRANCH   2   3
ENDBRANCH   1   2
BRANCH   1  28
ATOM     28  C   UNL A   1      45.100  18.682  25.569  1.00  0.00     0.188 C 
BRANCH  28  29
ATOM     29  O   UNL A   1      45.980  19.453  24.755  1.00  0.00    -0.376 OA
BRANCH  29  30
ATOM     30  C   UNL A   1      45.544  20.746  24.363  1.00  0.00     0.202 C 
BRANCH  30  31
ATOM     31  C   UNL A   1      45.831  21.867  25.372  1.00  0.00     0.261 C 
BRANCH  31  32
ATOM     32  O   UNL A   1      45.307  23.159  25.030  1.00  0.00    -0.460 OA
BRANCH  32  33
ATOM     33  C   UNL A   1      46.198  24.147  24.792  1.00  0.00     0.338 C 
ATOM     34  O   UNL A   1      47.006  24.200  23.882  1.00  0.00    -0.246 OA
BRANCH  33  35
ATOM     35  C   UNL A   1      45.889  25.253  25.719  1.00  0.00     0.060 A 
ATOM     36  C   UNL A   1      46.872  25.681  26.622  1.00  0.00     0.016 A 
ATOM     37  C   UNL A   1      44.640  25.879  25.680  1.00  0.00     0.016 A 
ATOM     38  C   UNL A   1      46.594  26.720  27.510  1.00  0.00     0.010 A 
ATOM     39  C   UNL A   1      44.356  26.903  26.587  1.00  0.00     0.010 A 
ATOM     40  C   UNL A   1      45.321  27.306  27.526  1.00  0.00    -0.014 A 
BRANCH  40  41
ATOM     41  C   UNL A   1      44.927  28.173  28.663  1.00  0.00     0.031 A 
ATOM     42  C   UNL A   1      44.970  29.663  28.458  1.00  0.00     0.074 A 
ATOM     43  C   UNL A   1      44.503  27.659  29.831  1.00  0.00     0.049 A 
ATOM     44  N   UNL A   1      44.718  30.625  29.306  1.00  0.00    -0.248 NA
ATOM     45  C   UNL A   1      45.346  30.129  27.113  1.00  0.00     0.031 C 
ATOM     46  C   UNL A   1      44.353  26.235  30.124  1.00  0.00     0.029 A 
ATOM     47  N   UNL A   1      44.114  28.283  30.990  1.00  0.00    -0.354 N 
ATOM     48  C   UNL A   1      44.893  31.807  28.596  1.00  0.00     0.074 A 
ATOM     49  C   UNL A   1      45.312  31.444  27.261  1.00  0.00     0.031 C 
ATOM     50  C   UNL A   1      43.898  26.096  31.382  1.00  0.00     0.029 A 
ATOM     51  C   UNL A   1      43.762  27.416  31.997  1.00  0.00     0.049 A 
ATOM     52  H   UNL A   1      44.089  29.263  31.091  1.00  0.00     0.167 HD
ATOM     53  C   UNL A   1      44.707  33.080  29.015  1.00  0.00     0.034 A 
ATOM     54  C   UNL A   1      43.391  27.662  33.271  1.00  0.00     0.034 A 
ATOM     55  C   UNL A   1      44.301  33.434  30.349  1.00  0.00     0.049 A 
ATOM     56  C   UNL A   1      43.310  29.091  33.753  1.00  0.00     0.074 A 
ATOM     57  C   UNL A   1      44.097  34.696  30.877  1.00  0.00     0.029 A 
ATOM     58  N   UNL A   1      44.039  32.527  31.366  1.00  0.00    -0.354 N 
ATOM     59  N   UNL A   1      43.512  30.201  33.081  1.00  0.00    -0.248 NA
ATOM     60  C   UNL A   1      42.956  29.301  35.164  1.00  0.00     0.031 C 
ATOM     61  C   UNL A   1      43.777  34.556  32.230  1.00  0.00     0.029 A 
ATOM     62  C   UNL A   1      43.708  33.204  32.528  1.00  0.00     0.049 A 
ATOM     63  H   UNL A   1      44.083  31.548  31.276  1.00  0.00     0.167 HD
ATOM     64  C   UNL A   1      43.288  31.239  33.982  1.00  0.00     0.074 A 
ATOM     65  C   UNL A   1      42.928  30.624  35.243  1.00  0.00     0.031 C 
ATOM     66  C   UNL A   1      43.363  32.579  33.782  1.00  0.00     0.034 A 
BRANCH  53  67
ATOM     67  C   UNL A   1      44.975  34.184  28.029  1.00  0.00     0.023 A 
ATOM     68  C   UNL A   1      46.272  34.678  27.816  1.00  0.00     0.031 A 
ATOM     69  C   UNL A   1      43.922  34.735  27.278  1.00  0.00     0.131 A 
ATOM     70  C   UNL A   1      46.481  35.718  26.900  1.00  0.00     0.055 A 
ATOM     71  C   UNL A   1      44.144  35.727  26.322  1.00  0.00     0.041 A 
ATOM     72  F   UNL A   1      42.660  34.314  27.461  1.00  0.00    -0.206 F 
ATOM     73  C   UNL A   1      45.429  36.228  26.133  1.00  0.00     0.022 A 
BRANCH  70  74
ATOM     74  S   UNL A   1      48.135  36.449  26.773  1.00  0.00     0.124 S 
ATOM     75  O   UNL A   1      48.131  37.379  27.900  1.00  0.00    -0.237 OA
ATOM     76  O   UNL A   1      49.006  35.287  26.908  1.00  0.00    -0.237 OA
ATOM     77  O   UNL A   1      48.131  37.077  25.454  1.00  0.00    -0.744 OA
ENDBRANCH  70  74
ENDBRANCH  53  67
BRANCH  54  78
ATOM     78  C   UNL A   1      43.094  26.532  34.199  1.00  0.00     0.023 A 
ATOM     79  C   UNL A   1      44.112  25.670  34.636  1.00  0.00     0.031 A 
ATOM     80  C   UNL A   1      41.783  26.284  34.638  1.00  0.00     0.131 A 
ATOM     81  C   UNL A   1      43.797  24.584  35.470  1.00  0.00     0.055 A 
ATOM     82  C   UNL A   1      41.480  25.228  35.500  1.00  0.00     0.041 A 
ATOM     83  F   UNL A   1      40.773  27.078  34.246  1.00  0.00    -0.206 F 
ATOM     84  C   UNL A   1      42.490  24.366  35.915  1.00  0.00     0.022 A 
BRANCH  81  85
ATOM     85  S   UNL A   1      45.118  23.431  35.936  1.00  0.00     0.124 S 
ATOM     86  O   UNL A   1      44.561  22.154  35.508  1.00  0.00    -0.237 OA
ATOM     87  O   UNL A   1      46.247  23.933  35.160  1.00  0.00    -0.237 OA
ATOM     88  O   UNL A   1      45.231  23.610  37.382  1.00  0.00    -0.744 OA
ENDBRANCH  81  85
ENDBRANCH  54  78
BRANCH  66  89
ATOM     89  C   UNL A   1      43.030  33.483  34.940  1.00  0.00     0.023 A 
ATOM     90  C   UNL A   1      41.706  33.854  35.224  1.00  0.00     0.031 A 
ATOM     91  C   UNL A   1      44.046  33.924  35.807  1.00  0.00     0.131 A 
ATOM     92  C   UNL A   1      41.433  34.663  36.337  1.00  0.00     0.055 A 
ATOM     93  C   UNL A   1      43.764  34.688  36.940  1.00  0.00     0.041 A 
ATOM     94  F   UNL A   1      45.328  33.590  35.583  1.00  0.00    -0.206 F 
ATOM     95  C   UNL A   1      42.451  35.066  37.207  1.00  0.00     0.022 A 
BRANCH  92  96
ATOM     96  S   UNL A   1      39.728  35.212  36.620  1.00  0.00     0.124 S 
ATOM     97  O   UNL A   1      38.958  34.114  36.046  1.00  0.00    -0.237 OA
ATOM     98  O   UNL A   1      39.674  35.337  38.073  1.00  0.00    -0.237 OA
ATOM     99  O   UNL A   1      39.648  36.475  35.888  1.00  0.00    -0.744 OA
ENDBRANCH  92  96
ENDBRANCH  66  89
ENDBRANCH  40  41
ENDBRANCH  33  35
ENDBRANCH  32  33
ENDBRANCH  31  32
ENDBRANCH  30  31
ENDBRANCH  29  30
ENDBRANCH  28  29
ENDBRANCH   1  28
TORSDOF 24
ENDMDL
MODEL 3
REMARK VINA RESULT:      -7.7      5.069      8.854
REMARK SMILES Cc1cc2c(c(C)c1Cl)C=C(C(=O)OCCOCCOCCOCCOC(=O)c1ccc(-c3c4nc(c(-c5cc(S(=O)(=O)[O-])ccc5F)c5ccc([nH]5)c(-c5cc(S(=O)(=O)[O-])ccc5F)c5nc(c(-c6cc(S(=O)(=O)[O-])ccc6F)c6ccc3[nH]6)C=C5)C=C4)cc1)[C@@H](C(F)(F)F)O2
REMARK SMILES IDX 21 1 20 2 19 3 18 4 17 5 16 6 15 7 14 8 12 9 13 10 11 11
REMARK SMILES IDX 1 12 2 13 3 14 8 15 4 16 6 17 9 18 5 19 97 20 7 21 10 22
REMARK SMILES IDX 92 23 93 24 94 25 95 26 96 27 22 28 23 29 24 30 25 31 26 32
REMARK SMILES IDX 27 33 28 34 29 35 30 36 91 37 31 38 90 39 32 40 33 41 34 42
REMARK SMILES IDX 84 43 35 44 89 45 83 46 85 47 36 48 88 49 82 50 81 51 37 53
REMARK SMILES IDX 69 54 49 55 68 56 50 57 53 58 67 59 86 60 51 61 52 62 66 64
REMARK SMILES IDX 87 65 54 66 38 67 39 68 47 69 40 70 46 71 48 72 45 73 41 74
REMARK SMILES IDX 42 75 43 76 44 77 70 78 71 79 79 80 72 81 78 82 80 83 77 84
REMARK SMILES IDX 73 85 74 86 75 87 76 88 55 89 56 90 64 91 57 92 63 93 65 94
REMARK SMILES IDX 62 95 58 96 59 97 60 98 61 99
REMARK H PARENT 85 52 53 63
REMARK Flexibility Score: inf
ROOT
ATOM      1  C   UNL A   1      43.219  19.049  25.344  1.00  0.00     0.188 C 
ENDROOT
BRANCH   1   2
ATOM      2  O   UNL A   1      42.265  19.004  26.406  1.00  0.00    -0.377 OA
BRANCH   2   3
ATOM      3  C   UNL A   1      40.986  19.567  26.165  1.00  0.00     0.188 C 
BRANCH   3   4
ATOM      4  C   UNL A   1      40.922  21.069  26.501  1.00  0.00     0.188 C 
BRANCH   4   5
ATOM      5  O   UNL A   1      39.630  21.523  26.855  1.00  0.00    -0.376 OA
BRANCH   5   6
ATOM      6  C   UNL A   1      38.926  22.466  26.061  1.00  0.00     0.202 C 
BRANCH   6   7
ATOM      7  C   UNL A   1      37.464  22.318  25.589  1.00  0.00     0.261 C 
BRANCH   7   8
ATOM      8  O   UNL A   1      36.639  23.483  25.612  1.00  0.00    -0.460 OA
BRANCH   8   9
ATOM      9  C   UNL A   1      35.351  23.337  25.964  1.00  0.00     0.338 C 
ATOM     10  O   UNL A   1      34.912  22.713  26.913  1.00  0.00    -0.246 OA
BRANCH   9  11
ATOM     11  C   UNL A   1      34.555  24.238  25.099  1.00  0.00     0.087 C 
ATOM     12  C   UNL A   1      30.509  28.589  22.564  1.00  0.00     0.046 C 
ATOM     13  C   UNL A   1      31.594  27.883  23.331  1.00  0.00    -0.028 A 
ATOM     14  C   UNL A   1      32.111  26.689  22.818  1.00  0.00     0.052 A 
ATOM     15  C   UNL A   1      32.070  28.355  24.570  1.00  0.00     0.047 A 
ATOM     16  C   UNL A   1      33.014  25.926  23.556  1.00  0.00     0.128 A 
ATOM     17  C   UNL A   1      33.015  27.615  25.316  1.00  0.00    -0.021 A 
ATOM     18  Cl  UNL A   1      31.436  29.854  25.185  1.00  0.00    -0.084 Cl
ATOM     19  C   UNL A   1      33.428  26.351  24.822  1.00  0.00     0.022 A 
ATOM     20  O   UNL A   1      33.414  24.768  22.956  1.00  0.00    -0.475 OA
ATOM     21  C   UNL A   1      33.600  28.137  26.608  1.00  0.00     0.047 C 
ATOM     22  C   UNL A   1      34.217  25.422  25.625  1.00  0.00     0.027 C 
ATOM     23  C   UNL A   1      34.252  23.832  23.684  1.00  0.00     0.316 C 
BRANCH  23  24
ATOM     24  C   UNL A   1      33.592  22.449  23.601  1.00  0.00     0.430 C 
ATOM     25  F   UNL A   1      33.131  22.198  22.352  1.00  0.00    -0.167 F 
ATOM     26  F   UNL A   1      34.450  21.452  23.910  1.00  0.00    -0.167 F 
ATOM     27  F   UNL A   1      32.538  22.353  24.446  1.00  0.00    -0.167 F 
ENDBRANCH  23  24
ENDBRANCH   9  11
ENDBRANCH   8   9
ENDBRANCH   7   8
ENDBRANCH   6   7
ENDBRANCH   5   6
ENDBRANCH   4   5
ENDBRANCH   3   4
ENDBRANCH   2   3
ENDBRANCH   1   2
BRANCH   1  28
ATOM     28  C   UNL A   1      44.669  19.534  25.584  1.00  0.00     0.188 C 
BRANCH  28  29
ATOM     29  O   UNL A   1      45.063  20.627  24.758  1.00  0.00    -0.376 OA
BRANCH  29  30
ATOM     30  C   UNL A   1      44.206  21.757  24.716  1.00  0.00     0.202 C 
BRANCH  30  31
ATOM     31  C   UNL A   1      44.369  22.746  25.878  1.00  0.00     0.261 C 
BRANCH  31  32
ATOM     32  O   UNL A   1      43.207  23.526  26.197  1.00  0.00    -0.460 OA
BRANCH  32  33
ATOM     33  C   UNL A   1      43.077  24.724  25.584  1.00  0.00     0.338 C 
ATOM     34  O   UNL A   1      43.204  24.955  24.395  1.00  0.00    -0.246 OA
BRANCH  33  35
ATOM     35  C   UNL A   1      42.556  25.678  26.584  1.00  0.00     0.060 A 
ATOM     36  C   UNL A   1      43.403  26.679  27.077  1.00  0.00     0.016 A 
ATOM     37  C   UNL A   1      41.230  25.594  27.016  1.00  0.00     0.016 A 
ATOM     38  C   UNL A   1      42.930  27.584  28.027  1.00  0.00     0.010 A 
ATOM     39  C   UNL A   1      40.766  26.486  27.986  1.00  0.00     0.010 A 
ATOM     40  C   UNL A   1      41.622  27.464  28.518  1.00  0.00    -0.014 A 
BRANCH  40  41
ATOM     41  C   UNL A   1      41.227  28.207  29.738  1.00  0.00     0.031 A 
ATOM     42  C   UNL A   1      39.971  29.034  29.682  1.00  0.00     0.074 A 
ATOM     43  C   UNL A   1      41.934  28.122  30.879  1.00  0.00     0.049 A 
ATOM     44  N   UNL A   1      39.442  29.804  30.596  1.00  0.00    -0.248 NA
ATOM     45  C   UNL A   1      39.207  28.981  28.423  1.00  0.00     0.031 C 
ATOM     46  C   UNL A   1      43.127  27.301  31.076  1.00  0.00     0.029 A 
ATOM     47  N   UNL A   1      41.743  28.734  32.094  1.00  0.00    -0.354 N 
ATOM     48  C   UNL A   1      38.281  30.318  30.028  1.00  0.00     0.074 A 
ATOM     49  C   UNL A   1      38.203  29.805  28.679  1.00  0.00     0.031 C 
ATOM     50  C   UNL A   1      43.558  27.457  32.341  1.00  0.00     0.029 A 
ATOM     51  C   UNL A   1      42.697  28.417  33.031  1.00  0.00     0.049 A 
ATOM     52  H   UNL A   1      40.991  29.344  32.276  1.00  0.00     0.167 HD
ATOM     53  C   UNL A   1      37.355  31.131  30.588  1.00  0.00     0.034 A 
ATOM     54  C   UNL A   1      42.864  28.866  34.293  1.00  0.00     0.034 A 
ATOM     55  C   UNL A   1      37.445  31.646  31.928  1.00  0.00     0.049 A 
ATOM     56  C   UNL A   1      41.886  29.870  34.854  1.00  0.00     0.074 A 
ATOM     57  C   UNL A   1      36.566  32.489  32.584  1.00  0.00     0.029 A 
ATOM     58  N   UNL A   1      38.475  31.371  32.816  1.00  0.00    -0.354 N 
ATOM     59  N   UNL A   1      40.810  30.376  34.295  1.00  0.00    -0.248 NA
ATOM     60  C   UNL A   1      42.145  30.369  36.212  1.00  0.00     0.031 C 
ATOM     61  C   UNL A   1      37.096  32.776  33.844  1.00  0.00     0.029 A 
ATOM     62  C   UNL A   1      38.269  32.055  34.003  1.00  0.00     0.049 A 
ATOM     63  H   UNL A   1      39.239  30.779  32.631  1.00  0.00     0.167 HD
ATOM     64  C   UNL A   1      40.255  31.233  35.242  1.00  0.00     0.074 A 
ATOM     65  C   UNL A   1      41.109  31.172  36.409  1.00  0.00     0.031 C 
ATOM     66  C   UNL A   1      39.135  31.994  35.156  1.00  0.00     0.034 A 
BRANCH  53  67
ATOM     67  C   UNL A   1      36.184  31.540  29.738  1.00  0.00     0.023 A 
ATOM     68  C   UNL A   1      35.720  32.866  29.719  1.00  0.00     0.031 A 
ATOM     69  C   UNL A   1      35.536  30.597  28.921  1.00  0.00     0.131 A 
ATOM     70  C   UNL A   1      34.615  33.206  28.925  1.00  0.00     0.055 A 
ATOM     71  C   UNL A   1      34.476  30.955  28.087  1.00  0.00     0.041 A 
ATOM     72  F   UNL A   1      35.926  29.312  28.922  1.00  0.00    -0.206 F 
ATOM     73  C   UNL A   1      34.007  32.265  28.090  1.00  0.00     0.022 A 
BRANCH  70  74
ATOM     74  S   UNL A   1      33.935  34.882  29.053  1.00  0.00     0.124 S 
ATOM     75  O   UNL A   1      34.131  35.170  30.471  1.00  0.00    -0.237 OA
ATOM     76  O   UNL A   1      34.773  35.636  28.127  1.00  0.00    -0.237 OA
ATOM     77  O   UNL A   1      32.543  34.718  28.643  1.00  0.00    -0.744 OA
ENDBRANCH  70  74
ENDBRANCH  53  67
BRANCH  54  78
ATOM     78  C   UNL A   1      44.020  28.396  35.111  1.00  0.00     0.023 A 
ATOM     79  C   UNL A   1      43.863  27.380  36.066  1.00  0.00     0.031 A 
ATOM     80  C   UNL A   1      45.290  28.980  34.967  1.00  0.00     0.131 A 
ATOM     81  C   UNL A   1      44.957  26.992  36.859  1.00  0.00     0.055 A 
ATOM     82  C   UNL A   1      46.384  28.563  35.728  1.00  0.00     0.041 A 
ATOM     83  F   UNL A   1      45.490  29.959  34.070  1.00  0.00    -0.206 F 
ATOM     84  C   UNL A   1      46.219  27.568  36.686  1.00  0.00     0.022 A 
BRANCH  81  85
ATOM     85  S   UNL A   1      44.698  25.746  38.152  1.00  0.00     0.124 S 
ATOM     86  O   UNL A   1      43.595  26.328  38.907  1.00  0.00    -0.237 OA
ATOM     87  O   UNL A   1      44.383  24.556  37.369  1.00  0.00    -0.237 OA
ATOM     88  O   UNL A   1      45.982  25.708  38.849  1.00  0.00    -0.744 OA
ENDBRANCH  81  85
ENDBRANCH  54  78
BRANCH  66  89
ATOM     89  C   UNL A   1      38.744  32.810  36.361  1.00  0.00     0.023 A 
ATOM     90  C   UNL A   1      38.013  32.249  37.421  1.00  0.00     0.031 A 
ATOM     91  C   UNL A   1      39.167  34.146  36.476  1.00  0.00     0.131 A 
ATOM     92  C   UNL A   1      37.707  33.031  38.544  1.00  0.00     0.055 A 
ATOM     93  C   UNL A   1      38.902  34.904  37.617  1.00  0.00     0.041 A 
ATOM     94  F   UNL A   1      39.875  34.726  35.493  1.00  0.00    -0.206 F 
ATOM     95  C   UNL A   1      38.163  34.348  38.657  1.00  0.00     0.022 A 
BRANCH  92  96
ATOM     96  S   UNL A   1      36.674  32.314  39.851  1.00  0.00     0.124 S 
ATOM     97  O   UNL A   1      35.367  32.254  39.204  1.00  0.00    -0.237 OA
ATOM     98  O   UNL A   1      37.322  31.030  40.096  1.00  0.00    -0.237 OA
ATOM     99  O   UNL A   1      36.781  33.279  40.943  1.00  0.00    -0.744 OA
ENDBRANCH  92  96
ENDBRANCH  66  89
ENDBRANCH  40  41
ENDBRANCH  33  35
ENDBRANCH  32  33
ENDBRANCH  31  32
ENDBRANCH  30  31
ENDBRANCH  29  30
ENDBRANCH  28  29
ENDBRANCH   1  28
TORSDOF 24
ENDMDL
