MODEL 1
REMARK VINA RESULT:      -9.5      0.000      0.000
REMARK SMILES O=C(OCCOCCOCCOCCOC(=O)[C@@H]1C[C@H]1C(=O)N[C@@H]1CONC1=O)c1ccc(-c2c3nc(c(-c4cc(S(=O)(=O)[O-])ccc4F)c4ccc([nH]4)c(-c4cc(S(=O)(=O)[O-])ccc4F)c4nc(c(-c5cc(S(=O)(=O)[O-])ccc5F)c5ccc2[nH]5)C=C4)C=C3)cc1
REMARK SMILES IDX 8 1 7 2 6 3 5 4 4 5 3 6 2 7 1 8 30 9 31 10 92 11 32 12 91 13
REMARK SMILES IDX 33 14 34 15 35 16 85 17 36 18 90 19 84 20 86 21 37 22 89 23
REMARK SMILES IDX 83 24 82 25 38 27 70 28 50 29 69 30 51 31 54 32 68 33 87 34
REMARK SMILES IDX 52 35 53 36 67 38 88 39 55 40 39 41 40 42 48 43 41 44 47 45
REMARK SMILES IDX 49 46 46 47 42 48 43 49 44 50 45 51 71 52 72 53 80 54 73 55
REMARK SMILES IDX 79 56 81 57 78 58 74 59 75 60 76 61 77 62 56 63 57 64 65 65
REMARK SMILES IDX 58 66 64 67 66 68 63 69 59 70 60 71 61 72 62 73 9 74 10 75
REMARK SMILES IDX 11 76 12 77 13 78 14 79 15 80 16 81 17 82 18 83 19 84 20 85
REMARK SMILES IDX 21 86 22 87 23 88 24 90 25 91 28 92 26 93 27 94 29 95
REMARK H PARENT 86 26 54 37 23 89 27 96
REMARK Flexibility Score: inf
ROOT
ATOM      1  C   UNL A   1      35.432  21.852  24.963  1.00  0.00     0.188 C 
ENDROOT
BRANCH   1   2
ATOM      2  C   UNL A   1      36.587  21.113  25.639  1.00  0.00     0.188 C 
BRANCH   2   3
ATOM      3  O   UNL A   1      36.838  19.871  24.977  1.00  0.00    -0.376 OA
BRANCH   3   4
ATOM      4  C   UNL A   1      38.216  19.576  24.748  1.00  0.00     0.202 C 
BRANCH   4   5
ATOM      5  C   UNL A   1      39.075  19.577  26.015  1.00  0.00     0.261 C 
BRANCH   5   6
ATOM      6  O   UNL A   1      40.390  19.056  25.771  1.00  0.00    -0.460 OA
BRANCH   6   7
ATOM      7  C   UNL A   1      41.576  19.618  26.123  1.00  0.00     0.338 C 
ATOM      8  O   UNL A   1      42.589  18.920  26.093  1.00  0.00    -0.246 OA
BRANCH   7   9
ATOM      9  C   UNL A   1      41.727  21.055  26.510  1.00  0.00     0.060 A 
ATOM     10  C   UNL A   1      41.533  22.136  25.650  1.00  0.00     0.016 A 
ATOM     11  C   UNL A   1      42.031  21.334  27.853  1.00  0.00     0.016 A 
ATOM     12  C   UNL A   1      41.753  23.441  26.061  1.00  0.00     0.010 A 
ATOM     13  C   UNL A   1      42.198  22.653  28.294  1.00  0.00     0.010 A 
ATOM     14  C   UNL A   1      42.097  23.709  27.382  1.00  0.00    -0.014 A 
BRANCH  14  15
ATOM     15  C   UNL A   1      42.491  25.094  27.710  1.00  0.00     0.031 A 
ATOM     16  C   UNL A   1      43.858  25.554  27.296  1.00  0.00     0.074 A 
ATOM     17  C   UNL A   1      41.570  25.952  28.189  1.00  0.00     0.049 A 
ATOM     18  N   UNL A   1      44.431  26.714  27.470  1.00  0.00    -0.248 NA
ATOM     19  C   UNL A   1      44.682  24.577  26.565  1.00  0.00     0.031 C 
ATOM     20  C   UNL A   1      40.173  25.612  28.477  1.00  0.00     0.029 A 
ATOM     21  N   UNL A   1      41.649  27.290  28.471  1.00  0.00    -0.354 N 
ATOM     22  C   UNL A   1      45.687  26.601  26.886  1.00  0.00     0.074 A 
ATOM     23  C   UNL A   1      45.800  25.256  26.368  1.00  0.00     0.031 C 
ATOM     24  C   UNL A   1      39.522  26.721  28.864  1.00  0.00     0.029 A 
ATOM     25  C   UNL A   1      40.469  27.828  28.929  1.00  0.00     0.049 A 
ATOM     26  H   UNL A   1      42.473  27.816  28.358  1.00  0.00     0.167 HD
ATOM     27  C   UNL A   1      46.657  27.542  26.796  1.00  0.00     0.034 A 
ATOM     28  C   UNL A   1      40.204  29.069  29.387  1.00  0.00     0.034 A 
ATOM     29  C   UNL A   1      46.510  28.865  27.346  1.00  0.00     0.049 A 
ATOM     30  C   UNL A   1      41.341  30.062  29.390  1.00  0.00     0.074 A 
ATOM     31  C   UNL A   1      47.446  29.878  27.442  1.00  0.00     0.029 A 
ATOM     32  N   UNL A   1      45.330  29.358  27.895  1.00  0.00    -0.354 N 
ATOM     33  N   UNL A   1      42.567  29.914  28.938  1.00  0.00    -0.248 NA
ATOM     34  C   UNL A   1      41.068  31.380  29.971  1.00  0.00     0.031 C 
ATOM     35  C   UNL A   1      46.846  30.963  28.095  1.00  0.00     0.029 A 
ATOM     36  C   UNL A   1      45.517  30.652  28.346  1.00  0.00     0.049 A 
ATOM     37  H   UNL A   1      44.484  28.857  27.954  1.00  0.00     0.167 HD
ATOM     38  C   UNL A   1      43.210  31.124  29.175  1.00  0.00     0.074 A 
ATOM     39  C   UNL A   1      42.219  32.002  29.770  1.00  0.00     0.031 C 
ATOM     40  C   UNL A   1      44.499  31.484  28.943  1.00  0.00     0.034 A 
BRANCH  27  41
ATOM     41  C   UNL A   1      47.963  27.116  26.176  1.00  0.00     0.023 A 
ATOM     42  C   UNL A   1      49.066  26.728  26.959  1.00  0.00     0.031 A 
ATOM     43  C   UNL A   1      48.139  27.195  24.784  1.00  0.00     0.131 A 
ATOM     44  C   UNL A   1      50.312  26.508  26.352  1.00  0.00     0.055 A 
ATOM     45  C   UNL A   1      49.363  26.903  24.178  1.00  0.00     0.041 A 
ATOM     46  F   UNL A   1      47.132  27.593  23.990  1.00  0.00    -0.206 F 
ATOM     47  C   UNL A   1      50.462  26.571  24.964  1.00  0.00     0.022 A 
BRANCH  44  48
ATOM     48  S   UNL A   1      51.769  26.278  27.409  1.00  0.00     0.124 S 
ATOM     49  O   UNL A   1      51.201  25.544  28.538  1.00  0.00    -0.237 OA
ATOM     50  O   UNL A   1      52.672  25.524  26.548  1.00  0.00    -0.237 OA
ATOM     51  O   UNL A   1      52.192  27.644  27.713  1.00  0.00    -0.744 OA
ENDBRANCH  44  48
ENDBRANCH  27  41
BRANCH  28  52
ATOM     52  C   UNL A   1      38.866  29.416  29.957  1.00  0.00     0.023 A 
ATOM     53  C   UNL A   1      37.911  30.132  29.217  1.00  0.00     0.031 A 
ATOM     54  C   UNL A   1      38.550  29.104  31.295  1.00  0.00     0.131 A 
ATOM     55  C   UNL A   1      36.718  30.556  29.830  1.00  0.00     0.055 A 
ATOM     56  C   UNL A   1      37.337  29.470  31.879  1.00  0.00     0.041 A 
ATOM     57  F   UNL A   1      39.425  28.434  32.062  1.00  0.00    -0.206 F 
ATOM     58  C   UNL A   1      36.420  30.217  31.151  1.00  0.00     0.022 A 
BRANCH  55  59
ATOM     59  S   UNL A   1      35.613  31.667  28.913  1.00  0.00     0.124 S 
ATOM     60  O   UNL A   1      36.535  32.707  28.472  1.00  0.00    -0.237 OA
ATOM     61  O   UNL A   1      35.094  30.785  27.874  1.00  0.00    -0.237 OA
ATOM     62  O   UNL A   1      34.638  32.083  29.919  1.00  0.00    -0.744 OA
ENDBRANCH  55  59
ENDBRANCH  28  52
BRANCH  40  63
ATOM     63  C   UNL A   1      44.874  32.892  29.320  1.00  0.00     0.023 A 
ATOM     64  C   UNL A   1      44.656  33.966  28.442  1.00  0.00     0.031 A 
ATOM     65  C   UNL A   1      45.481  33.155  30.560  1.00  0.00     0.131 A 
ATOM     66  C   UNL A   1      45.104  35.248  28.786  1.00  0.00     0.055 A 
ATOM     67  C   UNL A   1      45.868  34.445  30.923  1.00  0.00     0.041 A 
ATOM     68  F   UNL A   1      45.711  32.163  31.434  1.00  0.00    -0.206 F 
ATOM     69  C   UNL A   1      45.694  35.498  30.028  1.00  0.00     0.022 A 
BRANCH  66  70
ATOM     70  S   UNL A   1      44.998  36.564  27.544  1.00  0.00     0.124 S 
ATOM     71  O   UNL A   1      46.161  36.286  26.708  1.00  0.00    -0.237 OA
ATOM     72  O   UNL A   1      43.698  36.310  26.932  1.00  0.00    -0.237 OA
ATOM     73  O   UNL A   1      45.082  37.790  28.337  1.00  0.00    -0.744 OA
ENDBRANCH  66  70
ENDBRANCH  40  63
ENDBRANCH  14  15
ENDBRANCH   7   9
ENDBRANCH   6   7
ENDBRANCH   5   6
ENDBRANCH   4   5
ENDBRANCH   3   4
ENDBRANCH   2   3
ENDBRANCH   1   2
BRANCH   1  74
ATOM     74  O   UNL A   1      35.835  22.797  23.972  1.00  0.00    -0.377 OA
BRANCH  74  75
ATOM     75  C   UNL A   1      34.822  23.663  23.476  1.00  0.00     0.188 C 
BRANCH  75  76
ATOM     76  C   UNL A   1      33.551  23.061  22.845  1.00  0.00     0.188 C 
BRANCH  76  77
ATOM     77  O   UNL A   1      32.936  23.889  21.869  1.00  0.00    -0.376 OA
BRANCH  77  78
ATOM     78  C   UNL A   1      31.841  24.664  22.352  1.00  0.00     0.202 C 
BRANCH  78  79
ATOM     79  C   UNL A   1      31.921  26.169  22.048  1.00  0.00     0.261 C 
BRANCH  79  80
ATOM     80  O   UNL A   1      32.602  26.918  23.070  1.00  0.00    -0.463 OA
BRANCH  80  81
ATOM     81  C   UNL A   1      33.456  27.903  22.726  1.00  0.00     0.309 C 
ATOM     82  O   UNL A   1      34.203  27.915  21.759  1.00  0.00    -0.252 OA
BRANCH  81  83
ATOM     83  C   UNL A   1      33.315  29.084  23.629  1.00  0.00     0.112 C 
ATOM     84  C   UNL A   1      33.631  28.952  25.098  1.00  0.00     0.030 C 
ATOM     85  C   UNL A   1      32.206  29.141  24.649  1.00  0.00     0.093 C 
BRANCH  85  86
ATOM     86  C   UNL A   1      31.398  30.285  25.136  1.00  0.00     0.224 C 
ATOM     87  O   UNL A   1      31.810  30.871  26.140  1.00  0.00    -0.275 OA
ATOM     88  N   UNL A   1      30.274  30.823  24.586  1.00  0.00    -0.342 N 
ATOM     89  H   UNL A   1      30.032  31.655  25.055  1.00  0.00     0.164 HD
BRANCH  88  90
ATOM     90  C   UNL A   1      29.316  30.550  23.518  1.00  0.00     0.202 C 
ATOM     91  C   UNL A   1      29.649  29.493  22.482  1.00  0.00     0.228 C 
ATOM     92  C   UNL A   1      28.811  31.699  22.693  1.00  0.00     0.268 C 
ATOM     93  O   UNL A   1      29.562  30.097  21.187  1.00  0.00    -0.271 OA
ATOM     94  N   UNL A   1      28.952  31.355  21.377  1.00  0.00    -0.233 N 
ATOM     95  O   UNL A   1      28.350  32.747  23.115  1.00  0.00    -0.270 OA
ATOM     96  H   UNL A   1      28.655  31.930  20.634  1.00  0.00     0.199 HD
ENDBRANCH  88  90
ENDBRANCH  85  86
ENDBRANCH  81  83
ENDBRANCH  80  81
ENDBRANCH  79  80
ENDBRANCH  78  79
ENDBRANCH  77  78
ENDBRANCH  76  77
ENDBRANCH  75  76
ENDBRANCH  74  75
ENDBRANCH   1  74
TORSDOF 25
ENDMDL
MODEL 2
REMARK VINA RESULT:      -9.1      1.512      7.641
REMARK SMILES O=C(OCCOCCOCCOCCOC(=O)[C@@H]1C[C@H]1C(=O)N[C@@H]1CONC1=O)c1ccc(-c2c3nc(c(-c4cc(S(=O)(=O)[O-])ccc4F)c4ccc([nH]4)c(-c4cc(S(=O)(=O)[O-])ccc4F)c4nc(c(-c5cc(S(=O)(=O)[O-])ccc5F)c5ccc2[nH]5)C=C4)C=C3)cc1
REMARK SMILES IDX 8 1 7 2 6 3 5 4 4 5 3 6 2 7 1 8 30 9 31 10 92 11 32 12 91 13
REMARK SMILES IDX 33 14 34 15 35 16 85 17 36 18 90 19 84 20 86 21 37 22 89 23
REMARK SMILES IDX 83 24 82 25 38 27 70 28 50 29 69 30 51 31 54 32 68 33 87 34
REMARK SMILES IDX 52 35 53 36 67 38 88 39 55 40 39 41 40 42 48 43 41 44 47 45
REMARK SMILES IDX 49 46 46 47 42 48 43 49 44 50 45 51 71 52 72 53 80 54 73 55
REMARK SMILES IDX 79 56 81 57 78 58 74 59 75 60 76 61 77 62 56 63 57 64 65 65
REMARK SMILES IDX 58 66 64 67 66 68 63 69 59 70 60 71 61 72 62 73 9 74 10 75
REMARK SMILES IDX 11 76 12 77 13 78 14 79 15 80 16 81 17 82 18 83 19 84 20 85
REMARK SMILES IDX 21 86 22 87 23 88 24 90 25 91 28 92 26 93 27 94 29 95
REMARK H PARENT 86 26 54 37 23 89 27 96
REMARK Flexibility Score: inf
ROOT
ATOM      1  C   UNL A   1      35.663  22.288  24.034  1.00  0.00     0.188 C 
ENDROOT
BRANCH   1   2
ATOM      2  C   UNL A   1      37.052  22.011  24.608  1.00  0.00     0.188 C 
BRANCH   2   3
ATOM      3  O   UNL A   1      37.140  20.661  25.069  1.00  0.00    -0.376 OA
BRANCH   3   4
ATOM      4  C   UNL A   1      38.429  20.061  24.941  1.00  0.00     0.202 C 
BRANCH   4   5
ATOM      5  C   UNL A   1      39.359  20.317  26.130  1.00  0.00     0.261 C 
BRANCH   5   6
ATOM      6  O   UNL A   1      40.656  19.733  25.931  1.00  0.00    -0.460 OA
BRANCH   6   7
ATOM      7  C   UNL A   1      41.860  20.284  26.232  1.00  0.00     0.338 C 
ATOM      8  O   UNL A   1      42.861  19.568  26.189  1.00  0.00    -0.246 OA
BRANCH   7   9
ATOM      9  C   UNL A   1      42.046  21.727  26.578  1.00  0.00     0.060 A 
ATOM     10  C   UNL A   1      42.036  22.774  25.657  1.00  0.00     0.016 A 
ATOM     11  C   UNL A   1      42.184  22.054  27.938  1.00  0.00     0.016 A 
ATOM     12  C   UNL A   1      42.279  24.083  26.041  1.00  0.00     0.010 A 
ATOM     13  C   UNL A   1      42.372  23.381  28.344  1.00  0.00     0.010 A 
ATOM     14  C   UNL A   1      42.459  24.396  27.385  1.00  0.00    -0.014 A 
BRANCH  14  15
ATOM     15  C   UNL A   1      42.889  25.771  27.708  1.00  0.00     0.031 A 
ATOM     16  C   UNL A   1      41.879  26.702  28.311  1.00  0.00     0.074 A 
ATOM     17  C   UNL A   1      44.195  26.094  27.636  1.00  0.00     0.049 A 
ATOM     18  N   UNL A   1      42.013  27.947  28.677  1.00  0.00    -0.248 NA
ATOM     19  C   UNL A   1      40.539  26.142  28.555  1.00  0.00     0.031 C 
ATOM     20  C   UNL A   1      45.262  25.189  27.198  1.00  0.00     0.029 A 
ATOM     21  N   UNL A   1      44.856  27.245  27.973  1.00  0.00    -0.354 N 
ATOM     22  C   UNL A   1      40.772  28.325  29.178  1.00  0.00     0.074 A 
ATOM     23  C   UNL A   1      39.894  27.183  29.054  1.00  0.00     0.031 C 
ATOM     24  C   UNL A   1      46.445  25.811  27.325  1.00  0.00     0.029 A 
ATOM     25  C   UNL A   1      46.216  27.179  27.773  1.00  0.00     0.049 A 
ATOM     26  H   UNL A   1      44.401  28.044  28.324  1.00  0.00     0.167 HD
ATOM     27  C   UNL A   1      40.406  29.523  29.693  1.00  0.00     0.034 A 
ATOM     28  C   UNL A   1      47.156  28.137  27.902  1.00  0.00     0.034 A 
ATOM     29  C   UNL A   1      41.309  30.641  29.779  1.00  0.00     0.049 A 
ATOM     30  C   UNL A   1      46.696  29.500  28.361  1.00  0.00     0.074 A 
ATOM     31  C   UNL A   1      41.048  31.945  30.157  1.00  0.00     0.029 A 
ATOM     32  N   UNL A   1      42.666  30.577  29.478  1.00  0.00    -0.354 N 
ATOM     33  N   UNL A   1      45.493  29.885  28.727  1.00  0.00    -0.248 NA
ATOM     34  C   UNL A   1      47.709  30.559  28.413  1.00  0.00     0.031 C 
ATOM     35  C   UNL A   1      42.236  32.678  30.035  1.00  0.00     0.029 A 
ATOM     36  C   UNL A   1      43.253  31.818  29.645  1.00  0.00     0.049 A 
ATOM     37  H   UNL A   1      43.140  29.764  29.187  1.00  0.00     0.167 HD
ATOM     38  C   UNL A   1      45.608  31.231  29.060  1.00  0.00     0.074 A 
ATOM     39  C   UNL A   1      47.007  31.574  28.891  1.00  0.00     0.031 C 
ATOM     40  C   UNL A   1      44.653  32.114  29.454  1.00  0.00     0.034 A 
BRANCH  27  41
ATOM     41  C   UNL A   1      38.960  29.679  30.090  1.00  0.00     0.023 A 
ATOM     42  C   UNL A   1      38.006  30.234  29.218  1.00  0.00     0.031 A 
ATOM     43  C   UNL A   1      38.552  29.359  31.396  1.00  0.00     0.131 A 
ATOM     44  C   UNL A   1      36.715  30.522  29.686  1.00  0.00     0.055 A 
ATOM     45  C   UNL A   1      37.244  29.580  31.834  1.00  0.00     0.041 A 
ATOM     46  F   UNL A   1      39.427  28.859  32.283  1.00  0.00    -0.206 F 
ATOM     47  C   UNL A   1      36.321  30.179  30.982  1.00  0.00     0.022 A 
BRANCH  44  48
ATOM     48  S   UNL A   1      35.597  31.483  28.627  1.00  0.00     0.124 S 
ATOM     49  O   UNL A   1      35.175  30.477  27.655  1.00  0.00    -0.237 OA
ATOM     50  O   UNL A   1      34.575  31.931  29.565  1.00  0.00    -0.237 OA
ATOM     51  O   UNL A   1      36.455  32.537  28.089  1.00  0.00    -0.744 OA
ENDBRANCH  44  48
ENDBRANCH  27  41
BRANCH  28  52
ATOM     52  C   UNL A   1      48.578  27.886  27.515  1.00  0.00     0.023 A 
ATOM     53  C   UNL A   1      49.007  27.977  26.180  1.00  0.00     0.031 A 
ATOM     54  C   UNL A   1      49.522  27.466  28.473  1.00  0.00     0.131 A 
ATOM     55  C   UNL A   1      50.319  27.604  25.835  1.00  0.00     0.055 A 
ATOM     56  C   UNL A   1      50.841  27.160  28.135  1.00  0.00     0.041 A 
ATOM     57  F   UNL A   1      49.174  27.345  29.764  1.00  0.00    -0.206 F 
ATOM     58  C   UNL A   1      51.241  27.211  26.806  1.00  0.00     0.022 A 
BRANCH  55  59
ATOM     59  S   UNL A   1      50.769  27.520  24.078  1.00  0.00     0.124 S 
ATOM     60  O   UNL A   1      51.130  28.905  23.797  1.00  0.00    -0.237 OA
ATOM     61  O   UNL A   1      51.867  26.561  24.094  1.00  0.00    -0.237 OA
ATOM     62  O   UNL A   1      49.543  27.053  23.435  1.00  0.00    -0.744 OA
ENDBRANCH  55  59
ENDBRANCH  28  52
BRANCH  40  63
ATOM     63  C   UNL A   1      45.122  33.514  29.742  1.00  0.00     0.023 A 
ATOM     64  C   UNL A   1      45.108  34.508  28.749  1.00  0.00     0.031 A 
ATOM     65  C   UNL A   1      45.612  33.849  31.016  1.00  0.00     0.131 A 
ATOM     66  C   UNL A   1      45.639  35.774  29.025  1.00  0.00     0.055 A 
ATOM     67  C   UNL A   1      46.081  35.131  31.303  1.00  0.00     0.041 A 
ATOM     68  F   UNL A   1      45.646  32.935  31.999  1.00  0.00    -0.206 F 
ATOM     69  C   UNL A   1      46.111  36.097  30.301  1.00  0.00     0.022 A 
BRANCH  66  70
ATOM     70  S   UNL A   1      45.800  36.960  27.664  1.00  0.00     0.124 S 
ATOM     71  O   UNL A   1      46.834  37.859  28.167  1.00  0.00    -0.237 OA
ATOM     72  O   UNL A   1      46.189  36.104  26.549  1.00  0.00    -0.237 OA
ATOM     73  O   UNL A   1      44.465  37.545  27.561  1.00  0.00    -0.744 OA
ENDBRANCH  66  70
ENDBRANCH  40  63
ENDBRANCH  14  15
ENDBRANCH   7   9
ENDBRANCH   6   7
ENDBRANCH   5   6
ENDBRANCH   4   5
ENDBRANCH   3   4
ENDBRANCH   2   3
ENDBRANCH   1   2
BRANCH   1  74
ATOM     74  O   UNL A   1      35.586  23.449  23.207  1.00  0.00    -0.377 OA
BRANCH  74  75
ATOM     75  C   UNL A   1      34.308  24.062  23.097  1.00  0.00     0.188 C 
BRANCH  75  76
ATOM     76  C   UNL A   1      33.081  23.199  22.742  1.00  0.00     0.188 C 
BRANCH  76  77
ATOM     77  O   UNL A   1      31.868  23.928  22.625  1.00  0.00    -0.376 OA
BRANCH  77  78
ATOM     78  C   UNL A   1      31.131  24.056  23.840  1.00  0.00     0.202 C 
BRANCH  78  79
ATOM     79  C   UNL A   1      30.514  25.443  24.087  1.00  0.00     0.261 C 
BRANCH  79  80
ATOM     80  O   UNL A   1      30.742  25.935  25.419  1.00  0.00    -0.463 OA
BRANCH  80  81
ATOM     81  C   UNL A   1      31.818  26.706  25.676  1.00  0.00     0.309 C 
ATOM     82  O   UNL A   1      32.786  26.403  26.357  1.00  0.00    -0.252 OA
BRANCH  81  83
ATOM     83  C   UNL A   1      31.756  27.994  24.921  1.00  0.00     0.112 C 
ATOM     84  C   UNL A   1      32.977  28.873  24.829  1.00  0.00     0.030 C 
ATOM     85  C   UNL A   1      31.794  29.312  25.651  1.00  0.00     0.093 C 
BRANCH  85  86
ATOM     86  C   UNL A   1      31.103  30.594  25.369  1.00  0.00     0.224 C 
ATOM     87  O   UNL A   1      31.451  31.572  26.035  1.00  0.00    -0.275 OA
ATOM     88  N   UNL A   1      30.162  30.858  24.422  1.00  0.00    -0.342 N 
ATOM     89  H   UNL A   1      29.981  31.826  24.382  1.00  0.00     0.164 HD
BRANCH  88  90
ATOM     90  C   UNL A   1      29.335  30.153  23.445  1.00  0.00     0.202 C 
ATOM     91  C   UNL A   1      29.947  29.753  22.115  1.00  0.00     0.228 C 
ATOM     92  C   UNL A   1      28.014  30.749  23.055  1.00  0.00     0.268 C 
ATOM     93  O   UNL A   1      29.136  30.302  21.070  1.00  0.00    -0.271 OA
ATOM     94  N   UNL A   1      27.957  30.772  21.689  1.00  0.00    -0.233 N 
ATOM     95  O   UNL A   1      27.141  31.137  23.815  1.00  0.00    -0.270 OA
ATOM     96  H   UNL A   1      27.171  31.085  21.186  1.00  0.00     0.199 HD
ENDBRANCH  88  90
ENDBRANCH  85  86
ENDBRANCH  81  83
ENDBRANCH  80  81
ENDBRANCH  79  80
ENDBRANCH  78  79
ENDBRANCH  77  78
ENDBRANCH  76  77
ENDBRANCH  75  76
ENDBRANCH  74  75
ENDBRANCH   1  74
TORSDOF 25
ENDMDL
MODEL 3
REMARK VINA RESULT:      -8.9      2.929      8.601
REMARK SMILES O=C(OCCOCCOCCOCCOC(=O)[C@@H]1C[C@H]1C(=O)N[C@@H]1CONC1=O)c1ccc(-c2c3nc(c(-c4cc(S(=O)(=O)[O-])ccc4F)c4ccc([nH]4)c(-c4cc(S(=O)(=O)[O-])ccc4F)c4nc(c(-c5cc(S(=O)(=O)[O-])ccc5F)c5ccc2[nH]5)C=C4)C=C3)cc1
REMARK SMILES IDX 8 1 7 2 6 3 5 4 4 5 3 6 2 7 1 8 30 9 31 10 92 11 32 12 91 13
REMARK SMILES IDX 33 14 34 15 35 16 85 17 36 18 90 19 84 20 86 21 37 22 89 23
REMARK SMILES IDX 83 24 82 25 38 27 70 28 50 29 69 30 51 31 54 32 68 33 87 34
REMARK SMILES IDX 52 35 53 36 67 38 88 39 55 40 39 41 40 42 48 43 41 44 47 45
REMARK SMILES IDX 49 46 46 47 42 48 43 49 44 50 45 51 71 52 72 53 80 54 73 55
REMARK SMILES IDX 79 56 81 57 78 58 74 59 75 60 76 61 77 62 56 63 57 64 65 65
REMARK SMILES IDX 58 66 64 67 66 68 63 69 59 70 60 71 61 72 62 73 9 74 10 75
REMARK SMILES IDX 11 76 12 77 13 78 14 79 15 80 16 81 17 82 18 83 19 84 20 85
REMARK SMILES IDX 21 86 22 87 23 88 24 90 25 91 28 92 26 93 27 94 29 95
REMARK H PARENT 86 26 54 37 23 89 27 96
REMARK Flexibility Score: inf
ROOT
ATOM      1  C   UNL A   1      35.964  22.277  24.163  1.00  0.00     0.188 C 
ENDROOT
BRANCH   1   2
ATOM      2  C   UNL A   1      37.362  21.676  24.306  1.00  0.00     0.188 C 
BRANCH   2   3
ATOM      3  O   UNL A   1      37.305  20.455  25.049  1.00  0.00    -0.376 OA
BRANCH   3   4
ATOM      4  C   UNL A   1      38.452  19.616  24.921  1.00  0.00     0.202 C 
BRANCH   4   5
ATOM      5  C   UNL A   1      39.425  19.702  26.099  1.00  0.00     0.261 C 
BRANCH   5   6
ATOM      6  O   UNL A   1      40.706  19.137  25.778  1.00  0.00    -0.460 OA
BRANCH   6   7
ATOM      7  C   UNL A   1      41.926  19.698  25.983  1.00  0.00     0.338 C 
ATOM      8  O   UNL A   1      42.927  18.996  25.837  1.00  0.00    -0.246 OA
BRANCH   7   9
ATOM      9  C   UNL A   1      42.125  21.136  26.340  1.00  0.00     0.060 A 
ATOM     10  C   UNL A   1      42.135  22.189  25.426  1.00  0.00     0.016 A 
ATOM     11  C   UNL A   1      42.257  21.452  27.703  1.00  0.00     0.016 A 
ATOM     12  C   UNL A   1      42.390  23.493  25.821  1.00  0.00     0.010 A 
ATOM     13  C   UNL A   1      42.456  22.774  28.120  1.00  0.00     0.010 A 
ATOM     14  C   UNL A   1      42.563  23.795  27.168  1.00  0.00    -0.014 A 
BRANCH  14  15
ATOM     15  C   UNL A   1      43.007  25.162  27.504  1.00  0.00     0.031 A 
ATOM     16  C   UNL A   1      42.013  26.089  28.141  1.00  0.00     0.074 A 
ATOM     17  C   UNL A   1      44.312  25.480  27.413  1.00  0.00     0.049 A 
ATOM     18  N   UNL A   1      42.159  27.327  28.523  1.00  0.00    -0.248 NA
ATOM     19  C   UNL A   1      40.674  25.531  28.401  1.00  0.00     0.031 C 
ATOM     20  C   UNL A   1      45.366  24.576  26.941  1.00  0.00     0.029 A 
ATOM     21  N   UNL A   1      44.985  26.622  27.754  1.00  0.00    -0.354 N 
ATOM     22  C   UNL A   1      40.931  27.703  29.053  1.00  0.00     0.074 A 
ATOM     23  C   UNL A   1      40.045  26.569  28.928  1.00  0.00     0.031 C 
ATOM     24  C   UNL A   1      46.554  25.190  27.055  1.00  0.00     0.029 A 
ATOM     25  C   UNL A   1      46.341  26.553  27.528  1.00  0.00     0.049 A 
ATOM     26  H   UNL A   1      44.541  27.418  28.126  1.00  0.00     0.167 HD
ATOM     27  C   UNL A   1      40.581  28.895  29.593  1.00  0.00     0.034 A 
ATOM     28  C   UNL A   1      47.288  27.504  27.653  1.00  0.00     0.034 A 
ATOM     29  C   UNL A   1      41.491  30.008  29.679  1.00  0.00     0.049 A 
ATOM     30  C   UNL A   1      46.844  28.863  28.141  1.00  0.00     0.074 A 
ATOM     31  C   UNL A   1      41.244  31.306  30.082  1.00  0.00     0.029 A 
ATOM     32  N   UNL A   1      42.841  29.941  29.351  1.00  0.00    -0.354 N 
ATOM     33  N   UNL A   1      45.650  29.247  28.537  1.00  0.00    -0.248 NA
ATOM     34  C   UNL A   1      47.864  29.915  28.190  1.00  0.00     0.031 C 
ATOM     35  C   UNL A   1      42.433  32.036  29.949  1.00  0.00     0.029 A 
ATOM     36  C   UNL A   1      43.438  31.177  29.526  1.00  0.00     0.049 A 
ATOM     37  H   UNL A   1      43.306  29.130  29.039  1.00  0.00     0.167 HD
ATOM     38  C   UNL A   1      45.778  30.587  28.888  1.00  0.00     0.074 A 
ATOM     39  C   UNL A   1      47.176  30.926  28.698  1.00  0.00     0.031 C 
ATOM     40  C   UNL A   1      44.836  31.468  29.313  1.00  0.00     0.034 A 
BRANCH  27  41
ATOM     41  C   UNL A   1      39.143  29.052  30.020  1.00  0.00     0.023 A 
ATOM     42  C   UNL A   1      38.177  29.630  29.177  1.00  0.00     0.031 A 
ATOM     43  C   UNL A   1      38.757  28.710  31.327  1.00  0.00     0.131 A 
ATOM     44  C   UNL A   1      36.896  29.917  29.675  1.00  0.00     0.055 A 
ATOM     45  C   UNL A   1      37.459  28.930  31.794  1.00  0.00     0.041 A 
ATOM     46  F   UNL A   1      39.645  28.187  32.187  1.00  0.00    -0.206 F 
ATOM     47  C   UNL A   1      36.525  29.551  30.970  1.00  0.00     0.022 A 
BRANCH  44  48
ATOM     48  S   UNL A   1      35.765  30.905  28.655  1.00  0.00     0.124 S 
ATOM     49  O   UNL A   1      35.278  31.887  29.622  1.00  0.00    -0.237 OA
ATOM     50  O   UNL A   1      36.644  31.419  27.611  1.00  0.00    -0.237 OA
ATOM     51  O   UNL A   1      34.768  29.933  28.208  1.00  0.00    -0.744 OA
ENDBRANCH  44  48
ENDBRANCH  27  41
BRANCH  28  52
ATOM     52  C   UNL A   1      48.701  27.252  27.235  1.00  0.00     0.023 A 
ATOM     53  C   UNL A   1      49.187  27.668  25.985  1.00  0.00     0.031 A 
ATOM     54  C   UNL A   1      49.574  26.510  28.056  1.00  0.00     0.131 A 
ATOM     55  C   UNL A   1      50.479  27.296  25.572  1.00  0.00     0.055 A 
ATOM     56  C   UNL A   1      50.878  26.201  27.670  1.00  0.00     0.041 A 
ATOM     57  F   UNL A   1      49.168  26.071  29.259  1.00  0.00    -0.206 F 
ATOM     58  C   UNL A   1      51.332  26.579  26.412  1.00  0.00     0.022 A 
BRANCH  55  59
ATOM     59  S   UNL A   1      50.989  27.658  23.867  1.00  0.00     0.124 S 
ATOM     60  O   UNL A   1      52.102  26.733  23.686  1.00  0.00    -0.237 OA
ATOM     61  O   UNL A   1      49.774  27.356  23.119  1.00  0.00    -0.237 OA
ATOM     62  O   UNL A   1      51.355  29.072  23.915  1.00  0.00    -0.744 OA
ENDBRANCH  55  59
ENDBRANCH  28  52
BRANCH  40  63
ATOM     63  C   UNL A   1      45.317  32.862  29.614  1.00  0.00     0.023 A 
ATOM     64  C   UNL A   1      45.420  33.833  28.604  1.00  0.00     0.031 A 
ATOM     65  C   UNL A   1      45.702  33.213  30.920  1.00  0.00     0.131 A 
ATOM     66  C   UNL A   1      45.961  35.091  28.901  1.00  0.00     0.055 A 
ATOM     67  C   UNL A   1      46.180  34.487  31.221  1.00  0.00     0.041 A 
ATOM     68  F   UNL A   1      45.621  32.320  31.919  1.00  0.00    -0.206 F 
ATOM     69  C   UNL A   1      46.327  35.430  30.207  1.00  0.00     0.022 A 
BRANCH  66  70
ATOM     70  S   UNL A   1      46.276  36.241  27.536  1.00  0.00     0.124 S 
ATOM     71  O   UNL A   1      45.537  35.621  26.441  1.00  0.00    -0.237 OA
ATOM     72  O   UNL A   1      45.725  37.491  28.049  1.00  0.00    -0.237 OA
ATOM     73  O   UNL A   1      47.731  36.215  27.396  1.00  0.00    -0.744 OA
ENDBRANCH  66  70
ENDBRANCH  40  63
ENDBRANCH  14  15
ENDBRANCH   7   9
ENDBRANCH   6   7
ENDBRANCH   5   6
ENDBRANCH   4   5
ENDBRANCH   3   4
ENDBRANCH   2   3
ENDBRANCH   1   2
BRANCH   1  74
ATOM     74  O   UNL A   1      35.948  23.683  23.919  1.00  0.00    -0.377 OA
BRANCH  74  75
ATOM     75  C   UNL A   1      34.689  24.332  24.044  1.00  0.00     0.188 C 
BRANCH  75  76
ATOM     76  C   UNL A   1      33.924  24.754  22.774  1.00  0.00     0.188 C 
BRANCH  76  77
ATOM     77  O   UNL A   1      32.866  25.671  23.008  1.00  0.00    -0.376 OA
BRANCH  77  78
ATOM     78  C   UNL A   1      31.644  25.352  22.345  1.00  0.00     0.202 C 
BRANCH  78  79
ATOM     79  C   UNL A   1      30.565  24.713  23.234  1.00  0.00     0.261 C 
BRANCH  79  80
ATOM     80  O   UNL A   1      31.090  23.731  24.145  1.00  0.00    -0.463 OA
BRANCH  80  81
ATOM     81  C   UNL A   1      30.889  23.869  25.471  1.00  0.00     0.309 C 
ATOM     82  O   UNL A   1      30.313  24.791  26.029  1.00  0.00    -0.252 OA
BRANCH  81  83
ATOM     83  C   UNL A   1      31.372  22.670  26.221  1.00  0.00     0.112 C 
ATOM     84  C   UNL A   1      31.707  22.783  27.687  1.00  0.00     0.030 C 
ATOM     85  C   UNL A   1      32.806  22.578  26.678  1.00  0.00     0.093 C 
BRANCH  85  86
ATOM     86  C   UNL A   1      33.718  21.413  26.770  1.00  0.00     0.224 C 
ATOM     87  O   UNL A   1      34.766  21.574  27.400  1.00  0.00    -0.275 OA
ATOM     88  N   UNL A   1      33.530  20.151  26.294  1.00  0.00    -0.342 N 
ATOM     89  H   UNL A   1      34.246  19.556  26.617  1.00  0.00     0.164 HD
BRANCH  88  90
ATOM     90  C   UNL A   1      32.598  19.404  25.453  1.00  0.00     0.202 C 
ATOM     91  C   UNL A   1      32.609  17.888  25.510  1.00  0.00     0.228 C 
ATOM     92  C   UNL A   1      32.562  19.697  23.981  1.00  0.00     0.268 C 
ATOM     93  O   UNL A   1      32.806  17.395  24.179  1.00  0.00    -0.271 OA
ATOM     94  N   UNL A   1      32.651  18.503  23.319  1.00  0.00    -0.233 N 
ATOM     95  O   UNL A   1      32.463  20.797  23.463  1.00  0.00    -0.270 OA
ATOM     96  H   UNL A   1      32.611  18.425  22.339  1.00  0.00     0.199 HD
ENDBRANCH  88  90
ENDBRANCH  85  86
ENDBRANCH  81  83
ENDBRANCH  80  81
ENDBRANCH  79  80
ENDBRANCH  78  79
ENDBRANCH  77  78
ENDBRANCH  76  77
ENDBRANCH  75  76
ENDBRANCH  74  75
ENDBRANCH   1  74
TORSDOF 25
ENDMDL
