MODEL 1
REMARK VINA RESULT:      -9.1      0.000      0.000
REMARK SMILES CCC[NH2+][C@]1(C(=O)OCCOCCOCCOCCOC(=O)c2ccc(-c3c4nc(c(-c5cc(S(=O)(=O)[O-])ccc5F)c5ccc([nH]5)c(-c5cc(S(=O)(=O)[O-])ccc5F)c5nc(c(-c6cc(S(=O)(=O)[O-])ccc6F)c6ccc3[nH]6)C=C5)C=C4)cc2)CC[C@H](Oc2ccc(C)c(C)c2)C1
REMARK SMILES IDX 14 1 13 2 12 3 11 4 10 5 9 6 8 7 6 8 7 9 5 10 86 11 98 12
REMARK SMILES IDX 87 13 88 14 4 15 3 18 2 19 1 20 89 21 90 22 91 23 97 24
REMARK SMILES IDX 92 25 95 26 93 27 96 28 94 29 15 30 16 31 17 32 18 33 19 34
REMARK SMILES IDX 20 35 21 36 22 37 23 38 24 39 85 40 25 41 84 42 26 43 27 44
REMARK SMILES IDX 28 45 78 46 29 47 83 48 77 49 79 50 30 51 82 52 76 53 75 54
REMARK SMILES IDX 31 56 63 57 43 58 62 59 44 60 47 61 61 62 80 63 45 64 46 65
REMARK SMILES IDX 60 67 81 68 48 69 32 70 33 71 41 72 34 73 40 74 42 75 39 76
REMARK SMILES IDX 35 77 36 78 37 79 38 80 64 81 65 82 73 83 66 84 72 85 74 86
REMARK SMILES IDX 71 87 67 88 68 89 69 90 70 91 49 92 50 93 58 94 51 95 57 96
REMARK SMILES IDX 59 97 56 98 52 99 53 100 54 101 55 102
REMARK H PARENT 4 16 4 17 79 55 47 66
REMARK Flexibility Score: inf
ROOT
ATOM      1  O   UNL A   1      39.435  22.143  26.812  1.00  0.00    -0.377 OA
ENDROOT
BRANCH   1   2
ATOM      2  C   UNL A   1      39.228  23.523  26.552  1.00  0.00     0.188 C 
BRANCH   2   3
ATOM      3  C   UNL A   1      37.780  23.854  26.205  1.00  0.00     0.188 C 
BRANCH   3   4
ATOM      4  O   UNL A   1      37.366  23.613  24.867  1.00  0.00    -0.376 OA
BRANCH   4   5
ATOM      5  C   UNL A   1      36.672  22.402  24.579  1.00  0.00     0.202 C 
BRANCH   5   6
ATOM      6  C   UNL A   1      36.418  21.414  25.733  1.00  0.00     0.261 C 
BRANCH   6   7
ATOM      7  O   UNL A   1      35.031  21.147  26.043  1.00  0.00    -0.459 OA
BRANCH   7   8
ATOM      8  C   UNL A   1      34.393  22.085  26.793  1.00  0.00     0.368 C 
ATOM      9  O   UNL A   1      34.722  22.366  27.945  1.00  0.00    -0.245 OA
BRANCH   8  10
ATOM     10  C   UNL A   1      33.199  22.768  26.074  1.00  0.00     0.198 C 
ATOM     11  C   UNL A   1      31.993  22.938  27.006  1.00  0.00     0.085 C 
ATOM     12  C   UNL A   1      33.632  24.250  25.905  1.00  0.00     0.126 C 
ATOM     13  C   UNL A   1      31.272  24.180  26.495  1.00  0.00     0.052 C 
ATOM     14  C   UNL A   1      32.352  25.077  25.873  1.00  0.00     0.180 C 
BRANCH  10  15
ATOM     15  N   UNL A   1      32.935  22.268  24.692  1.00  0.00    -0.332 N 
ATOM     16  H   UNL A   1      32.460  23.016  24.188  1.00  0.00     0.347 HD
ATOM     17  H   UNL A   1      33.857  22.004  24.343  1.00  0.00     0.347 HD
BRANCH  15  18
ATOM     18  C   UNL A   1      32.134  21.060  24.524  1.00  0.00     0.261 C 
BRANCH  18  19
ATOM     19  C   UNL A   1      32.172  20.470  23.100  1.00  0.00     0.058 C 
ATOM     20  C   UNL A   1      32.051  21.447  21.942  1.00  0.00     0.010 C 
ENDBRANCH  18  19
ENDBRANCH  15  18
ENDBRANCH  10  15
BRANCH  14  21
ATOM     21  O   UNL A   1      32.087  25.412  24.510  1.00  0.00    -0.490 OA
BRANCH  21  22
ATOM     22  C   UNL A   1      31.375  26.547  24.255  1.00  0.00     0.120 A 
ATOM     23  C   UNL A   1      30.310  26.657  23.371  1.00  0.00     0.047 A 
ATOM     24  C   UNL A   1      31.812  27.680  24.944  1.00  0.00     0.050 A 
ATOM     25  C   UNL A   1      29.728  27.899  23.130  1.00  0.00     0.007 A 
ATOM     26  C   UNL A   1      31.221  28.936  24.733  1.00  0.00    -0.045 A 
ATOM     27  C   UNL A   1      30.176  29.048  23.797  1.00  0.00    -0.048 A 
ATOM     28  C   UNL A   1      31.736  30.119  25.503  1.00  0.00     0.045 C 
ATOM     29  C   UNL A   1      29.534  30.354  23.425  1.00  0.00     0.044 C 
ENDBRANCH  21  22
ENDBRANCH  14  21
ENDBRANCH   8  10
ENDBRANCH   7   8
ENDBRANCH   6   7
ENDBRANCH   5   6
ENDBRANCH   4   5
ENDBRANCH   3   4
ENDBRANCH   2   3
ENDBRANCH   1   2
BRANCH   1  30
ATOM     30  C   UNL A   1      40.465  21.430  26.127  1.00  0.00     0.188 C 
BRANCH  30  31
ATOM     31  C   UNL A   1      40.622  19.948  26.458  1.00  0.00     0.188 C 
BRANCH  31  32
ATOM     32  O   UNL A   1      41.817  19.554  27.141  1.00  0.00    -0.376 OA
BRANCH  32  33
ATOM     33  C   UNL A   1      42.682  18.609  26.516  1.00  0.00     0.202 C 
BRANCH  33  34
ATOM     34  C   UNL A   1      43.487  19.132  25.331  1.00  0.00     0.261 C 
BRANCH  34  35
ATOM     35  O   UNL A   1      44.377  20.178  25.730  1.00  0.00    -0.460 OA
BRANCH  35  36
ATOM     36  C   UNL A   1      44.373  21.240  24.892  1.00  0.00     0.338 C 
ATOM     37  O   UNL A   1      44.521  21.223  23.678  1.00  0.00    -0.246 OA
BRANCH  36  38
ATOM     38  C   UNL A   1      43.964  22.442  25.633  1.00  0.00     0.060 A 
ATOM     39  C   UNL A   1      43.717  23.601  24.887  1.00  0.00     0.016 A 
ATOM     40  C   UNL A   1      43.878  22.451  27.028  1.00  0.00     0.016 A 
ATOM     41  C   UNL A   1      43.438  24.791  25.535  1.00  0.00     0.010 A 
ATOM     42  C   UNL A   1      43.626  23.656  27.683  1.00  0.00     0.010 A 
ATOM     43  C   UNL A   1      43.459  24.833  26.932  1.00  0.00    -0.014 A 
BRANCH  43  44
ATOM     44  C   UNL A   1      43.560  26.162  27.564  1.00  0.00     0.031 A 
ATOM     45  C   UNL A   1      44.909  26.825  27.589  1.00  0.00     0.074 A 
ATOM     46  C   UNL A   1      42.452  26.800  27.971  1.00  0.00     0.049 A 
ATOM     47  N   UNL A   1      45.241  28.016  28.007  1.00  0.00    -0.248 NA
ATOM     48  C   UNL A   1      46.036  26.037  27.063  1.00  0.00     0.031 C 
ATOM     49  C   UNL A   1      41.097  26.251  27.911  1.00  0.00     0.029 A 
ATOM     50  N   UNL A   1      42.289  28.055  28.490  1.00  0.00    -0.354 N 
ATOM     51  C   UNL A   1      46.611  28.123  27.793  1.00  0.00     0.074 A 
ATOM     52  C   UNL A   1      47.056  26.859  27.251  1.00  0.00     0.031 C 
ATOM     53  C   UNL A   1      40.236  27.175  28.369  1.00  0.00     0.029 A 
ATOM     54  C   UNL A   1      40.982  28.359  28.786  1.00  0.00     0.049 A 
ATOM     55  H   UNL A   1      43.035  28.679  28.637  1.00  0.00     0.167 HD
ATOM     56  C   UNL A   1      47.417  29.187  28.019  1.00  0.00     0.034 A 
ATOM     57  C   UNL A   1      40.461  29.467  29.346  1.00  0.00     0.034 A 
ATOM     58  C   UNL A   1      46.941  30.429  28.577  1.00  0.00     0.049 A 
ATOM     59  C   UNL A   1      41.396  30.607  29.672  1.00  0.00     0.074 A 
ATOM     60  C   UNL A   1      47.656  31.575  28.868  1.00  0.00     0.029 A 
ATOM     61  N   UNL A   1      45.621  30.681  28.938  1.00  0.00    -0.354 N 
ATOM     62  N   UNL A   1      42.693  30.698  29.476  1.00  0.00    -0.248 NA
ATOM     63  C   UNL A   1      40.792  31.799  30.274  1.00  0.00     0.031 C 
ATOM     64  C   UNL A   1      46.789  32.485  29.484  1.00  0.00     0.029 A 
ATOM     65  C   UNL A   1      45.509  31.950  29.483  1.00  0.00     0.049 A 
ATOM     66  H   UNL A   1      44.874  30.049  28.824  1.00  0.00     0.167 HD
ATOM     67  C   UNL A   1      43.054  31.973  29.902  1.00  0.00     0.074 A 
ATOM     68  C   UNL A   1      41.830  32.618  30.338  1.00  0.00     0.031 C 
ATOM     69  C   UNL A   1      44.279  32.563  29.930  1.00  0.00     0.034 A 
BRANCH  56  70
ATOM     70  C   UNL A   1      48.891  29.017  27.731  1.00  0.00     0.023 A 
ATOM     71  C   UNL A   1      49.420  29.148  26.434  1.00  0.00     0.031 A 
ATOM     72  C   UNL A   1      49.776  28.676  28.769  1.00  0.00     0.131 A 
ATOM     73  C   UNL A   1      50.776  28.870  26.199  1.00  0.00     0.055 A 
ATOM     74  C   UNL A   1      51.140  28.485  28.544  1.00  0.00     0.041 A 
ATOM     75  F   UNL A   1      49.326  28.503  30.022  1.00  0.00    -0.206 F 
ATOM     76  C   UNL A   1      51.646  28.567  27.250  1.00  0.00     0.022 A 
BRANCH  73  77
ATOM     77  S   UNL A   1      51.359  28.757  24.485  1.00  0.00     0.124 S 
ATOM     78  O   UNL A   1      51.655  30.156  24.182  1.00  0.00    -0.237 OA
ATOM     79  O   UNL A   1      52.511  27.871  24.601  1.00  0.00    -0.237 OA
ATOM     80  O   UNL A   1      50.213  28.202  23.768  1.00  0.00    -0.744 OA
ENDBRANCH  73  77
ENDBRANCH  56  70
BRANCH  57  81
ATOM     81  C   UNL A   1      39.007  29.544  29.661  1.00  0.00     0.023 A 
ATOM     82  C   UNL A   1      38.129  30.317  28.887  1.00  0.00     0.031 A 
ATOM     83  C   UNL A   1      38.479  28.874  30.781  1.00  0.00     0.131 A 
ATOM     84  C   UNL A   1      36.784  30.445  29.271  1.00  0.00     0.055 A 
ATOM     85  C   UNL A   1      37.129  28.953  31.124  1.00  0.00     0.041 A 
ATOM     86  F   UNL A   1      39.274  28.119  31.558  1.00  0.00    -0.206 F 
ATOM     87  C   UNL A   1      36.276  29.756  30.375  1.00  0.00     0.022 A 
BRANCH  84  88
ATOM     88  S   UNL A   1      35.729  31.609  28.364  1.00  0.00     0.124 S 
ATOM     89  O   UNL A   1      35.276  30.788  27.247  1.00  0.00    -0.237 OA
ATOM     90  O   UNL A   1      34.721  31.945  29.365  1.00  0.00    -0.237 OA
ATOM     91  O   UNL A   1      36.643  32.693  28.015  1.00  0.00    -0.744 OA
ENDBRANCH  84  88
ENDBRANCH  57  81
BRANCH  69  92
ATOM     92  C   UNL A   1      44.330  33.995  30.410  1.00  0.00     0.023 A 
ATOM     93  C   UNL A   1      44.390  34.314  31.778  1.00  0.00     0.031 A 
ATOM     94  C   UNL A   1      44.272  35.054  29.487  1.00  0.00     0.131 A 
ATOM     95  C   UNL A   1      44.289  35.652  32.186  1.00  0.00     0.055 A 
ATOM     96  C   UNL A   1      44.263  36.388  29.897  1.00  0.00     0.041 A 
ATOM     97  F   UNL A   1      44.213  34.812  28.168  1.00  0.00    -0.206 F 
ATOM     98  C   UNL A   1      44.248  36.693  31.255  1.00  0.00     0.022 A 
BRANCH  95  99
ATOM     99  S   UNL A   1      44.050  36.001  33.950  1.00  0.00     0.124 S 
ATOM    100  O   UNL A   1      45.016  37.070  34.180  1.00  0.00    -0.237 OA
ATOM    101  O   UNL A   1      42.644  36.390  34.003  1.00  0.00    -0.237 OA
ATOM    102  O   UNL A   1      44.366  34.729  34.597  1.00  0.00    -0.744 OA
ENDBRANCH  95  99
ENDBRANCH  69  92
ENDBRANCH  43  44
ENDBRANCH  36  38
ENDBRANCH  35  36
ENDBRANCH  34  35
ENDBRANCH  33  34
ENDBRANCH  32  33
ENDBRANCH  31  32
ENDBRANCH  30  31
ENDBRANCH   1  30
TORSDOF 28
ENDMDL
MODEL 2
REMARK VINA RESULT:      -8.9      2.541      3.053
REMARK SMILES CCC[NH2+][C@]1(C(=O)OCCOCCOCCOCCOC(=O)c2ccc(-c3c4nc(c(-c5cc(S(=O)(=O)[O-])ccc5F)c5ccc([nH]5)c(-c5cc(S(=O)(=O)[O-])ccc5F)c5nc(c(-c6cc(S(=O)(=O)[O-])ccc6F)c6ccc3[nH]6)C=C5)C=C4)cc2)CC[C@H](Oc2ccc(C)c(C)c2)C1
REMARK SMILES IDX 14 1 13 2 12 3 11 4 10 5 9 6 8 7 6 8 7 9 5 10 86 11 98 12
REMARK SMILES IDX 87 13 88 14 4 15 3 18 2 19 1 20 89 21 90 22 91 23 97 24
REMARK SMILES IDX 92 25 95 26 93 27 96 28 94 29 15 30 16 31 17 32 18 33 19 34
REMARK SMILES IDX 20 35 21 36 22 37 23 38 24 39 85 40 25 41 84 42 26 43 27 44
REMARK SMILES IDX 28 45 78 46 29 47 83 48 77 49 79 50 30 51 82 52 76 53 75 54
REMARK SMILES IDX 31 56 63 57 43 58 62 59 44 60 47 61 61 62 80 63 45 64 46 65
REMARK SMILES IDX 60 67 81 68 48 69 32 70 33 71 41 72 34 73 40 74 42 75 39 76
REMARK SMILES IDX 35 77 36 78 37 79 38 80 64 81 65 82 73 83 66 84 72 85 74 86
REMARK SMILES IDX 71 87 67 88 68 89 69 90 70 91 49 92 50 93 58 94 51 95 57 96
REMARK SMILES IDX 59 97 56 98 52 99 53 100 54 101 55 102
REMARK H PARENT 4 16 4 17 79 55 47 66
REMARK Flexibility Score: inf
ROOT
ATOM      1  O   UNL A   1      39.660  22.146  27.066  1.00  0.00    -0.377 OA
ENDROOT
BRANCH   1   2
ATOM      2  C   UNL A   1      39.338  23.508  26.824  1.00  0.00     0.188 C 
BRANCH   2   3
ATOM      3  C   UNL A   1      37.890  23.709  26.387  1.00  0.00     0.188 C 
BRANCH   3   4
ATOM      4  O   UNL A   1      37.596  23.503  25.011  1.00  0.00    -0.376 OA
BRANCH   4   5
ATOM      5  C   UNL A   1      36.670  22.478  24.662  1.00  0.00     0.202 C 
BRANCH   5   6
ATOM      6  C   UNL A   1      36.348  21.397  25.710  1.00  0.00     0.261 C 
BRANCH   6   7
ATOM      7  O   UNL A   1      34.947  21.076  25.878  1.00  0.00    -0.459 OA
BRANCH   7   8
ATOM      8  C   UNL A   1      34.237  21.899  26.694  1.00  0.00     0.368 C 
ATOM      9  O   UNL A   1      34.403  21.948  27.913  1.00  0.00    -0.245 OA
BRANCH   8  10
ATOM     10  C   UNL A   1      33.185  22.770  25.958  1.00  0.00     0.198 C 
ATOM     11  C   UNL A   1      31.904  22.938  26.784  1.00  0.00     0.085 C 
ATOM     12  C   UNL A   1      33.750  24.216  26.022  1.00  0.00     0.126 C 
ATOM     13  C   UNL A   1      31.342  24.293  26.369  1.00  0.00     0.052 C 
ATOM     14  C   UNL A   1      32.550  25.155  25.974  1.00  0.00     0.180 C 
BRANCH  10  15
ATOM     15  N   UNL A   1      33.031  22.466  24.504  1.00  0.00    -0.332 N 
ATOM     16  H   UNL A   1      32.789  23.339  24.038  1.00  0.00     0.347 HD
ATOM     17  H   UNL A   1      33.924  22.047  24.242  1.00  0.00     0.347 HD
BRANCH  15  18
ATOM     18  C   UNL A   1      32.042  21.473  24.097  1.00  0.00     0.261 C 
BRANCH  18  19
ATOM     19  C   UNL A   1      32.141  21.053  22.616  1.00  0.00     0.058 C 
ATOM     20  C   UNL A   1      32.160  19.563  22.320  1.00  0.00     0.010 C 
ENDBRANCH  18  19
ENDBRANCH  15  18
ENDBRANCH  10  15
BRANCH  14  21
ATOM     21  O   UNL A   1      32.458  25.673  24.646  1.00  0.00    -0.490 OA
BRANCH  21  22
ATOM     22  C   UNL A   1      31.952  26.928  24.481  1.00  0.00     0.120 A 
ATOM     23  C   UNL A   1      32.551  28.108  24.905  1.00  0.00     0.047 A 
ATOM     24  C   UNL A   1      30.706  26.981  23.853  1.00  0.00     0.050 A 
ATOM     25  C   UNL A   1      31.883  29.321  24.760  1.00  0.00     0.007 A 
ATOM     26  C   UNL A   1      30.028  28.198  23.676  1.00  0.00    -0.045 A 
ATOM     27  C   UNL A   1      30.619  29.382  24.155  1.00  0.00    -0.048 A 
ATOM     28  C   UNL A   1      28.690  28.190  22.994  1.00  0.00     0.045 C 
ATOM     29  C   UNL A   1      29.946  30.724  24.102  1.00  0.00     0.044 C 
ENDBRANCH  21  22
ENDBRANCH  14  21
ENDBRANCH   8  10
ENDBRANCH   7   8
ENDBRANCH   6   7
ENDBRANCH   5   6
ENDBRANCH   4   5
ENDBRANCH   3   4
ENDBRANCH   2   3
ENDBRANCH   1   2
BRANCH   1  30
ATOM     30  C   UNL A   1      40.764  21.539  26.395  1.00  0.00     0.188 C 
BRANCH  30  31
ATOM     31  C   UNL A   1      40.946  20.035  26.579  1.00  0.00     0.188 C 
BRANCH  31  32
ATOM     32  O   UNL A   1      42.131  19.597  27.253  1.00  0.00    -0.376 OA
BRANCH  32  33
ATOM     33  C   UNL A   1      42.801  18.435  26.772  1.00  0.00     0.202 C 
BRANCH  33  34
ATOM     34  C   UNL A   1      43.371  18.535  25.361  1.00  0.00     0.261 C 
BRANCH  34  35
ATOM     35  O   UNL A   1      44.601  19.266  25.349  1.00  0.00    -0.460 OA
BRANCH  35  36
ATOM     36  C   UNL A   1      44.612  20.290  24.466  1.00  0.00     0.338 C 
ATOM     37  O   UNL A   1      44.625  20.212  23.245  1.00  0.00    -0.246 OA
BRANCH  36  38
ATOM     38  C   UNL A   1      44.408  21.555  25.186  1.00  0.00     0.060 A 
ATOM     39  C   UNL A   1      44.041  22.673  24.427  1.00  0.00     0.016 A 
ATOM     40  C   UNL A   1      44.624  21.659  26.563  1.00  0.00     0.016 A 
ATOM     41  C   UNL A   1      43.944  23.914  25.029  1.00  0.00     0.010 A 
ATOM     42  C   UNL A   1      44.554  22.914  27.166  1.00  0.00     0.010 A 
ATOM     43  C   UNL A   1      44.265  24.046  26.384  1.00  0.00    -0.014 A 
BRANCH  43  44
ATOM     44  C   UNL A   1      44.539  25.408  26.880  1.00  0.00     0.031 A 
ATOM     45  C   UNL A   1      45.915  25.972  26.655  1.00  0.00     0.074 A 
ATOM     46  C   UNL A   1      43.545  26.152  27.388  1.00  0.00     0.049 A 
ATOM     47  N   UNL A   1      46.376  27.165  26.919  1.00  0.00    -0.248 NA
ATOM     48  C   UNL A   1      46.901  25.068  26.040  1.00  0.00     0.031 C 
ATOM     49  C   UNL A   1      42.166  25.699  27.570  1.00  0.00     0.029 A 
ATOM     50  N   UNL A   1      43.537  27.451  27.818  1.00  0.00    -0.354 N 
ATOM     51  C   UNL A   1      47.703  27.156  26.502  1.00  0.00     0.074 A 
ATOM     52  C   UNL A   1      47.985  25.826  26.009  1.00  0.00     0.031 C 
ATOM     53  C   UNL A   1      41.440  26.715  28.068  1.00  0.00     0.029 A 
ATOM     54  C   UNL A   1      42.310  27.869  28.272  1.00  0.00     0.049 A 
ATOM     55  H   UNL A   1      44.333  28.029  27.803  1.00  0.00     0.167 HD
ATOM     56  C   UNL A   1      48.596  28.174  26.519  1.00  0.00     0.034 A 
ATOM     57  C   UNL A   1      41.946  29.051  28.807  1.00  0.00     0.034 A 
ATOM     58  C   UNL A   1      48.284  29.484  27.034  1.00  0.00     0.049 A 
ATOM     59  C   UNL A   1      42.986  30.141  28.898  1.00  0.00     0.074 A 
ATOM     60  C   UNL A   1      49.102  30.594  27.122  1.00  0.00     0.029 A 
ATOM     61  N   UNL A   1      47.051  29.857  27.559  1.00  0.00    -0.354 N 
ATOM     62  N   UNL A   1      44.243  30.124  28.510  1.00  0.00    -0.248 NA
ATOM     63  C   UNL A   1      42.552  31.415  29.478  1.00  0.00     0.031 C 
ATOM     64  C   UNL A   1      48.394  31.607  27.777  1.00  0.00     0.029 A 
ATOM     65  C   UNL A   1      47.099  31.167  28.006  1.00  0.00     0.049 A 
ATOM     66  H   UNL A   1      46.259  29.273  27.607  1.00  0.00     0.167 HD
ATOM     67  C   UNL A   1      44.739  31.398  28.771  1.00  0.00     0.074 A 
ATOM     68  C   UNL A   1      43.635  32.160  29.322  1.00  0.00     0.031 C 
ATOM     69  C   UNL A   1      45.988  31.898  28.572  1.00  0.00     0.034 A 
BRANCH  56  70
ATOM     70  C   UNL A   1      49.997  27.877  26.037  1.00  0.00     0.023 A 
ATOM     71  C   UNL A   1      51.072  27.696  26.927  1.00  0.00     0.031 A 
ATOM     72  C   UNL A   1      50.271  27.819  24.660  1.00  0.00     0.131 A 
ATOM     73  C   UNL A   1      52.375  27.534  26.429  1.00  0.00     0.055 A 
ATOM     74  C   UNL A   1      51.555  27.572  24.170  1.00  0.00     0.041 A 
ATOM     75  F   UNL A   1      49.294  28.018  23.760  1.00  0.00    -0.206 F 
ATOM     76  C   UNL A   1      52.619  27.443  25.057  1.00  0.00     0.022 A 
BRANCH  73  77
ATOM     77  S   UNL A   1      53.767  27.601  27.592  1.00  0.00     0.124 S 
ATOM     78  O   UNL A   1      54.685  28.503  26.900  1.00  0.00    -0.237 OA
ATOM     79  O   UNL A   1      53.144  28.125  28.801  1.00  0.00    -0.237 OA
ATOM     80  O   UNL A   1      54.215  26.211  27.672  1.00  0.00    -0.744 OA
ENDBRANCH  73  77
ENDBRANCH  56  70
BRANCH  57  81
ATOM     81  C   UNL A   1      40.562  29.254  29.320  1.00  0.00     0.023 A 
ATOM     82  C   UNL A   1      40.281  29.240  30.694  1.00  0.00     0.031 A 
ATOM     83  C   UNL A   1      39.484  29.419  28.430  1.00  0.00     0.131 A 
ATOM     84  C   UNL A   1      38.952  29.335  31.137  1.00  0.00     0.055 A 
ATOM     85  C   UNL A   1      38.172  29.577  28.877  1.00  0.00     0.041 A 
ATOM     86  F   UNL A   1      39.695  29.440  27.104  1.00  0.00    -0.206 F 
ATOM     87  C   UNL A   1      37.898  29.519  30.239  1.00  0.00     0.022 A 
BRANCH  84  88
ATOM     88  S   UNL A   1      38.608  29.115  32.905  1.00  0.00     0.124 S 
ATOM     89  O   UNL A   1      37.386  28.321  32.872  1.00  0.00    -0.237 OA
ATOM     90  O   UNL A   1      39.811  28.425  33.362  1.00  0.00    -0.237 OA
ATOM     91  O   UNL A   1      38.453  30.483  33.393  1.00  0.00    -0.744 OA
ENDBRANCH  84  88
ENDBRANCH  57  81
BRANCH  69  92
ATOM     92  C   UNL A   1      46.196  33.355  28.918  1.00  0.00     0.023 A 
ATOM     93  C   UNL A   1      45.922  34.380  27.995  1.00  0.00     0.031 A 
ATOM     94  C   UNL A   1      46.720  33.718  30.171  1.00  0.00     0.131 A 
ATOM     95  C   UNL A   1      46.266  35.704  28.302  1.00  0.00     0.055 A 
ATOM     96  C   UNL A   1      46.976  35.049  30.504  1.00  0.00     0.041 A 
ATOM     97  F   UNL A   1      47.004  32.784  31.093  1.00  0.00    -0.206 F 
ATOM     98  C   UNL A   1      46.770  36.049  29.558  1.00  0.00     0.022 A 
BRANCH  95  99
ATOM     99  S   UNL A   1      46.193  36.944  26.980  1.00  0.00     0.124 S 
ATOM    100  O   UNL A   1      44.766  37.242  26.925  1.00  0.00    -0.237 OA
ATOM    101  O   UNL A   1      47.047  38.006  27.502  1.00  0.00    -0.237 OA
ATOM    102  O   UNL A   1      46.724  36.236  25.817  1.00  0.00    -0.744 OA
ENDBRANCH  95  99
ENDBRANCH  69  92
ENDBRANCH  43  44
ENDBRANCH  36  38
ENDBRANCH  35  36
ENDBRANCH  34  35
ENDBRANCH  33  34
ENDBRANCH  32  33
ENDBRANCH  31  32
ENDBRANCH  30  31
ENDBRANCH   1  30
TORSDOF 28
ENDMDL
MODEL 3
REMARK VINA RESULT:      -8.0      4.280      9.849
REMARK SMILES CCC[NH2+][C@]1(C(=O)OCCOCCOCCOCCOC(=O)c2ccc(-c3c4nc(c(-c5cc(S(=O)(=O)[O-])ccc5F)c5ccc([nH]5)c(-c5cc(S(=O)(=O)[O-])ccc5F)c5nc(c(-c6cc(S(=O)(=O)[O-])ccc6F)c6ccc3[nH]6)C=C5)C=C4)cc2)CC[C@H](Oc2ccc(C)c(C)c2)C1
REMARK SMILES IDX 14 1 13 2 12 3 11 4 10 5 9 6 8 7 6 8 7 9 5 10 86 11 98 12
REMARK SMILES IDX 87 13 88 14 4 15 3 18 2 19 1 20 89 21 90 22 91 23 97 24
REMARK SMILES IDX 92 25 95 26 93 27 96 28 94 29 15 30 16 31 17 32 18 33 19 34
REMARK SMILES IDX 20 35 21 36 22 37 23 38 24 39 85 40 25 41 84 42 26 43 27 44
REMARK SMILES IDX 28 45 78 46 29 47 83 48 77 49 79 50 30 51 82 52 76 53 75 54
REMARK SMILES IDX 31 56 63 57 43 58 62 59 44 60 47 61 61 62 80 63 45 64 46 65
REMARK SMILES IDX 60 67 81 68 48 69 32 70 33 71 41 72 34 73 40 74 42 75 39 76
REMARK SMILES IDX 35 77 36 78 37 79 38 80 64 81 65 82 73 83 66 84 72 85 74 86
REMARK SMILES IDX 71 87 67 88 68 89 69 90 70 91 49 92 50 93 58 94 51 95 57 96
REMARK SMILES IDX 59 97 56 98 52 99 53 100 54 101 55 102
REMARK H PARENT 4 16 4 17 79 55 47 66
REMARK Flexibility Score: inf
ROOT
ATOM      1  O   UNL A   1      35.476  31.508  29.356  1.00  0.00    -0.377 OA
ENDROOT
BRANCH   1   2
ATOM      2  C   UNL A   1      34.789  32.081  28.253  1.00  0.00     0.188 C 
BRANCH   2   3
ATOM      3  C   UNL A   1      34.171  31.038  27.328  1.00  0.00     0.188 C 
BRANCH   3   4
ATOM      4  O   UNL A   1      32.753  30.940  27.321  1.00  0.00    -0.376 OA
BRANCH   4   5
ATOM      5  C   UNL A   1      32.160  29.701  26.944  1.00  0.00     0.202 C 
BRANCH   5   6
ATOM      6  C   UNL A   1      31.622  29.556  25.509  1.00  0.00     0.261 C 
BRANCH   6   7
ATOM      7  O   UNL A   1      32.247  28.533  24.699  1.00  0.00    -0.459 OA
BRANCH   7   8
ATOM      8  C   UNL A   1      31.437  27.527  24.273  1.00  0.00     0.368 C 
ATOM      9  O   UNL A   1      30.269  27.703  23.925  1.00  0.00    -0.245 OA
BRANCH   8  10
ATOM     10  C   UNL A   1      32.107  26.128  24.274  1.00  0.00     0.198 C 
ATOM     11  C   UNL A   1      32.981  25.913  23.033  1.00  0.00     0.085 C 
ATOM     12  C   UNL A   1      33.201  26.212  25.374  1.00  0.00     0.126 C 
ATOM     13  C   UNL A   1      34.078  24.955  23.484  1.00  0.00     0.052 C 
ATOM     14  C   UNL A   1      34.291  25.222  24.980  1.00  0.00     0.180 C 
BRANCH  10  15
ATOM     15  N   UNL A   1      31.211  25.007  24.687  1.00  0.00    -0.332 N 
ATOM     16  H   UNL A   1      30.386  25.047  24.090  1.00  0.00     0.347 HD
ATOM     17  H   UNL A   1      31.795  24.176  24.596  1.00  0.00     0.347 HD
BRANCH  15  18
ATOM     18  C   UNL A   1      30.740  24.959  26.067  1.00  0.00     0.261 C 
BRANCH  18  19
ATOM     19  C   UNL A   1      30.867  23.572  26.730  1.00  0.00     0.058 C 
ATOM     20  C   UNL A   1      29.576  22.854  27.084  1.00  0.00     0.010 C 
ENDBRANCH  18  19
ENDBRANCH  15  18
ENDBRANCH  10  15
BRANCH  14  21
ATOM     21  O   UNL A   1      34.129  24.055  25.788  1.00  0.00    -0.490 OA
BRANCH  21  22
ATOM     22  C   UNL A   1      35.042  23.050  25.654  1.00  0.00     0.120 A 
ATOM     23  C   UNL A   1      36.417  23.178  25.799  1.00  0.00     0.047 A 
ATOM     24  C   UNL A   1      34.502  21.810  25.310  1.00  0.00     0.050 A 
ATOM     25  C   UNL A   1      37.250  22.093  25.541  1.00  0.00     0.007 A 
ATOM     26  C   UNL A   1      35.325  20.697  25.070  1.00  0.00    -0.045 A 
ATOM     27  C   UNL A   1      36.721  20.848  25.169  1.00  0.00    -0.048 A 
ATOM     28  C   UNL A   1      34.686  19.388  24.702  1.00  0.00     0.045 C 
ATOM     29  C   UNL A   1      37.697  19.754  24.847  1.00  0.00     0.044 C 
ENDBRANCH  21  22
ENDBRANCH  14  21
ENDBRANCH   8  10
ENDBRANCH   7   8
ENDBRANCH   6   7
ENDBRANCH   5   6
ENDBRANCH   4   5
ENDBRANCH   3   4
ENDBRANCH   2   3
ENDBRANCH   1   2
BRANCH   1  30
ATOM     30  C   UNL A   1      35.195  31.947  30.684  1.00  0.00     0.188 C 
BRANCH  30  31
ATOM     31  C   UNL A   1      34.509  33.302  30.838  1.00  0.00     0.188 C 
BRANCH  31  32
ATOM     32  O   UNL A   1      35.319  34.399  31.274  1.00  0.00    -0.376 OA
BRANCH  32  33
ATOM     33  C   UNL A   1      36.366  34.147  32.207  1.00  0.00     0.202 C 
BRANCH  33  34
ATOM     34  C   UNL A   1      35.923  33.856  33.637  1.00  0.00     0.261 C 
BRANCH  34  35
ATOM     35  O   UNL A   1      36.259  32.520  34.023  1.00  0.00    -0.460 OA
BRANCH  35  36
ATOM     36  C   UNL A   1      37.241  32.456  34.951  1.00  0.00     0.338 C 
ATOM     37  O   UNL A   1      37.189  32.848  36.109  1.00  0.00    -0.246 OA
BRANCH  36  38
ATOM     38  C   UNL A   1      38.355  31.654  34.425  1.00  0.00     0.060 A 
ATOM     39  C   UNL A   1      39.594  31.782  35.064  1.00  0.00     0.016 A 
ATOM     40  C   UNL A   1      38.206  30.840  33.299  1.00  0.00     0.016 A 
ATOM     41  C   UNL A   1      40.705  31.142  34.547  1.00  0.00     0.010 A 
ATOM     42  C   UNL A   1      39.331  30.216  32.761  1.00  0.00     0.010 A 
ATOM     43  C   UNL A   1      40.587  30.413  33.360  1.00  0.00    -0.014 A 
BRANCH  43  44
ATOM     44  C   UNL A   1      41.835  30.094  32.639  1.00  0.00     0.031 A 
ATOM     45  C   UNL A   1      42.521  28.797  32.968  1.00  0.00     0.074 A 
ATOM     46  C   UNL A   1      42.251  30.878  31.633  1.00  0.00     0.049 A 
ATOM     47  N   UNL A   1      43.575  28.254  32.420  1.00  0.00    -0.248 NA
ATOM     48  C   UNL A   1      41.933  28.003  34.059  1.00  0.00     0.031 C 
ATOM     49  C   UNL A   1      41.595  32.115  31.206  1.00  0.00     0.029 A 
ATOM     50  N   UNL A   1      43.306  30.738  30.774  1.00  0.00    -0.354 N 
ATOM     51  C   UNL A   1      43.774  27.055  33.096  1.00  0.00     0.074 A 
ATOM     52  C   UNL A   1      42.760  26.973  34.124  1.00  0.00     0.031 C 
ATOM     53  C   UNL A   1      42.263  32.616  30.153  1.00  0.00     0.029 A 
ATOM     54  C   UNL A   1      43.407  31.758  29.860  1.00  0.00     0.049 A 
ATOM     55  H   UNL A   1      43.931  29.979  30.808  1.00  0.00     0.167 HD
ATOM     56  C   UNL A   1      44.713  26.107  32.867  1.00  0.00     0.034 A 
ATOM     57  C   UNL A   1      44.334  31.972  28.907  1.00  0.00     0.034 A 
ATOM     58  C   UNL A   1      45.720  26.231  31.842  1.00  0.00     0.049 A 
ATOM     59  C   UNL A   1      45.424  30.944  28.731  1.00  0.00     0.074 A 
ATOM     60  C   UNL A   1      46.735  25.351  31.518  1.00  0.00     0.029 A 
ATOM     61  N   UNL A   1      45.844  27.315  30.979  1.00  0.00    -0.354 N 
ATOM     62  N   UNL A   1      45.614  29.815  29.380  1.00  0.00    -0.248 NA
ATOM     63  C   UNL A   1      46.411  31.207  27.680  1.00  0.00     0.031 C 
ATOM     64  C   UNL A   1      47.522  25.939  30.522  1.00  0.00     0.029 A 
ATOM     65  C   UNL A   1      46.940  27.142  30.149  1.00  0.00     0.049 A 
ATOM     66  H   UNL A   1      45.241  28.093  30.960  1.00  0.00     0.167 HD
ATOM     67  C   UNL A   1      46.725  29.219  28.791  1.00  0.00     0.074 A 
ATOM     68  C   UNL A   1      47.141  30.103  27.719  1.00  0.00     0.031 C 
ATOM     69  C   UNL A   1      47.346  28.050  29.100  1.00  0.00     0.034 A 
BRANCH  56  70
ATOM     70  C   UNL A   1      44.729  24.907  33.785  1.00  0.00     0.023 A 
ATOM     71  C   UNL A   1      45.251  24.970  35.090  1.00  0.00     0.031 A 
ATOM     72  C   UNL A   1      44.252  23.666  33.329  1.00  0.00     0.131 A 
ATOM     73  C   UNL A   1      45.347  23.802  35.864  1.00  0.00     0.055 A 
ATOM     74  C   UNL A   1      44.270  22.525  34.135  1.00  0.00     0.041 A 
ATOM     75  F   UNL A   1      43.773  23.533  32.082  1.00  0.00    -0.206 F 
ATOM     76  C   UNL A   1      44.834  22.586  35.406  1.00  0.00     0.022 A 
BRANCH  73  77
ATOM     77  S   UNL A   1      46.290  23.858  37.414  1.00  0.00     0.124 S 
ATOM     78  O   UNL A   1      47.642  23.561  36.946  1.00  0.00    -0.237 OA
ATOM     79  O   UNL A   1      46.058  25.221  37.875  1.00  0.00    -0.237 OA
ATOM     80  O   UNL A   1      45.676  22.810  38.227  1.00  0.00    -0.744 OA
ENDBRANCH  73  77
ENDBRANCH  56  70
BRANCH  57  81
ATOM     81  C   UNL A   1      44.295  33.210  28.078  1.00  0.00     0.023 A 
ATOM     82  C   UNL A   1      44.588  34.468  28.624  1.00  0.00     0.031 A 
ATOM     83  C   UNL A   1      43.911  33.154  26.724  1.00  0.00     0.131 A 
ATOM     84  C   UNL A   1      44.443  35.623  27.839  1.00  0.00     0.055 A 
ATOM     85  C   UNL A   1      43.829  34.298  25.930  1.00  0.00     0.041 A 
ATOM     86  F   UNL A   1      43.618  31.977  26.149  1.00  0.00    -0.206 F 
ATOM     87  C   UNL A   1      44.082  35.545  26.492  1.00  0.00     0.022 A 
BRANCH  84  88
ATOM     88  S   UNL A   1      44.639  37.243  28.632  1.00  0.00     0.124 S 
ATOM     89  O   UNL A   1      43.415  37.337  29.418  1.00  0.00    -0.237 OA
ATOM     90  O   UNL A   1      45.875  37.061  29.387  1.00  0.00    -0.237 OA
ATOM     91  O   UNL A   1      44.730  38.164  27.502  1.00  0.00    -0.744 OA
ENDBRANCH  84  88
ENDBRANCH  57  81
BRANCH  69  92
ATOM     92  C   UNL A   1      48.514  27.652  28.227  1.00  0.00     0.023 A 
ATOM     93  C   UNL A   1      49.832  28.032  28.536  1.00  0.00     0.031 A 
ATOM     94  C   UNL A   1      48.298  26.921  27.044  1.00  0.00     0.131 A 
ATOM     95  C   UNL A   1      50.865  27.768  27.626  1.00  0.00     0.055 A 
ATOM     96  C   UNL A   1      49.346  26.583  26.187  1.00  0.00     0.041 A 
ATOM     97  F   UNL A   1      47.062  26.531  26.696  1.00  0.00    -0.206 F 
ATOM     98  C   UNL A   1      50.636  27.027  26.464  1.00  0.00     0.022 A 
BRANCH  95  99
ATOM     99  S   UNL A   1      52.480  28.545  27.904  1.00  0.00     0.124 S 
ATOM    100  O   UNL A   1      52.985  28.686  26.543  1.00  0.00    -0.237 OA
ATOM    101  O   UNL A   1      52.116  29.786  28.581  1.00  0.00    -0.237 OA
ATOM    102  O   UNL A   1      53.190  27.572  28.732  1.00  0.00    -0.744 OA
ENDBRANCH  95  99
ENDBRANCH  69  92
ENDBRANCH  43  44
ENDBRANCH  36  38
ENDBRANCH  35  36
ENDBRANCH  34  35
ENDBRANCH  33  34
ENDBRANCH  32  33
ENDBRANCH  31  32
ENDBRANCH  30  31
ENDBRANCH   1  30
TORSDOF 28
ENDMDL
