MODEL 1
REMARK VINA RESULT:     -10.1      0.000      0.000
REMARK SMILES O=C(OCCOCCOCCOCCOC(=O)c1cc(-c2ccn(C(F)F)c(=O)c2)ccc1O)c1ccc(-c2c3nc(c(-c4cc(S(=O)(=O)[O-])ccc4F)c4ccc([nH]4)c(-c4cc(S(=O)(=O)[O-])ccc4F)c4nc(c(-c5cc(S(=O)(=O)[O-])ccc5F)c5ccc2[nH]5)C=C4)C=C3)cc1
REMARK SMILES IDX 8 1 7 2 6 3 5 4 4 5 3 6 2 7 1 8 35 9 36 10 97 11 37 12 96 13
REMARK SMILES IDX 38 14 39 15 40 16 90 17 41 18 95 19 89 20 91 21 42 22 94 23
REMARK SMILES IDX 88 24 87 25 43 27 75 28 55 29 74 30 56 31 59 32 73 33 92 34
REMARK SMILES IDX 57 35 58 36 72 38 93 39 60 40 44 41 45 42 53 43 46 44 52 45
REMARK SMILES IDX 54 46 51 47 47 48 48 49 49 50 50 51 76 52 77 53 85 54 78 55
REMARK SMILES IDX 84 56 86 57 83 58 79 59 80 60 81 61 82 62 61 63 62 64 70 65
REMARK SMILES IDX 63 66 69 67 71 68 68 69 64 70 65 71 66 72 67 73 9 74 10 75
REMARK SMILES IDX 11 76 12 77 13 78 14 79 15 80 16 81 17 82 18 83 19 84 33 85
REMARK SMILES IDX 20 86 32 87 31 88 34 89 21 91 22 92 30 93 23 94 28 95 24 96
REMARK SMILES IDX 29 97 25 98 26 99 27 100
REMARK H PARENT 91 26 59 37 34 90
REMARK Flexibility Score: inf
ROOT
ATOM      1  C   UNL A   1      31.347  30.049  25.308  1.00  0.00     0.188 C 
ENDROOT
BRANCH   1   2
ATOM      2  C   UNL A   1      31.651  31.043  26.419  1.00  0.00     0.188 C 
BRANCH   2   3
ATOM      3  O   UNL A   1      32.729  30.783  27.304  1.00  0.00    -0.376 OA
BRANCH   3   4
ATOM      4  C   UNL A   1      33.628  31.803  27.715  1.00  0.00     0.202 C 
BRANCH   4   5
ATOM      5  C   UNL A   1      33.224  33.281  27.649  1.00  0.00     0.261 C 
BRANCH   5   6
ATOM      6  O   UNL A   1      32.765  33.901  28.858  1.00  0.00    -0.460 OA
BRANCH   6   7
ATOM      7  C   UNL A   1      33.606  34.596  29.674  1.00  0.00     0.338 C 
ATOM      8  O   UNL A   1      33.573  35.816  29.747  1.00  0.00    -0.246 OA
BRANCH   7   9
ATOM      9  C   UNL A   1      34.800  33.837  30.113  1.00  0.00     0.060 A 
ATOM     10  C   UNL A   1      36.018  34.115  29.473  1.00  0.00     0.016 A 
ATOM     11  C   UNL A   1      34.716  32.804  31.045  1.00  0.00     0.016 A 
ATOM     12  C   UNL A   1      37.132  33.307  29.708  1.00  0.00     0.010 A 
ATOM     13  C   UNL A   1      35.798  31.945  31.214  1.00  0.00     0.010 A 
ATOM     14  C   UNL A   1      37.023  32.211  30.575  1.00  0.00    -0.014 A 
BRANCH  14  15
ATOM     15  C   UNL A   1      38.235  31.587  31.146  1.00  0.00     0.031 A 
ATOM     16  C   UNL A   1      38.940  32.081  32.367  1.00  0.00     0.074 A 
ATOM     17  C   UNL A   1      38.730  30.570  30.415  1.00  0.00     0.049 A 
ATOM     18  N   UNL A   1      39.971  31.547  32.970  1.00  0.00    -0.248 NA
ATOM     19  C   UNL A   1      38.445  33.314  32.993  1.00  0.00     0.031 C 
ATOM     20  C   UNL A   1      38.120  30.071  29.177  1.00  0.00     0.029 A 
ATOM     21  N   UNL A   1      39.864  29.823  30.554  1.00  0.00    -0.354 N 
ATOM     22  C   UNL A   1      40.226  32.343  34.080  1.00  0.00     0.074 A 
ATOM     23  C   UNL A   1      39.274  33.437  34.027  1.00  0.00     0.031 C 
ATOM     24  C   UNL A   1      38.929  29.165  28.625  1.00  0.00     0.029 A 
ATOM     25  C   UNL A   1      40.083  28.982  29.492  1.00  0.00     0.049 A 
ATOM     26  H   UNL A   1      40.462  29.881  31.334  1.00  0.00     0.167 HD
ATOM     27  C   UNL A   1      41.155  32.144  35.050  1.00  0.00     0.034 A 
ATOM     28  C   UNL A   1      41.093  28.131  29.241  1.00  0.00     0.034 A 
ATOM     29  C   UNL A   1      42.122  31.063  35.011  1.00  0.00     0.049 A 
ATOM     30  C   UNL A   1      42.099  27.916  30.328  1.00  0.00     0.074 A 
ATOM     31  C   UNL A   1      43.059  30.712  35.967  1.00  0.00     0.029 A 
ATOM     32  N   UNL A   1      42.297  30.178  33.951  1.00  0.00    -0.354 N 
ATOM     33  N   UNL A   1      42.225  28.558  31.465  1.00  0.00    -0.248 NA
ATOM     34  C   UNL A   1      43.052  26.822  30.139  1.00  0.00     0.031 C 
ATOM     35  C   UNL A   1      43.845  29.673  35.457  1.00  0.00     0.029 A 
ATOM     36  C   UNL A   1      43.350  29.312  34.214  1.00  0.00     0.049 A 
ATOM     37  H   UNL A   1      41.751  30.167  33.132  1.00  0.00     0.167 HD
ATOM     38  C   UNL A   1      43.267  27.940  32.138  1.00  0.00     0.074 A 
ATOM     39  C   UNL A   1      43.704  26.843  31.294  1.00  0.00     0.031 C 
ATOM     40  C   UNL A   1      43.815  28.255  33.342  1.00  0.00     0.034 A 
BRANCH  27  41
ATOM     41  C   UNL A   1      41.165  33.052  36.263  1.00  0.00     0.023 A 
ATOM     42  C   UNL A   1      40.361  32.770  37.387  1.00  0.00     0.031 A 
ATOM     43  C   UNL A   1      41.833  34.291  36.231  1.00  0.00     0.131 A 
ATOM     44  C   UNL A   1      40.215  33.726  38.405  1.00  0.00     0.055 A 
ATOM     45  C   UNL A   1      41.718  35.223  37.267  1.00  0.00     0.041 A 
ATOM     46  F   UNL A   1      42.598  34.629  35.180  1.00  0.00    -0.206 F 
ATOM     47  C   UNL A   1      40.895  34.947  38.354  1.00  0.00     0.022 A 
BRANCH  44  48
ATOM     48  S   UNL A   1      39.075  33.468  39.795  1.00  0.00     0.124 S 
ATOM     49  O   UNL A   1      39.382  34.612  40.652  1.00  0.00    -0.237 OA
ATOM     50  O   UNL A   1      37.773  33.518  39.136  1.00  0.00    -0.237 OA
ATOM     51  O   UNL A   1      39.462  32.168  40.330  1.00  0.00    -0.744 OA
ENDBRANCH  44  48
ENDBRANCH  27  41
BRANCH  28  52
ATOM     52  C   UNL A   1      41.037  27.351  27.977  1.00  0.00     0.023 A 
ATOM     53  C   UNL A   1      40.742  25.975  28.005  1.00  0.00     0.031 A 
ATOM     54  C   UNL A   1      41.524  27.907  26.784  1.00  0.00     0.131 A 
ATOM     55  C   UNL A   1      41.020  25.184  26.882  1.00  0.00     0.055 A 
ATOM     56  C   UNL A   1      41.733  27.128  25.647  1.00  0.00     0.041 A 
ATOM     57  F   UNL A   1      41.860  29.205  26.731  1.00  0.00    -0.206 F 
ATOM     58  C   UNL A   1      41.501  25.755  25.700  1.00  0.00     0.022 A 
BRANCH  55  59
ATOM     59  S   UNL A   1      40.946  23.373  26.977  1.00  0.00     0.124 S 
ATOM     60  O   UNL A   1      41.841  22.976  25.895  1.00  0.00    -0.237 OA
ATOM     61  O   UNL A   1      41.442  23.123  28.328  1.00  0.00    -0.237 OA
ATOM     62  O   UNL A   1      39.534  23.072  26.771  1.00  0.00    -0.744 OA
ENDBRANCH  55  59
ENDBRANCH  28  52
BRANCH  40  63
ATOM     63  C   UNL A   1      45.002  27.437  33.793  1.00  0.00     0.023 A 
ATOM     64  C   UNL A   1      44.823  26.287  34.585  1.00  0.00     0.031 A 
ATOM     65  C   UNL A   1      46.317  27.847  33.504  1.00  0.00     0.131 A 
ATOM     66  C   UNL A   1      45.941  25.599  35.073  1.00  0.00     0.055 A 
ATOM     67  C   UNL A   1      47.426  27.126  33.948  1.00  0.00     0.041 A 
ATOM     68  F   UNL A   1      46.542  28.943  32.761  1.00  0.00    -0.206 F 
ATOM     69  C   UNL A   1      47.240  26.002  34.746  1.00  0.00     0.022 A 
BRANCH  66  70
ATOM     70  S   UNL A   1      45.758  24.199  36.211  1.00  0.00     0.124 S 
ATOM     71  O   UNL A   1      47.059  23.545  36.096  1.00  0.00    -0.237 OA
ATOM     72  O   UNL A   1      45.510  24.869  37.486  1.00  0.00    -0.237 OA
ATOM     73  O   UNL A   1      44.632  23.447  35.669  1.00  0.00    -0.744 OA
ENDBRANCH  66  70
ENDBRANCH  40  63
ENDBRANCH  14  15
ENDBRANCH   7   9
ENDBRANCH   6   7
ENDBRANCH   5   6
ENDBRANCH   4   5
ENDBRANCH   3   4
ENDBRANCH   2   3
ENDBRANCH   1   2
BRANCH   1  74
ATOM     74  O   UNL A   1      32.312  29.028  25.186  1.00  0.00    -0.377 OA
BRANCH  74  75
ATOM     75  C   UNL A   1      33.185  29.193  24.076  1.00  0.00     0.188 C 
BRANCH  75  76
ATOM     76  C   UNL A   1      33.084  28.209  22.886  1.00  0.00     0.188 C 
BRANCH  76  77
ATOM     77  O   UNL A   1      32.748  26.854  23.128  1.00  0.00    -0.376 OA
BRANCH  77  78
ATOM     78  C   UNL A   1      31.432  26.365  22.945  1.00  0.00     0.202 C 
BRANCH  78  79
ATOM     79  C   UNL A   1      30.630  25.704  24.080  1.00  0.00     0.261 C 
BRANCH  79  80
ATOM     80  O   UNL A   1      31.145  25.926  25.399  1.00  0.00    -0.460 OA
BRANCH  80  81
ATOM     81  C   UNL A   1      31.214  24.841  26.224  1.00  0.00     0.342 C 
ATOM     82  O   UNL A   1      30.318  24.334  26.853  1.00  0.00    -0.246 OA
BRANCH  81  83
ATOM     83  C   UNL A   1      32.548  24.217  26.045  1.00  0.00     0.102 A 
ATOM     84  C   UNL A   1      32.635  22.812  25.968  1.00  0.00     0.028 A 
ATOM     85  C   UNL A   1      33.687  25.004  25.879  1.00  0.00     0.130 A 
ATOM     86  C   UNL A   1      33.856  22.208  25.642  1.00  0.00    -0.017 A 
ATOM     87  C   UNL A   1      34.916  24.402  25.623  1.00  0.00     0.048 A 
ATOM     88  C   UNL A   1      34.996  23.013  25.494  1.00  0.00     0.012 A 
BRANCH  85  89
ATOM     89  O   UNL A   1      33.604  26.363  25.973  1.00  0.00    -0.507 OA
ATOM     90  H   UNL A   1      33.895  26.797  26.751  1.00  0.00     0.293 HD
ENDBRANCH  85  89
BRANCH  86  91
ATOM     91  C   UNL A   1      34.001  20.756  25.415  1.00  0.00    -0.011 A 
ATOM     92  C   UNL A   1      35.250  20.153  24.998  1.00  0.00     0.027 A 
ATOM     93  C   UNL A   1      32.891  19.994  25.456  1.00  0.00     0.080 A 
ATOM     94  C   UNL A   1      35.283  18.888  24.560  1.00  0.00     0.095 A 
ATOM     95  C   UNL A   1      32.918  18.573  24.997  1.00  0.00     0.255 A 
ATOM     96  N   UNL A   1      34.139  18.112  24.531  1.00  0.00    -0.258 N 
ATOM     97  O   UNL A   1      31.872  17.933  25.009  1.00  0.00    -0.269 OA
BRANCH  96  98
ATOM     98  C   UNL A   1      34.167  16.791  23.956  1.00  0.00     0.451 C 
ATOM     99  F   UNL A   1      34.425  16.824  22.627  1.00  0.00    -0.185 F 
ATOM    100  F   UNL A   1      35.121  16.030  24.550  1.00  0.00    -0.185 F 
ENDBRANCH  96  98
ENDBRANCH  86  91
ENDBRANCH  81  83
ENDBRANCH  80  81
ENDBRANCH  79  80
ENDBRANCH  78  79
ENDBRANCH  77  78
ENDBRANCH  76  77
ENDBRANCH  75  76
ENDBRANCH  74  75
ENDBRANCH   1  74
TORSDOF 26
ENDMDL
MODEL 2
REMARK VINA RESULT:      -9.8      2.941      8.393
REMARK SMILES O=C(OCCOCCOCCOCCOC(=O)c1cc(-c2ccn(C(F)F)c(=O)c2)ccc1O)c1ccc(-c2c3nc(c(-c4cc(S(=O)(=O)[O-])ccc4F)c4ccc([nH]4)c(-c4cc(S(=O)(=O)[O-])ccc4F)c4nc(c(-c5cc(S(=O)(=O)[O-])ccc5F)c5ccc2[nH]5)C=C4)C=C3)cc1
REMARK SMILES IDX 8 1 7 2 6 3 5 4 4 5 3 6 2 7 1 8 35 9 36 10 97 11 37 12 96 13
REMARK SMILES IDX 38 14 39 15 40 16 90 17 41 18 95 19 89 20 91 21 42 22 94 23
REMARK SMILES IDX 88 24 87 25 43 27 75 28 55 29 74 30 56 31 59 32 73 33 92 34
REMARK SMILES IDX 57 35 58 36 72 38 93 39 60 40 44 41 45 42 53 43 46 44 52 45
REMARK SMILES IDX 54 46 51 47 47 48 48 49 49 50 50 51 76 52 77 53 85 54 78 55
REMARK SMILES IDX 84 56 86 57 83 58 79 59 80 60 81 61 82 62 61 63 62 64 70 65
REMARK SMILES IDX 63 66 69 67 71 68 68 69 64 70 65 71 66 72 67 73 9 74 10 75
REMARK SMILES IDX 11 76 12 77 13 78 14 79 15 80 16 81 17 82 18 83 19 84 33 85
REMARK SMILES IDX 20 86 32 87 31 88 34 89 21 91 22 92 30 93 23 94 28 95 24 96
REMARK SMILES IDX 29 97 25 98 26 99 27 100
REMARK H PARENT 91 26 59 37 34 90
REMARK Flexibility Score: inf
ROOT
ATOM      1  C   UNL A   1      31.788  28.427  25.995  1.00  0.00     0.188 C 
ENDROOT
BRANCH   1   2
ATOM      2  C   UNL A   1      32.516  29.762  26.039  1.00  0.00     0.188 C 
BRANCH   2   3
ATOM      3  O   UNL A   1      32.173  30.705  27.042  1.00  0.00    -0.376 OA
BRANCH   3   4
ATOM      4  C   UNL A   1      33.121  31.620  27.571  1.00  0.00     0.202 C 
BRANCH   4   5
ATOM      5  C   UNL A   1      33.041  33.116  27.240  1.00  0.00     0.261 C 
BRANCH   5   6
ATOM      6  O   UNL A   1      32.641  34.009  28.289  1.00  0.00    -0.460 OA
BRANCH   6   7
ATOM      7  C   UNL A   1      33.538  34.800  28.940  1.00  0.00     0.338 C 
ATOM      8  O   UNL A   1      33.570  36.012  28.775  1.00  0.00    -0.246 OA
BRANCH   7   9
ATOM      9  C   UNL A   1      34.703  34.075  29.498  1.00  0.00     0.060 A 
ATOM     10  C   UNL A   1      34.487  33.269  30.627  1.00  0.00     0.016 A 
ATOM     11  C   UNL A   1      35.994  34.263  29.006  1.00  0.00     0.016 A 
ATOM     12  C   UNL A   1      35.572  32.715  31.309  1.00  0.00     0.010 A 
ATOM     13  C   UNL A   1      37.080  33.785  29.732  1.00  0.00     0.010 A 
ATOM     14  C   UNL A   1      36.876  32.979  30.867  1.00  0.00    -0.014 A 
BRANCH  14  15
ATOM     15  C   UNL A   1      37.998  32.119  31.299  1.00  0.00     0.031 A 
ATOM     16  C   UNL A   1      38.543  30.981  30.501  1.00  0.00     0.074 A 
ATOM     17  C   UNL A   1      38.449  32.381  32.541  1.00  0.00     0.049 A 
ATOM     18  N   UNL A   1      39.571  30.222  30.780  1.00  0.00    -0.248 NA
ATOM     19  C   UNL A   1      37.866  30.642  29.242  1.00  0.00     0.031 C 
ATOM     20  C   UNL A   1      37.922  33.447  33.402  1.00  0.00     0.029 A 
ATOM     21  N   UNL A   1      39.383  31.757  33.317  1.00  0.00    -0.354 N 
ATOM     22  C   UNL A   1      39.706  29.343  29.714  1.00  0.00     0.074 A 
ATOM     23  C   UNL A   1      38.608  29.625  28.807  1.00  0.00     0.031 C 
ATOM     24  C   UNL A   1      38.476  33.347  34.612  1.00  0.00     0.029 A 
ATOM     25  C   UNL A   1      39.430  32.248  34.597  1.00  0.00     0.049 A 
ATOM     26  H   UNL A   1      39.962  31.030  32.991  1.00  0.00     0.167 HD
ATOM     27  C   UNL A   1      40.678  28.415  29.519  1.00  0.00     0.034 A 
ATOM     28  C   UNL A   1      40.176  31.876  35.652  1.00  0.00     0.034 A 
ATOM     29  C   UNL A   1      41.714  28.136  30.496  1.00  0.00     0.049 A 
ATOM     30  C   UNL A   1      41.249  30.862  35.414  1.00  0.00     0.074 A 
ATOM     31  C   UNL A   1      42.795  27.279  30.383  1.00  0.00     0.029 A 
ATOM     32  N   UNL A   1      41.785  28.686  31.772  1.00  0.00    -0.354 N 
ATOM     33  N   UNL A   1      41.485  30.158  34.332  1.00  0.00    -0.248 NA
ATOM     34  C   UNL A   1      42.201  30.640  36.503  1.00  0.00     0.031 C 
ATOM     35  C   UNL A   1      43.469  27.251  31.608  1.00  0.00     0.029 A 
ATOM     36  C   UNL A   1      42.864  28.155  32.467  1.00  0.00     0.049 A 
ATOM     37  H   UNL A   1      41.160  29.357  32.131  1.00  0.00     0.167 HD
ATOM     38  C   UNL A   1      42.622  29.413  34.602  1.00  0.00     0.074 A 
ATOM     39  C   UNL A   1      43.049  29.791  35.937  1.00  0.00     0.031 C 
ATOM     40  C   UNL A   1      43.251  28.498  33.819  1.00  0.00     0.034 A 
BRANCH  27  41
ATOM     41  C   UNL A   1      40.729  27.660  28.206  1.00  0.00     0.023 A 
ATOM     42  C   UNL A   1      40.348  26.304  28.133  1.00  0.00     0.031 A 
ATOM     43  C   UNL A   1      41.326  28.234  27.067  1.00  0.00     0.131 A 
ATOM     44  C   UNL A   1      40.604  25.563  26.969  1.00  0.00     0.055 A 
ATOM     45  C   UNL A   1      41.541  27.503  25.895  1.00  0.00     0.041 A 
ATOM     46  F   UNL A   1      41.730  29.514  27.078  1.00  0.00    -0.206 F 
ATOM     47  C   UNL A   1      41.192  26.157  25.847  1.00  0.00     0.022 A 
BRANCH  44  48
ATOM     48  S   UNL A   1      40.268  23.780  26.883  1.00  0.00     0.124 S 
ATOM     49  O   UNL A   1      41.329  23.317  25.990  1.00  0.00    -0.237 OA
ATOM     50  O   UNL A   1      40.410  23.375  28.278  1.00  0.00    -0.237 OA
ATOM     51  O   UNL A   1      38.918  23.703  26.337  1.00  0.00    -0.744 OA
ENDBRANCH  44  48
ENDBRANCH  27  41
BRANCH  28  52
ATOM     52  C   UNL A   1      39.985  32.620  36.924  1.00  0.00     0.023 A 
ATOM     53  C   UNL A   1      39.043  32.174  37.872  1.00  0.00     0.031 A 
ATOM     54  C   UNL A   1      40.540  33.899  37.084  1.00  0.00     0.131 A 
ATOM     55  C   UNL A   1      38.624  33.040  38.891  1.00  0.00     0.055 A 
ATOM     56  C   UNL A   1      40.170  34.730  38.140  1.00  0.00     0.041 A 
ATOM     57  F   UNL A   1      41.405  34.377  36.177  1.00  0.00    -0.206 F 
ATOM     58  C   UNL A   1      39.191  34.309  39.037  1.00  0.00     0.022 A 
BRANCH  55  59
ATOM     59  S   UNL A   1      37.201  32.623  39.940  1.00  0.00     0.124 S 
ATOM     60  O   UNL A   1      36.120  32.534  38.963  1.00  0.00    -0.237 OA
ATOM     61  O   UNL A   1      37.625  31.355  40.529  1.00  0.00    -0.237 OA
ATOM     62  O   UNL A   1      37.118  33.742  40.873  1.00  0.00    -0.744 OA
ENDBRANCH  55  59
ENDBRANCH  28  52
BRANCH  40  63
ATOM     63  C   UNL A   1      44.441  27.783  34.416  1.00  0.00     0.023 A 
ATOM     64  C   UNL A   1      44.279  26.559  35.093  1.00  0.00     0.031 A 
ATOM     65  C   UNL A   1      45.724  28.359  34.382  1.00  0.00     0.131 A 
ATOM     66  C   UNL A   1      45.379  25.962  35.722  1.00  0.00     0.055 A 
ATOM     67  C   UNL A   1      46.827  27.733  34.964  1.00  0.00     0.041 A 
ATOM     68  F   UNL A   1      45.931  29.530  33.758  1.00  0.00    -0.206 F 
ATOM     69  C   UNL A   1      46.654  26.533  35.648  1.00  0.00     0.022 A 
BRANCH  66  70
ATOM     70  S   UNL A   1      45.187  24.462  36.723  1.00  0.00     0.124 S 
ATOM     71  O   UNL A   1      46.569  24.009  36.854  1.00  0.00    -0.237 OA
ATOM     72  O   UNL A   1      44.586  24.985  37.948  1.00  0.00    -0.237 OA
ATOM     73  O   UNL A   1      44.323  23.607  35.917  1.00  0.00    -0.744 OA
ENDBRANCH  66  70
ENDBRANCH  40  63
ENDBRANCH  14  15
ENDBRANCH   7   9
ENDBRANCH   6   7
ENDBRANCH   5   6
ENDBRANCH   4   5
ENDBRANCH   3   4
ENDBRANCH   2   3
ENDBRANCH   1   2
BRANCH   1  74
ATOM     74  O   UNL A   1      32.284  27.484  26.918  1.00  0.00    -0.377 OA
BRANCH  74  75
ATOM     75  C   UNL A   1      32.855  26.332  26.311  1.00  0.00     0.188 C 
BRANCH  75  76
ATOM     76  C   UNL A   1      32.192  24.954  26.541  1.00  0.00     0.188 C 
BRANCH  76  77
ATOM     77  O   UNL A   1      32.995  23.787  26.560  1.00  0.00    -0.376 OA
BRANCH  77  78
ATOM     78  C   UNL A   1      32.430  22.489  26.590  1.00  0.00     0.202 C 
BRANCH  78  79
ATOM     79  C   UNL A   1      31.800  21.830  25.351  1.00  0.00     0.261 C 
BRANCH  79  80
ATOM     80  O   UNL A   1      32.710  21.558  24.277  1.00  0.00    -0.460 OA
BRANCH  80  81
ATOM     81  C   UNL A   1      32.328  21.956  23.029  1.00  0.00     0.342 C 
ATOM     82  O   UNL A   1      31.692  21.328  22.217  1.00  0.00    -0.246 OA
BRANCH  81  83
ATOM     83  C   UNL A   1      32.619  23.405  22.904  1.00  0.00     0.102 A 
ATOM     84  C   UNL A   1      31.544  24.317  22.927  1.00  0.00     0.028 A 
ATOM     85  C   UNL A   1      33.933  23.866  22.842  1.00  0.00     0.130 A 
ATOM     86  C   UNL A   1      31.801  25.693  22.970  1.00  0.00    -0.017 A 
ATOM     87  C   UNL A   1      34.189  25.234  22.815  1.00  0.00     0.048 A 
ATOM     88  C   UNL A   1      33.129  26.141  22.890  1.00  0.00     0.012 A 
BRANCH  85  89
ATOM     89  O   UNL A   1      34.971  22.981  22.801  1.00  0.00    -0.507 OA
ATOM     90  H   UNL A   1      35.475  22.814  23.573  1.00  0.00     0.293 HD
ENDBRANCH  85  89
BRANCH  86  91
ATOM     91  C   UNL A   1      30.738  26.707  23.126  1.00  0.00    -0.011 A 
ATOM     92  C   UNL A   1      29.455  26.404  23.727  1.00  0.00     0.027 A 
ATOM     93  C   UNL A   1      30.921  27.911  22.552  1.00  0.00     0.080 A 
ATOM     94  C   UNL A   1      28.435  27.264  23.624  1.00  0.00     0.095 A 
ATOM     95  C   UNL A   1      29.800  28.893  22.454  1.00  0.00     0.255 A 
ATOM     96  N   UNL A   1      28.586  28.479  22.978  1.00  0.00    -0.258 N 
ATOM     97  O   UNL A   1      30.002  29.959  21.882  1.00  0.00    -0.269 OA
BRANCH  96  98
ATOM     98  C   UNL A   1      27.453  29.346  22.779  1.00  0.00     0.451 C 
ATOM     99  F   UNL A   1      27.456  30.387  23.645  1.00  0.00    -0.185 F 
ATOM    100  F   UNL A   1      27.450  29.849  21.518  1.00  0.00    -0.185 F 
ENDBRANCH  96  98
ENDBRANCH  86  91
ENDBRANCH  81  83
ENDBRANCH  80  81
ENDBRANCH  79  80
ENDBRANCH  78  79
ENDBRANCH  77  78
ENDBRANCH  76  77
ENDBRANCH  75  76
ENDBRANCH  74  75
ENDBRANCH   1  74
TORSDOF 26
ENDMDL
MODEL 3
REMARK VINA RESULT:      -9.7      2.003      2.401
REMARK SMILES O=C(OCCOCCOCCOCCOC(=O)c1cc(-c2ccn(C(F)F)c(=O)c2)ccc1O)c1ccc(-c2c3nc(c(-c4cc(S(=O)(=O)[O-])ccc4F)c4ccc([nH]4)c(-c4cc(S(=O)(=O)[O-])ccc4F)c4nc(c(-c5cc(S(=O)(=O)[O-])ccc5F)c5ccc2[nH]5)C=C4)C=C3)cc1
REMARK SMILES IDX 8 1 7 2 6 3 5 4 4 5 3 6 2 7 1 8 35 9 36 10 97 11 37 12 96 13
REMARK SMILES IDX 38 14 39 15 40 16 90 17 41 18 95 19 89 20 91 21 42 22 94 23
REMARK SMILES IDX 88 24 87 25 43 27 75 28 55 29 74 30 56 31 59 32 73 33 92 34
REMARK SMILES IDX 57 35 58 36 72 38 93 39 60 40 44 41 45 42 53 43 46 44 52 45
REMARK SMILES IDX 54 46 51 47 47 48 48 49 49 50 50 51 76 52 77 53 85 54 78 55
REMARK SMILES IDX 84 56 86 57 83 58 79 59 80 60 81 61 82 62 61 63 62 64 70 65
REMARK SMILES IDX 63 66 69 67 71 68 68 69 64 70 65 71 66 72 67 73 9 74 10 75
REMARK SMILES IDX 11 76 12 77 13 78 14 79 15 80 16 81 17 82 18 83 19 84 33 85
REMARK SMILES IDX 20 86 32 87 31 88 34 89 21 91 22 92 30 93 23 94 28 95 24 96
REMARK SMILES IDX 29 97 25 98 26 99 27 100
REMARK H PARENT 91 26 59 37 34 90
REMARK Flexibility Score: inf
ROOT
ATOM      1  C   UNL A   1      31.279  29.624  24.956  1.00  0.00     0.188 C 
ENDROOT
BRANCH   1   2
ATOM      2  C   UNL A   1      31.741  30.553  26.068  1.00  0.00     0.188 C 
BRANCH   2   3
ATOM      3  O   UNL A   1      32.534  30.031  27.123  1.00  0.00    -0.376 OA
BRANCH   3   4
ATOM      4  C   UNL A   1      33.653  30.733  27.642  1.00  0.00     0.202 C 
BRANCH   4   5
ATOM      5  C   UNL A   1      33.889  32.207  27.290  1.00  0.00     0.261 C 
BRANCH   5   6
ATOM      6  O   UNL A   1      33.129  33.193  28.003  1.00  0.00    -0.460 OA
BRANCH   6   7
ATOM      7  C   UNL A   1      33.729  34.172  28.736  1.00  0.00     0.338 C 
ATOM      8  O   UNL A   1      33.595  35.357  28.464  1.00  0.00    -0.246 OA
BRANCH   7   9
ATOM      9  C   UNL A   1      34.857  33.705  29.576  1.00  0.00     0.060 A 
ATOM     10  C   UNL A   1      34.544  32.991  30.744  1.00  0.00     0.016 A 
ATOM     11  C   UNL A   1      36.177  34.050  29.296  1.00  0.00     0.016 A 
ATOM     12  C   UNL A   1      35.546  32.691  31.669  1.00  0.00     0.010 A 
ATOM     13  C   UNL A   1      37.161  33.830  30.256  1.00  0.00     0.010 A 
ATOM     14  C   UNL A   1      36.860  33.119  31.432  1.00  0.00    -0.014 A 
BRANCH  14  15
ATOM     15  C   UNL A   1      37.988  32.500  32.158  1.00  0.00     0.031 A 
ATOM     16  C   UNL A   1      38.600  33.063  33.399  1.00  0.00     0.074 A 
ATOM     17  C   UNL A   1      38.505  31.412  31.556  1.00  0.00     0.049 A 
ATOM     18  N   UNL A   1      39.549  32.543  34.135  1.00  0.00    -0.248 NA
ATOM     19  C   UNL A   1      38.102  34.358  33.882  1.00  0.00     0.031 C 
ATOM     20  C   UNL A   1      37.989  30.839  30.307  1.00  0.00     0.029 A 
ATOM     21  N   UNL A   1      39.589  30.639  31.855  1.00  0.00    -0.354 N 
ATOM     22  C   UNL A   1      39.735  33.414  35.201  1.00  0.00     0.074 A 
ATOM     23  C   UNL A   1      38.838  34.533  34.978  1.00  0.00     0.031 C 
ATOM     24  C   UNL A   1      38.806  29.865  29.902  1.00  0.00     0.029 A 
ATOM     25  C   UNL A   1      39.868  29.710  30.884  1.00  0.00     0.049 A 
ATOM     26  H   UNL A   1      40.115  30.738  32.681  1.00  0.00     0.167 HD
ATOM     27  C   UNL A   1      40.563  33.260  36.266  1.00  0.00     0.034 A 
ATOM     28  C   UNL A   1      40.861  28.808  30.794  1.00  0.00     0.034 A 
ATOM     29  C   UNL A   1      41.484  32.147  36.398  1.00  0.00     0.049 A 
ATOM     30  C   UNL A   1      41.754  28.645  31.983  1.00  0.00     0.074 A 
ATOM     31  C   UNL A   1      42.314  31.839  37.462  1.00  0.00     0.029 A 
ATOM     32  N   UNL A   1      41.717  31.176  35.429  1.00  0.00    -0.354 N 
ATOM     33  N   UNL A   1      41.803  29.369  33.075  1.00  0.00    -0.248 NA
ATOM     34  C   UNL A   1      42.674  27.506  31.966  1.00  0.00     0.031 C 
ATOM     35  C   UNL A   1      43.099  30.737  37.107  1.00  0.00     0.029 A 
ATOM     36  C   UNL A   1      42.704  30.297  35.854  1.00  0.00     0.049 A 
ATOM     37  H   UNL A   1      41.247  31.119  34.565  1.00  0.00     0.167 HD
ATOM     38  C   UNL A   1      42.753  28.770  33.888  1.00  0.00     0.074 A 
ATOM     39  C   UNL A   1      43.219  27.595  33.172  1.00  0.00     0.031 C 
ATOM     40  C   UNL A   1      43.202  29.159  35.110  1.00  0.00     0.034 A 
BRANCH  27  41
ATOM     41  C   UNL A   1      40.501  34.259  37.403  1.00  0.00     0.023 A 
ATOM     42  C   UNL A   1      39.809  33.960  38.595  1.00  0.00     0.031 A 
ATOM     43  C   UNL A   1      40.973  35.575  37.234  1.00  0.00     0.131 A 
ATOM     44  C   UNL A   1      39.576  34.967  39.545  1.00  0.00     0.055 A 
ATOM     45  C   UNL A   1      40.774  36.564  38.201  1.00  0.00     0.041 A 
ATOM     46  F   UNL A   1      41.621  35.930  36.112  1.00  0.00    -0.206 F 
ATOM     47  C   UNL A   1      40.061  36.266  39.357  1.00  0.00     0.022 A 
BRANCH  44  48
ATOM     48  S   UNL A   1      38.563  34.665  41.022  1.00  0.00     0.124 S 
ATOM     49  O   UNL A   1      38.105  36.014  41.353  1.00  0.00    -0.237 OA
ATOM     50  O   UNL A   1      37.532  33.768  40.508  1.00  0.00    -0.237 OA
ATOM     51  O   UNL A   1      39.496  34.075  41.974  1.00  0.00    -0.744 OA
ENDBRANCH  44  48
ENDBRANCH  27  41
BRANCH  28  52
ATOM     52  C   UNL A   1      40.887  27.934  29.592  1.00  0.00     0.023 A 
ATOM     53  C   UNL A   1      41.790  28.197  28.543  1.00  0.00     0.031 A 
ATOM     54  C   UNL A   1      39.856  27.008  29.370  1.00  0.00     0.131 A 
ATOM     55  C   UNL A   1      41.588  27.601  27.291  1.00  0.00     0.055 A 
ATOM     56  C   UNL A   1      39.702  26.366  28.143  1.00  0.00     0.041 A 
ATOM     57  F   UNL A   1      38.949  26.765  30.329  1.00  0.00    -0.206 F 
ATOM     58  C   UNL A   1      40.558  26.678  27.090  1.00  0.00     0.022 A 
BRANCH  55  59
ATOM     59  S   UNL A   1      42.534  28.143  25.839  1.00  0.00     0.124 S 
ATOM     60  O   UNL A   1      41.914  29.429  25.537  1.00  0.00    -0.237 OA
ATOM     61  O   UNL A   1      43.892  28.209  26.374  1.00  0.00    -0.237 OA
ATOM     62  O   UNL A   1      42.304  27.086  24.861  1.00  0.00    -0.744 OA
ENDBRANCH  55  59
ENDBRANCH  28  52
BRANCH  40  63
ATOM     63  C   UNL A   1      44.309  28.338  35.730  1.00  0.00     0.023 A 
ATOM     64  C   UNL A   1      45.656  28.597  35.417  1.00  0.00     0.031 A 
ATOM     65  C   UNL A   1      44.019  27.247  36.569  1.00  0.00     0.131 A 
ATOM     66  C   UNL A   1      46.661  27.764  35.926  1.00  0.00     0.055 A 
ATOM     67  C   UNL A   1      45.027  26.453  37.118  1.00  0.00     0.041 A 
ATOM     68  F   UNL A   1      42.749  26.951  36.891  1.00  0.00    -0.206 F 
ATOM     69  C   UNL A   1      46.355  26.704  36.787  1.00  0.00     0.022 A 
BRANCH  66  70
ATOM     70  S   UNL A   1      48.394  27.974  35.436  1.00  0.00     0.124 S 
ATOM     71  O   UNL A   1      49.085  27.864  36.717  1.00  0.00    -0.237 OA
ATOM     72  O   UNL A   1      48.593  26.850  34.523  1.00  0.00    -0.237 OA
ATOM     73  O   UNL A   1      48.429  29.296  34.819  1.00  0.00    -0.744 OA
ENDBRANCH  66  70
ENDBRANCH  40  63
ENDBRANCH  14  15
ENDBRANCH   7   9
ENDBRANCH   6   7
ENDBRANCH   5   6
ENDBRANCH   4   5
ENDBRANCH   3   4
ENDBRANCH   2   3
ENDBRANCH   1   2
BRANCH   1  74
ATOM     74  O   UNL A   1      32.181  28.573  24.690  1.00  0.00    -0.377 OA
BRANCH  74  75
ATOM     75  C   UNL A   1      33.163  28.893  23.712  1.00  0.00     0.188 C 
BRANCH  75  76
ATOM     76  C   UNL A   1      33.440  27.891  22.567  1.00  0.00     0.188 C 
BRANCH  76  77
ATOM     77  O   UNL A   1      33.343  26.500  22.818  1.00  0.00    -0.376 OA
BRANCH  77  78
ATOM     78  C   UNL A   1      32.197  25.752  22.454  1.00  0.00     0.202 C 
BRANCH  78  79
ATOM     79  C   UNL A   1      31.357  24.973  23.481  1.00  0.00     0.261 C 
BRANCH  79  80
ATOM     80  O   UNL A   1      31.223  25.601  24.762  1.00  0.00    -0.460 OA
BRANCH  80  81
ATOM     81  C   UNL A   1      31.319  24.794  25.858  1.00  0.00     0.342 C 
ATOM     82  O   UNL A   1      30.445  24.497  26.635  1.00  0.00    -0.246 OA
BRANCH  81  83
ATOM     83  C   UNL A   1      32.645  24.130  25.818  1.00  0.00     0.102 A 
ATOM     84  C   UNL A   1      32.698  22.722  25.769  1.00  0.00     0.028 A 
ATOM     85  C   UNL A   1      33.818  24.881  25.754  1.00  0.00     0.130 A 
ATOM     86  C   UNL A   1      33.926  22.078  25.572  1.00  0.00    -0.017 A 
ATOM     87  C   UNL A   1      35.048  24.240  25.628  1.00  0.00     0.048 A 
ATOM     88  C   UNL A   1      35.098  22.848  25.526  1.00  0.00     0.012 A 
BRANCH  85  89
ATOM     89  O   UNL A   1      33.767  26.243  25.821  1.00  0.00    -0.507 OA
ATOM     90  H   UNL A   1      34.553  26.735  25.960  1.00  0.00     0.293 HD
ENDBRANCH  85  89
BRANCH  86  91
ATOM     91  C   UNL A   1      34.049  20.619  25.380  1.00  0.00    -0.011 A 
ATOM     92  C   UNL A   1      35.289  19.988  24.976  1.00  0.00     0.027 A 
ATOM     93  C   UNL A   1      32.928  19.875  25.441  1.00  0.00     0.080 A 
ATOM     94  C   UNL A   1      35.302  18.713  24.569  1.00  0.00     0.095 A 
ATOM     95  C   UNL A   1      32.933  18.443  25.016  1.00  0.00     0.255 A 
ATOM     96  N   UNL A   1      34.146  17.953  24.560  1.00  0.00    -0.258 N 
ATOM     97  O   UNL A   1      31.878  17.819  25.045  1.00  0.00    -0.269 OA
BRANCH  96  98
ATOM     98  C   UNL A   1      34.154  16.618  24.017  1.00  0.00     0.451 C 
ATOM     99  F   UNL A   1      34.413  16.615  22.688  1.00  0.00    -0.185 F 
ATOM    100  F   UNL A   1      35.096  15.857  24.630  1.00  0.00    -0.185 F 
ENDBRANCH  96  98
ENDBRANCH  86  91
ENDBRANCH  81  83
ENDBRANCH  80  81
ENDBRANCH  79  80
ENDBRANCH  78  79
ENDBRANCH  77  78
ENDBRANCH  76  77
ENDBRANCH  75  76
ENDBRANCH  74  75
ENDBRANCH   1  74
TORSDOF 26
ENDMDL
