MODEL 1
REMARK VINA RESULT:      -7.5      0.000      0.000
REMARK SMILES CC(C)CCc1cc2c(cc1Cl)C=C(C(=O)OCCOCCOCCOCCOC(=O)c1ccc(-c3c4nc(c(-c5cc(S(=O)(=O)[O-])ccc5F)c5ccc([nH]5)c(-c5cc(S(=O)(=O)[O-])ccc5F)c5nc(c(-c6cc(S(=O)(=O)[O-])ccc6F)c6ccc3[nH]6)C=C5)C=C4)cc1)[C@@H](C(F)(F)F)O2
REMARK SMILES IDX 23 1 22 2 21 3 20 4 19 5 18 6 17 7 15 8 16 9 14 10 6 11 7 12
REMARK SMILES IDX 11 13 8 14 10 15 12 16 9 17 100 18 13 19 95 20 5 21 4 22
REMARK SMILES IDX 2 23 1 24 3 25 96 26 97 27 98 28 99 29 24 30 25 31 26 32
REMARK SMILES IDX 27 33 28 34 29 35 30 36 31 37 32 38 33 39 94 40 34 41 93 42
REMARK SMILES IDX 35 43 36 44 37 45 87 46 38 47 92 48 86 49 88 50 39 51 91 52
REMARK SMILES IDX 85 53 84 54 40 56 72 57 52 58 71 59 53 60 56 61 70 62 89 63
REMARK SMILES IDX 54 64 55 65 69 67 90 68 57 69 41 70 42 71 50 72 43 73 49 74
REMARK SMILES IDX 51 75 48 76 44 77 45 78 46 79 47 80 73 81 74 82 82 83 75 84
REMARK SMILES IDX 81 85 83 86 80 87 76 88 77 89 78 90 79 91 58 92 59 93 67 94
REMARK SMILES IDX 60 95 66 96 68 97 65 98 61 99 62 100 63 101 64 102
REMARK H PARENT 88 55 56 66
REMARK Flexibility Score: inf
ROOT
ATOM      1  O   UNL A   1      42.750  18.439  25.480  1.00  0.00    -0.377 OA
ENDROOT
BRANCH   1   2
ATOM      2  C   UNL A   1      44.163  18.437  25.375  1.00  0.00     0.188 C 
BRANCH   2   3
ATOM      3  C   UNL A   1      44.709  19.658  24.617  1.00  0.00     0.188 C 
BRANCH   3   4
ATOM      4  O   UNL A   1      45.306  20.723  25.332  1.00  0.00    -0.376 OA
BRANCH   4   5
ATOM      5  C   UNL A   1      45.917  21.844  24.712  1.00  0.00     0.202 C 
BRANCH   5   6
ATOM      6  C   UNL A   1      45.201  22.996  23.976  1.00  0.00     0.261 C 
BRANCH   6   7
ATOM      7  O   UNL A   1      45.307  24.302  24.529  1.00  0.00    -0.460 OA
BRANCH   7   8
ATOM      8  C   UNL A   1      46.541  24.831  24.596  1.00  0.00     0.338 C 
ATOM      9  O   UNL A   1      47.402  24.819  23.733  1.00  0.00    -0.246 OA
BRANCH   8  10
ATOM     10  C   UNL A   1      46.617  25.606  25.852  1.00  0.00     0.087 C 
ATOM     11  C   UNL A   1      46.176  27.227  30.574  1.00  0.00    -0.026 A 
ATOM     12  C   UNL A   1      46.749  27.750  29.402  1.00  0.00     0.052 A 
ATOM     13  C   UNL A   1      45.826  25.865  30.577  1.00  0.00     0.045 A 
ATOM     14  C   UNL A   1      46.797  27.001  28.226  1.00  0.00     0.128 A 
ATOM     15  C   UNL A   1      45.907  25.102  29.408  1.00  0.00     0.032 A 
ATOM     16  Cl  UNL A   1      45.257  25.066  32.002  1.00  0.00    -0.084 Cl
ATOM     17  C   UNL A   1      46.335  25.689  28.217  1.00  0.00     0.019 A 
ATOM     18  O   UNL A   1      47.284  27.647  27.128  1.00  0.00    -0.475 OA
ATOM     19  C   UNL A   1      46.255  24.962  26.967  1.00  0.00     0.027 C 
ATOM     20  C   UNL A   1      47.172  27.009  25.826  1.00  0.00     0.316 C 
BRANCH  11  21
ATOM     21  C   UNL A   1      45.929  28.099  31.789  1.00  0.00     0.037 C 
BRANCH  21  22
ATOM     22  C   UNL A   1      45.657  29.596  31.550  1.00  0.00     0.008 C 
BRANCH  22  23
ATOM     23  C   UNL A   1      45.708  30.501  32.803  1.00  0.00    -0.017 C 
ATOM     24  C   UNL A   1      44.633  31.586  32.794  1.00  0.00     0.007 C 
ATOM     25  C   UNL A   1      45.576  29.640  34.062  1.00  0.00     0.007 C 
ENDBRANCH  22  23
ENDBRANCH  21  22
ENDBRANCH  11  21
BRANCH  20  26
ATOM     26  C   UNL A   1      46.369  27.927  24.893  1.00  0.00     0.430 C 
ATOM     27  F   UNL A   1      46.844  27.880  23.626  1.00  0.00    -0.167 F 
ATOM     28  F   UNL A   1      45.065  27.573  24.840  1.00  0.00    -0.167 F 
ATOM     29  F   UNL A   1      46.421  29.218  25.298  1.00  0.00    -0.167 F 
ENDBRANCH  20  26
ENDBRANCH   8  10
ENDBRANCH   7   8
ENDBRANCH   6   7
ENDBRANCH   5   6
ENDBRANCH   4   5
ENDBRANCH   3   4
ENDBRANCH   2   3
ENDBRANCH   1   2
BRANCH   1  30
ATOM     30  C   UNL A   1      42.230  19.003  26.681  1.00  0.00     0.188 C 
BRANCH  30  31
ATOM     31  C   UNL A   1      41.133  20.077  26.539  1.00  0.00     0.188 C 
BRANCH  31  32
ATOM     32  O   UNL A   1      41.567  21.230  25.815  1.00  0.00    -0.376 OA
BRANCH  32  33
ATOM     33  C   UNL A   1      41.200  22.500  26.338  1.00  0.00     0.202 C 
BRANCH  33  34
ATOM     34  C   UNL A   1      42.382  23.419  26.676  1.00  0.00     0.261 C 
BRANCH  34  35
ATOM     35  O   UNL A   1      42.032  24.760  27.047  1.00  0.00    -0.460 OA
BRANCH  35  36
ATOM     36  C   UNL A   1      42.143  25.724  26.105  1.00  0.00     0.338 C 
ATOM     37  O   UNL A   1      41.875  25.624  24.921  1.00  0.00    -0.246 OA
BRANCH  36  38
ATOM     38  C   UNL A   1      42.455  26.989  26.804  1.00  0.00     0.060 A 
ATOM     39  C   UNL A   1      42.406  28.205  26.117  1.00  0.00     0.016 A 
ATOM     40  C   UNL A   1      42.829  26.952  28.153  1.00  0.00     0.016 A 
ATOM     41  C   UNL A   1      42.705  29.389  26.791  1.00  0.00     0.010 A 
ATOM     42  C   UNL A   1      43.124  28.140  28.827  1.00  0.00     0.010 A 
ATOM     43  C   UNL A   1      43.042  29.369  28.157  1.00  0.00    -0.014 A 
BRANCH  43  44
ATOM     44  C   UNL A   1      43.106  30.652  28.901  1.00  0.00     0.031 A 
ATOM     45  C   UNL A   1      41.992  31.126  29.781  1.00  0.00     0.074 A 
ATOM     46  C   UNL A   1      44.229  31.386  28.775  1.00  0.00     0.049 A 
ATOM     47  N   UNL A   1      41.983  32.137  30.610  1.00  0.00    -0.248 NA
ATOM     48  C   UNL A   1      40.725  30.383  29.721  1.00  0.00     0.031 C 
ATOM     49  C   UNL A   1      45.350  31.040  27.900  1.00  0.00     0.029 A 
ATOM     50  N   UNL A   1      44.625  32.551  29.382  1.00  0.00    -0.354 N 
ATOM     51  C   UNL A   1      40.723  32.143  31.194  1.00  0.00     0.074 A 
ATOM     52  C   UNL A   1      39.975  31.065  30.580  1.00  0.00     0.031 C 
ATOM     53  C   UNL A   1      46.323  31.947  28.056  1.00  0.00     0.029 A 
ATOM     54  C   UNL A   1      45.889  32.955  29.021  1.00  0.00     0.049 A 
ATOM     55  H   UNL A   1      44.059  33.049  30.015  1.00  0.00     0.167 HD
ATOM     56  C   UNL A   1      40.252  32.962  32.166  1.00  0.00     0.034 A 
ATOM     57  C   UNL A   1      46.631  34.004  29.433  1.00  0.00     0.034 A 
ATOM     58  C   UNL A   1      41.014  34.045  32.746  1.00  0.00     0.049 A 
ATOM     59  C   UNL A   1      46.085  34.895  30.518  1.00  0.00     0.074 A 
ATOM     60  C   UNL A   1      40.638  34.903  33.765  1.00  0.00     0.029 A 
ATOM     61  N   UNL A   1      42.292  34.425  32.361  1.00  0.00    -0.354 N 
ATOM     62  N   UNL A   1      44.939  34.814  31.151  1.00  0.00    -0.248 NA
ATOM     63  C   UNL A   1      46.940  36.002  30.968  1.00  0.00     0.031 C 
ATOM     64  C   UNL A   1      41.653  35.844  33.943  1.00  0.00     0.029 A 
ATOM     65  C   UNL A   1      42.706  35.520  33.104  1.00  0.00     0.049 A 
ATOM     66  H   UNL A   1      42.827  33.982  31.663  1.00  0.00     0.167 HD
ATOM     67  C   UNL A   1      44.952  35.832  32.101  1.00  0.00     0.074 A 
ATOM     68  C   UNL A   1      46.228  36.503  31.970  1.00  0.00     0.031 C 
ATOM     69  C   UNL A   1      43.990  36.174  32.996  1.00  0.00     0.034 A 
BRANCH  56  70
ATOM     70  C   UNL A   1      38.862  32.725  32.712  1.00  0.00     0.023 A 
ATOM     71  C   UNL A   1      37.738  33.255  32.050  1.00  0.00     0.031 A 
ATOM     72  C   UNL A   1      38.669  32.124  33.969  1.00  0.00     0.131 A 
ATOM     73  C   UNL A   1      36.481  33.215  32.668  1.00  0.00     0.055 A 
ATOM     74  C   UNL A   1      37.406  32.045  34.559  1.00  0.00     0.041 A 
ATOM     75  F   UNL A   1      39.708  31.610  34.647  1.00  0.00    -0.206 F 
ATOM     76  C   UNL A   1      36.308  32.608  33.916  1.00  0.00     0.022 A 
BRANCH  73  77
ATOM     77  S   UNL A   1      35.038  34.020  31.918  1.00  0.00     0.124 S 
ATOM     78  O   UNL A   1      34.910  35.224  32.734  1.00  0.00    -0.237 OA
ATOM     79  O   UNL A   1      35.489  34.240  30.547  1.00  0.00    -0.237 OA
ATOM     80  O   UNL A   1      33.967  33.043  32.082  1.00  0.00    -0.744 OA
ENDBRANCH  73  77
ENDBRANCH  56  70
BRANCH  57  81
ATOM     81  C   UNL A   1      48.001  34.181  28.873  1.00  0.00     0.023 A 
ATOM     82  C   UNL A   1      48.191  34.682  27.572  1.00  0.00     0.031 A 
ATOM     83  C   UNL A   1      49.132  33.739  29.583  1.00  0.00     0.131 A 
ATOM     84  C   UNL A   1      49.468  34.662  26.997  1.00  0.00     0.055 A 
ATOM     85  C   UNL A   1      50.414  33.794  29.033  1.00  0.00     0.041 A 
ATOM     86  F   UNL A   1      48.999  33.232  30.818  1.00  0.00    -0.206 F 
ATOM     87  C   UNL A   1      50.584  34.241  27.726  1.00  0.00     0.022 A 
BRANCH  84  88
ATOM     88  S   UNL A   1      49.701  35.047  25.239  1.00  0.00     0.124 S 
ATOM     89  O   UNL A   1      50.160  36.431  25.289  1.00  0.00    -0.237 OA
ATOM     90  O   UNL A   1      50.705  34.060  24.850  1.00  0.00    -0.237 OA
ATOM     91  O   UNL A   1      48.376  34.841  24.664  1.00  0.00    -0.744 OA
ENDBRANCH  84  88
ENDBRANCH  57  81
BRANCH  69  92
ATOM     92  C   UNL A   1      44.259  37.313  33.954  1.00  0.00     0.023 A 
ATOM     93  C   UNL A   1      43.766  38.601  33.661  1.00  0.00     0.031 A 
ATOM     94  C   UNL A   1      45.118  37.170  35.058  1.00  0.00     0.131 A 
ATOM     95  C   UNL A   1      44.171  39.699  34.433  1.00  0.00     0.055 A 
ATOM     96  C   UNL A   1      45.474  38.257  35.857  1.00  0.00     0.041 A 
ATOM     97  F   UNL A   1      45.628  35.968  35.373  1.00  0.00    -0.206 F 
ATOM     98  C   UNL A   1      45.013  39.531  35.536  1.00  0.00     0.022 A 
BRANCH  95  99
ATOM     99  S   UNL A   1      43.704  41.390  33.973  1.00  0.00     0.124 S 
ATOM    100  O   UNL A   1      44.630  41.671  32.878  1.00  0.00    -0.237 OA
ATOM    101  O   UNL A   1      42.307  41.228  33.582  1.00  0.00    -0.237 OA
ATOM    102  O   UNL A   1      43.930  42.162  35.191  1.00  0.00    -0.744 OA
ENDBRANCH  95  99
ENDBRANCH  69  92
ENDBRANCH  43  44
ENDBRANCH  36  38
ENDBRANCH  35  36
ENDBRANCH  34  35
ENDBRANCH  33  34
ENDBRANCH  32  33
ENDBRANCH  31  32
ENDBRANCH  30  31
ENDBRANCH   1  30
TORSDOF 27
ENDMDL
MODEL 2
REMARK VINA RESULT:      -6.8      5.019     10.159
REMARK SMILES CC(C)CCc1cc2c(cc1Cl)C=C(C(=O)OCCOCCOCCOCCOC(=O)c1ccc(-c3c4nc(c(-c5cc(S(=O)(=O)[O-])ccc5F)c5ccc([nH]5)c(-c5cc(S(=O)(=O)[O-])ccc5F)c5nc(c(-c6cc(S(=O)(=O)[O-])ccc6F)c6ccc3[nH]6)C=C5)C=C4)cc1)[C@@H](C(F)(F)F)O2
REMARK SMILES IDX 23 1 22 2 21 3 20 4 19 5 18 6 17 7 15 8 16 9 14 10 6 11 7 12
REMARK SMILES IDX 11 13 8 14 10 15 12 16 9 17 100 18 13 19 95 20 5 21 4 22
REMARK SMILES IDX 2 23 1 24 3 25 96 26 97 27 98 28 99 29 24 30 25 31 26 32
REMARK SMILES IDX 27 33 28 34 29 35 30 36 31 37 32 38 33 39 94 40 34 41 93 42
REMARK SMILES IDX 35 43 36 44 37 45 87 46 38 47 92 48 86 49 88 50 39 51 91 52
REMARK SMILES IDX 85 53 84 54 40 56 72 57 52 58 71 59 53 60 56 61 70 62 89 63
REMARK SMILES IDX 54 64 55 65 69 67 90 68 57 69 41 70 42 71 50 72 43 73 49 74
REMARK SMILES IDX 51 75 48 76 44 77 45 78 46 79 47 80 73 81 74 82 82 83 75 84
REMARK SMILES IDX 81 85 83 86 80 87 76 88 77 89 78 90 79 91 58 92 59 93 67 94
REMARK SMILES IDX 60 95 66 96 68 97 65 98 61 99 62 100 63 101 64 102
REMARK H PARENT 88 55 56 66
REMARK Flexibility Score: inf
ROOT
ATOM      1  O   UNL A   1      37.242  22.237  25.815  1.00  0.00    -0.377 OA
ENDROOT
BRANCH   1   2
ATOM      2  C   UNL A   1      36.160  21.667  25.099  1.00  0.00     0.188 C 
BRANCH   2   3
ATOM      3  C   UNL A   1      34.886  21.530  25.949  1.00  0.00     0.188 C 
BRANCH   3   4
ATOM      4  O   UNL A   1      33.725  20.947  25.388  1.00  0.00    -0.376 OA
BRANCH   4   5
ATOM      5  C   UNL A   1      32.739  21.682  24.678  1.00  0.00     0.202 C 
BRANCH   5   6
ATOM      6  C   UNL A   1      32.349  23.158  24.899  1.00  0.00     0.261 C 
BRANCH   6   7
ATOM      7  O   UNL A   1      33.299  24.154  24.537  1.00  0.00    -0.460 OA
BRANCH   7   8
ATOM      8  C   UNL A   1      32.920  25.035  23.594  1.00  0.00     0.338 C 
ATOM      9  O   UNL A   1      32.527  24.792  22.467  1.00  0.00    -0.246 OA
BRANCH   8  10
ATOM     10  C   UNL A   1      32.888  26.368  24.231  1.00  0.00     0.087 C 
ATOM     11  C   UNL A   1      33.688  30.353  27.163  1.00  0.00    -0.026 A 
ATOM     12  C   UNL A   1      32.817  30.074  26.097  1.00  0.00     0.052 A 
ATOM     13  C   UNL A   1      34.757  29.466  27.380  1.00  0.00     0.045 A 
ATOM     14  C   UNL A   1      32.894  28.869  25.398  1.00  0.00     0.128 A 
ATOM     15  C   UNL A   1      34.859  28.274  26.657  1.00  0.00     0.032 A 
ATOM     16  Cl  UNL A   1      35.984  29.780  28.560  1.00  0.00    -0.084 Cl
ATOM     17  C   UNL A   1      33.890  27.948  25.708  1.00  0.00     0.019 A 
ATOM     18  O   UNL A   1      31.935  28.667  24.450  1.00  0.00    -0.475 OA
ATOM     19  C   UNL A   1      33.883  26.642  25.081  1.00  0.00     0.027 C 
ATOM     20  C   UNL A   1      31.821  27.356  23.829  1.00  0.00     0.316 C 
BRANCH  11  21
ATOM     21  C   UNL A   1      33.478  31.558  28.059  1.00  0.00     0.037 C 
BRANCH  21  22
ATOM     22  C   UNL A   1      34.407  32.770  27.853  1.00  0.00     0.008 C 
BRANCH  22  23
ATOM     23  C   UNL A   1      34.949  33.433  29.140  1.00  0.00    -0.017 C 
ATOM     24  C   UNL A   1      36.440  33.757  29.057  1.00  0.00     0.007 C 
ATOM     25  C   UNL A   1      34.150  34.706  29.436  1.00  0.00     0.007 C 
ENDBRANCH  22  23
ENDBRANCH  21  22
ENDBRANCH  11  21
BRANCH  20  26
ATOM     26  C   UNL A   1      30.409  26.810  24.083  1.00  0.00     0.430 C 
ATOM     27  F   UNL A   1      30.083  25.848  23.187  1.00  0.00    -0.167 F 
ATOM     28  F   UNL A   1      30.295  26.260  25.312  1.00  0.00    -0.167 F 
ATOM     29  F   UNL A   1      29.473  27.784  23.987  1.00  0.00    -0.167 F 
ENDBRANCH  20  26
ENDBRANCH   8  10
ENDBRANCH   7   8
ENDBRANCH   6   7
ENDBRANCH   5   6
ENDBRANCH   4   5
ENDBRANCH   3   4
ENDBRANCH   2   3
ENDBRANCH   1   2
BRANCH   1  30
ATOM     30  C   UNL A   1      38.506  21.613  25.604  1.00  0.00     0.188 C 
BRANCH  30  31
ATOM     31  C   UNL A   1      39.682  22.086  26.482  1.00  0.00     0.188 C 
BRANCH  31  32
ATOM     32  O   UNL A   1      40.958  21.857  25.881  1.00  0.00    -0.376 OA
BRANCH  32  33
ATOM     33  C   UNL A   1      42.094  22.396  26.544  1.00  0.00     0.202 C 
BRANCH  33  34
ATOM     34  C   UNL A   1      41.927  23.844  27.026  1.00  0.00     0.261 C 
BRANCH  34  35
ATOM     35  O   UNL A   1      42.695  24.823  26.312  1.00  0.00    -0.460 OA
BRANCH  35  36
ATOM     36  C   UNL A   1      42.030  25.856  25.746  1.00  0.00     0.338 C 
ATOM     37  O   UNL A   1      41.096  25.785  24.969  1.00  0.00    -0.246 OA
BRANCH  36  38
ATOM     38  C   UNL A   1      42.506  27.095  26.397  1.00  0.00     0.060 A 
ATOM     39  C   UNL A   1      41.917  28.324  26.088  1.00  0.00     0.016 A 
ATOM     40  C   UNL A   1      43.572  27.028  27.303  1.00  0.00     0.016 A 
ATOM     41  C   UNL A   1      42.379  29.484  26.711  1.00  0.00     0.010 A 
ATOM     42  C   UNL A   1      44.030  28.191  27.928  1.00  0.00     0.010 A 
ATOM     43  C   UNL A   1      43.422  29.424  27.653  1.00  0.00    -0.014 A 
BRANCH  43  44
ATOM     44  C   UNL A   1      43.717  30.623  28.476  1.00  0.00     0.031 A 
ATOM     45  C   UNL A   1      44.825  31.573  28.142  1.00  0.00     0.074 A 
ATOM     46  C   UNL A   1      42.930  30.850  29.546  1.00  0.00     0.049 A 
ATOM     47  N   UNL A   1      45.088  32.738  28.675  1.00  0.00    -0.248 NA
ATOM     48  C   UNL A   1      45.764  31.167  27.087  1.00  0.00     0.031 C 
ATOM     49  C   UNL A   1      41.859  29.957  29.989  1.00  0.00     0.029 A 
ATOM     50  N   UNL A   1      42.890  31.891  30.439  1.00  0.00    -0.354 N 
ATOM     51  C   UNL A   1      46.205  33.222  28.007  1.00  0.00     0.074 A 
ATOM     52  C   UNL A   1      46.604  32.196  27.066  1.00  0.00     0.031 C 
ATOM     53  C   UNL A   1      41.240  30.506  31.043  1.00  0.00     0.029 A 
ATOM     54  C   UNL A   1      41.884  31.776  31.369  1.00  0.00     0.049 A 
ATOM     55  H   UNL A   1      43.520  32.647  30.416  1.00  0.00     0.167 HD
ATOM     56  C   UNL A   1      46.819  34.421  28.157  1.00  0.00     0.034 A 
ATOM     57  C   UNL A   1      41.502  32.606  32.362  1.00  0.00     0.034 A 
ATOM     58  C   UNL A   1      46.411  35.419  29.120  1.00  0.00     0.049 A 
ATOM     59  C   UNL A   1      42.199  33.934  32.504  1.00  0.00     0.074 A 
ATOM     60  C   UNL A   1      46.945  36.681  29.319  1.00  0.00     0.029 A 
ATOM     61  N   UNL A   1      45.387  35.273  30.045  1.00  0.00    -0.354 N 
ATOM     62  N   UNL A   1      43.175  34.433  31.783  1.00  0.00    -0.248 NA
ATOM     63  C   UNL A   1      41.726  34.827  33.570  1.00  0.00     0.031 C 
ATOM     64  C   UNL A   1      46.296  37.264  30.408  1.00  0.00     0.029 A 
ATOM     65  C   UNL A   1      45.292  36.411  30.832  1.00  0.00     0.049 A 
ATOM     66  H   UNL A   1      44.811  34.478  30.130  1.00  0.00     0.167 HD
ATOM     67  C   UNL A   1      43.406  35.712  32.282  1.00  0.00     0.074 A 
ATOM     68  C   UNL A   1      42.454  35.915  33.354  1.00  0.00     0.031 C 
ATOM     69  C   UNL A   1      44.325  36.629  31.883  1.00  0.00     0.034 A 
BRANCH  56  70
ATOM     70  C   UNL A   1      47.979  34.767  27.251  1.00  0.00     0.023 A 
ATOM     71  C   UNL A   1      49.302  34.532  27.671  1.00  0.00     0.031 A 
ATOM     72  C   UNL A   1      47.779  35.480  26.056  1.00  0.00     0.131 A 
ATOM     73  C   UNL A   1      50.372  35.045  26.925  1.00  0.00     0.055 A 
ATOM     74  C   UNL A   1      48.850  35.950  25.292  1.00  0.00     0.041 A 
ATOM     75  F   UNL A   1      46.537  35.739  25.615  1.00  0.00    -0.206 F 
ATOM     76  C   UNL A   1      50.153  35.747  25.735  1.00  0.00     0.022 A 
BRANCH  73  77
ATOM     77  S   UNL A   1      52.084  34.895  27.509  1.00  0.00     0.124 S 
ATOM     78  O   UNL A   1      51.895  34.714  28.946  1.00  0.00    -0.237 OA
ATOM     79  O   UNL A   1      52.551  33.716  26.787  1.00  0.00    -0.237 OA
ATOM     80  O   UNL A   1      52.699  36.160  27.120  1.00  0.00    -0.744 OA
ENDBRANCH  73  77
ENDBRANCH  56  70
BRANCH  57  81
ATOM     81  C   UNL A   1      40.341  32.223  33.215  1.00  0.00     0.023 A 
ATOM     82  C   UNL A   1      39.037  32.645  32.893  1.00  0.00     0.031 A 
ATOM     83  C   UNL A   1      40.532  31.535  34.426  1.00  0.00     0.131 A 
ATOM     84  C   UNL A   1      37.993  32.437  33.802  1.00  0.00     0.055 A 
ATOM     85  C   UNL A   1      39.472  31.262  35.293  1.00  0.00     0.041 A 
ATOM     86  F   UNL A   1      41.760  31.132  34.788  1.00  0.00    -0.206 F 
ATOM     87  C   UNL A   1      38.198  31.730  34.991  1.00  0.00     0.022 A 
BRANCH  84  88
ATOM     88  S   UNL A   1      36.368  33.201  33.540  1.00  0.00     0.124 S 
ATOM     89  O   UNL A   1      35.676  32.182  32.758  1.00  0.00    -0.237 OA
ATOM     90  O   UNL A   1      35.897  33.375  34.912  1.00  0.00    -0.237 OA
ATOM     91  O   UNL A   1      36.680  34.438  32.832  1.00  0.00    -0.744 OA
ENDBRANCH  84  88
ENDBRANCH  57  81
BRANCH  69  92
ATOM     92  C   UNL A   1      44.357  37.975  32.573  1.00  0.00     0.023 A 
ATOM     93  C   UNL A   1      43.652  39.061  32.016  1.00  0.00     0.031 A 
ATOM     94  C   UNL A   1      45.196  38.226  33.673  1.00  0.00     0.131 A 
ATOM     95  C   UNL A   1      43.831  40.351  32.531  1.00  0.00     0.055 A 
ATOM     96  C   UNL A   1      45.328  39.504  34.218  1.00  0.00     0.041 A 
ATOM     97  F   UNL A   1      45.903  37.231  34.233  1.00  0.00    -0.206 F 
ATOM     98  C   UNL A   1      44.658  40.576  33.636  1.00  0.00     0.022 A 
BRANCH  95  99
ATOM     99  S   UNL A   1      43.083  41.794  31.725  1.00  0.00     0.124 S 
ATOM    100  O   UNL A   1      43.585  42.892  32.548  1.00  0.00    -0.237 OA
ATOM    101  O   UNL A   1      43.643  41.718  30.379  1.00  0.00    -0.237 OA
ATOM    102  O   UNL A   1      41.649  41.549  31.824  1.00  0.00    -0.744 OA
ENDBRANCH  95  99
ENDBRANCH  69  92
ENDBRANCH  43  44
ENDBRANCH  36  38
ENDBRANCH  35  36
ENDBRANCH  34  35
ENDBRANCH  33  34
ENDBRANCH  32  33
ENDBRANCH  31  32
ENDBRANCH  30  31
ENDBRANCH   1  30
TORSDOF 27
ENDMDL
MODEL 3
REMARK VINA RESULT:      -6.5      2.267      7.404
REMARK SMILES CC(C)CCc1cc2c(cc1Cl)C=C(C(=O)OCCOCCOCCOCCOC(=O)c1ccc(-c3c4nc(c(-c5cc(S(=O)(=O)[O-])ccc5F)c5ccc([nH]5)c(-c5cc(S(=O)(=O)[O-])ccc5F)c5nc(c(-c6cc(S(=O)(=O)[O-])ccc6F)c6ccc3[nH]6)C=C5)C=C4)cc1)[C@@H](C(F)(F)F)O2
REMARK SMILES IDX 23 1 22 2 21 3 20 4 19 5 18 6 17 7 15 8 16 9 14 10 6 11 7 12
REMARK SMILES IDX 11 13 8 14 10 15 12 16 9 17 100 18 13 19 95 20 5 21 4 22
REMARK SMILES IDX 2 23 1 24 3 25 96 26 97 27 98 28 99 29 24 30 25 31 26 32
REMARK SMILES IDX 27 33 28 34 29 35 30 36 31 37 32 38 33 39 94 40 34 41 93 42
REMARK SMILES IDX 35 43 36 44 37 45 87 46 38 47 92 48 86 49 88 50 39 51 91 52
REMARK SMILES IDX 85 53 84 54 40 56 72 57 52 58 71 59 53 60 56 61 70 62 89 63
REMARK SMILES IDX 54 64 55 65 69 67 90 68 57 69 41 70 42 71 50 72 43 73 49 74
REMARK SMILES IDX 51 75 48 76 44 77 45 78 46 79 47 80 73 81 74 82 82 83 75 84
REMARK SMILES IDX 81 85 83 86 80 87 76 88 77 89 78 90 79 91 58 92 59 93 67 94
REMARK SMILES IDX 60 95 66 96 68 97 65 98 61 99 62 100 63 101 64 102
REMARK H PARENT 88 55 56 66
REMARK Flexibility Score: inf
ROOT
ATOM      1  O   UNL A   1      42.557  18.650  25.480  1.00  0.00    -0.377 OA
ENDROOT
BRANCH   1   2
ATOM      2  C   UNL A   1      43.945  18.532  25.219  1.00  0.00     0.188 C 
BRANCH   2   3
ATOM      3  C   UNL A   1      44.551  19.808  24.612  1.00  0.00     0.188 C 
BRANCH   3   4
ATOM      4  O   UNL A   1      45.242  20.723  25.441  1.00  0.00    -0.376 OA
BRANCH   4   5
ATOM      5  C   UNL A   1      46.134  21.712  24.950  1.00  0.00     0.202 C 
BRANCH   5   6
ATOM      6  C   UNL A   1      45.807  22.830  23.938  1.00  0.00     0.261 C 
BRANCH   6   7
ATOM      7  O   UNL A   1      45.772  24.169  24.419  1.00  0.00    -0.460 OA
BRANCH   7   8
ATOM      8  C   UNL A   1      46.958  24.758  24.652  1.00  0.00     0.338 C 
ATOM      9  O   UNL A   1      47.855  24.961  23.853  1.00  0.00    -0.246 OA
BRANCH   8  10
ATOM     10  C   UNL A   1      46.917  25.293  26.029  1.00  0.00     0.087 C 
ATOM     11  C   UNL A   1      45.835  26.206  30.837  1.00  0.00    -0.026 A 
ATOM     12  C   UNL A   1      46.712  26.777  29.899  1.00  0.00     0.052 A 
ATOM     13  C   UNL A   1      45.259  24.963  30.519  1.00  0.00     0.045 A 
ATOM     14  C   UNL A   1      46.861  26.229  28.625  1.00  0.00     0.128 A 
ATOM     15  C   UNL A   1      45.436  24.394  29.255  1.00  0.00     0.032 A 
ATOM     16  Cl  UNL A   1      44.287  24.086  31.650  1.00  0.00    -0.084 Cl
ATOM     17  C   UNL A   1      46.188  25.060  28.287  1.00  0.00     0.019 A 
ATOM     18  O   UNL A   1      47.663  26.924  27.767  1.00  0.00    -0.475 OA
ATOM     19  C   UNL A   1      46.232  24.571  26.924  1.00  0.00     0.027 C 
ATOM     20  C   UNL A   1      47.702  26.536  26.366  1.00  0.00     0.316 C 
BRANCH  11  21
ATOM     21  C   UNL A   1      45.507  26.908  32.140  1.00  0.00     0.037 C 
BRANCH  21  22
ATOM     22  C   UNL A   1      44.382  27.960  32.121  1.00  0.00     0.008 C 
BRANCH  22  23
ATOM     23  C   UNL A   1      44.838  29.438  32.118  1.00  0.00    -0.017 C 
ATOM     24  C   UNL A   1      44.875  30.049  33.518  1.00  0.00     0.007 C 
ATOM     25  C   UNL A   1      46.216  29.548  31.460  1.00  0.00     0.007 C 
ENDBRANCH  22  23
ENDBRANCH  21  22
ENDBRANCH  11  21
BRANCH  20  26
ATOM     26  C   UNL A   1      47.274  27.735  25.509  1.00  0.00     0.430 C 
ATOM     27  F   UNL A   1      47.331  28.891  26.213  1.00  0.00    -0.167 F 
ATOM     28  F   UNL A   1      48.070  27.892  24.428  1.00  0.00    -0.167 F 
ATOM     29  F   UNL A   1      46.004  27.599  25.059  1.00  0.00    -0.167 F 
ENDBRANCH  20  26
ENDBRANCH   8  10
ENDBRANCH   7   8
ENDBRANCH   6   7
ENDBRANCH   5   6
ENDBRANCH   4   5
ENDBRANCH   3   4
ENDBRANCH   2   3
ENDBRANCH   1   2
BRANCH   1  30
ATOM     30  C   UNL A   1      42.220  19.366  26.665  1.00  0.00     0.188 C 
BRANCH  30  31
ATOM     31  C   UNL A   1      41.155  20.473  26.543  1.00  0.00     0.188 C 
BRANCH  31  32
ATOM     32  O   UNL A   1      41.575  21.567  25.725  1.00  0.00    -0.376 OA
BRANCH  32  33
ATOM     33  C   UNL A   1      41.338  22.877  26.222  1.00  0.00     0.202 C 
BRANCH  33  34
ATOM     34  C   UNL A   1      42.590  23.759  26.328  1.00  0.00     0.261 C 
BRANCH  34  35
ATOM     35  O   UNL A   1      42.366  25.091  26.810  1.00  0.00    -0.460 OA
BRANCH  35  36
ATOM     36  C   UNL A   1      42.178  26.070  25.896  1.00  0.00     0.338 C 
ATOM     37  O   UNL A   1      41.555  25.986  24.853  1.00  0.00    -0.246 OA
BRANCH  36  38
ATOM     38  C   UNL A   1      42.691  27.326  26.484  1.00  0.00     0.060 A 
ATOM     39  C   UNL A   1      42.178  28.558  26.072  1.00  0.00     0.016 A 
ATOM     40  C   UNL A   1      43.717  27.268  27.436  1.00  0.00     0.016 A 
ATOM     41  C   UNL A   1      42.674  29.734  26.637  1.00  0.00     0.010 A 
ATOM     42  C   UNL A   1      44.211  28.446  28.002  1.00  0.00     0.010 A 
ATOM     43  C   UNL A   1      43.676  29.687  27.623  1.00  0.00    -0.014 A 
BRANCH  43  44
ATOM     44  C   UNL A   1      44.001  30.922  28.378  1.00  0.00     0.031 A 
ATOM     45  C   UNL A   1      45.140  31.818  28.000  1.00  0.00     0.074 A 
ATOM     46  C   UNL A   1      43.213  31.234  29.425  1.00  0.00     0.049 A 
ATOM     47  N   UNL A   1      45.433  33.004  28.467  1.00  0.00    -0.248 NA
ATOM     48  C   UNL A   1      46.074  31.323  26.979  1.00  0.00     0.031 C 
ATOM     49  C   UNL A   1      42.112  30.401  29.909  1.00  0.00     0.029 A 
ATOM     50  N   UNL A   1      43.196  32.326  30.255  1.00  0.00    -0.354 N 
ATOM     51  C   UNL A   1      46.570  33.415  27.783  1.00  0.00     0.074 A 
ATOM     52  C   UNL A   1      46.945  32.324  26.907  1.00  0.00     0.031 C 
ATOM     53  C   UNL A   1      41.501  31.028  30.923  1.00  0.00     0.029 A 
ATOM     54  C   UNL A   1      42.180  32.296  31.181  1.00  0.00     0.049 A 
ATOM     55  H   UNL A   1      43.849  33.060  30.195  1.00  0.00     0.167 HD
ATOM     56  C   UNL A   1      47.218  34.602  27.869  1.00  0.00     0.034 A 
ATOM     57  C   UNL A   1      41.816  33.193  32.121  1.00  0.00     0.034 A 
ATOM     58  C   UNL A   1      46.833  35.666  28.769  1.00  0.00     0.049 A 
ATOM     59  C   UNL A   1      42.550  34.506  32.191  1.00  0.00     0.074 A 
ATOM     60  C   UNL A   1      47.402  36.922  28.899  1.00  0.00     0.029 A 
ATOM     61  N   UNL A   1      45.797  35.604  29.690  1.00  0.00    -0.354 N 
ATOM     62  N   UNL A   1      43.547  34.933  31.452  1.00  0.00    -0.248 NA
ATOM     63  C   UNL A   1      42.097  35.473  33.200  1.00  0.00     0.031 C 
ATOM     64  C   UNL A   1      46.763  37.586  29.945  1.00  0.00     0.029 A 
ATOM     65  C   UNL A   1      45.730  36.789  30.409  1.00  0.00     0.049 A 
ATOM     66  H   UNL A   1      45.197  34.833  29.816  1.00  0.00     0.167 HD
ATOM     67  C   UNL A   1      43.812  36.231  31.879  1.00  0.00     0.074 A 
ATOM     68  C   UNL A   1      42.859  36.525  32.928  1.00  0.00     0.031 C 
ATOM     69  C   UNL A   1      44.761  37.096  31.436  1.00  0.00     0.034 A 
BRANCH  56  70
ATOM     70  C   UNL A   1      48.395  34.860  26.956  1.00  0.00     0.023 A 
ATOM     71  C   UNL A   1      49.708  34.617  27.403  1.00  0.00     0.031 A 
ATOM     72  C   UNL A   1      48.225  35.503  25.717  1.00  0.00     0.131 A 
ATOM     73  C   UNL A   1      50.797  35.054  26.638  1.00  0.00     0.055 A 
ATOM     74  C   UNL A   1      49.315  35.895  24.937  1.00  0.00     0.041 A 
ATOM     75  F   UNL A   1      46.995  35.767  25.248  1.00  0.00    -0.206 F 
ATOM     76  C   UNL A   1      50.608  35.686  25.405  1.00  0.00     0.022 A 
BRANCH  73  77
ATOM     77  S   UNL A   1      52.499  34.895  27.249  1.00  0.00     0.124 S 
ATOM     78  O   UNL A   1      52.336  35.192  28.670  1.00  0.00    -0.237 OA
ATOM     79  O   UNL A   1      52.809  33.504  26.934  1.00  0.00    -0.237 OA
ATOM     80  O   UNL A   1      53.240  35.895  26.488  1.00  0.00    -0.744 OA
ENDBRANCH  73  77
ENDBRANCH  56  70
BRANCH  57  81
ATOM     81  C   UNL A   1      40.637  32.894  32.983  1.00  0.00     0.023 A 
ATOM     82  C   UNL A   1      40.799  32.295  34.246  1.00  0.00     0.031 A 
ATOM     83  C   UNL A   1      39.328  33.090  32.508  1.00  0.00     0.131 A 
ATOM     84  C   UNL A   1      39.676  31.851  34.956  1.00  0.00     0.055 A 
ATOM     85  C   UNL A   1      38.210  32.715  33.255  1.00  0.00     0.041 A 
ATOM     86  F   UNL A   1      39.122  33.637  31.300  1.00  0.00    -0.206 F 
ATOM     87  C   UNL A   1      38.382  32.076  34.478  1.00  0.00     0.022 A 
BRANCH  84  88
ATOM     88  S   UNL A   1      39.864  30.841  36.452  1.00  0.00     0.124 S 
ATOM     89  O   UNL A   1      38.531  30.917  37.039  1.00  0.00    -0.237 OA
ATOM     90  O   UNL A   1      40.234  29.544  35.889  1.00  0.00    -0.237 OA
ATOM     91  O   UNL A   1      40.922  31.518  37.194  1.00  0.00    -0.744 OA
ENDBRANCH  84  88
ENDBRANCH  57  81
BRANCH  69  92
ATOM     92  C   UNL A   1      44.829  38.478  32.047  1.00  0.00     0.023 A 
ATOM     93  C   UNL A   1      44.035  39.515  31.515  1.00  0.00     0.031 A 
ATOM     94  C   UNL A   1      45.774  38.810  33.034  1.00  0.00     0.131 A 
ATOM     95  C   UNL A   1      44.232  40.836  31.939  1.00  0.00     0.055 A 
ATOM     96  C   UNL A   1      45.927  40.118  33.494  1.00  0.00     0.041 A 
ATOM     97  F   UNL A   1      46.566  37.863  33.564  1.00  0.00    -0.206 F 
ATOM     98  C   UNL A   1      45.166  41.141  32.933  1.00  0.00     0.022 A 
BRANCH  95  99
ATOM     99  S   UNL A   1      43.360  42.214  31.145  1.00  0.00     0.124 S 
ATOM    100  O   UNL A   1      44.107  42.366  29.898  1.00  0.00    -0.237 OA
ATOM    101  O   UNL A   1      42.008  41.680  31.001  1.00  0.00    -0.237 OA
ATOM    102  O   UNL A   1      43.502  43.315  32.092  1.00  0.00    -0.744 OA
ENDBRANCH  95  99
ENDBRANCH  69  92
ENDBRANCH  43  44
ENDBRANCH  36  38
ENDBRANCH  35  36
ENDBRANCH  34  35
ENDBRANCH  33  34
ENDBRANCH  32  33
ENDBRANCH  31  32
ENDBRANCH  30  31
ENDBRANCH   1  30
TORSDOF 27
ENDMDL
