MODEL 1
REMARK VINA RESULT:     -10.3      0.000      0.000
REMARK SMILES Cc1ccc(-c2cc3cccnc3n2CCC(=O)OCCOCCOCCOCCOC(=O)c2ccc(-c3c4nc(c(-c5cc(S(=O)(=O)[O-])ccc5F)c5ccc([nH]5)c(-c5cc(S(=O)(=O)[O-])ccc5F)c5nc(c(-c6cc(S(=O)(=O)[O-])ccc6F)c6ccc3[nH]6)C=C5)C=C4)cc2)cn1
REMARK SMILES IDX 25 1 24 2 23 3 22 4 21 5 20 6 19 7 17 8 18 9 16 10 15 11
REMARK SMILES IDX 14 12 6 13 7 14 8 15 13 16 9 17 12 18 10 19 11 20 5 21 1 22
REMARK SMILES IDX 2 23 3 24 98 25 4 26 97 27 26 28 27 29 28 30 29 31 30 32
REMARK SMILES IDX 31 33 32 34 33 35 34 36 35 37 96 38 36 39 95 40 37 41 38 42
REMARK SMILES IDX 39 43 89 44 40 45 94 46 88 47 90 48 41 49 93 50 87 51 86 52
REMARK SMILES IDX 42 54 74 55 54 56 73 57 55 58 58 59 72 60 91 61 56 62 57 63
REMARK SMILES IDX 71 65 92 66 59 67 43 68 44 69 52 70 45 71 51 72 53 73 50 74
REMARK SMILES IDX 46 75 47 76 48 77 49 78 75 79 76 80 84 81 77 82 83 83 85 84
REMARK SMILES IDX 82 85 78 86 79 87 80 88 81 89 60 90 61 91 69 92 62 93 68 94
REMARK SMILES IDX 70 95 67 96 63 97 64 98 65 99 66 100
REMARK H PARENT 90 53 58 64
REMARK Flexibility Score: inf
ROOT
ATOM      1  O   UNL A   1      34.930  35.378  31.604  1.00  0.00    -0.377 OA
ENDROOT
BRANCH   1   2
ATOM      2  C   UNL A   1      34.111  34.691  30.673  1.00  0.00     0.188 C 
BRANCH   2   3
ATOM      3  C   UNL A   1      34.396  33.200  30.494  1.00  0.00     0.188 C 
BRANCH   3   4
ATOM      4  O   UNL A   1      34.314  32.826  28.989  1.00  0.00    -0.376 OA
BRANCH   4   5
ATOM      5  C   UNL A   1      33.676  31.538  27.604  1.00  0.00     0.202 C 
BRANCH   5   6
ATOM      6  C   UNL A   1      34.310  30.000  27.049  1.00  0.00     0.261 C 
BRANCH   6   7
ATOM      7  O   UNL A   1      33.468  28.929  26.527  1.00  0.00    -0.463 OA
BRANCH   7   8
ATOM      8  C   UNL A   1      33.869  28.238  25.432  1.00  0.00     0.307 C 
ATOM      9  O   UNL A   1      34.081  28.760  24.341  1.00  0.00    -0.252 OA
BRANCH   8  10
ATOM     10  C   UNL A   1      34.172  26.751  25.680  1.00  0.00     0.144 C 
BRANCH  10  11
ATOM     11  C   UNL A   1      33.087  25.765  26.143  1.00  0.00     0.136 C 
BRANCH  11  12
ATOM     12  N   UNL A   1      32.151  25.331  25.138  1.00  0.00    -0.325 N 
ATOM     13  C   UNL A   1      32.201  24.126  24.473  1.00  0.00     0.052 A 
ATOM     14  C   UNL A   1      31.043  24.054  23.710  1.00  0.00     0.039 A 
ATOM     15  C   UNL A   1      30.354  25.276  23.812  1.00  0.00     0.020 A 
ATOM     16  C   UNL A   1      31.093  26.081  24.671  1.00  0.00     0.140 A 
ATOM     17  C   UNL A   1      29.177  25.791  23.254  1.00  0.00     0.013 A 
ATOM     18  N   UNL A   1      30.814  27.359  25.006  1.00  0.00    -0.238 NA
ATOM     19  C   UNL A   1      28.861  27.113  23.544  1.00  0.00     0.021 A 
ATOM     20  C   UNL A   1      29.704  27.832  24.383  1.00  0.00     0.113 A 
BRANCH  13  21
ATOM     21  C   UNL A   1      33.191  23.052  24.634  1.00  0.00     0.017 A 
ATOM     22  C   UNL A   1      37.165  20.040  25.032  1.00  0.00     0.066 C 
ATOM     23  C   UNL A   1      35.884  20.717  24.654  1.00  0.00     0.037 A 
ATOM     24  C   UNL A   1      34.329  20.197  25.382  1.00  0.00     0.024 A 
ATOM     25  N   UNL A   1      36.093  22.269  23.900  1.00  0.00    -0.261 NA
ATOM     26  C   UNL A   1      32.949  21.382  25.376  1.00  0.00     0.014 A 
ATOM     27  C   UNL A   1      34.785  23.424  23.924  1.00  0.00     0.121 A 
ENDBRANCH  13  21
ENDBRANCH  11  12
ENDBRANCH  10  11
ENDBRANCH   8  10
ENDBRANCH   7   8
ENDBRANCH   6   7
ENDBRANCH   5   6
ENDBRANCH   4   5
ENDBRANCH   3   4
ENDBRANCH   2   3
ENDBRANCH   1   2
BRANCH   1  28
ATOM     28  C   UNL A   1      34.525  35.460  32.959  1.00  0.00     0.188 C 
BRANCH  28  29
ATOM     29  C   UNL A   1      35.289  34.610  33.977  1.00  0.00     0.188 C 
BRANCH  29  30
ATOM     30  O   UNL A   1      36.704  34.668  34.091  1.00  0.00    -0.376 OA
BRANCH  30  31
ATOM     31  C   UNL A   1      37.534  33.544  33.832  1.00  0.00     0.202 C 
BRANCH  31  32
ATOM     32  C   UNL A   1      37.009  32.101  33.893  1.00  0.00     0.261 C 
BRANCH  32  33
ATOM     33  O   UNL A   1      36.245  31.740  32.753  1.00  0.00    -0.460 OA
BRANCH  33  34
ATOM     34  C   UNL A   1      36.696  30.628  32.139  1.00  0.00     0.338 C 
ATOM     35  O   UNL A   1      37.010  29.584  32.691  1.00  0.00    -0.246 OA
BRANCH  34  36
ATOM     36  C   UNL A   1      36.726  30.840  30.651  1.00  0.00     0.060 A 
ATOM     37  C   UNL A   1      36.560  29.615  30.002  1.00  0.00     0.016 A 
ATOM     38  C   UNL A   1      37.781  31.682  30.306  1.00  0.00     0.016 A 
ATOM     39  C   UNL A   1      37.724  28.969  29.669  1.00  0.00     0.010 A 
ATOM     40  C   UNL A   1      38.961  31.053  30.003  1.00  0.00     0.010 A 
ATOM     41  C   UNL A   1      38.924  29.671  29.828  1.00  0.00    -0.014 A 
BRANCH  41  42
ATOM     42  C   UNL A   1      40.145  28.917  29.716  1.00  0.00     0.031 A 
ATOM     43  C   UNL A   1      40.733  28.671  31.041  1.00  0.00     0.074 A 
ATOM     44  C   UNL A   1      40.634  28.473  28.546  1.00  0.00     0.049 A 
ATOM     45  N   UNL A   1      41.711  29.309  31.590  1.00  0.00    -0.248 NA
ATOM     46  C   UNL A   1      39.963  27.817  31.957  1.00  0.00     0.031 C 
ATOM     47  C   UNL A   1      39.982  28.416  27.234  1.00  0.00     0.029 A 
ATOM     48  N   UNL A   1      41.830  27.879  28.316  1.00  0.00    -0.354 N 
ATOM     49  C   UNL A   1      41.822  28.754  32.856  1.00  0.00     0.074 A 
ATOM     50  C   UNL A   1      40.578  28.072  33.109  1.00  0.00     0.031 C 
ATOM     51  C   UNL A   1      40.698  27.600  26.423  1.00  0.00     0.029 A 
ATOM     52  C   UNL A   1      41.917  27.202  27.109  1.00  0.00     0.049 A 
ATOM     53  H   UNL A   1      42.577  27.923  28.955  1.00  0.00     0.167 HD
ATOM     54  C   UNL A   1      43.031  28.625  33.467  1.00  0.00     0.034 A 
ATOM     55  C   UNL A   1      42.883  26.304  26.783  1.00  0.00     0.034 A 
ATOM     56  C   UNL A   1      44.031  29.434  32.823  1.00  0.00     0.049 A 
ATOM     57  C   UNL A   1      44.021  26.511  27.718  1.00  0.00     0.074 A 
ATOM     58  C   UNL A   1      44.197  30.788  32.616  1.00  0.00     0.029 A 
ATOM     59  N   UNL A   1      44.853  28.802  31.919  1.00  0.00    -0.354 N 
ATOM     60  N   UNL A   1      44.788  27.566  27.711  1.00  0.00    -0.248 NA
ATOM     61  C   UNL A   1      44.012  25.755  28.964  1.00  0.00     0.031 C 
ATOM     62  C   UNL A   1      44.778  30.901  31.322  1.00  0.00     0.029 A 
ATOM     63  C   UNL A   1      44.991  29.613  30.824  1.00  0.00     0.049 A 
ATOM     64  H   UNL A   1      45.272  27.919  32.039  1.00  0.00     0.167 HD
ATOM     65  C   UNL A   1      44.998  27.854  29.053  1.00  0.00     0.074 A 
ATOM     66  C   UNL A   1      44.575  26.656  29.774  1.00  0.00     0.031 C 
ATOM     67  C   UNL A   1      45.211  29.134  29.474  1.00  0.00     0.034 A 
BRANCH  54  68
ATOM     68  C   UNL A   1      43.364  27.463  34.364  1.00  0.00     0.023 A 
ATOM     69  C   UNL A   1      43.763  26.206  33.868  1.00  0.00     0.031 A 
ATOM     70  C   UNL A   1      43.507  27.649  35.749  1.00  0.00     0.131 A 
ATOM     71  C   UNL A   1      44.232  25.192  34.704  1.00  0.00     0.055 A 
ATOM     72  C   UNL A   1      44.050  26.662  36.581  1.00  0.00     0.041 A 
ATOM     73  F   UNL A   1      43.182  28.818  36.324  1.00  0.00    -0.206 F 
ATOM     74  C   UNL A   1      44.410  25.422  36.061  1.00  0.00     0.022 A 
BRANCH  71  75
ATOM     75  S   UNL A   1      44.637  23.564  34.013  1.00  0.00     0.124 S 
ATOM     76  O   UNL A   1      46.088  23.528  34.159  1.00  0.00    -0.237 OA
ATOM     77  O   UNL A   1      43.886  22.675  34.896  1.00  0.00    -0.237 OA
ATOM     78  O   UNL A   1      44.137  23.637  32.643  1.00  0.00    -0.744 OA
ENDBRANCH  71  75
ENDBRANCH  54  68
BRANCH  55  79
ATOM     79  C   UNL A   1      42.675  25.000  26.104  1.00  0.00     0.023 A 
ATOM     80  C   UNL A   1      41.662  24.128  26.545  1.00  0.00     0.031 A 
ATOM     81  C   UNL A   1      43.660  24.466  25.253  1.00  0.00     0.131 A 
ATOM     82  C   UNL A   1      41.687  22.771  26.195  1.00  0.00     0.055 A 
ATOM     83  C   UNL A   1      43.675  23.113  24.893  1.00  0.00     0.041 A 
ATOM     84  F   UNL A   1      44.671  25.233  24.817  1.00  0.00    -0.206 F 
ATOM     85  C   UNL A   1      42.694  22.254  25.378  1.00  0.00     0.022 A 
BRANCH  82  86
ATOM     86  S   UNL A   1      40.437  21.638  26.861  1.00  0.00     0.124 S 
ATOM     87  O   UNL A   1      39.190  22.349  26.588  1.00  0.00    -0.237 OA
ATOM     88  O   UNL A   1      40.664  20.439  26.063  1.00  0.00    -0.237 OA
ATOM     89  O   UNL A   1      40.788  21.538  28.276  1.00  0.00    -0.744 OA
ENDBRANCH  82  86
ENDBRANCH  55  79
BRANCH  67  90
ATOM     90  C   UNL A   1      45.472  30.199  28.437  1.00  0.00     0.023 A 
ATOM     91  C   UNL A   1      46.815  30.528  28.194  1.00  0.00     0.031 A 
ATOM     92  C   UNL A   1      44.483  31.036  27.888  1.00  0.00     0.131 A 
ATOM     93  C   UNL A   1      47.141  31.681  27.474  1.00  0.00     0.055 A 
ATOM     94  C   UNL A   1      44.811  32.155  27.113  1.00  0.00     0.041 A 
ATOM     95  F   UNL A   1      43.183  30.848  28.155  1.00  0.00    -0.206 F 
ATOM     96  C   UNL A   1      46.147  32.493  26.920  1.00  0.00     0.022 A 
BRANCH  93  97
ATOM     97  S   UNL A   1      48.864  32.225  27.368  1.00  0.00     0.124 S 
ATOM     98  O   UNL A   1      48.731  33.571  26.820  1.00  0.00    -0.237 OA
ATOM     99  O   UNL A   1      49.295  32.155  28.763  1.00  0.00    -0.237 OA
ATOM    100  O   UNL A   1      49.490  31.250  26.478  1.00  0.00    -0.744 OA
ENDBRANCH  93  97
ENDBRANCH  67  90
ENDBRANCH  41  42
ENDBRANCH  34  36
ENDBRANCH  33  34
ENDBRANCH  32  33
ENDBRANCH  31  32
ENDBRANCH  30  31
ENDBRANCH  29  30
ENDBRANCH  28  29
ENDBRANCH   1  28
TORSDOF 26
ENDMDL
MODEL 2
REMARK VINA RESULT:      -9.4      4.519     10.068
REMARK SMILES Cc1ccc(-c2cc3cccnc3n2CCC(=O)OCCOCCOCCOCCOC(=O)c2ccc(-c3c4nc(c(-c5cc(S(=O)(=O)[O-])ccc5F)c5ccc([nH]5)c(-c5cc(S(=O)(=O)[O-])ccc5F)c5nc(c(-c6cc(S(=O)(=O)[O-])ccc6F)c6ccc3[nH]6)C=C5)C=C4)cc2)cn1
REMARK SMILES IDX 25 1 24 2 23 3 22 4 21 5 20 6 19 7 17 8 18 9 16 10 15 11
REMARK SMILES IDX 14 12 6 13 7 14 8 15 13 16 9 17 12 18 10 19 11 20 5 21 1 22
REMARK SMILES IDX 2 23 3 24 98 25 4 26 97 27 26 28 27 29 28 30 29 31 30 32
REMARK SMILES IDX 31 33 32 34 33 35 34 36 35 37 96 38 36 39 95 40 37 41 38 42
REMARK SMILES IDX 39 43 89 44 40 45 94 46 88 47 90 48 41 49 93 50 87 51 86 52
REMARK SMILES IDX 42 54 74 55 54 56 73 57 55 58 58 59 72 60 91 61 56 62 57 63
REMARK SMILES IDX 71 65 92 66 59 67 43 68 44 69 52 70 45 71 51 72 53 73 50 74
REMARK SMILES IDX 46 75 47 76 48 77 49 78 75 79 76 80 84 81 77 82 83 83 85 84
REMARK SMILES IDX 82 85 78 86 79 87 80 88 81 89 60 90 61 91 69 92 62 93 68 94
REMARK SMILES IDX 70 95 67 96 63 97 64 98 65 99 66 100
REMARK H PARENT 90 53 58 64
REMARK Flexibility Score: inf
ROOT
ATOM      1  O   UNL A   1      40.726  28.497  28.502  1.00  0.00    -0.377 OA
ENDROOT
BRANCH   1   2
ATOM      2  C   UNL A   1      40.921  27.094  28.439  1.00  0.00     0.188 C 
BRANCH   2   3
ATOM      3  C   UNL A   1      39.679  26.229  28.652  1.00  0.00     0.188 C 
BRANCH   3   4
ATOM      4  O   UNL A   1      39.531  25.225  27.477  1.00  0.00    -0.376 OA
BRANCH   4   5
ATOM      5  C   UNL A   1      38.315  24.300  26.193  1.00  0.00     0.202 C 
BRANCH   5   6
ATOM      6  C   UNL A   1      36.964  23.207  26.434  1.00  0.00     0.261 C 
BRANCH   6   7
ATOM      7  O   UNL A   1      35.705  23.318  25.705  1.00  0.00    -0.463 OA
BRANCH   7   8
ATOM      8  C   UNL A   1      35.647  22.926  24.409  1.00  0.00     0.307 C 
ATOM      9  O   UNL A   1      35.916  21.788  24.033  1.00  0.00    -0.252 OA
BRANCH   8  10
ATOM     10  C   UNL A   1      35.088  23.978  23.438  1.00  0.00     0.144 C 
BRANCH  10  11
ATOM     11  C   UNL A   1      33.908  23.677  22.500  1.00  0.00     0.136 C 
BRANCH  11  12
ATOM     12  N   UNL A   1      32.591  23.858  23.057  1.00  0.00    -0.325 N 
ATOM     13  C   UNL A   1      31.843  22.874  23.664  1.00  0.00     0.052 A 
ATOM     14  C   UNL A   1      30.718  23.503  24.181  1.00  0.00     0.039 A 
ATOM     15  C   UNL A   1      30.720  24.848  23.770  1.00  0.00     0.020 A 
ATOM     16  C   UNL A   1      31.877  25.036  23.023  1.00  0.00     0.140 A 
ATOM     17  C   UNL A   1      29.850  25.931  23.948  1.00  0.00     0.013 A 
ATOM     18  N   UNL A   1      32.247  26.174  22.396  1.00  0.00    -0.238 NA
ATOM     19  C   UNL A   1      30.172  27.117  23.298  1.00  0.00     0.021 A 
ATOM     20  C   UNL A   1      31.335  27.170  22.541  1.00  0.00     0.113 A 
BRANCH  13  21
ATOM     21  C   UNL A   1      32.210  21.466  23.869  1.00  0.00     0.017 A 
ATOM     22  C   UNL A   1      33.548  16.649  23.677  1.00  0.00     0.066 C 
ATOM     23  C   UNL A   1      32.856  17.960  23.889  1.00  0.00     0.037 A 
ATOM     24  C   UNL A   1      33.036  18.846  25.438  1.00  0.00     0.024 A 
ATOM     25  N   UNL A   1      32.327  18.732  22.423  1.00  0.00    -0.261 NA
ATOM     26  C   UNL A   1      32.707  20.636  25.438  1.00  0.00     0.014 A 
ATOM     27  C   UNL A   1      32.047  20.454  22.408  1.00  0.00     0.121 A 
ENDBRANCH  13  21
ENDBRANCH  11  12
ENDBRANCH  10  11
ENDBRANCH   8  10
ENDBRANCH   7   8
ENDBRANCH   6   7
ENDBRANCH   5   6
ENDBRANCH   4   5
ENDBRANCH   3   4
ENDBRANCH   2   3
ENDBRANCH   1   2
BRANCH   1  28
ATOM     28  C   UNL A   1      39.712  29.096  27.714  1.00  0.00     0.188 C 
BRANCH  28  29
ATOM     29  C   UNL A   1      38.566  29.794  28.449  1.00  0.00     0.188 C 
BRANCH  29  30
ATOM     30  O   UNL A   1      37.207  29.439  28.226  1.00  0.00    -0.376 OA
BRANCH  30  31
ATOM     31  C   UNL A   1      36.260  30.358  27.699  1.00  0.00     0.202 C 
BRANCH  31  32
ATOM     32  C   UNL A   1      36.277  31.853  28.054  1.00  0.00     0.261 C 
BRANCH  32  33
ATOM     33  O   UNL A   1      36.570  32.096  29.420  1.00  0.00    -0.460 OA
BRANCH  33  34
ATOM     34  C   UNL A   1      35.550  32.671  30.090  1.00  0.00     0.338 C 
ATOM     35  O   UNL A   1      34.950  33.679  29.749  1.00  0.00    -0.246 OA
BRANCH  34  36
ATOM     36  C   UNL A   1      35.225  31.867  31.318  1.00  0.00     0.060 A 
ATOM     37  C   UNL A   1      34.972  32.728  32.387  1.00  0.00     0.016 A 
ATOM     38  C   UNL A   1      36.131  30.817  31.459  1.00  0.00     0.016 A 
ATOM     39  C   UNL A   1      36.056  33.010  33.179  1.00  0.00     0.010 A 
ATOM     40  C   UNL A   1      37.237  31.094  32.221  1.00  0.00     0.010 A 
ATOM     41  C   UNL A   1      37.226  32.273  32.963  1.00  0.00    -0.014 A 
BRANCH  41  42
ATOM     42  C   UNL A   1      38.423  32.733  33.618  1.00  0.00     0.031 A 
ATOM     43  C   UNL A   1      39.401  33.226  32.637  1.00  0.00     0.074 A 
ATOM     44  C   UNL A   1      38.577  32.741  34.952  1.00  0.00     0.049 A 
ATOM     45  N   UNL A   1      40.434  32.599  32.184  1.00  0.00    -0.248 NA
ATOM     46  C   UNL A   1      39.023  34.424  31.872  1.00  0.00     0.031 C 
ATOM     47  C   UNL A   1      37.572  32.551  36.001  1.00  0.00     0.029 A 
ATOM     48  N   UNL A   1      39.700  33.024  35.657  1.00  0.00    -0.354 N 
ATOM     49  C   UNL A   1      40.970  33.453  31.233  1.00  0.00     0.074 A 
ATOM     50  C   UNL A   1      39.929  34.390  30.898  1.00  0.00     0.031 C 
ATOM     51  C   UNL A   1      38.085  32.968  37.184  1.00  0.00     0.029 A 
ATOM     52  C   UNL A   1      39.485  33.313  36.996  1.00  0.00     0.049 A 
ATOM     53  H   UNL A   1      40.597  33.024  35.252  1.00  0.00     0.167 HD
ATOM     54  C   UNL A   1      42.313  33.526  31.026  1.00  0.00     0.034 A 
ATOM     55  C   UNL A   1      40.388  33.897  37.825  1.00  0.00     0.034 A 
ATOM     56  C   UNL A   1      42.994  32.405  31.615  1.00  0.00     0.049 A 
ATOM     57  C   UNL A   1      41.729  33.756  37.199  1.00  0.00     0.074 A 
ATOM     58  C   UNL A   1      42.963  31.039  31.418  1.00  0.00     0.029 A 
ATOM     59  N   UNL A   1      43.564  32.604  32.851  1.00  0.00    -0.354 N 
ATOM     60  N   UNL A   1      42.357  32.620  37.068  1.00  0.00    -0.248 NA
ATOM     61  C   UNL A   1      42.165  34.815  36.298  1.00  0.00     0.031 C 
ATOM     62  C   UNL A   1      43.117  30.471  32.713  1.00  0.00     0.029 A 
ATOM     63  C   UNL A   1      43.291  31.510  33.630  1.00  0.00     0.049 A 
ATOM     64  H   UNL A   1      44.079  33.395  33.129  1.00  0.00     0.167 HD
ATOM     65  C   UNL A   1      42.931  32.681  35.806  1.00  0.00     0.074 A 
ATOM     66  C   UNL A   1      42.857  34.087  35.417  1.00  0.00     0.031 C 
ATOM     67  C   UNL A   1      43.140  31.550  35.071  1.00  0.00     0.034 A 
BRANCH  54  68
ATOM     68  C   UNL A   1      43.006  34.811  30.659  1.00  0.00     0.023 A 
ATOM     69  C   UNL A   1      43.398  35.767  31.618  1.00  0.00     0.031 A 
ATOM     70  C   UNL A   1      43.495  35.012  29.358  1.00  0.00     0.131 A 
ATOM     71  C   UNL A   1      44.188  36.869  31.289  1.00  0.00     0.055 A 
ATOM     72  C   UNL A   1      44.351  36.073  29.040  1.00  0.00     0.041 A 
ATOM     73  F   UNL A   1      43.206  34.148  28.372  1.00  0.00    -0.206 F 
ATOM     74  C   UNL A   1      44.698  37.013  30.006  1.00  0.00     0.022 A 
BRANCH  71  75
ATOM     75  S   UNL A   1      44.576  38.114  32.549  1.00  0.00     0.124 S 
ATOM     76  O   UNL A   1      44.495  37.333  33.779  1.00  0.00    -0.237 OA
ATOM     77  O   UNL A   1      45.916  38.533  32.147  1.00  0.00    -0.237 OA
ATOM     78  O   UNL A   1      43.536  39.124  32.368  1.00  0.00    -0.744 OA
ENDBRANCH  71  75
ENDBRANCH  54  68
BRANCH  55  79
ATOM     79  C   UNL A   1      40.109  34.978  38.804  1.00  0.00     0.023 A 
ATOM     80  C   UNL A   1      39.961  34.673  40.170  1.00  0.00     0.031 A 
ATOM     81  C   UNL A   1      39.667  36.243  38.376  1.00  0.00     0.131 A 
ATOM     82  C   UNL A   1      39.334  35.576  41.040  1.00  0.00     0.055 A 
ATOM     83  C   UNL A   1      39.054  37.150  39.249  1.00  0.00     0.041 A 
ATOM     84  F   UNL A   1      39.752  36.591  37.082  1.00  0.00    -0.206 F 
ATOM     85  C   UNL A   1      38.870  36.812  40.586  1.00  0.00     0.022 A 
BRANCH  82  86
ATOM     86  S   UNL A   1      39.050  35.122  42.773  1.00  0.00     0.124 S 
ATOM     87  O   UNL A   1      39.956  36.021  43.486  1.00  0.00    -0.237 OA
ATOM     88  O   UNL A   1      37.629  35.409  42.928  1.00  0.00    -0.237 OA
ATOM     89  O   UNL A   1      39.424  33.710  42.820  1.00  0.00    -0.744 OA
ENDBRANCH  82  86
ENDBRANCH  55  79
BRANCH  67  90
ATOM     90  C   UNL A   1      42.978  30.211  35.749  1.00  0.00     0.023 A 
ATOM     91  C   UNL A   1      44.153  29.574  36.177  1.00  0.00     0.031 A 
ATOM     92  C   UNL A   1      41.785  29.464  35.762  1.00  0.00     0.131 A 
ATOM     93  C   UNL A   1      44.130  28.227  36.549  1.00  0.00     0.055 A 
ATOM     94  C   UNL A   1      41.754  28.134  36.196  1.00  0.00     0.041 A 
ATOM     95  F   UNL A   1      40.642  29.967  35.277  1.00  0.00    -0.206 F 
ATOM     96  C   UNL A   1      42.935  27.503  36.574  1.00  0.00     0.022 A 
BRANCH  93  97
ATOM     97  S   UNL A   1      45.681  27.351  36.870  1.00  0.00     0.124 S 
ATOM     98  O   UNL A   1      46.164  27.071  35.521  1.00  0.00    -0.237 OA
ATOM     99  O   UNL A   1      46.449  28.346  37.617  1.00  0.00    -0.237 OA
ATOM    100  O   UNL A   1      45.275  26.179  37.640  1.00  0.00    -0.744 OA
ENDBRANCH  93  97
ENDBRANCH  67  90
ENDBRANCH  41  42
ENDBRANCH  34  36
ENDBRANCH  33  34
ENDBRANCH  32  33
ENDBRANCH  31  32
ENDBRANCH  30  31
ENDBRANCH  29  30
ENDBRANCH  28  29
ENDBRANCH   1  28
TORSDOF 26
ENDMDL
MODEL 3
REMARK VINA RESULT:      -9.1      4.328     10.136
REMARK SMILES Cc1ccc(-c2cc3cccnc3n2CCC(=O)OCCOCCOCCOCCOC(=O)c2ccc(-c3c4nc(c(-c5cc(S(=O)(=O)[O-])ccc5F)c5ccc([nH]5)c(-c5cc(S(=O)(=O)[O-])ccc5F)c5nc(c(-c6cc(S(=O)(=O)[O-])ccc6F)c6ccc3[nH]6)C=C5)C=C4)cc2)cn1
REMARK SMILES IDX 25 1 24 2 23 3 22 4 21 5 20 6 19 7 17 8 18 9 16 10 15 11
REMARK SMILES IDX 14 12 6 13 7 14 8 15 13 16 9 17 12 18 10 19 11 20 5 21 1 22
REMARK SMILES IDX 2 23 3 24 98 25 4 26 97 27 26 28 27 29 28 30 29 31 30 32
REMARK SMILES IDX 31 33 32 34 33 35 34 36 35 37 96 38 36 39 95 40 37 41 38 42
REMARK SMILES IDX 39 43 89 44 40 45 94 46 88 47 90 48 41 49 93 50 87 51 86 52
REMARK SMILES IDX 42 54 74 55 54 56 73 57 55 58 58 59 72 60 91 61 56 62 57 63
REMARK SMILES IDX 71 65 92 66 59 67 43 68 44 69 52 70 45 71 51 72 53 73 50 74
REMARK SMILES IDX 46 75 47 76 48 77 49 78 75 79 76 80 84 81 77 82 83 83 85 84
REMARK SMILES IDX 82 85 78 86 79 87 80 88 81 89 60 90 61 91 69 92 62 93 68 94
REMARK SMILES IDX 70 95 67 96 63 97 64 98 65 99 66 100
REMARK H PARENT 90 53 58 64
REMARK Flexibility Score: inf
ROOT
ATOM      1  O   UNL A   1      40.693  28.148  28.046  1.00  0.00    -0.377 OA
ENDROOT
BRANCH   1   2
ATOM      2  C   UNL A   1      40.867  26.785  27.696  1.00  0.00     0.188 C 
BRANCH   2   3
ATOM      3  C   UNL A   1      39.657  25.874  27.901  1.00  0.00     0.188 C 
BRANCH   3   4
ATOM      4  O   UNL A   1      39.419  25.021  26.626  1.00  0.00    -0.376 OA
BRANCH   4   5
ATOM      5  C   UNL A   1      38.186  23.841  25.592  1.00  0.00     0.202 C 
BRANCH   5   6
ATOM      6  C   UNL A   1      37.313  22.384  26.031  1.00  0.00     0.261 C 
BRANCH   6   7
ATOM      7  O   UNL A   1      35.972  22.077  25.542  1.00  0.00    -0.463 OA
BRANCH   7   8
ATOM      8  C   UNL A   1      34.922  22.824  25.961  1.00  0.00     0.307 C 
ATOM      9  O   UNL A   1      34.785  24.014  25.689  1.00  0.00    -0.252 OA
BRANCH   8  10
ATOM     10  C   UNL A   1      33.826  22.043  26.704  1.00  0.00     0.144 C 
BRANCH  10  11
ATOM     11  C   UNL A   1      32.428  21.828  26.103  1.00  0.00     0.136 C 
BRANCH  11  12
ATOM     12  N   UNL A   1      32.378  21.142  24.836  1.00  0.00    -0.325 N 
ATOM     13  C   UNL A   1      32.242  21.751  23.609  1.00  0.00     0.052 A 
ATOM     14  C   UNL A   1      32.388  20.748  22.659  1.00  0.00     0.039 A 
ATOM     15  C   UNL A   1      32.479  19.508  23.318  1.00  0.00     0.020 A 
ATOM     16  C   UNL A   1      32.419  19.774  24.681  1.00  0.00     0.140 A 
ATOM     17  C   UNL A   1      32.598  18.177  22.896  1.00  0.00     0.013 A 
ATOM     18  N   UNL A   1      32.422  18.858  25.673  1.00  0.00    -0.238 NA
ATOM     19  C   UNL A   1      32.577  17.195  23.879  1.00  0.00     0.021 A 
ATOM     20  C   UNL A   1      32.467  17.583  25.209  1.00  0.00     0.113 A 
BRANCH  13  21
ATOM     21  C   UNL A   1      32.119  23.187  23.328  1.00  0.00     0.017 A 
ATOM     22  C   UNL A   1      31.022  28.054  22.954  1.00  0.00     0.066 C 
ATOM     23  C   UNL A   1      31.288  26.600  22.717  1.00  0.00     0.037 A 
ATOM     24  C   UNL A   1      32.916  26.039  22.215  1.00  0.00     0.024 A 
ATOM     25  N   UNL A   1      30.106  25.535  23.420  1.00  0.00    -0.261 NA
ATOM     26  C   UNL A   1      33.349  24.299  22.522  1.00  0.00     0.014 A 
ATOM     27  C   UNL A   1      30.529  23.875  23.752  1.00  0.00     0.121 A 
ENDBRANCH  13  21
ENDBRANCH  11  12
ENDBRANCH  10  11
ENDBRANCH   8  10
ENDBRANCH   7   8
ENDBRANCH   6   7
ENDBRANCH   5   6
ENDBRANCH   4   5
ENDBRANCH   3   4
ENDBRANCH   2   3
ENDBRANCH   1   2
BRANCH   1  28
ATOM     28  C   UNL A   1      39.682  28.907  27.407  1.00  0.00     0.188 C 
BRANCH  28  29
ATOM     29  C   UNL A   1      38.675  29.637  28.299  1.00  0.00     0.188 C 
BRANCH  29  30
ATOM     30  O   UNL A   1      37.333  29.188  28.436  1.00  0.00    -0.376 OA
BRANCH  30  31
ATOM     31  C   UNL A   1      36.237  29.882  27.854  1.00  0.00     0.202 C 
BRANCH  31  32
ATOM     32  C   UNL A   1      36.190  31.414  27.761  1.00  0.00     0.261 C 
BRANCH  32  33
ATOM     33  O   UNL A   1      36.287  32.051  29.025  1.00  0.00    -0.460 OA
BRANCH  33  34
ATOM     34  C   UNL A   1      35.167  32.716  29.376  1.00  0.00     0.338 C 
ATOM     35  O   UNL A   1      34.571  33.526  28.682  1.00  0.00    -0.246 OA
BRANCH  34  36
ATOM     36  C   UNL A   1      34.726  32.289  30.747  1.00  0.00     0.060 A 
ATOM     37  C   UNL A   1      34.652  33.406  31.582  1.00  0.00     0.016 A 
ATOM     38  C   UNL A   1      35.431  31.156  31.149  1.00  0.00     0.016 A 
ATOM     39  C   UNL A   1      35.783  33.664  32.313  1.00  0.00     0.010 A 
ATOM     40  C   UNL A   1      36.582  31.398  31.852  1.00  0.00     0.010 A 
ATOM     41  C   UNL A   1      36.797  32.700  32.301  1.00  0.00    -0.014 A 
BRANCH  41  42
ATOM     42  C   UNL A   1      38.069  33.077  32.860  1.00  0.00     0.031 A 
ATOM     43  C   UNL A   1      38.947  33.647  31.828  1.00  0.00     0.074 A 
ATOM     44  C   UNL A   1      38.368  32.955  34.164  1.00  0.00     0.049 A 
ATOM     45  N   UNL A   1      39.909  33.051  31.207  1.00  0.00    -0.248 NA
ATOM     46  C   UNL A   1      38.520  34.919  31.225  1.00  0.00     0.031 C 
ATOM     47  C   UNL A   1      37.478  32.679  35.295  1.00  0.00     0.029 A 
ATOM     48  N   UNL A   1      39.567  33.152  34.764  1.00  0.00    -0.354 N 
ATOM     49  C   UNL A   1      40.361  33.985  30.286  1.00  0.00     0.074 A 
ATOM     50  C   UNL A   1      39.313  34.965  30.158  1.00  0.00     0.031 C 
ATOM     51  C   UNL A   1      38.127  32.973  36.448  1.00  0.00     0.029 A 
ATOM     52  C   UNL A   1      39.506  33.314  36.140  1.00  0.00     0.049 A 
ATOM     53  H   UNL A   1      40.414  33.177  34.264  1.00  0.00     0.167 HD
ATOM     54  C   UNL A   1      41.675  34.057  29.940  1.00  0.00     0.034 A 
ATOM     55  C   UNL A   1      40.508  33.802  36.915  1.00  0.00     0.034 A 
ATOM     56  C   UNL A   1      42.387  32.874  30.343  1.00  0.00     0.049 A 
ATOM     57  C   UNL A   1      41.770  33.702  36.134  1.00  0.00     0.074 A 
ATOM     58  C   UNL A   1      42.300  31.534  30.023  1.00  0.00     0.029 A 
ATOM     59  N   UNL A   1      43.092  32.945  31.522  1.00  0.00    -0.354 N 
ATOM     60  N   UNL A   1      42.350  32.574  35.829  1.00  0.00    -0.248 NA
ATOM     61  C   UNL A   1      42.132  34.836  35.294  1.00  0.00     0.031 C 
ATOM     62  C   UNL A   1      42.579  30.842  31.235  1.00  0.00     0.029 A 
ATOM     63  C   UNL A   1      42.878  31.786  32.220  1.00  0.00     0.049 A 
ATOM     64  H   UNL A   1      43.655  33.698  31.814  1.00  0.00     0.167 HD
ATOM     65  C   UNL A   1      42.786  32.748  34.522  1.00  0.00     0.074 A 
ATOM     66  C   UNL A   1      42.706  34.186  34.278  1.00  0.00     0.031 C 
ATOM     67  C   UNL A   1      42.885  31.689  33.666  1.00  0.00     0.034 A 
BRANCH  54  68
ATOM     68  C   UNL A   1      42.356  35.361  29.621  1.00  0.00     0.023 A 
ATOM     69  C   UNL A   1      43.304  35.955  30.477  1.00  0.00     0.031 A 
ATOM     70  C   UNL A   1      42.242  35.932  28.344  1.00  0.00     0.131 A 
ATOM     71  C   UNL A   1      44.054  37.069  30.098  1.00  0.00     0.055 A 
ATOM     72  C   UNL A   1      43.045  37.001  27.931  1.00  0.00     0.041 A 
ATOM     73  F   UNL A   1      41.388  35.429  27.438  1.00  0.00    -0.206 F 
ATOM     74  C   UNL A   1      43.954  37.580  28.811  1.00  0.00     0.022 A 
BRANCH  71  75
ATOM     75  S   UNL A   1      45.187  37.846  31.283  1.00  0.00     0.124 S 
ATOM     76  O   UNL A   1      44.545  39.136  31.510  1.00  0.00    -0.237 OA
ATOM     77  O   UNL A   1      45.137  36.904  32.398  1.00  0.00    -0.237 OA
ATOM     78  O   UNL A   1      46.459  37.886  30.567  1.00  0.00    -0.744 OA
ENDBRANCH  71  75
ENDBRANCH  54  68
BRANCH  55  79
ATOM     79  C   UNL A   1      40.365  34.788  38.016  1.00  0.00     0.023 A 
ATOM     80  C   UNL A   1      40.150  34.347  39.335  1.00  0.00     0.031 A 
ATOM     81  C   UNL A   1      40.112  36.144  37.742  1.00  0.00     0.131 A 
ATOM     82  C   UNL A   1      39.640  35.221  40.306  1.00  0.00     0.055 A 
ATOM     83  C   UNL A   1      39.616  37.019  38.716  1.00  0.00     0.041 A 
ATOM     84  F   UNL A   1      40.269  36.628  36.499  1.00  0.00    -0.206 F 
ATOM     85  C   UNL A   1      39.361  36.555  40.002  1.00  0.00     0.022 A 
BRANCH  82  86
ATOM     86  S   UNL A   1      39.263  34.609  41.971  1.00  0.00     0.124 S 
ATOM     87  O   UNL A   1      38.534  35.731  42.561  1.00  0.00    -0.237 OA
ATOM     88  O   UNL A   1      38.464  33.424  41.681  1.00  0.00    -0.237 OA
ATOM     89  O   UNL A   1      40.582  34.364  42.550  1.00  0.00    -0.744 OA
ENDBRANCH  82  86
ENDBRANCH  55  79
BRANCH  67  90
ATOM     90  C   UNL A   1      42.763  30.294  34.229  1.00  0.00     0.023 A 
ATOM     91  C   UNL A   1      43.957  29.573  34.393  1.00  0.00     0.031 A 
ATOM     92  C   UNL A   1      41.551  29.594  34.368  1.00  0.00     0.131 A 
ATOM     93  C   UNL A   1      43.923  28.196  34.632  1.00  0.00     0.055 A 
ATOM     94  C   UNL A   1      41.519  28.228  34.671  1.00  0.00     0.041 A 
ATOM     95  F   UNL A   1      40.372  30.186  34.130  1.00  0.00    -0.206 F 
ATOM     96  C   UNL A   1      42.710  27.518  34.785  1.00  0.00     0.022 A 
BRANCH  93  97
ATOM     97  S   UNL A   1      45.456  27.236  34.605  1.00  0.00     0.124 S 
ATOM     98  O   UNL A   1      45.460  26.694  33.249  1.00  0.00    -0.237 OA
ATOM     99  O   UNL A   1      46.466  28.258  34.874  1.00  0.00    -0.237 OA
ATOM    100  O   UNL A   1      45.277  26.250  35.668  1.00  0.00    -0.744 OA
ENDBRANCH  93  97
ENDBRANCH  67  90
ENDBRANCH  41  42
ENDBRANCH  34  36
ENDBRANCH  33  34
ENDBRANCH  32  33
ENDBRANCH  31  32
ENDBRANCH  30  31
ENDBRANCH  29  30
ENDBRANCH  28  29
ENDBRANCH   1  28
TORSDOF 26
ENDMDL
