MODEL 1
REMARK VINA RESULT:      -9.7      0.000      0.000
REMARK SMILES O=C(OCCOCCOCCOCCOC(=O)[C@H]1CN(S(=O)(=O)c2ccc(Cl)nc2)c2ccccc21)c1ccc(-c2c3nc(c(-c4cc(S(=O)(=O)[O-])ccc4F)c4ccc([nH]4)c(-c4cc(S(=O)(=O)[O-])ccc4F)c4nc(c(-c5cc(S(=O)(=O)[O-])ccc5F)c5ccc2[nH]5)C=C4)C=C3)cc1
REMARK SMILES IDX 8 1 7 2 6 3 5 4 4 5 3 6 2 7 1 8 37 9 38 10 99 11 39 12 98 13
REMARK SMILES IDX 40 14 41 15 42 16 92 17 43 18 97 19 91 20 93 21 44 22 96 23
REMARK SMILES IDX 90 24 89 25 45 27 77 28 57 29 76 30 58 31 61 32 75 33 94 34
REMARK SMILES IDX 59 35 60 36 74 38 95 39 62 40 46 41 47 42 55 43 48 44 54 45
REMARK SMILES IDX 56 46 53 47 49 48 50 49 51 50 52 51 78 52 79 53 87 54 80 55
REMARK SMILES IDX 86 56 88 57 85 58 81 59 82 60 83 61 84 62 63 63 64 64 72 65
REMARK SMILES IDX 65 66 71 67 73 68 70 69 66 70 67 71 68 72 69 73 9 74 10 75
REMARK SMILES IDX 11 76 12 77 13 78 14 79 15 80 16 81 17 82 18 83 19 84 36 85
REMARK SMILES IDX 20 86 31 87 35 88 32 89 34 90 33 91 21 92 22 93 23 94 24 95
REMARK SMILES IDX 25 96 30 97 26 98 29 99 27 100 28 101
REMARK H PARENT 93 26 61 37
REMARK Flexibility Score: inf
ROOT
ATOM      1  C   UNL A   1      39.316  21.989  26.323  1.00  0.00     0.188 C 
ENDROOT
BRANCH   1   2
ATOM      2  C   UNL A   1      39.575  20.513  26.046  1.00  0.00     0.188 C 
BRANCH   2   3
ATOM      3  O   UNL A   1      40.720  20.132  26.806  1.00  0.00    -0.376 OA
BRANCH   3   4
ATOM      4  C   UNL A   1      41.965  20.134  26.117  1.00  0.00     0.202 C 
BRANCH   4   5
ATOM      5  C   UNL A   1      42.667  18.777  26.104  1.00  0.00     0.261 C 
BRANCH   5   6
ATOM      6  O   UNL A   1      43.942  18.838  25.450  1.00  0.00    -0.460 OA
BRANCH   6   7
ATOM      7  C   UNL A   1      44.389  19.798  24.600  1.00  0.00     0.338 C 
ATOM      8  O   UNL A   1      44.521  19.498  23.413  1.00  0.00    -0.246 OA
BRANCH   7   9
ATOM      9  C   UNL A   1      44.734  21.200  25.003  1.00  0.00     0.060 A 
ATOM     10  C   UNL A   1      45.332  21.582  26.205  1.00  0.00     0.016 A 
ATOM     11  C   UNL A   1      44.501  22.204  24.048  1.00  0.00     0.016 A 
ATOM     12  C   UNL A   1      45.656  22.901  26.481  1.00  0.00     0.010 A 
ATOM     13  C   UNL A   1      44.829  23.539  24.309  1.00  0.00     0.010 A 
ATOM     14  C   UNL A   1      45.391  23.887  25.542  1.00  0.00    -0.014 A 
BRANCH  14  15
ATOM     15  C   UNL A   1      45.525  25.287  25.976  1.00  0.00     0.031 A 
ATOM     16  C   UNL A   1      46.862  25.935  25.788  1.00  0.00     0.074 A 
ATOM     17  C   UNL A   1      44.442  25.982  26.368  1.00  0.00     0.049 A 
ATOM     18  N   UNL A   1      47.286  27.098  26.191  1.00  0.00    -0.248 NA
ATOM     19  C   UNL A   1      47.859  25.159  25.027  1.00  0.00     0.031 C 
ATOM     20  C   UNL A   1      43.071  25.465  26.393  1.00  0.00     0.029 A 
ATOM     21  N   UNL A   1      44.315  27.278  26.789  1.00  0.00    -0.354 N 
ATOM     22  C   UNL A   1      48.612  27.174  25.778  1.00  0.00     0.074 A 
ATOM     23  C   UNL A   1      48.921  25.946  25.084  1.00  0.00     0.031 C 
ATOM     24  C   UNL A   1      42.242  26.440  26.799  1.00  0.00     0.029 A 
ATOM     25  C   UNL A   1      43.030  27.613  27.154  1.00  0.00     0.049 A 
ATOM     26  H   UNL A   1      45.068  27.910  26.828  1.00  0.00     0.167 HD
ATOM     27  C   UNL A   1      49.487  28.184  25.990  1.00  0.00     0.034 A 
ATOM     28  C   UNL A   1      42.573  28.725  27.762  1.00  0.00     0.034 A 
ATOM     29  C   UNL A   1      49.117  29.386  26.689  1.00  0.00     0.049 A 
ATOM     30  C   UNL A   1      43.594  29.790  28.094  1.00  0.00     0.074 A 
ATOM     31  C   UNL A   1      49.906  30.455  27.061  1.00  0.00     0.029 A 
ATOM     32  N   UNL A   1      47.824  29.670  27.122  1.00  0.00    -0.354 N 
ATOM     33  N   UNL A   1      44.880  29.816  27.812  1.00  0.00    -0.248 NA
ATOM     34  C   UNL A   1      43.117  30.959  28.837  1.00  0.00     0.031 C 
ATOM     35  C   UNL A   1      49.104  31.356  27.773  1.00  0.00     0.029 A 
ATOM     36  C   UNL A   1      47.798  30.886  27.780  1.00  0.00     0.049 A 
ATOM     37  H   UNL A   1      47.042  29.090  26.981  1.00  0.00     0.167 HD
ATOM     38  C   UNL A   1      45.360  31.013  28.330  1.00  0.00     0.074 A 
ATOM     39  C   UNL A   1      44.218  31.692  28.914  1.00  0.00     0.031 C 
ATOM     40  C   UNL A   1      46.623  31.514  28.340  1.00  0.00     0.034 A 
BRANCH  27  41
ATOM     41  C   UNL A   1      50.917  27.951  25.574  1.00  0.00     0.023 A 
ATOM     42  C   UNL A   1      51.347  28.082  24.242  1.00  0.00     0.031 A 
ATOM     43  C   UNL A   1      51.850  27.497  26.525  1.00  0.00     0.131 A 
ATOM     44  C   UNL A   1      52.650  27.697  23.888  1.00  0.00     0.055 A 
ATOM     45  C   UNL A   1      53.165  27.185  26.180  1.00  0.00     0.041 A 
ATOM     46  F   UNL A   1      51.486  27.315  27.805  1.00  0.00    -0.206 F 
ATOM     47  C   UNL A   1      53.569  27.272  24.851  1.00  0.00     0.022 A 
BRANCH  44  48
ATOM     48  S   UNL A   1      53.095  27.626  22.129  1.00  0.00     0.124 S 
ATOM     49  O   UNL A   1      51.781  27.521  21.498  1.00  0.00    -0.237 OA
ATOM     50  O   UNL A   1      53.800  28.886  21.928  1.00  0.00    -0.237 OA
ATOM     51  O   UNL A   1      53.924  26.426  22.031  1.00  0.00    -0.744 OA
ENDBRANCH  44  48
ENDBRANCH  27  41
BRANCH  28  52
ATOM     52  C   UNL A   1      41.146  28.850  28.193  1.00  0.00     0.023 A 
ATOM     53  C   UNL A   1      40.754  28.613  29.521  1.00  0.00     0.031 A 
ATOM     54  C   UNL A   1      40.129  29.128  27.257  1.00  0.00     0.131 A 
ATOM     55  C   UNL A   1      39.390  28.603  29.862  1.00  0.00     0.055 A 
ATOM     56  C   UNL A   1      38.780  29.184  27.615  1.00  0.00     0.041 A 
ATOM     57  F   UNL A   1      40.430  29.346  25.966  1.00  0.00    -0.206 F 
ATOM     58  C   UNL A   1      38.402  28.901  28.921  1.00  0.00     0.022 A 
BRANCH  55  59
ATOM     59  S   UNL A   1      38.911  28.060  31.528  1.00  0.00     0.124 S 
ATOM     60  O   UNL A   1      37.859  29.013  31.860  1.00  0.00    -0.237 OA
ATOM     61  O   UNL A   1      38.481  26.687  31.286  1.00  0.00    -0.237 OA
ATOM     62  O   UNL A   1      40.146  28.199  32.298  1.00  0.00    -0.744 OA
ENDBRANCH  55  59
ENDBRANCH  28  52
BRANCH  40  63
ATOM     63  C   UNL A   1      46.800  32.871  28.964  1.00  0.00     0.023 A 
ATOM     64  C   UNL A   1      46.639  34.047  28.214  1.00  0.00     0.031 A 
ATOM     65  C   UNL A   1      47.135  32.981  30.323  1.00  0.00     0.131 A 
ATOM     66  C   UNL A   1      46.868  35.289  28.819  1.00  0.00     0.055 A 
ATOM     67  C   UNL A   1      47.298  34.222  30.935  1.00  0.00     0.041 A 
ATOM     68  F   UNL A   1      47.298  31.883  31.079  1.00  0.00    -0.206 F 
ATOM     69  C   UNL A   1      47.178  35.385  30.178  1.00  0.00     0.022 A 
BRANCH  66  70
ATOM     70  S   UNL A   1      46.847  36.774  27.780  1.00  0.00     0.124 S 
ATOM     71  O   UNL A   1      45.529  37.327  28.068  1.00  0.00    -0.237 OA
ATOM     72  O   UNL A   1      47.983  37.532  28.295  1.00  0.00    -0.237 OA
ATOM     73  O   UNL A   1      47.018  36.246  26.426  1.00  0.00    -0.744 OA
ENDBRANCH  66  70
ENDBRANCH  40  63
ENDBRANCH  14  15
ENDBRANCH   7   9
ENDBRANCH   6   7
ENDBRANCH   5   6
ENDBRANCH   4   5
ENDBRANCH   3   4
ENDBRANCH   2   3
ENDBRANCH   1   2
BRANCH   1  74
ATOM     74  O   UNL A   1      38.331  22.546  25.463  1.00  0.00    -0.377 OA
BRANCH  74  75
ATOM     75  C   UNL A   1      37.612  23.653  25.982  1.00  0.00     0.188 C 
BRANCH  75  76
ATOM     76  C   UNL A   1      36.274  24.075  25.342  1.00  0.00     0.188 C 
BRANCH  76  77
ATOM     77  O   UNL A   1      35.089  23.335  25.574  1.00  0.00    -0.376 OA
BRANCH  77  78
ATOM     78  C   UNL A   1      35.079  22.330  26.570  1.00  0.00     0.202 C 
BRANCH  78  79
ATOM     79  C   UNL A   1      33.931  21.306  26.584  1.00  0.00     0.261 C 
BRANCH  79  80
ATOM     80  O   UNL A   1      32.709  21.743  25.944  1.00  0.00    -0.463 OA
BRANCH  80  81
ATOM     81  C   UNL A   1      31.987  22.705  26.566  1.00  0.00     0.315 C 
ATOM     82  O   UNL A   1      31.806  22.737  27.780  1.00  0.00    -0.251 OA
BRANCH  81  83
ATOM     83  C   UNL A   1      31.449  23.818  25.684  1.00  0.00     0.152 C 
ATOM     84  C   UNL A   1      31.258  25.077  26.552  1.00  0.00     0.156 C 
ATOM     85  C   UNL A   1      32.190  24.366  24.492  1.00  0.00    -0.008 A 
ATOM     86  N   UNL A   1      32.116  26.182  25.947  1.00  0.00    -0.265 N 
ATOM     87  C   UNL A   1      32.457  25.739  24.629  1.00  0.00     0.056 A 
ATOM     88  C   UNL A   1      32.584  23.676  23.349  1.00  0.00     0.007 A 
ATOM     89  C   UNL A   1      33.219  26.396  23.675  1.00  0.00     0.027 A 
ATOM     90  C   UNL A   1      33.285  24.364  22.354  1.00  0.00     0.000 A 
ATOM     91  C   UNL A   1      33.606  25.714  22.518  1.00  0.00     0.002 A 
BRANCH  86  92
ATOM     92  S   UNL A   1      31.510  27.725  26.336  1.00  0.00     0.265 S 
ATOM     93  O   UNL A   1      30.960  28.301  25.126  1.00  0.00    -0.201 OA
ATOM     94  O   UNL A   1      30.671  27.549  27.505  1.00  0.00    -0.201 OA
BRANCH  92  95
ATOM     95  C   UNL A   1      32.838  28.771  26.823  1.00  0.00     0.106 A 
ATOM     96  C   UNL A   1      34.160  28.343  26.670  1.00  0.00     0.027 A 
ATOM     97  C   UNL A   1      32.606  30.072  27.230  1.00  0.00     0.135 A 
ATOM     98  C   UNL A   1      35.198  29.207  27.007  1.00  0.00     0.042 A 
ATOM     99  N   UNL A   1      33.597  30.921  27.603  1.00  0.00    -0.243 NA
ATOM    100  C   UNL A   1      34.865  30.468  27.472  1.00  0.00     0.129 A 
ATOM    101  Cl  UNL A   1      36.087  31.574  27.942  1.00  0.00    -0.062 Cl
ENDBRANCH  92  95
ENDBRANCH  86  92
ENDBRANCH  81  83
ENDBRANCH  80  81
ENDBRANCH  79  80
ENDBRANCH  78  79
ENDBRANCH  77  78
ENDBRANCH  76  77
ENDBRANCH  75  76
ENDBRANCH  74  75
ENDBRANCH   1  74
TORSDOF 25
ENDMDL
MODEL 2
REMARK VINA RESULT:      -9.7      1.890      7.749
REMARK SMILES O=C(OCCOCCOCCOCCOC(=O)[C@H]1CN(S(=O)(=O)c2ccc(Cl)nc2)c2ccccc21)c1ccc(-c2c3nc(c(-c4cc(S(=O)(=O)[O-])ccc4F)c4ccc([nH]4)c(-c4cc(S(=O)(=O)[O-])ccc4F)c4nc(c(-c5cc(S(=O)(=O)[O-])ccc5F)c5ccc2[nH]5)C=C4)C=C3)cc1
REMARK SMILES IDX 8 1 7 2 6 3 5 4 4 5 3 6 2 7 1 8 37 9 38 10 99 11 39 12 98 13
REMARK SMILES IDX 40 14 41 15 42 16 92 17 43 18 97 19 91 20 93 21 44 22 96 23
REMARK SMILES IDX 90 24 89 25 45 27 77 28 57 29 76 30 58 31 61 32 75 33 94 34
REMARK SMILES IDX 59 35 60 36 74 38 95 39 62 40 46 41 47 42 55 43 48 44 54 45
REMARK SMILES IDX 56 46 53 47 49 48 50 49 51 50 52 51 78 52 79 53 87 54 80 55
REMARK SMILES IDX 86 56 88 57 85 58 81 59 82 60 83 61 84 62 63 63 64 64 72 65
REMARK SMILES IDX 65 66 71 67 73 68 70 69 66 70 67 71 68 72 69 73 9 74 10 75
REMARK SMILES IDX 11 76 12 77 13 78 14 79 15 80 16 81 17 82 18 83 19 84 36 85
REMARK SMILES IDX 20 86 31 87 35 88 32 89 34 90 33 91 21 92 22 93 23 94 24 95
REMARK SMILES IDX 25 96 30 97 26 98 29 99 27 100 28 101
REMARK H PARENT 93 26 61 37
REMARK Flexibility Score: inf
ROOT
ATOM      1  C   UNL A   1      38.619  21.180  25.734  1.00  0.00     0.188 C 
ENDROOT
BRANCH   1   2
ATOM      2  C   UNL A   1      39.494  19.931  25.747  1.00  0.00     0.188 C 
BRANCH   2   3
ATOM      3  O   UNL A   1      40.530  20.148  26.702  1.00  0.00    -0.376 OA
BRANCH   3   4
ATOM      4  C   UNL A   1      41.821  20.439  26.179  1.00  0.00     0.202 C 
BRANCH   4   5
ATOM      5  C   UNL A   1      42.676  19.200  25.919  1.00  0.00     0.261 C 
BRANCH   5   6
ATOM      6  O   UNL A   1      43.985  19.541  25.441  1.00  0.00    -0.460 OA
BRANCH   6   7
ATOM      7  C   UNL A   1      44.338  20.624  24.701  1.00  0.00     0.338 C 
ATOM      8  O   UNL A   1      44.586  20.447  23.508  1.00  0.00    -0.246 OA
BRANCH   7   9
ATOM      9  C   UNL A   1      44.447  22.021  25.234  1.00  0.00     0.060 A 
ATOM     10  C   UNL A   1      44.049  23.183  24.571  1.00  0.00     0.016 A 
ATOM     11  C   UNL A   1      44.923  22.156  26.550  1.00  0.00     0.016 A 
ATOM     12  C   UNL A   1      44.147  24.435  25.155  1.00  0.00     0.010 A 
ATOM     13  C   UNL A   1      45.021  23.414  27.155  1.00  0.00     0.010 A 
ATOM     14  C   UNL A   1      44.649  24.559  26.443  1.00  0.00    -0.014 A 
BRANCH  14  15
ATOM     15  C   UNL A   1      44.960  25.916  26.920  1.00  0.00     0.031 A 
ATOM     16  C   UNL A   1      43.854  26.675  27.586  1.00  0.00     0.074 A 
ATOM     17  C   UNL A   1      46.226  26.369  26.896  1.00  0.00     0.049 A 
ATOM     18  N   UNL A   1      43.818  27.915  27.981  1.00  0.00    -0.248 NA
ATOM     19  C   UNL A   1      42.616  25.920  27.852  1.00  0.00     0.031 C 
ATOM     20  C   UNL A   1      47.388  25.605  26.433  1.00  0.00     0.029 A 
ATOM     21  N   UNL A   1      46.756  27.566  27.295  1.00  0.00    -0.354 N 
ATOM     22  C   UNL A   1      42.540  28.105  28.495  1.00  0.00     0.074 A 
ATOM     23  C   UNL A   1      41.834  26.851  28.374  1.00  0.00     0.031 C 
ATOM     24  C   UNL A   1      48.494  26.351  26.586  1.00  0.00     0.029 A 
ATOM     25  C   UNL A   1      48.109  27.673  27.063  1.00  0.00     0.049 A 
ATOM     26  H   UNL A   1      46.222  28.282  27.709  1.00  0.00     0.167 HD
ATOM     27  C   UNL A   1      42.013  29.243  29.002  1.00  0.00     0.034 A 
ATOM     28  C   UNL A   1      48.916  28.747  27.171  1.00  0.00     0.034 A 
ATOM     29  C   UNL A   1      42.772  30.463  29.097  1.00  0.00     0.049 A 
ATOM     30  C   UNL A   1      48.276  30.038  27.628  1.00  0.00     0.074 A 
ATOM     31  C   UNL A   1      42.357  31.717  29.500  1.00  0.00     0.029 A 
ATOM     32  N   UNL A   1      44.123  30.569  28.779  1.00  0.00    -0.354 N 
ATOM     33  N   UNL A   1      47.032  30.255  28.003  1.00  0.00    -0.248 NA
ATOM     34  C   UNL A   1      49.130  31.229  27.658  1.00  0.00     0.031 C 
ATOM     35  C   UNL A   1      43.442  32.593  29.366  1.00  0.00     0.029 A 
ATOM     36  C   UNL A   1      44.553  31.872  28.953  1.00  0.00     0.049 A 
ATOM     37  H   UNL A   1      44.691  29.824  28.476  1.00  0.00     0.167 HD
ATOM     38  C   UNL A   1      46.962  31.605  28.331  1.00  0.00     0.074 A 
ATOM     39  C   UNL A   1      48.296  32.141  28.136  1.00  0.00     0.031 C 
ATOM     40  C   UNL A   1      45.902  32.346  28.744  1.00  0.00     0.034 A 
BRANCH  27  41
ATOM     41  C   UNL A   1      40.547  29.226  29.349  1.00  0.00     0.023 A 
ATOM     42  C   UNL A   1      40.087  29.142  30.675  1.00  0.00     0.031 A 
ATOM     43  C   UNL A   1      39.591  29.199  28.317  1.00  0.00     0.131 A 
ATOM     44  C   UNL A   1      38.717  28.967  30.929  1.00  0.00     0.055 A 
ATOM     45  C   UNL A   1      38.224  29.098  28.579  1.00  0.00     0.041 A 
ATOM     46  F   UNL A   1      39.973  29.236  27.031  1.00  0.00    -0.206 F 
ATOM     47  C   UNL A   1      37.780  28.967  29.892  1.00  0.00     0.022 A 
BRANCH  44  48
ATOM     48  S   UNL A   1      38.180  28.598  32.624  1.00  0.00     0.124 S 
ATOM     49  O   UNL A   1      39.271  29.171  33.409  1.00  0.00    -0.237 OA
ATOM     50  O   UNL A   1      36.900  29.292  32.710  1.00  0.00    -0.237 OA
ATOM     51  O   UNL A   1      38.101  27.139  32.651  1.00  0.00    -0.744 OA
ENDBRANCH  44  48
ENDBRANCH  27  41
BRANCH  28  52
ATOM     52  C   UNL A   1      50.350  28.692  26.749  1.00  0.00     0.023 A 
ATOM     53  C   UNL A   1      50.733  28.902  25.414  1.00  0.00     0.031 A 
ATOM     54  C   UNL A   1      51.362  28.342  27.665  1.00  0.00     0.131 A 
ATOM     55  C   UNL A   1      52.069  28.707  25.025  1.00  0.00     0.055 A 
ATOM     56  C   UNL A   1      52.701  28.216  27.287  1.00  0.00     0.041 A 
ATOM     57  F   UNL A   1      51.065  28.108  28.954  1.00  0.00    -0.206 F 
ATOM     58  C   UNL A   1      53.058  28.381  25.955  1.00  0.00     0.022 A 
BRANCH  55  59
ATOM     59  S   UNL A   1      52.480  28.755  23.256  1.00  0.00     0.124 S 
ATOM     60  O   UNL A   1      51.753  29.939  22.814  1.00  0.00    -0.237 OA
ATOM     61  O   UNL A   1      53.934  28.867  23.286  1.00  0.00    -0.237 OA
ATOM     62  O   UNL A   1      51.964  27.483  22.753  1.00  0.00    -0.744 OA
ENDBRANCH  55  59
ENDBRANCH  28  52
BRANCH  40  63
ATOM     63  C   UNL A   1      46.176  33.794  29.048  1.00  0.00     0.023 A 
ATOM     64  C   UNL A   1      46.121  34.775  28.045  1.00  0.00     0.031 A 
ATOM     65  C   UNL A   1      46.498  34.188  30.357  1.00  0.00     0.131 A 
ATOM     66  C   UNL A   1      46.441  36.102  28.358  1.00  0.00     0.055 A 
ATOM     67  C   UNL A   1      46.751  35.521  30.675  1.00  0.00     0.041 A 
ATOM     68  F   UNL A   1      46.561  33.284  31.348  1.00  0.00    -0.206 F 
ATOM     69  C   UNL A   1      46.736  36.484  29.670  1.00  0.00     0.022 A 
BRANCH  66  70
ATOM     70  S   UNL A   1      46.555  37.305  27.008  1.00  0.00     0.124 S 
ATOM     71  O   UNL A   1      45.303  38.040  27.150  1.00  0.00    -0.237 OA
ATOM     72  O   UNL A   1      47.768  38.042  27.348  1.00  0.00    -0.237 OA
ATOM     73  O   UNL A   1      46.653  36.470  25.812  1.00  0.00    -0.744 OA
ENDBRANCH  66  70
ENDBRANCH  40  63
ENDBRANCH  14  15
ENDBRANCH   7   9
ENDBRANCH   6   7
ENDBRANCH   5   6
ENDBRANCH   4   5
ENDBRANCH   3   4
ENDBRANCH   2   3
ENDBRANCH   1   2
BRANCH   1  74
ATOM     74  O   UNL A   1      37.230  20.878  25.700  1.00  0.00    -0.377 OA
BRANCH  74  75
ATOM     75  C   UNL A   1      36.477  21.548  24.702  1.00  0.00     0.188 C 
BRANCH  75  76
ATOM     76  C   UNL A   1      34.978  21.832  24.926  1.00  0.00     0.188 C 
BRANCH  76  77
ATOM     77  O   UNL A   1      34.552  22.921  25.724  1.00  0.00    -0.376 OA
BRANCH  77  78
ATOM     78  C   UNL A   1      34.392  22.743  27.118  1.00  0.00     0.202 C 
BRANCH  78  79
ATOM     79  C   UNL A   1      32.972  22.593  27.693  1.00  0.00     0.261 C 
BRANCH  79  80
ATOM     80  O   UNL A   1      31.940  22.319  26.717  1.00  0.00    -0.463 OA
BRANCH  80  81
ATOM     81  C   UNL A   1      30.923  23.206  26.618  1.00  0.00     0.315 C 
ATOM     82  O   UNL A   1      30.067  23.356  27.486  1.00  0.00    -0.251 OA
BRANCH  81  83
ATOM     83  C   UNL A   1      30.916  24.087  25.381  1.00  0.00     0.152 C 
ATOM     84  C   UNL A   1      31.438  25.483  25.774  1.00  0.00     0.156 C 
ATOM     85  C   UNL A   1      31.720  23.788  24.143  1.00  0.00    -0.008 A 
ATOM     86  N   UNL A   1      32.667  25.768  24.919  1.00  0.00    -0.265 N 
ATOM     87  C   UNL A   1      32.631  24.818  23.850  1.00  0.00     0.056 A 
ATOM     88  C   UNL A   1      31.627  22.667  23.321  1.00  0.00     0.007 A 
ATOM     89  C   UNL A   1      33.528  24.674  22.802  1.00  0.00     0.027 A 
ATOM     90  C   UNL A   1      32.482  22.565  22.221  1.00  0.00     0.000 A 
ATOM     91  C   UNL A   1      33.431  23.559  21.965  1.00  0.00     0.002 A 
BRANCH  86  92
ATOM     92  S   UNL A   1      32.922  27.442  24.735  1.00  0.00     0.265 S 
ATOM     93  O   UNL A   1      32.956  28.031  26.058  1.00  0.00    -0.201 OA
ATOM     94  O   UNL A   1      34.059  27.584  23.846  1.00  0.00    -0.201 OA
BRANCH  92  95
ATOM     95  C   UNL A   1      31.544  28.157  23.909  1.00  0.00     0.106 A 
ATOM     96  C   UNL A   1      30.950  29.319  24.412  1.00  0.00     0.027 A 
ATOM     97  C   UNL A   1      31.117  27.671  22.687  1.00  0.00     0.135 A 
ATOM     98  C   UNL A   1      29.898  29.903  23.713  1.00  0.00     0.042 A 
ATOM     99  N   UNL A   1      30.067  28.197  22.005  1.00  0.00    -0.243 NA
ATOM    100  C   UNL A   1      29.494  29.303  22.532  1.00  0.00     0.129 A 
ATOM    101  Cl  UNL A   1      28.182  29.942  21.634  1.00  0.00    -0.062 Cl
ENDBRANCH  92  95
ENDBRANCH  86  92
ENDBRANCH  81  83
ENDBRANCH  80  81
ENDBRANCH  79  80
ENDBRANCH  78  79
ENDBRANCH  77  78
ENDBRANCH  76  77
ENDBRANCH  75  76
ENDBRANCH  74  75
ENDBRANCH   1  74
TORSDOF 25
ENDMDL
MODEL 3
REMARK VINA RESULT:      -9.4      4.353      9.067
REMARK SMILES O=C(OCCOCCOCCOCCOC(=O)[C@H]1CN(S(=O)(=O)c2ccc(Cl)nc2)c2ccccc21)c1ccc(-c2c3nc(c(-c4cc(S(=O)(=O)[O-])ccc4F)c4ccc([nH]4)c(-c4cc(S(=O)(=O)[O-])ccc4F)c4nc(c(-c5cc(S(=O)(=O)[O-])ccc5F)c5ccc2[nH]5)C=C4)C=C3)cc1
REMARK SMILES IDX 8 1 7 2 6 3 5 4 4 5 3 6 2 7 1 8 37 9 38 10 99 11 39 12 98 13
REMARK SMILES IDX 40 14 41 15 42 16 92 17 43 18 97 19 91 20 93 21 44 22 96 23
REMARK SMILES IDX 90 24 89 25 45 27 77 28 57 29 76 30 58 31 61 32 75 33 94 34
REMARK SMILES IDX 59 35 60 36 74 38 95 39 62 40 46 41 47 42 55 43 48 44 54 45
REMARK SMILES IDX 56 46 53 47 49 48 50 49 51 50 52 51 78 52 79 53 87 54 80 55
REMARK SMILES IDX 86 56 88 57 85 58 81 59 82 60 83 61 84 62 63 63 64 64 72 65
REMARK SMILES IDX 65 66 71 67 73 68 70 69 66 70 67 71 68 72 69 73 9 74 10 75
REMARK SMILES IDX 11 76 12 77 13 78 14 79 15 80 16 81 17 82 18 83 19 84 36 85
REMARK SMILES IDX 20 86 31 87 35 88 32 89 34 90 33 91 21 92 22 93 23 94 24 95
REMARK SMILES IDX 25 96 30 97 26 98 29 99 27 100 28 101
REMARK H PARENT 93 26 61 37
REMARK Flexibility Score: inf
ROOT
ATOM      1  C   UNL A   1      33.441  36.203  31.462  1.00  0.00     0.188 C 
ENDROOT
BRANCH   1   2
ATOM      2  C   UNL A   1      33.906  35.904  32.883  1.00  0.00     0.188 C 
BRANCH   2   3
ATOM      3  O   UNL A   1      35.091  35.116  32.784  1.00  0.00    -0.376 OA
BRANCH   3   4
ATOM      4  C   UNL A   1      35.124  33.924  33.561  1.00  0.00     0.202 C 
BRANCH   4   5
ATOM      5  C   UNL A   1      35.236  32.647  32.731  1.00  0.00     0.261 C 
BRANCH   5   6
ATOM      6  O   UNL A   1      36.223  31.749  33.257  1.00  0.00    -0.460 OA
BRANCH   6   7
ATOM      7  C   UNL A   1      36.982  30.860  32.566  1.00  0.00     0.338 C 
ATOM      8  O   UNL A   1      36.539  29.721  32.416  1.00  0.00    -0.246 OA
BRANCH   7   9
ATOM      9  C   UNL A   1      38.323  31.166  31.971  1.00  0.00     0.060 A 
ATOM     10  C   UNL A   1      39.489  31.449  32.684  1.00  0.00     0.016 A 
ATOM     11  C   UNL A   1      38.423  31.083  30.571  1.00  0.00     0.016 A 
ATOM     12  C   UNL A   1      40.701  31.680  32.053  1.00  0.00     0.010 A 
ATOM     13  C   UNL A   1      39.642  31.308  29.921  1.00  0.00     0.010 A 
ATOM     14  C   UNL A   1      40.780  31.628  30.668  1.00  0.00    -0.014 A 
BRANCH  14  15
ATOM     15  C   UNL A   1      42.018  32.118  30.042  1.00  0.00     0.031 A 
ATOM     16  C   UNL A   1      43.045  31.094  29.667  1.00  0.00     0.074 A 
ATOM     17  C   UNL A   1      42.132  33.410  29.684  1.00  0.00     0.049 A 
ATOM     18  N   UNL A   1      44.258  31.257  29.224  1.00  0.00    -0.248 NA
ATOM     19  C   UNL A   1      42.637  29.683  29.804  1.00  0.00     0.031 C 
ATOM     20  C   UNL A   1      41.088  34.426  29.850  1.00  0.00     0.029 A 
ATOM     21  N   UNL A   1      43.158  34.084  29.081  1.00  0.00    -0.354 N 
ATOM     22  C   UNL A   1      44.777  29.975  29.078  1.00  0.00     0.074 A 
ATOM     23  C   UNL A   1      43.744  29.044  29.466  1.00  0.00     0.031 C 
ATOM     24  C   UNL A   1      41.528  35.591  29.349  1.00  0.00     0.029 A 
ATOM     25  C   UNL A   1      42.911  35.429  28.919  1.00  0.00     0.049 A 
ATOM     26  H   UNL A   1      43.993  33.651  28.791  1.00  0.00     0.167 HD
ATOM     27  C   UNL A   1      46.019  29.627  28.671  1.00  0.00     0.034 A 
ATOM     28  C   UNL A   1      43.744  36.413  28.525  1.00  0.00     0.034 A 
ATOM     29  C   UNL A   1      47.005  30.606  28.293  1.00  0.00     0.049 A 
ATOM     30  C   UNL A   1      45.162  36.012  28.189  1.00  0.00     0.074 A 
ATOM     31  C   UNL A   1      48.328  30.420  27.948  1.00  0.00     0.029 A 
ATOM     32  N   UNL A   1      46.756  31.974  28.214  1.00  0.00    -0.354 N 
ATOM     33  N   UNL A   1      45.696  34.809  28.164  1.00  0.00    -0.248 NA
ATOM     34  C   UNL A   1      46.094  37.091  27.849  1.00  0.00     0.031 C 
ATOM     35  C   UNL A   1      48.895  31.681  27.721  1.00  0.00     0.029 A 
ATOM     36  C   UNL A   1      47.907  32.647  27.849  1.00  0.00     0.049 A 
ATOM     37  H   UNL A   1      45.887  32.400  28.391  1.00  0.00     0.167 HD
ATOM     38  C   UNL A   1      47.023  34.987  27.788  1.00  0.00     0.074 A 
ATOM     39  C   UNL A   1      47.196  36.411  27.570  1.00  0.00     0.031 C 
ATOM     40  C   UNL A   1      48.017  34.073  27.644  1.00  0.00     0.034 A 
BRANCH  27  41
ATOM     41  C   UNL A   1      46.383  28.167  28.749  1.00  0.00     0.023 A 
ATOM     42  C   UNL A   1      46.252  27.297  27.652  1.00  0.00     0.031 A 
ATOM     43  C   UNL A   1      46.783  27.617  29.981  1.00  0.00     0.131 A 
ATOM     44  C   UNL A   1      46.451  25.918  27.826  1.00  0.00     0.055 A 
ATOM     45  C   UNL A   1      47.050  26.256  30.130  1.00  0.00     0.041 A 
ATOM     46  F   UNL A   1      46.887  28.392  31.072  1.00  0.00    -0.206 F 
ATOM     47  C   UNL A   1      46.872  25.395  29.052  1.00  0.00     0.022 A 
BRANCH  44  48
ATOM     48  S   UNL A   1      46.021  24.792  26.468  1.00  0.00     0.124 S 
ATOM     49  O   UNL A   1      45.885  25.720  25.349  1.00  0.00    -0.237 OA
ATOM     50  O   UNL A   1      47.173  23.899  26.420  1.00  0.00    -0.237 OA
ATOM     51  O   UNL A   1      44.774  24.176  26.914  1.00  0.00    -0.744 OA
ENDBRANCH  44  48
ENDBRANCH  27  41
BRANCH  28  52
ATOM     52  C   UNL A   1      43.317  37.847  28.533  1.00  0.00     0.023 A 
ATOM     53  C   UNL A   1      43.451  38.649  29.678  1.00  0.00     0.031 A 
ATOM     54  C   UNL A   1      42.685  38.419  27.411  1.00  0.00     0.131 A 
ATOM     55  C   UNL A   1      42.915  39.948  29.695  1.00  0.00     0.055 A 
ATOM     56  C   UNL A   1      42.214  39.735  27.410  1.00  0.00     0.041 A 
ATOM     57  F   UNL A   1      42.506  37.704  26.288  1.00  0.00    -0.206 F 
ATOM     58  C   UNL A   1      42.311  40.501  28.564  1.00  0.00     0.022 A 
BRANCH  55  59
ATOM     59  S   UNL A   1      42.896  40.864  31.263  1.00  0.00     0.124 S 
ATOM     60  O   UNL A   1      41.510  41.312  31.330  1.00  0.00    -0.237 OA
ATOM     61  O   UNL A   1      43.285  39.834  32.219  1.00  0.00    -0.237 OA
ATOM     62  O   UNL A   1      43.884  41.921  31.051  1.00  0.00    -0.744 OA
ENDBRANCH  55  59
ENDBRANCH  28  52
BRANCH  40  63
ATOM     63  C   UNL A   1      49.350  34.602  27.189  1.00  0.00     0.023 A 
ATOM     64  C   UNL A   1      50.385  34.859  28.101  1.00  0.00     0.031 A 
ATOM     65  C   UNL A   1      49.578  34.850  25.825  1.00  0.00     0.131 A 
ATOM     66  C   UNL A   1      51.590  35.405  27.643  1.00  0.00     0.055 A 
ATOM     67  C   UNL A   1      50.803  35.332  25.368  1.00  0.00     0.041 A 
ATOM     68  F   UNL A   1      48.617  34.617  24.916  1.00  0.00    -0.206 F 
ATOM     69  C   UNL A   1      51.813  35.626  26.281  1.00  0.00     0.022 A 
BRANCH  66  70
ATOM     70  S   UNL A   1      52.830  35.912  28.865  1.00  0.00     0.124 S 
ATOM     71  O   UNL A   1      52.019  36.090  30.063  1.00  0.00    -0.237 OA
ATOM     72  O   UNL A   1      53.741  34.772  28.876  1.00  0.00    -0.237 OA
ATOM     73  O   UNL A   1      53.384  37.142  28.300  1.00  0.00    -0.744 OA
ENDBRANCH  66  70
ENDBRANCH  40  63
ENDBRANCH  14  15
ENDBRANCH   7   9
ENDBRANCH   6   7
ENDBRANCH   5   6
ENDBRANCH   4   5
ENDBRANCH   3   4
ENDBRANCH   2   3
ENDBRANCH   1   2
BRANCH   1  74
ATOM     74  O   UNL A   1      33.024  35.038  30.763  1.00  0.00    -0.377 OA
BRANCH  74  75
ATOM     75  C   UNL A   1      33.694  34.779  29.540  1.00  0.00     0.188 C 
BRANCH  75  76
ATOM     76  C   UNL A   1      34.262  33.375  29.252  1.00  0.00     0.188 C 
BRANCH  76  77
ATOM     77  O   UNL A   1      34.304  32.860  27.933  1.00  0.00    -0.376 OA
BRANCH  77  78
ATOM     78  C   UNL A   1      34.502  31.474  27.733  1.00  0.00     0.202 C 
BRANCH  78  79
ATOM     79  C   UNL A   1      33.317  30.613  27.258  1.00  0.00     0.261 C 
BRANCH  79  80
ATOM     80  O   UNL A   1      33.652  29.251  26.903  1.00  0.00    -0.463 OA
BRANCH  80  81
ATOM     81  C   UNL A   1      32.666  28.326  26.972  1.00  0.00     0.315 C 
ATOM     82  O   UNL A   1      31.933  28.188  27.948  1.00  0.00    -0.251 OA
BRANCH  81  83
ATOM     83  C   UNL A   1      32.446  27.483  25.728  1.00  0.00     0.152 C 
ATOM     84  C   UNL A   1      32.360  26.003  26.150  1.00  0.00     0.156 C 
ATOM     85  C   UNL A   1      31.246  27.625  24.829  1.00  0.00    -0.008 A 
ATOM     86  N   UNL A   1      31.001  25.479  25.699  1.00  0.00    -0.265 N 
ATOM     87  C   UNL A   1      30.507  26.431  24.752  1.00  0.00     0.056 A 
ATOM     88  C   UNL A   1      30.852  28.751  24.112  1.00  0.00     0.007 A 
ATOM     89  C   UNL A   1      29.312  26.399  24.049  1.00  0.00     0.027 A 
ATOM     90  C   UNL A   1      29.686  28.688  23.343  1.00  0.00     0.000 A 
ATOM     91  C   UNL A   1      28.917  27.521  23.317  1.00  0.00     0.002 A 
BRANCH  86  92
ATOM     92  S   UNL A   1      31.030  23.792  25.470  1.00  0.00     0.265 S 
ATOM     93  O   UNL A   1      30.301  23.186  26.564  1.00  0.00    -0.201 OA
ATOM     94  O   UNL A   1      30.613  23.561  24.101  1.00  0.00    -0.201 OA
BRANCH  92  95
ATOM     95  C   UNL A   1      32.686  23.212  25.596  1.00  0.00     0.106 A 
ATOM     96  C   UNL A   1      33.145  22.656  26.794  1.00  0.00     0.027 A 
ATOM     97  C   UNL A   1      33.510  23.168  24.487  1.00  0.00     0.135 A 
ATOM     98  C   UNL A   1      34.440  22.149  26.857  1.00  0.00     0.042 A 
ATOM     99  N   UNL A   1      34.790  22.717  24.531  1.00  0.00    -0.243 NA
ATOM    100  C   UNL A   1      35.215  22.211  25.711  1.00  0.00     0.129 A 
ATOM    101  Cl  UNL A   1      36.831  21.642  25.721  1.00  0.00    -0.062 Cl
ENDBRANCH  92  95
ENDBRANCH  86  92
ENDBRANCH  81  83
ENDBRANCH  80  81
ENDBRANCH  79  80
ENDBRANCH  78  79
ENDBRANCH  77  78
ENDBRANCH  76  77
ENDBRANCH  75  76
ENDBRANCH  74  75
ENDBRANCH   1  74
TORSDOF 25
ENDMDL
