MODEL 1
REMARK VINA RESULT:     -10.0      0.000      0.000
REMARK SMILES Cc1ccc(Nc2c(Cl)cc(Cl)cc2Cl)c(CC(=O)OCCOCCOCCOCCOC(=O)c2ccc(-c3c4nc(c(-c5cc(S(=O)(=O)[O-])ccc5F)c5ccc([nH]5)c(-c5cc(S(=O)(=O)[O-])ccc5F)c5nc(c(-c6cc(S(=O)(=O)[O-])ccc6F)c6ccc3[nH]6)C=C5)C=C4)cc2)c1
REMARK SMILES IDX 26 1 25 2 24 3 23 4 22 5 21 6 20 7 18 8 19 9 17 10 16 11
REMARK SMILES IDX 1 12 2 13 3 14 98 15 4 16 5 17 6 18 7 20 8 21 14 22 9 23
REMARK SMILES IDX 10 24 13 25 15 26 11 27 12 28 27 29 28 30 29 31 30 32 31 33
REMARK SMILES IDX 32 34 33 35 34 36 35 37 36 38 97 39 37 40 96 41 38 42 39 43
REMARK SMILES IDX 40 44 90 45 41 46 95 47 89 48 91 49 42 50 94 51 88 52 87 53
REMARK SMILES IDX 43 55 75 56 55 57 74 58 56 59 59 60 73 61 92 62 57 63 58 64
REMARK SMILES IDX 72 66 93 67 60 68 44 69 45 70 53 71 46 72 52 73 54 74 51 75
REMARK SMILES IDX 47 76 48 77 49 78 50 79 76 80 77 81 85 82 78 83 84 84 86 85
REMARK SMILES IDX 83 86 79 87 80 88 81 89 82 90 61 91 62 92 70 93 63 94 69 95
REMARK SMILES IDX 71 96 68 97 64 98 65 99 66 100 67 101
REMARK H PARENT 6 19 91 54 59 65
REMARK Flexibility Score: inf
ROOT
ATOM      1  O   UNL A   1      33.997  26.022  25.493  1.00  0.00    -0.377 OA
ENDROOT
BRANCH   1   2
ATOM      2  C   UNL A   1      34.035  24.719  26.083  1.00  0.00     0.188 C 
BRANCH   2   3
ATOM      3  C   UNL A   1      35.320  24.042  25.707  1.00  0.00     0.188 C 
BRANCH   3   4
ATOM      4  O   UNL A   1      35.836  24.050  24.403  1.00  0.00    -0.376 OA
BRANCH   4   5
ATOM      5  C   UNL A   1      35.123  23.177  23.566  1.00  0.00     0.202 C 
BRANCH   5   6
ATOM      6  C   UNL A   1      34.053  23.728  22.584  1.00  0.00     0.261 C 
BRANCH   6   7
ATOM      7  O   UNL A   1      33.287  22.767  21.842  1.00  0.00    -0.463 OA
BRANCH   7   8
ATOM      8  C   UNL A   1      32.256  22.238  22.553  1.00  0.00     0.310 C 
ATOM      9  O   UNL A   1      32.258  21.122  23.062  1.00  0.00    -0.252 OA
BRANCH   8  10
ATOM     10  C   UNL A   1      31.057  23.145  22.667  1.00  0.00     0.160 C 
BRANCH  10  11
ATOM     11  C   UNL A   1      30.803  23.900  23.964  1.00  0.00    -0.013 A 
ATOM     12  C   UNL A   1      30.649  22.691  27.623  1.00  0.00     0.044 C 
ATOM     13  C   UNL A   1      30.603  23.576  26.412  1.00  0.00    -0.051 A 
ATOM     14  C   UNL A   1      30.456  24.948  26.551  1.00  0.00     0.005 A 
ATOM     15  C   UNL A   1      30.743  23.064  25.122  1.00  0.00     0.009 A 
ATOM     16  C   UNL A   1      30.434  25.782  25.423  1.00  0.00     0.026 A 
ATOM     17  C   UNL A   1      30.631  25.314  24.104  1.00  0.00     0.042 A 
BRANCH  17  18
ATOM     18  N   UNL A   1      30.616  26.246  22.988  1.00  0.00    -0.353 N 
ATOM     19  H   UNL A   1      31.035  25.925  22.157  1.00  0.00     0.167 HD
BRANCH  18  20
ATOM     20  C   UNL A   1      30.064  27.587  22.938  1.00  0.00     0.076 A 
ATOM     21  C   UNL A   1      28.691  27.823  23.133  1.00  0.00     0.067 A 
ATOM     22  C   UNL A   1      30.805  28.726  22.501  1.00  0.00     0.067 A 
ATOM     23  Cl  UNL A   1      27.723  26.737  24.077  1.00  0.00    -0.082 Cl
ATOM     24  C   UNL A   1      28.065  28.998  22.687  1.00  0.00     0.043 A 
ATOM     25  C   UNL A   1      30.179  29.873  21.976  1.00  0.00     0.043 A 
ATOM     26  Cl  UNL A   1      32.514  28.910  22.762  1.00  0.00    -0.082 Cl
ATOM     27  C   UNL A   1      28.802  29.987  22.050  1.00  0.00     0.044 A 
ATOM     28  Cl  UNL A   1      28.015  31.387  21.433  1.00  0.00    -0.084 Cl
ENDBRANCH  18  20
ENDBRANCH  17  18
ENDBRANCH  10  11
ENDBRANCH   8  10
ENDBRANCH   7   8
ENDBRANCH   6   7
ENDBRANCH   5   6
ENDBRANCH   4   5
ENDBRANCH   3   4
ENDBRANCH   2   3
ENDBRANCH   1   2
BRANCH   1  29
ATOM     29  C   UNL A   1      33.853  27.079  26.438  1.00  0.00     0.188 C 
BRANCH  29  30
ATOM     30  C   UNL A   1      33.876  28.485  25.867  1.00  0.00     0.188 C 
BRANCH  30  31
ATOM     31  O   UNL A   1      32.673  29.117  26.278  1.00  0.00    -0.376 OA
BRANCH  31  32
ATOM     32  C   UNL A   1      32.476  30.442  25.833  1.00  0.00     0.202 C 
BRANCH  32  33
ATOM     33  C   UNL A   1      32.122  31.309  27.035  1.00  0.00     0.261 C 
BRANCH  33  34
ATOM     34  O   UNL A   1      33.277  31.379  27.904  1.00  0.00    -0.460 OA
BRANCH  34  35
ATOM     35  C   UNL A   1      33.753  32.649  28.095  1.00  0.00     0.338 C 
ATOM     36  O   UNL A   1      33.256  33.646  27.623  1.00  0.00    -0.246 OA
BRANCH  35  37
ATOM     37  C   UNL A   1      35.030  32.627  28.881  1.00  0.00     0.060 A 
ATOM     38  C   UNL A   1      36.247  32.937  28.249  1.00  0.00     0.016 A 
ATOM     39  C   UNL A   1      35.052  32.112  30.171  1.00  0.00     0.016 A 
ATOM     40  C   UNL A   1      37.476  32.571  28.834  1.00  0.00     0.010 A 
ATOM     41  C   UNL A   1      36.267  31.737  30.729  1.00  0.00     0.010 A 
ATOM     42  C   UNL A   1      37.489  31.873  30.040  1.00  0.00    -0.014 A 
BRANCH  42  43
ATOM     43  C   UNL A   1      38.627  31.060  30.573  1.00  0.00     0.031 A 
ATOM     44  C   UNL A   1      38.866  29.693  29.980  1.00  0.00     0.074 A 
ATOM     45  C   UNL A   1      39.590  31.722  31.280  1.00  0.00     0.049 A 
ATOM     46  N   UNL A   1      39.851  28.904  30.258  1.00  0.00    -0.248 NA
ATOM     47  C   UNL A   1      37.940  29.065  29.026  1.00  0.00     0.031 C 
ATOM     48  C   UNL A   1      41.052  31.654  31.198  1.00  0.00     0.029 A 
ATOM     49  N   UNL A   1      39.443  32.738  32.208  1.00  0.00    -0.354 N 
ATOM     50  C   UNL A   1      39.880  27.876  29.313  1.00  0.00     0.074 A 
ATOM     51  C   UNL A   1      38.604  27.965  28.652  1.00  0.00     0.031 C 
ATOM     52  C   UNL A   1      41.659  32.464  32.068  1.00  0.00     0.029 A 
ATOM     53  C   UNL A   1      40.637  32.932  32.932  1.00  0.00     0.049 A 
ATOM     54  H   UNL A   1      38.616  33.255  32.345  1.00  0.00     0.167 HD
ATOM     55  C   UNL A   1      41.050  27.194  29.073  1.00  0.00     0.034 A 
ATOM     56  C   UNL A   1      40.654  32.696  34.270  1.00  0.00     0.034 A 
ATOM     57  C   UNL A   1      42.095  27.504  30.085  1.00  0.00     0.049 A 
ATOM     58  C   UNL A   1      41.201  31.281  34.580  1.00  0.00     0.074 A 
ATOM     59  C   UNL A   1      43.475  27.650  30.092  1.00  0.00     0.029 A 
ATOM     60  N   UNL A   1      41.708  27.811  31.389  1.00  0.00    -0.354 N 
ATOM     61  N   UNL A   1      41.634  30.411  33.683  1.00  0.00    -0.248 NA
ATOM     62  C   UNL A   1      41.342  30.751  35.931  1.00  0.00     0.031 C 
ATOM     63  C   UNL A   1      43.883  28.101  31.385  1.00  0.00     0.029 A 
ATOM     64  C   UNL A   1      42.762  28.159  32.193  1.00  0.00     0.049 A 
ATOM     65  H   UNL A   1      40.774  27.783  31.700  1.00  0.00     0.167 HD
ATOM     66  C   UNL A   1      42.053  29.246  34.287  1.00  0.00     0.074 A 
ATOM     67  C   UNL A   1      41.817  29.512  35.702  1.00  0.00     0.031 C 
ATOM     68  C   UNL A   1      42.557  28.145  33.628  1.00  0.00     0.034 A 
BRANCH  55  69
ATOM     69  C   UNL A   1      41.399  26.408  27.779  1.00  0.00     0.023 A 
ATOM     70  C   UNL A   1      41.836  25.063  27.888  1.00  0.00     0.031 A 
ATOM     71  C   UNL A   1      41.495  26.928  26.465  1.00  0.00     0.131 A 
ATOM     72  C   UNL A   1      42.409  24.353  26.808  1.00  0.00     0.055 A 
ATOM     73  C   UNL A   1      41.976  26.186  25.365  1.00  0.00     0.041 A 
ATOM     74  F   UNL A   1      41.180  28.192  26.166  1.00  0.00    -0.206 F 
ATOM     75  C   UNL A   1      42.461  24.900  25.534  1.00  0.00     0.022 A 
BRANCH  72  76
ATOM     76  S   UNL A   1      43.158  22.721  27.104  1.00  0.00     0.124 S 
ATOM     77  O   UNL A   1      42.842  22.010  25.870  1.00  0.00    -0.237 OA
ATOM     78  O   UNL A   1      44.563  23.050  27.314  1.00  0.00    -0.237 OA
ATOM     79  O   UNL A   1      42.458  22.236  28.295  1.00  0.00    -0.744 OA
ENDBRANCH  72  76
ENDBRANCH  55  69
BRANCH  56  80
ATOM     80  C   UNL A   1      39.562  33.579  34.835  1.00  0.00     0.023 A 
ATOM     81  C   UNL A   1      38.619  32.847  35.633  1.00  0.00     0.031 A 
ATOM     82  C   UNL A   1      39.886  34.876  35.265  1.00  0.00     0.131 A 
ATOM     83  C   UNL A   1      38.316  33.270  36.943  1.00  0.00     0.055 A 
ATOM     84  C   UNL A   1      39.512  35.323  36.548  1.00  0.00     0.041 A 
ATOM     85  F   UNL A   1      40.779  35.612  34.586  1.00  0.00    -0.206 F 
ATOM     86  C   UNL A   1      38.789  34.494  37.415  1.00  0.00     0.022 A 
BRANCH  83  87
ATOM     87  S   UNL A   1      37.606  32.066  38.129  1.00  0.00     0.124 S 
ATOM     88  O   UNL A   1      37.615  30.830  37.358  1.00  0.00    -0.237 OA
ATOM     89  O   UNL A   1      38.538  32.128  39.251  1.00  0.00    -0.237 OA
ATOM     90  O   UNL A   1      36.284  32.616  38.423  1.00  0.00    -0.744 OA
ENDBRANCH  83  87
ENDBRANCH  56  80
BRANCH  68  91
ATOM     91  C   UNL A   1      42.865  26.809  34.276  1.00  0.00     0.023 A 
ATOM     92  C   UNL A   1      44.130  26.244  34.223  1.00  0.00     0.031 A 
ATOM     93  C   UNL A   1      41.875  26.057  34.973  1.00  0.00     0.131 A 
ATOM     94  C   UNL A   1      44.438  25.131  35.017  1.00  0.00     0.055 A 
ATOM     95  C   UNL A   1      42.154  24.868  35.645  1.00  0.00     0.041 A 
ATOM     96  F   UNL A   1      40.601  26.457  35.073  1.00  0.00    -0.206 F 
ATOM     97  C   UNL A   1      43.461  24.425  35.716  1.00  0.00     0.022 A 
BRANCH  94  98
ATOM     98  S   UNL A   1      46.187  24.766  35.259  1.00  0.00     0.124 S 
ATOM     99  O   UNL A   1      46.204  24.177  36.594  1.00  0.00    -0.237 OA
ATOM    100  O   UNL A   1      46.442  23.839  34.158  1.00  0.00    -0.237 OA
ATOM    101  O   UNL A   1      46.832  26.070  35.137  1.00  0.00    -0.744 OA
ENDBRANCH  94  98
ENDBRANCH  68  91
ENDBRANCH  42  43
ENDBRANCH  35  37
ENDBRANCH  34  35
ENDBRANCH  33  34
ENDBRANCH  32  33
ENDBRANCH  31  32
ENDBRANCH  30  31
ENDBRANCH  29  30
ENDBRANCH   1  29
TORSDOF 26
ENDMDL
MODEL 2
REMARK VINA RESULT:      -8.6      1.467      1.993
REMARK SMILES Cc1ccc(Nc2c(Cl)cc(Cl)cc2Cl)c(CC(=O)OCCOCCOCCOCCOC(=O)c2ccc(-c3c4nc(c(-c5cc(S(=O)(=O)[O-])ccc5F)c5ccc([nH]5)c(-c5cc(S(=O)(=O)[O-])ccc5F)c5nc(c(-c6cc(S(=O)(=O)[O-])ccc6F)c6ccc3[nH]6)C=C5)C=C4)cc2)c1
REMARK SMILES IDX 26 1 25 2 24 3 23 4 22 5 21 6 20 7 18 8 19 9 17 10 16 11
REMARK SMILES IDX 1 12 2 13 3 14 98 15 4 16 5 17 6 18 7 20 8 21 14 22 9 23
REMARK SMILES IDX 10 24 13 25 15 26 11 27 12 28 27 29 28 30 29 31 30 32 31 33
REMARK SMILES IDX 32 34 33 35 34 36 35 37 36 38 97 39 37 40 96 41 38 42 39 43
REMARK SMILES IDX 40 44 90 45 41 46 95 47 89 48 91 49 42 50 94 51 88 52 87 53
REMARK SMILES IDX 43 55 75 56 55 57 74 58 56 59 59 60 73 61 92 62 57 63 58 64
REMARK SMILES IDX 72 66 93 67 60 68 44 69 45 70 53 71 46 72 52 73 54 74 51 75
REMARK SMILES IDX 47 76 48 77 49 78 50 79 76 80 77 81 85 82 78 83 84 84 86 85
REMARK SMILES IDX 83 86 79 87 80 88 81 89 82 90 61 91 62 92 70 93 63 94 69 95
REMARK SMILES IDX 71 96 68 97 64 98 65 99 66 100 67 101
REMARK H PARENT 6 19 91 54 59 65
REMARK Flexibility Score: inf
ROOT
ATOM      1  O   UNL A   1      33.698  25.703  25.377  1.00  0.00    -0.377 OA
ENDROOT
BRANCH   1   2
ATOM      2  C   UNL A   1      34.290  24.643  26.133  1.00  0.00     0.188 C 
BRANCH   2   3
ATOM      3  C   UNL A   1      35.656  24.346  25.586  1.00  0.00     0.188 C 
BRANCH   3   4
ATOM      4  O   UNL A   1      35.870  23.845  24.294  1.00  0.00    -0.376 OA
BRANCH   4   5
ATOM      5  C   UNL A   1      35.405  22.526  24.173  1.00  0.00     0.202 C 
BRANCH   5   6
ATOM      6  C   UNL A   1      34.260  22.185  23.181  1.00  0.00     0.261 C 
BRANCH   6   7
ATOM      7  O   UNL A   1      33.462  21.027  23.474  1.00  0.00    -0.463 OA
BRANCH   7   8
ATOM      8  C   UNL A   1      32.329  21.317  24.167  1.00  0.00     0.310 C 
ATOM      9  O   UNL A   1      31.856  20.620  25.059  1.00  0.00    -0.252 OA
BRANCH   8  10
ATOM     10  C   UNL A   1      31.657  22.599  23.742  1.00  0.00     0.160 C 
BRANCH  10  11
ATOM     11  C   UNL A   1      30.898  23.429  24.767  1.00  0.00    -0.013 A 
ATOM     12  C   UNL A   1      29.034  22.412  27.986  1.00  0.00     0.044 C 
ATOM     13  C   UNL A   1      29.597  23.238  26.867  1.00  0.00    -0.051 A 
ATOM     14  C   UNL A   1      29.495  24.620  26.894  1.00  0.00     0.005 A 
ATOM     15  C   UNL A   1      30.268  22.655  25.790  1.00  0.00     0.009 A 
ATOM     16  C   UNL A   1      30.040  25.398  25.861  1.00  0.00     0.026 A 
ATOM     17  C   UNL A   1      30.777  24.855  24.784  1.00  0.00     0.042 A 
BRANCH  17  18
ATOM     18  N   UNL A   1      31.329  25.730  23.762  1.00  0.00    -0.353 N 
ATOM     19  H   UNL A   1      32.212  25.475  23.411  1.00  0.00     0.167 HD
BRANCH  18  20
ATOM     20  C   UNL A   1      30.747  26.930  23.191  1.00  0.00     0.076 A 
ATOM     21  C   UNL A   1      31.541  27.897  22.547  1.00  0.00     0.067 A 
ATOM     22  C   UNL A   1      29.391  27.324  23.402  1.00  0.00     0.067 A 
ATOM     23  Cl  UNL A   1      33.045  27.462  21.800  1.00  0.00    -0.082 Cl
ATOM     24  C   UNL A   1      31.108  29.220  22.369  1.00  0.00     0.043 A 
ATOM     25  C   UNL A   1      28.974  28.665  23.303  1.00  0.00     0.043 A 
ATOM     26  Cl  UNL A   1      28.087  26.189  23.588  1.00  0.00    -0.082 Cl
ATOM     27  C   UNL A   1      29.852  29.613  22.809  1.00  0.00     0.044 A 
ATOM     28  Cl  UNL A   1      29.360  31.255  22.660  1.00  0.00    -0.084 Cl
ENDBRANCH  18  20
ENDBRANCH  17  18
ENDBRANCH  10  11
ENDBRANCH   8  10
ENDBRANCH   7   8
ENDBRANCH   6   7
ENDBRANCH   5   6
ENDBRANCH   4   5
ENDBRANCH   3   4
ENDBRANCH   2   3
ENDBRANCH   1   2
BRANCH   1  29
ATOM     29  C   UNL A   1      33.471  26.892  26.130  1.00  0.00     0.188 C 
BRANCH  29  30
ATOM     30  C   UNL A   1      33.782  28.196  25.419  1.00  0.00     0.188 C 
BRANCH  30  31
ATOM     31  O   UNL A   1      32.668  29.053  25.622  1.00  0.00    -0.376 OA
BRANCH  31  32
ATOM     32  C   UNL A   1      32.957  30.419  25.828  1.00  0.00     0.202 C 
BRANCH  32  33
ATOM     33  C   UNL A   1      32.406  30.831  27.187  1.00  0.00     0.261 C 
BRANCH  33  34
ATOM     34  O   UNL A   1      33.519  31.053  28.084  1.00  0.00    -0.460 OA
BRANCH  34  35
ATOM     35  C   UNL A   1      33.837  32.374  28.260  1.00  0.00     0.338 C 
ATOM     36  O   UNL A   1      33.166  33.299  27.864  1.00  0.00    -0.246 OA
BRANCH  35  37
ATOM     37  C   UNL A   1      35.177  32.517  28.917  1.00  0.00     0.060 A 
ATOM     38  C   UNL A   1      36.286  32.939  28.162  1.00  0.00     0.016 A 
ATOM     39  C   UNL A   1      35.379  32.048  30.209  1.00  0.00     0.016 A 
ATOM     40  C   UNL A   1      37.598  32.729  28.632  1.00  0.00     0.010 A 
ATOM     41  C   UNL A   1      36.676  31.826  30.652  1.00  0.00     0.010 A 
ATOM     42  C   UNL A   1      37.805  32.074  29.845  1.00  0.00    -0.014 A 
BRANCH  42  43
ATOM     43  C   UNL A   1      39.072  31.409  30.280  1.00  0.00     0.031 A 
ATOM     44  C   UNL A   1      39.381  30.036  29.733  1.00  0.00     0.074 A 
ATOM     45  C   UNL A   1      40.036  32.202  30.833  1.00  0.00     0.049 A 
ATOM     46  N   UNL A   1      40.466  29.364  29.932  1.00  0.00    -0.248 NA
ATOM     47  C   UNL A   1      38.422  29.265  28.928  1.00  0.00     0.031 C 
ATOM     48  C   UNL A   1      41.479  32.269  30.583  1.00  0.00     0.029 A 
ATOM     49  N   UNL A   1      39.892  33.255  31.720  1.00  0.00    -0.354 N 
ATOM     50  C   UNL A   1      40.494  28.287  29.044  1.00  0.00     0.074 A 
ATOM     51  C   UNL A   1      39.149  28.212  28.535  1.00  0.00     0.031 C 
ATOM     52  C   UNL A   1      42.094  33.186  31.332  1.00  0.00     0.029 A 
ATOM     53  C   UNL A   1      41.133  33.607  32.286  1.00  0.00     0.049 A 
ATOM     54  H   UNL A   1      39.037  33.699  31.927  1.00  0.00     0.167 HD
ATOM     55  C   UNL A   1      41.692  27.706  28.702  1.00  0.00     0.034 A 
ATOM     56  C   UNL A   1      41.325  33.458  33.623  1.00  0.00     0.034 A 
ATOM     57  C   UNL A   1      42.807  28.176  29.566  1.00  0.00     0.049 A 
ATOM     58  C   UNL A   1      42.046  32.124  33.938  1.00  0.00     0.074 A 
ATOM     59  C   UNL A   1      44.157  28.453  29.403  1.00  0.00     0.029 A 
ATOM     60  N   UNL A   1      42.541  28.526  30.890  1.00  0.00    -0.354 N 
ATOM     61  N   UNL A   1      42.461  31.245  33.041  1.00  0.00    -0.248 NA
ATOM     62  C   UNL A   1      42.391  31.695  35.288  1.00  0.00     0.031 C 
ATOM     63  C   UNL A   1      44.660  29.021  30.614  1.00  0.00     0.029 A 
ATOM     64  C   UNL A   1      43.637  29.022  31.544  1.00  0.00     0.049 A 
ATOM     65  H   UNL A   1      41.655  28.428  31.310  1.00  0.00     0.167 HD
ATOM     66  C   UNL A   1      43.062  30.164  33.650  1.00  0.00     0.074 A 
ATOM     67  C   UNL A   1      42.961  30.495  35.067  1.00  0.00     0.031 C 
ATOM     68  C   UNL A   1      43.598  29.078  32.993  1.00  0.00     0.034 A 
BRANCH  55  69
ATOM     69  C   UNL A   1      41.971  26.877  27.417  1.00  0.00     0.023 A 
ATOM     70  C   UNL A   1      41.831  25.466  27.466  1.00  0.00     0.031 A 
ATOM     71  C   UNL A   1      42.525  27.349  26.202  1.00  0.00     0.131 A 
ATOM     72  C   UNL A   1      42.298  24.614  26.438  1.00  0.00     0.055 A 
ATOM     73  C   UNL A   1      42.900  26.504  25.135  1.00  0.00     0.041 A 
ATOM     74  F   UNL A   1      42.783  28.641  25.982  1.00  0.00    -0.206 F 
ATOM     75  C   UNL A   1      42.813  25.127  25.256  1.00  0.00     0.022 A 
BRANCH  72  76
ATOM     76  S   UNL A   1      42.291  22.813  26.695  1.00  0.00     0.124 S 
ATOM     77  O   UNL A   1      43.486  22.615  27.507  1.00  0.00    -0.237 OA
ATOM     78  O   UNL A   1      41.015  22.594  27.366  1.00  0.00    -0.237 OA
ATOM     79  O   UNL A   1      42.369  22.274  25.337  1.00  0.00    -0.744 OA
ENDBRANCH  72  76
ENDBRANCH  55  69
BRANCH  56  80
ATOM     80  C   UNL A   1      40.219  34.266  34.267  1.00  0.00     0.023 A 
ATOM     81  C   UNL A   1      39.251  33.442  34.934  1.00  0.00     0.031 A 
ATOM     82  C   UNL A   1      40.535  35.493  34.875  1.00  0.00     0.131 A 
ATOM     83  C   UNL A   1      38.910  33.690  36.279  1.00  0.00     0.055 A 
ATOM     84  C   UNL A   1      40.124  35.769  36.194  1.00  0.00     0.041 A 
ATOM     85  F   UNL A   1      41.449  36.305  34.325  1.00  0.00    -0.206 F 
ATOM     86  C   UNL A   1      39.373  34.838  36.923  1.00  0.00     0.022 A 
BRANCH  83  87
ATOM     87  S   UNL A   1      38.161  32.345  37.274  1.00  0.00     0.124 S 
ATOM     88  O   UNL A   1      38.837  32.495  38.556  1.00  0.00    -0.237 OA
ATOM     89  O   UNL A   1      36.741  32.682  37.256  1.00  0.00    -0.237 OA
ATOM     90  O   UNL A   1      38.496  31.138  36.521  1.00  0.00    -0.744 OA
ENDBRANCH  83  87
ENDBRANCH  56  80
BRANCH  68  91
ATOM     91  C   UNL A   1      44.112  27.820  33.666  1.00  0.00     0.023 A 
ATOM     92  C   UNL A   1      43.298  27.034  34.468  1.00  0.00     0.031 A 
ATOM     93  C   UNL A   1      45.457  27.375  33.518  1.00  0.00     0.131 A 
ATOM     94  C   UNL A   1      43.732  25.770  34.886  1.00  0.00     0.055 A 
ATOM     95  C   UNL A   1      45.929  26.180  34.060  1.00  0.00     0.041 A 
ATOM     96  F   UNL A   1      46.369  28.052  32.807  1.00  0.00    -0.206 F 
ATOM     97  C   UNL A   1      45.045  25.338  34.706  1.00  0.00     0.022 A 
BRANCH  94  98
ATOM     98  S   UNL A   1      42.467  24.637  35.493  1.00  0.00     0.124 S 
ATOM     99  O   UNL A   1      42.864  24.437  36.882  1.00  0.00    -0.237 OA
ATOM    100  O   UNL A   1      41.254  25.428  35.293  1.00  0.00    -0.237 OA
ATOM    101  O   UNL A   1      42.600  23.472  34.624  1.00  0.00    -0.744 OA
ENDBRANCH  94  98
ENDBRANCH  68  91
ENDBRANCH  42  43
ENDBRANCH  35  37
ENDBRANCH  34  35
ENDBRANCH  33  34
ENDBRANCH  32  33
ENDBRANCH  31  32
ENDBRANCH  30  31
ENDBRANCH  29  30
ENDBRANCH   1  29
TORSDOF 26
ENDMDL
MODEL 3
REMARK VINA RESULT:      -8.6      4.090     10.078
REMARK SMILES Cc1ccc(Nc2c(Cl)cc(Cl)cc2Cl)c(CC(=O)OCCOCCOCCOCCOC(=O)c2ccc(-c3c4nc(c(-c5cc(S(=O)(=O)[O-])ccc5F)c5ccc([nH]5)c(-c5cc(S(=O)(=O)[O-])ccc5F)c5nc(c(-c6cc(S(=O)(=O)[O-])ccc6F)c6ccc3[nH]6)C=C5)C=C4)cc2)c1
REMARK SMILES IDX 26 1 25 2 24 3 23 4 22 5 21 6 20 7 18 8 19 9 17 10 16 11
REMARK SMILES IDX 1 12 2 13 3 14 98 15 4 16 5 17 6 18 7 20 8 21 14 22 9 23
REMARK SMILES IDX 10 24 13 25 15 26 11 27 12 28 27 29 28 30 29 31 30 32 31 33
REMARK SMILES IDX 32 34 33 35 34 36 35 37 36 38 97 39 37 40 96 41 38 42 39 43
REMARK SMILES IDX 40 44 90 45 41 46 95 47 89 48 91 49 42 50 94 51 88 52 87 53
REMARK SMILES IDX 43 55 75 56 55 57 74 58 56 59 59 60 73 61 92 62 57 63 58 64
REMARK SMILES IDX 72 66 93 67 60 68 44 69 45 70 53 71 46 72 52 73 54 74 51 75
REMARK SMILES IDX 47 76 48 77 49 78 50 79 76 80 77 81 85 82 78 83 84 84 86 85
REMARK SMILES IDX 83 86 79 87 80 88 81 89 82 90 61 91 62 92 70 93 63 94 69 95
REMARK SMILES IDX 71 96 68 97 64 98 65 99 66 100 67 101
REMARK H PARENT 6 19 91 54 59 65
REMARK Flexibility Score: inf
ROOT
ATOM      1  O   UNL A   1      39.738  28.941  28.470  1.00  0.00    -0.377 OA
ENDROOT
BRANCH   1   2
ATOM      2  C   UNL A   1      38.433  29.451  28.756  1.00  0.00     0.188 C 
BRANCH   2   3
ATOM      3  C   UNL A   1      37.874  30.103  27.524  1.00  0.00     0.188 C 
BRANCH   3   4
ATOM      4  O   UNL A   1      36.522  30.448  27.387  1.00  0.00    -0.376 OA
BRANCH   4   5
ATOM      5  C   UNL A   1      35.745  29.888  28.414  1.00  0.00     0.202 C 
BRANCH   5   6
ATOM      6  C   UNL A   1      34.288  29.431  28.135  1.00  0.00     0.261 C 
BRANCH   6   7
ATOM      7  O   UNL A   1      34.057  28.661  26.946  1.00  0.00    -0.463 OA
BRANCH   7   8
ATOM      8  C   UNL A   1      32.876  27.990  26.961  1.00  0.00     0.310 C 
ATOM      9  O   UNL A   1      31.808  28.459  27.342  1.00  0.00    -0.252 OA
BRANCH   8  10
ATOM     10  C   UNL A   1      32.969  26.566  26.472  1.00  0.00     0.160 C 
BRANCH  10  11
ATOM     11  C   UNL A   1      33.208  26.291  24.994  1.00  0.00    -0.013 A 
ATOM     12  C   UNL A   1      33.835  28.677  22.030  1.00  0.00     0.044 C 
ATOM     13  C   UNL A   1      33.620  27.426  22.831  1.00  0.00    -0.051 A 
ATOM     14  C   UNL A   1      33.754  26.181  22.237  1.00  0.00     0.005 A 
ATOM     15  C   UNL A   1      33.317  27.469  24.192  1.00  0.00     0.009 A 
ATOM     16  C   UNL A   1      33.576  25.008  22.987  1.00  0.00     0.026 A 
ATOM     17  C   UNL A   1      33.327  25.004  24.379  1.00  0.00     0.042 A 
BRANCH  17  18
ATOM     18  N   UNL A   1      33.175  23.745  25.090  1.00  0.00    -0.353 N 
ATOM     19  H   UNL A   1      32.758  23.804  25.979  1.00  0.00     0.167 HD
BRANCH  18  20
ATOM     20  C   UNL A   1      33.556  22.413  24.660  1.00  0.00     0.076 A 
ATOM     21  C   UNL A   1      32.638  21.553  24.031  1.00  0.00     0.067 A 
ATOM     22  C   UNL A   1      34.799  21.800  25.007  1.00  0.00     0.067 A 
ATOM     23  Cl  UNL A   1      31.292  22.184  23.136  1.00  0.00    -0.082 Cl
ATOM     24  C   UNL A   1      32.826  20.162  23.988  1.00  0.00     0.043 A 
ATOM     25  C   UNL A   1      34.962  20.402  25.043  1.00  0.00     0.043 A 
ATOM     26  Cl  UNL A   1      36.277  22.692  25.208  1.00  0.00    -0.082 Cl
ATOM     27  C   UNL A   1      33.955  19.589  24.554  1.00  0.00     0.044 A 
ATOM     28  Cl  UNL A   1      34.140  17.878  24.570  1.00  0.00    -0.084 Cl
ENDBRANCH  18  20
ENDBRANCH  17  18
ENDBRANCH  10  11
ENDBRANCH   8  10
ENDBRANCH   7   8
ENDBRANCH   6   7
ENDBRANCH   5   6
ENDBRANCH   4   5
ENDBRANCH   3   4
ENDBRANCH   2   3
ENDBRANCH   1   2
BRANCH   1  29
ATOM     29  C   UNL A   1      39.733  27.747  27.691  1.00  0.00     0.188 C 
BRANCH  29  30
ATOM     30  C   UNL A   1      41.091  27.122  27.427  1.00  0.00     0.188 C 
BRANCH  30  31
ATOM     31  O   UNL A   1      41.017  26.498  26.154  1.00  0.00    -0.376 OA
BRANCH  31  32
ATOM     32  C   UNL A   1      41.812  25.346  25.973  1.00  0.00     0.202 C 
BRANCH  32  33
ATOM     33  C   UNL A   1      43.081  25.744  25.232  1.00  0.00     0.261 C 
BRANCH  33  34
ATOM     34  O   UNL A   1      44.091  26.093  26.207  1.00  0.00    -0.460 OA
BRANCH  34  35
ATOM     35  C   UNL A   1      45.058  25.137  26.374  1.00  0.00     0.338 C 
ATOM     36  O   UNL A   1      45.670  24.615  25.469  1.00  0.00    -0.246 OA
BRANCH  35  37
ATOM     37  C   UNL A   1      45.181  24.749  27.817  1.00  0.00     0.060 A 
ATOM     38  C   UNL A   1      44.207  23.924  28.406  1.00  0.00     0.016 A 
ATOM     39  C   UNL A   1      46.133  25.355  28.627  1.00  0.00     0.016 A 
ATOM     40  C   UNL A   1      44.082  23.848  29.809  1.00  0.00     0.010 A 
ATOM     41  C   UNL A   1      45.986  25.289  30.007  1.00  0.00     0.010 A 
ATOM     42  C   UNL A   1      44.913  24.615  30.622  1.00  0.00    -0.014 A 
BRANCH  42  43
ATOM     43  C   UNL A   1      44.653  24.977  32.051  1.00  0.00     0.031 A 
ATOM     44  C   UNL A   1      43.998  26.306  32.342  1.00  0.00     0.074 A 
ATOM     45  C   UNL A   1      44.675  23.964  32.966  1.00  0.00     0.049 A 
ATOM     46  N   UNL A   1      43.624  26.731  33.503  1.00  0.00    -0.248 NA
ATOM     47  C   UNL A   1      43.755  27.319  31.305  1.00  0.00     0.031 C 
ATOM     48  C   UNL A   1      43.748  23.638  34.053  1.00  0.00     0.029 A 
ATOM     49  N   UNL A   1      45.538  22.885  33.047  1.00  0.00    -0.354 N 
ATOM     50  C   UNL A   1      42.816  27.857  33.327  1.00  0.00     0.074 A 
ATOM     51  C   UNL A   1      43.034  28.239  31.956  1.00  0.00     0.031 C 
ATOM     52  C   UNL A   1      44.115  22.554  34.741  1.00  0.00     0.029 A 
ATOM     53  C   UNL A   1      45.426  22.247  34.299  1.00  0.00     0.049 A 
ATOM     54  H   UNL A   1      46.149  22.601  32.327  1.00  0.00     0.167 HD
ATOM     55  C   UNL A   1      41.916  28.219  34.303  1.00  0.00     0.034 A 
ATOM     56  C   UNL A   1      46.491  22.235  35.142  1.00  0.00     0.034 A 
ATOM     57  C   UNL A   1      42.128  27.463  35.565  1.00  0.00     0.049 A 
ATOM     58  C   UNL A   1      46.384  23.369  36.192  1.00  0.00     0.074 A 
ATOM     59  C   UNL A   1      41.326  26.942  36.571  1.00  0.00     0.029 A 
ATOM     60  N   UNL A   1      43.418  27.056  35.906  1.00  0.00    -0.354 N 
ATOM     61  N   UNL A   1      45.382  24.225  36.298  1.00  0.00    -0.248 NA
ATOM     62  C   UNL A   1      47.380  23.599  37.232  1.00  0.00     0.031 C 
ATOM     63  C   UNL A   1      42.143  26.181  37.463  1.00  0.00     0.029 A 
ATOM     64  C   UNL A   1      43.456  26.297  37.047  1.00  0.00     0.049 A 
ATOM     65  H   UNL A   1      44.217  27.288  35.381  1.00  0.00     0.167 HD
ATOM     66  C   UNL A   1      45.594  25.108  37.335  1.00  0.00     0.074 A 
ATOM     67  C   UNL A   1      46.883  24.678  37.865  1.00  0.00     0.031 C 
ATOM     68  C   UNL A   1      44.736  26.121  37.704  1.00  0.00     0.034 A 
BRANCH  55  69
ATOM     69  C   UNL A   1      40.645  29.088  34.094  1.00  0.00     0.023 A 
ATOM     70  C   UNL A   1      40.296  30.043  35.082  1.00  0.00     0.031 A 
ATOM     71  C   UNL A   1      39.662  28.933  33.085  1.00  0.00     0.131 A 
ATOM     72  C   UNL A   1      39.041  30.696  35.108  1.00  0.00     0.055 A 
ATOM     73  C   UNL A   1      38.452  29.657  33.057  1.00  0.00     0.041 A 
ATOM     74  F   UNL A   1      39.782  28.045  32.094  1.00  0.00    -0.206 F 
ATOM     75  C   UNL A   1      38.121  30.526  34.084  1.00  0.00     0.022 A 
BRANCH  72  76
ATOM     76  S   UNL A   1      38.593  31.721  36.543  1.00  0.00     0.124 S 
ATOM     77  O   UNL A   1      38.000  32.893  35.909  1.00  0.00    -0.237 OA
ATOM     78  O   UNL A   1      37.679  30.855  37.278  1.00  0.00    -0.237 OA
ATOM     79  O   UNL A   1      39.877  31.959  37.205  1.00  0.00    -0.744 OA
ENDBRANCH  72  76
ENDBRANCH  55  69
BRANCH  56  80
ATOM     80  C   UNL A   1      47.613  21.606  34.343  1.00  0.00     0.023 A 
ATOM     81  C   UNL A   1      48.765  22.458  34.245  1.00  0.00     0.031 A 
ATOM     82  C   UNL A   1      47.851  20.227  34.470  1.00  0.00     0.131 A 
ATOM     83  C   UNL A   1      50.039  21.975  34.606  1.00  0.00     0.055 A 
ATOM     84  C   UNL A   1      49.144  19.744  34.753  1.00  0.00     0.041 A 
ATOM     85  F   UNL A   1      46.827  19.372  34.592  1.00  0.00    -0.206 F 
ATOM     86  C   UNL A   1      50.226  20.623  34.893  1.00  0.00     0.022 A 
BRANCH  83  87
ATOM     87  S   UNL A   1      51.359  23.173  35.037  1.00  0.00     0.124 S 
ATOM     88  O   UNL A   1      51.792  22.700  36.345  1.00  0.00    -0.237 OA
ATOM     89  O   UNL A   1      52.316  23.006  33.947  1.00  0.00    -0.237 OA
ATOM     90  O   UNL A   1      50.666  24.460  35.029  1.00  0.00    -0.744 OA
ENDBRANCH  83  87
ENDBRANCH  56  80
BRANCH  68  91
ATOM     91  C   UNL A   1      45.045  27.188  38.737  1.00  0.00     0.023 A 
ATOM     92  C   UNL A   1      45.257  28.512  38.381  1.00  0.00     0.031 A 
ATOM     93  C   UNL A   1      45.135  26.895  40.128  1.00  0.00     0.131 A 
ATOM     94  C   UNL A   1      45.313  29.505  39.367  1.00  0.00     0.055 A 
ATOM     95  C   UNL A   1      45.336  27.872  41.103  1.00  0.00     0.041 A 
ATOM     96  F   UNL A   1      44.992  25.656  40.617  1.00  0.00    -0.206 F 
ATOM     97  C   UNL A   1      45.371  29.201  40.726  1.00  0.00     0.022 A 
BRANCH  94  98
ATOM     98  S   UNL A   1      45.104  31.209  38.815  1.00  0.00     0.124 S 
ATOM     99  O   UNL A   1      43.695  31.247  38.437  1.00  0.00    -0.237 OA
ATOM    100  O   UNL A   1      45.451  31.949  40.027  1.00  0.00    -0.237 OA
ATOM    101  O   UNL A   1      46.056  31.335  37.715  1.00  0.00    -0.744 OA
ENDBRANCH  94  98
ENDBRANCH  68  91
ENDBRANCH  42  43
ENDBRANCH  35  37
ENDBRANCH  34  35
ENDBRANCH  33  34
ENDBRANCH  32  33
ENDBRANCH  31  32
ENDBRANCH  30  31
ENDBRANCH  29  30
ENDBRANCH   1  29
TORSDOF 26
ENDMDL
