MODEL 1
REMARK VINA RESULT:      -8.5      0.000      0.000
REMARK SMILES CC(C)[C@H](NC(=O)[C@H](C)NC(=O)CNC(=O)OCc1ccccc1)C(=O)OCCOCCOCCOCCOC(=O)c1ccc(-c2c3nc(c(-c4cc(S(=O)(=O)[O-])ccc4F)c4ccc([nH]4)c(-c4cc(S(=O)(=O)[O-])ccc4F)c4nc(c(-c5cc(S(=O)(=O)[O-])ccc5F)c5ccc2[nH]5)C=C4)C=C3)cc1
REMARK SMILES IDX 31 1 30 2 29 3 28 4 27 5 25 6 26 7 4 8 2 9 1 10 3 11 5 12
REMARK SMILES IDX 6 13 7 15 8 16 9 17 10 18 11 19 12 21 13 22 14 23 15 24
REMARK SMILES IDX 16 26 17 27 18 28 19 29 20 30 24 31 21 32 23 33 22 34 32 35
REMARK SMILES IDX 33 36 34 37 35 38 36 39 37 40 38 41 39 42 40 43 41 44 42 45
REMARK SMILES IDX 43 46 104 47 44 48 103 49 45 50 46 51 47 52 97 53 48 54
REMARK SMILES IDX 102 55 96 56 98 57 49 58 101 59 95 60 94 61 50 63 82 64
REMARK SMILES IDX 62 65 81 66 63 67 66 68 80 69 99 70 64 71 65 72 79 74 100 75
REMARK SMILES IDX 67 76 51 77 52 78 60 79 53 80 59 81 61 82 58 83 54 84 55 85
REMARK SMILES IDX 56 86 57 87 83 88 84 89 92 90 85 91 91 92 93 93 90 94 86 95
REMARK SMILES IDX 87 96 88 97 89 98 68 99 69 100 77 101 70 102 76 103 78 104
REMARK SMILES IDX 75 105 71 106 72 107 73 108 74 109
REMARK H PARENT 5 14 10 20 14 25 98 62 66 73
REMARK Flexibility Score: inf
ROOT
ATOM      1  C   UNL A   1      37.930  22.026  25.475  1.00  0.00     0.188 C 
ENDROOT
BRANCH   1   2
ATOM      2  O   UNL A   1      36.927  21.524  24.606  1.00  0.00    -0.376 OA
BRANCH   2   3
ATOM      3  C   UNL A   1      35.799  22.207  24.087  1.00  0.00     0.202 C 
BRANCH   3   4
ATOM      4  C   UNL A   1      35.781  23.631  23.524  1.00  0.00     0.261 C 
BRANCH   4   5
ATOM      5  O   UNL A   1      34.626  24.408  23.793  1.00  0.00    -0.462 OA
BRANCH   5   6
ATOM      6  C   UNL A   1      34.604  24.911  25.048  1.00  0.00     0.328 C 
ATOM      7  O   UNL A   1      35.470  24.721  25.896  1.00  0.00    -0.250 OA
BRANCH   6   8
ATOM      8  C   UNL A   1      33.293  25.629  25.355  1.00  0.00     0.194 C 
BRANCH   8   9
ATOM      9  C   UNL A   1      33.590  27.117  25.125  1.00  0.00     0.017 C 
ATOM     10  C   UNL A   1      32.652  27.877  24.171  1.00  0.00     0.010 C 
ATOM     11  C   UNL A   1      33.689  27.841  26.466  1.00  0.00     0.010 C 
ENDBRANCH   8   9
BRANCH   8  12
ATOM     12  N   UNL A   1      32.662  25.290  26.661  1.00  0.00    -0.341 N 
ATOM     13  C   UNL A   1      31.952  24.129  26.926  1.00  0.00     0.242 C 
ATOM     14  H   UNL A   1      32.755  25.941  27.394  1.00  0.00     0.164 HD
ATOM     15  O   UNL A   1      32.460  23.241  27.610  1.00  0.00    -0.273 OA
BRANCH  13  16
ATOM     16  C   UNL A   1      30.498  24.043  26.393  1.00  0.00     0.168 C 
ATOM     17  C   UNL A   1      29.903  22.649  26.574  1.00  0.00     0.041 C 
BRANCH  16  18
ATOM     18  N   UNL A   1      30.297  24.463  25.012  1.00  0.00    -0.343 N 
ATOM     19  C   UNL A   1      30.872  23.983  23.865  1.00  0.00     0.240 C 
ATOM     20  H   UNL A   1      29.655  25.198  24.885  1.00  0.00     0.164 HD
ATOM     21  O   UNL A   1      30.472  24.478  22.804  1.00  0.00    -0.273 OA
BRANCH  19  22
ATOM     22  C   UNL A   1      31.803  22.734  23.828  1.00  0.00     0.219 C 
BRANCH  22  23
ATOM     23  N   UNL A   1      31.800  21.902  22.646  1.00  0.00    -0.312 N 
ATOM     24  C   UNL A   1      31.949  20.549  22.522  1.00  0.00     0.407 C 
ATOM     25  H   UNL A   1      31.671  22.386  21.798  1.00  0.00     0.167 HD
ATOM     26  O   UNL A   1      32.054  20.063  21.412  1.00  0.00    -0.225 OA
BRANCH  24  27
ATOM     27  O   UNL A   1      32.079  19.882  23.703  1.00  0.00    -0.445 OA
BRANCH  27  28
ATOM     28  C   UNL A   1      33.438  19.557  24.075  1.00  0.00     0.270 C 
BRANCH  28  29
ATOM     29  C   UNL A   1      33.539  18.113  24.472  1.00  0.00    -0.011 A 
ATOM     30  C   UNL A   1      32.425  17.462  25.020  1.00  0.00     0.007 A 
ATOM     31  C   UNL A   1      34.755  17.424  24.384  1.00  0.00     0.007 A 
ATOM     32  C   UNL A   1      32.541  16.177  25.540  1.00  0.00     0.000 A 
ATOM     33  C   UNL A   1      34.861  16.125  24.883  1.00  0.00     0.000 A 
ATOM     34  C   UNL A   1      33.761  15.510  25.478  1.00  0.00     0.000 A 
ENDBRANCH  28  29
ENDBRANCH  27  28
ENDBRANCH  24  27
ENDBRANCH  22  23
ENDBRANCH  19  22
ENDBRANCH  16  18
ENDBRANCH  13  16
ENDBRANCH   8  12
ENDBRANCH   6   8
ENDBRANCH   5   6
ENDBRANCH   4   5
ENDBRANCH   3   4
ENDBRANCH   2   3
ENDBRANCH   1   2
BRANCH   1  35
ATOM     35  C   UNL A   1      39.221  21.270  25.846  1.00  0.00     0.188 C 
BRANCH  35  36
ATOM     36  O   UNL A   1      39.776  21.594  27.101  1.00  0.00    -0.377 OA
BRANCH  36  37
ATOM     37  C   UNL A   1      41.179  21.395  27.271  1.00  0.00     0.188 C 
BRANCH  37  38
ATOM     38  C   UNL A   1      41.946  22.215  28.335  1.00  0.00     0.188 C 
BRANCH  38  39
ATOM     39  O   UNL A   1      42.546  23.401  27.839  1.00  0.00    -0.376 OA
BRANCH  39  40
ATOM     40  C   UNL A   1      41.891  24.124  26.811  1.00  0.00     0.202 C 
BRANCH  40  41
ATOM     41  C   UNL A   1      42.639  24.314  25.483  1.00  0.00     0.261 C 
BRANCH  41  42
ATOM     42  O   UNL A   1      42.892  25.666  25.072  1.00  0.00    -0.460 OA
BRANCH  42  43
ATOM     43  C   UNL A   1      44.099  26.205  25.361  1.00  0.00     0.338 C 
ATOM     44  O   UNL A   1      45.162  25.937  24.835  1.00  0.00    -0.246 OA
BRANCH  43  45
ATOM     45  C   UNL A   1      43.862  27.343  26.276  1.00  0.00     0.060 A 
ATOM     46  C   UNL A   1      42.985  28.366  25.887  1.00  0.00     0.016 A 
ATOM     47  C   UNL A   1      44.497  27.391  27.518  1.00  0.00     0.016 A 
ATOM     48  C   UNL A   1      42.766  29.458  26.728  1.00  0.00     0.010 A 
ATOM     49  C   UNL A   1      44.299  28.499  28.346  1.00  0.00     0.010 A 
ATOM     50  C   UNL A   1      43.459  29.552  27.941  1.00  0.00    -0.014 A 
BRANCH  50  51
ATOM     51  C   UNL A   1      43.488  30.838  28.680  1.00  0.00     0.031 A 
ATOM     52  C   UNL A   1      44.569  31.825  28.331  1.00  0.00     0.074 A 
ATOM     53  C   UNL A   1      42.580  31.130  29.626  1.00  0.00     0.049 A 
ATOM     54  N   UNL A   1      44.873  32.964  28.896  1.00  0.00    -0.248 NA
ATOM     55  C   UNL A   1      45.424  31.470  27.188  1.00  0.00     0.031 C 
ATOM     56  C   UNL A   1      41.447  30.287  30.002  1.00  0.00     0.029 A 
ATOM     57  N   UNL A   1      42.476  32.223  30.452  1.00  0.00    -0.354 N 
ATOM     58  C   UNL A   1      45.960  33.459  28.184  1.00  0.00     0.074 A 
ATOM     59  C   UNL A   1      46.285  32.475  27.173  1.00  0.00     0.031 C 
ATOM     60  C   UNL A   1      40.769  30.889  30.995  1.00  0.00     0.029 A 
ATOM     61  C   UNL A   1      41.447  32.133  31.358  1.00  0.00     0.049 A 
ATOM     62  H   UNL A   1      43.083  32.997  30.398  1.00  0.00     0.167 HD
ATOM     63  C   UNL A   1      46.621  34.629  28.353  1.00  0.00     0.034 A 
ATOM     64  C   UNL A   1      41.118  32.946  32.383  1.00  0.00     0.034 A 
ATOM     65  C   UNL A   1      46.298  35.587  29.381  1.00  0.00     0.049 A 
ATOM     66  C   UNL A   1      41.950  34.182  32.639  1.00  0.00     0.074 A 
ATOM     67  C   UNL A   1      46.902  36.803  29.646  1.00  0.00     0.029 A 
ATOM     68  N   UNL A   1      45.291  35.431  30.325  1.00  0.00    -0.354 N 
ATOM     69  N   UNL A   1      42.984  34.638  31.969  1.00  0.00    -0.248 NA
ATOM     70  C   UNL A   1      41.569  35.012  33.789  1.00  0.00     0.031 C 
ATOM     71  C   UNL A   1      46.319  37.340  30.798  1.00  0.00     0.029 A 
ATOM     72  C   UNL A   1      45.284  36.508  31.198  1.00  0.00     0.049 A 
ATOM     73  H   UNL A   1      44.671  34.667  30.368  1.00  0.00     0.167 HD
ATOM     74  C   UNL A   1      43.350  35.829  32.596  1.00  0.00     0.074 A 
ATOM     75  C   UNL A   1      42.421  36.022  33.690  1.00  0.00     0.031 C 
ATOM     76  C   UNL A   1      44.356  36.688  32.291  1.00  0.00     0.034 A 
BRANCH  63  77
ATOM     77  C   UNL A   1      47.796  34.898  27.441  1.00  0.00     0.023 A 
ATOM     78  C   UNL A   1      49.108  34.543  27.800  1.00  0.00     0.031 A 
ATOM     79  C   UNL A   1      47.606  35.560  26.215  1.00  0.00     0.131 A 
ATOM     80  C   UNL A   1      50.184  34.924  26.986  1.00  0.00     0.055 A 
ATOM     81  C   UNL A   1      48.673  35.854  25.364  1.00  0.00     0.041 A 
ATOM     82  F   UNL A   1      46.381  35.950  25.830  1.00  0.00    -0.206 F 
ATOM     83  C   UNL A   1      49.974  35.552  25.756  1.00  0.00     0.022 A 
BRANCH  80  84
ATOM     84  S   UNL A   1      51.868  34.739  27.635  1.00  0.00     0.124 S 
ATOM     85  O   UNL A   1      52.415  33.717  26.746  1.00  0.00    -0.237 OA
ATOM     86  O   UNL A   1      52.415  36.082  27.478  1.00  0.00    -0.237 OA
ATOM     87  O   UNL A   1      51.657  34.307  29.015  1.00  0.00    -0.744 OA
ENDBRANCH  80  84
ENDBRANCH  63  77
BRANCH  64  88
ATOM     88  C   UNL A   1      39.979  32.605  33.286  1.00  0.00     0.023 A 
ATOM     89  C   UNL A   1      38.668  33.007  32.984  1.00  0.00     0.031 A 
ATOM     90  C   UNL A   1      40.198  31.931  34.500  1.00  0.00     0.131 A 
ATOM     91  C   UNL A   1      37.636  32.775  33.905  1.00  0.00     0.055 A 
ATOM     92  C   UNL A   1      39.158  31.654  35.388  1.00  0.00     0.041 A 
ATOM     93  F   UNL A   1      41.434  31.532  34.845  1.00  0.00    -0.206 F 
ATOM     94  C   UNL A   1      37.868  32.086  35.098  1.00  0.00     0.022 A 
BRANCH  91  95
ATOM     95  S   UNL A   1      35.997  33.475  33.569  1.00  0.00     0.124 S 
ATOM     96  O   UNL A   1      35.391  33.457  34.895  1.00  0.00    -0.237 OA
ATOM     97  O   UNL A   1      36.332  34.790  33.033  1.00  0.00    -0.237 OA
ATOM     98  O   UNL A   1      35.419  32.542  32.604  1.00  0.00    -0.744 OA
ENDBRANCH  91  95
ENDBRANCH  64  88
BRANCH  76  99
ATOM     99  C   UNL A   1      44.470  37.949  33.116  1.00  0.00     0.023 A 
ATOM    100  C   UNL A   1      43.732  39.108  32.812  1.00  0.00     0.031 A 
ATOM    101  C   UNL A   1      45.327  37.987  34.231  1.00  0.00     0.131 A 
ATOM    102  C   UNL A   1      43.907  40.268  33.583  1.00  0.00     0.055 A 
ATOM    103  C   UNL A   1      45.445  39.123  35.033  1.00  0.00     0.041 A 
ATOM    104  F   UNL A   1      46.059  36.912  34.566  1.00  0.00    -0.206 F 
ATOM    105  C   UNL A   1      44.741  40.277  34.703  1.00  0.00     0.022 A 
BRANCH 102 106
ATOM    106  S   UNL A   1      43.100  41.802  33.045  1.00  0.00     0.124 S 
ATOM    107  O   UNL A   1      43.881  42.817  33.744  1.00  0.00    -0.237 OA
ATOM    108  O   UNL A   1      43.272  41.754  31.596  1.00  0.00    -0.237 OA
ATOM    109  O   UNL A   1      41.724  41.648  33.511  1.00  0.00    -0.744 OA
ENDBRANCH 102 106
ENDBRANCH  76  99
ENDBRANCH  50  51
ENDBRANCH  43  45
ENDBRANCH  42  43
ENDBRANCH  41  42
ENDBRANCH  40  41
ENDBRANCH  39  40
ENDBRANCH  38  39
ENDBRANCH  37  38
ENDBRANCH  36  37
ENDBRANCH  35  36
ENDBRANCH   1  35
TORSDOF 32
ENDMDL
MODEL 2
REMARK VINA RESULT:      -8.4      5.504      9.791
REMARK SMILES CC(C)[C@H](NC(=O)[C@H](C)NC(=O)CNC(=O)OCc1ccccc1)C(=O)OCCOCCOCCOCCOC(=O)c1ccc(-c2c3nc(c(-c4cc(S(=O)(=O)[O-])ccc4F)c4ccc([nH]4)c(-c4cc(S(=O)(=O)[O-])ccc4F)c4nc(c(-c5cc(S(=O)(=O)[O-])ccc5F)c5ccc2[nH]5)C=C4)C=C3)cc1
REMARK SMILES IDX 31 1 30 2 29 3 28 4 27 5 25 6 26 7 4 8 2 9 1 10 3 11 5 12
REMARK SMILES IDX 6 13 7 15 8 16 9 17 10 18 11 19 12 21 13 22 14 23 15 24
REMARK SMILES IDX 16 26 17 27 18 28 19 29 20 30 24 31 21 32 23 33 22 34 32 35
REMARK SMILES IDX 33 36 34 37 35 38 36 39 37 40 38 41 39 42 40 43 41 44 42 45
REMARK SMILES IDX 43 46 104 47 44 48 103 49 45 50 46 51 47 52 97 53 48 54
REMARK SMILES IDX 102 55 96 56 98 57 49 58 101 59 95 60 94 61 50 63 82 64
REMARK SMILES IDX 62 65 81 66 63 67 66 68 80 69 99 70 64 71 65 72 79 74 100 75
REMARK SMILES IDX 67 76 51 77 52 78 60 79 53 80 59 81 61 82 58 83 54 84 55 85
REMARK SMILES IDX 56 86 57 87 83 88 84 89 92 90 85 91 91 92 93 93 90 94 86 95
REMARK SMILES IDX 87 96 88 97 89 98 68 99 69 100 77 101 70 102 76 103 78 104
REMARK SMILES IDX 75 105 71 106 72 107 73 108 74 109
REMARK H PARENT 5 14 10 20 14 25 98 62 66 73
REMARK Flexibility Score: inf
ROOT
ATOM      1  C   UNL A   1      38.254  34.553  31.515  1.00  0.00     0.188 C 
ENDROOT
BRANCH   1   2
ATOM      2  O   UNL A   1      38.682  33.560  30.597  1.00  0.00    -0.376 OA
BRANCH   2   3
ATOM      3  C   UNL A   1      38.326  32.188  30.564  1.00  0.00     0.202 C 
BRANCH   3   4
ATOM      4  C   UNL A   1      38.033  31.357  29.312  1.00  0.00     0.261 C 
BRANCH   4   5
ATOM      5  O   UNL A   1      39.033  30.436  28.910  1.00  0.00    -0.462 OA
BRANCH   5   6
ATOM      6  C   UNL A   1      38.625  29.602  27.928  1.00  0.00     0.328 C 
ATOM      7  O   UNL A   1      37.507  29.607  27.422  1.00  0.00    -0.250 OA
BRANCH   6   8
ATOM      8  C   UNL A   1      39.666  28.532  27.615  1.00  0.00     0.194 C 
BRANCH   8   9
ATOM      9  C   UNL A   1      39.198  27.284  28.378  1.00  0.00     0.017 C 
ATOM     10  C   UNL A   1      39.280  25.939  27.636  1.00  0.00     0.010 C 
ATOM     11  C   UNL A   1      39.916  27.197  29.723  1.00  0.00     0.010 C 
ENDBRANCH   8   9
BRANCH   8  12
ATOM     12  N   UNL A   1      41.086  28.928  27.833  1.00  0.00    -0.341 N 
ATOM     13  C   UNL A   1      42.081  28.893  26.869  1.00  0.00     0.242 C 
ATOM     14  H   UNL A   1      41.337  29.240  28.732  1.00  0.00     0.164 HD
ATOM     15  O   UNL A   1      42.482  29.939  26.361  1.00  0.00    -0.273 OA
BRANCH  13  16
ATOM     16  C   UNL A   1      42.696  27.510  26.528  1.00  0.00     0.168 C 
ATOM     17  C   UNL A   1      41.964  26.825  25.377  1.00  0.00     0.041 C 
BRANCH  16  18
ATOM     18  N   UNL A   1      42.812  26.571  27.636  1.00  0.00    -0.343 N 
ATOM     19  C   UNL A   1      43.864  25.768  27.990  1.00  0.00     0.240 C 
ATOM     20  H   UNL A   1      42.018  26.503  28.215  1.00  0.00     0.164 HD
ATOM     21  O   UNL A   1      43.724  25.107  29.025  1.00  0.00    -0.273 OA
BRANCH  19  22
ATOM     22  C   UNL A   1      45.258  25.825  27.296  1.00  0.00     0.219 C 
BRANCH  22  23
ATOM     23  N   UNL A   1      45.912  24.583  26.952  1.00  0.00    -0.312 N 
ATOM     24  C   UNL A   1      45.552  23.618  26.053  1.00  0.00     0.407 C 
ATOM     25  H   UNL A   1      46.746  24.402  27.443  1.00  0.00     0.167 HD
ATOM     26  O   UNL A   1      46.176  22.575  26.019  1.00  0.00    -0.225 OA
BRANCH  24  27
ATOM     27  O   UNL A   1      44.423  23.897  25.343  1.00  0.00    -0.445 OA
BRANCH  27  28
ATOM     28  C   UNL A   1      43.744  22.744  24.795  1.00  0.00     0.270 C 
BRANCH  28  29
ATOM     29  C   UNL A   1      42.697  22.252  25.751  1.00  0.00    -0.011 A 
ATOM     30  C   UNL A   1      41.886  23.172  26.429  1.00  0.00     0.007 A 
ATOM     31  C   UNL A   1      42.572  20.888  26.045  1.00  0.00     0.007 A 
ATOM     32  C   UNL A   1      41.022  22.749  27.434  1.00  0.00     0.000 A 
ATOM     33  C   UNL A   1      41.685  20.464  27.035  1.00  0.00     0.000 A 
ATOM     34  C   UNL A   1      40.926  21.395  27.743  1.00  0.00     0.000 A 
ENDBRANCH  28  29
ENDBRANCH  27  28
ENDBRANCH  24  27
ENDBRANCH  22  23
ENDBRANCH  19  22
ENDBRANCH  16  18
ENDBRANCH  13  16
ENDBRANCH   8  12
ENDBRANCH   6   8
ENDBRANCH   5   6
ENDBRANCH   4   5
ENDBRANCH   3   4
ENDBRANCH   2   3
ENDBRANCH   1   2
BRANCH   1  35
ATOM     35  C   UNL A   1      36.973  34.458  32.368  1.00  0.00     0.188 C 
BRANCH  35  36
ATOM     36  O   UNL A   1      37.092  34.915  33.696  1.00  0.00    -0.377 OA
BRANCH  36  37
ATOM     37  C   UNL A   1      36.670  34.033  34.736  1.00  0.00     0.188 C 
BRANCH  37  38
ATOM     38  C   UNL A   1      37.710  33.471  35.733  1.00  0.00     0.188 C 
BRANCH  38  39
ATOM     39  O   UNL A   1      38.422  32.338  35.261  1.00  0.00    -0.376 OA
BRANCH  39  40
ATOM     40  C   UNL A   1      37.847  31.543  34.239  1.00  0.00     0.202 C 
BRANCH  40  41
ATOM     41  C   UNL A   1      38.278  30.071  34.149  1.00  0.00     0.261 C 
BRANCH  41  42
ATOM     42  O   UNL A   1      39.536  29.730  34.750  1.00  0.00    -0.460 OA
BRANCH  42  43
ATOM     43  C   UNL A   1      40.397  28.965  34.040  1.00  0.00     0.338 C 
ATOM     44  O   UNL A   1      40.421  27.750  33.990  1.00  0.00    -0.246 OA
BRANCH  43  45
ATOM     45  C   UNL A   1      41.161  29.872  33.156  1.00  0.00     0.060 A 
ATOM     46  C   UNL A   1      41.120  29.674  31.768  1.00  0.00     0.016 A 
ATOM     47  C   UNL A   1      41.905  30.920  33.698  1.00  0.00     0.016 A 
ATOM     48  C   UNL A   1      41.851  30.507  30.920  1.00  0.00     0.010 A 
ATOM     49  C   UNL A   1      42.661  31.735  32.851  1.00  0.00     0.010 A 
ATOM     50  C   UNL A   1      42.662  31.511  31.462  1.00  0.00    -0.014 A 
BRANCH  50  51
ATOM     51  C   UNL A   1      43.681  32.178  30.614  1.00  0.00     0.031 A 
ATOM     52  C   UNL A   1      44.974  31.450  30.364  1.00  0.00     0.074 A 
ATOM     53  C   UNL A   1      43.467  33.388  30.072  1.00  0.00     0.049 A 
ATOM     54  N   UNL A   1      46.056  31.856  29.753  1.00  0.00    -0.248 NA
ATOM     55  C   UNL A   1      45.054  30.077  30.885  1.00  0.00     0.031 C 
ATOM     56  C   UNL A   1      42.230  34.159  30.183  1.00  0.00     0.029 A 
ATOM     57  N   UNL A   1      44.295  34.186  29.322  1.00  0.00    -0.354 N 
ATOM     58  C   UNL A   1      46.948  30.792  29.820  1.00  0.00     0.074 A 
ATOM     59  C   UNL A   1      46.294  29.740  30.569  1.00  0.00     0.031 C 
ATOM     60  C   UNL A   1      42.387  35.327  29.534  1.00  0.00     0.029 A 
ATOM     61  C   UNL A   1      43.748  35.407  29.006  1.00  0.00     0.049 A 
ATOM     62  H   UNL A   1      45.197  33.909  29.037  1.00  0.00     0.167 HD
ATOM     63  C   UNL A   1      48.196  30.698  29.299  1.00  0.00     0.034 A 
ATOM     64  C   UNL A   1      44.300  36.475  28.394  1.00  0.00     0.034 A 
ATOM     65  C   UNL A   1      48.841  31.765  28.576  1.00  0.00     0.049 A 
ATOM     66  C   UNL A   1      45.740  36.399  27.937  1.00  0.00     0.074 A 
ATOM     67  C   UNL A   1      50.102  31.782  28.007  1.00  0.00     0.029 A 
ATOM     68  N   UNL A   1      48.281  33.013  28.334  1.00  0.00    -0.354 N 
ATOM     69  N   UNL A   1      46.582  35.394  28.014  1.00  0.00    -0.248 NA
ATOM     70  C   UNL A   1      46.301  37.602  27.309  1.00  0.00     0.031 C 
ATOM     71  C   UNL A   1      50.336  33.063  27.498  1.00  0.00     0.029 A 
ATOM     72  C   UNL A   1      49.186  33.820  27.661  1.00  0.00     0.049 A 
ATOM     73  H   UNL A   1      47.373  33.286  28.600  1.00  0.00     0.167 HD
ATOM     74  C   UNL A   1      47.758  35.834  27.409  1.00  0.00     0.074 A 
ATOM     75  C   UNL A   1      47.512  37.190  26.966  1.00  0.00     0.031 C 
ATOM     76  C   UNL A   1      48.932  35.175  27.229  1.00  0.00     0.034 A 
BRANCH  63  77
ATOM     77  C   UNL A   1      48.956  29.418  29.553  1.00  0.00     0.023 A 
ATOM     78  C   UNL A   1      48.915  28.340  28.651  1.00  0.00     0.031 A 
ATOM     79  C   UNL A   1      49.698  29.255  30.736  1.00  0.00     0.131 A 
ATOM     80  C   UNL A   1      49.529  27.125  28.983  1.00  0.00     0.055 A 
ATOM     81  C   UNL A   1      50.386  28.073  31.019  1.00  0.00     0.041 A 
ATOM     82  F   UNL A   1      49.753  30.236  31.650  1.00  0.00    -0.206 F 
ATOM     83  C   UNL A   1      50.288  26.991  30.148  1.00  0.00     0.022 A 
BRANCH  80  84
ATOM     84  S   UNL A   1      49.181  25.670  27.956  1.00  0.00     0.124 S 
ATOM     85  O   UNL A   1      50.502  25.055  27.858  1.00  0.00    -0.237 OA
ATOM     86  O   UNL A   1      48.198  24.948  28.756  1.00  0.00    -0.237 OA
ATOM     87  O   UNL A   1      48.675  26.244  26.711  1.00  0.00    -0.744 OA
ENDBRANCH  80  84
ENDBRANCH  63  77
BRANCH  64  88
ATOM     88  C   UNL A   1      43.519  37.734  28.216  1.00  0.00     0.023 A 
ATOM     89  C   UNL A   1      43.528  38.738  29.198  1.00  0.00     0.031 A 
ATOM     90  C   UNL A   1      42.697  37.921  27.091  1.00  0.00     0.131 A 
ATOM     91  C   UNL A   1      42.695  39.859  29.060  1.00  0.00     0.055 A 
ATOM     92  C   UNL A   1      41.913  39.063  26.932  1.00  0.00     0.041 A 
ATOM     93  F   UNL A   1      42.643  36.989  26.126  1.00  0.00    -0.206 F 
ATOM     94  C   UNL A   1      41.900  40.037  27.925  1.00  0.00     0.022 A 
BRANCH  91  95
ATOM     95  S   UNL A   1      42.589  41.039  30.434  1.00  0.00     0.124 S 
ATOM     96  O   UNL A   1      41.169  41.367  30.431  1.00  0.00    -0.237 OA
ATOM     97  O   UNL A   1      43.062  40.238  31.559  1.00  0.00    -0.237 OA
ATOM     98  O   UNL A   1      43.482  42.119  30.024  1.00  0.00    -0.744 OA
ENDBRANCH  91  95
ENDBRANCH  64  88
BRANCH  76  99
ATOM     99  C   UNL A   1      50.023  35.891  26.467  1.00  0.00     0.023 A 
ATOM    100  C   UNL A   1      51.049  36.598  27.121  1.00  0.00     0.031 A 
ATOM    101  C   UNL A   1      50.038  35.859  25.061  1.00  0.00     0.131 A 
ATOM    102  C   UNL A   1      52.014  37.284  26.367  1.00  0.00     0.055 A 
ATOM    103  C   UNL A   1      51.040  36.487  24.319  1.00  0.00     0.041 A 
ATOM    104  F   UNL A   1      49.082  35.204  24.382  1.00  0.00    -0.206 F 
ATOM    105  C   UNL A   1      52.029  37.216  24.971  1.00  0.00     0.022 A 
BRANCH 102 106
ATOM    106  S   UNL A   1      53.200  38.351  27.231  1.00  0.00     0.124 S 
ATOM    107  O   UNL A   1      52.436  38.765  28.403  1.00  0.00    -0.237 OA
ATOM    108  O   UNL A   1      54.312  37.440  27.485  1.00  0.00    -0.237 OA
ATOM    109  O   UNL A   1      53.476  39.412  26.264  1.00  0.00    -0.744 OA
ENDBRANCH 102 106
ENDBRANCH  76  99
ENDBRANCH  50  51
ENDBRANCH  43  45
ENDBRANCH  42  43
ENDBRANCH  41  42
ENDBRANCH  40  41
ENDBRANCH  39  40
ENDBRANCH  38  39
ENDBRANCH  37  38
ENDBRANCH  36  37
ENDBRANCH  35  36
ENDBRANCH   1  35
TORSDOF 32
ENDMDL
MODEL 3
REMARK VINA RESULT:      -8.0      6.817      9.271
REMARK SMILES CC(C)[C@H](NC(=O)[C@H](C)NC(=O)CNC(=O)OCc1ccccc1)C(=O)OCCOCCOCCOCCOC(=O)c1ccc(-c2c3nc(c(-c4cc(S(=O)(=O)[O-])ccc4F)c4ccc([nH]4)c(-c4cc(S(=O)(=O)[O-])ccc4F)c4nc(c(-c5cc(S(=O)(=O)[O-])ccc5F)c5ccc2[nH]5)C=C4)C=C3)cc1
REMARK SMILES IDX 31 1 30 2 29 3 28 4 27 5 25 6 26 7 4 8 2 9 1 10 3 11 5 12
REMARK SMILES IDX 6 13 7 15 8 16 9 17 10 18 11 19 12 21 13 22 14 23 15 24
REMARK SMILES IDX 16 26 17 27 18 28 19 29 20 30 24 31 21 32 23 33 22 34 32 35
REMARK SMILES IDX 33 36 34 37 35 38 36 39 37 40 38 41 39 42 40 43 41 44 42 45
REMARK SMILES IDX 43 46 104 47 44 48 103 49 45 50 46 51 47 52 97 53 48 54
REMARK SMILES IDX 102 55 96 56 98 57 49 58 101 59 95 60 94 61 50 63 82 64
REMARK SMILES IDX 62 65 81 66 63 67 66 68 80 69 99 70 64 71 65 72 79 74 100 75
REMARK SMILES IDX 67 76 51 77 52 78 60 79 53 80 59 81 61 82 58 83 54 84 55 85
REMARK SMILES IDX 56 86 57 87 83 88 84 89 92 90 85 91 91 92 93 93 90 94 86 95
REMARK SMILES IDX 87 96 88 97 89 98 68 99 69 100 77 101 70 102 76 103 78 104
REMARK SMILES IDX 75 105 71 106 72 107 73 108 74 109
REMARK H PARENT 5 14 10 20 14 25 98 62 66 73
REMARK Flexibility Score: inf
ROOT
ATOM      1  C   UNL A   1      37.293  23.578  26.066  1.00  0.00     0.188 C 
ENDROOT
BRANCH   1   2
ATOM      2  O   UNL A   1      36.154  23.932  25.297  1.00  0.00    -0.376 OA
BRANCH   2   3
ATOM      3  C   UNL A   1      34.916  24.451  25.755  1.00  0.00     0.202 C 
BRANCH   3   4
ATOM      4  C   UNL A   1      34.095  25.558  25.089  1.00  0.00     0.261 C 
BRANCH   4   5
ATOM      5  O   UNL A   1      32.684  25.439  25.167  1.00  0.00    -0.462 OA
BRANCH   5   6
ATOM      6  C   UNL A   1      32.134  26.251  26.097  1.00  0.00     0.328 C 
ATOM      7  O   UNL A   1      31.538  25.868  27.100  1.00  0.00    -0.250 OA
BRANCH   6   8
ATOM      8  C   UNL A   1      32.197  27.719  25.686  1.00  0.00     0.194 C 
BRANCH   8   9
ATOM      9  C   UNL A   1      32.901  28.429  26.851  1.00  0.00     0.017 C 
ATOM     10  C   UNL A   1      34.398  28.739  26.677  1.00  0.00     0.010 C 
ATOM     11  C   UNL A   1      32.133  29.694  27.230  1.00  0.00     0.010 C 
ENDBRANCH   8   9
BRANCH   8  12
ATOM     12  N   UNL A   1      30.908  28.323  25.246  1.00  0.00    -0.341 N 
ATOM     13  C   UNL A   1      30.443  28.345  23.940  1.00  0.00     0.242 C 
ATOM     14  H   UNL A   1      30.341  28.738  25.936  1.00  0.00     0.164 HD
ATOM     15  O   UNL A   1      29.529  27.594  23.600  1.00  0.00    -0.273 OA
BRANCH  13  16
ATOM     16  C   UNL A   1      31.066  29.390  22.978  1.00  0.00     0.168 C 
ATOM     17  C   UNL A   1      30.171  29.665  21.773  1.00  0.00     0.041 C 
BRANCH  16  18
ATOM     18  N   UNL A   1      32.413  29.101  22.506  1.00  0.00    -0.343 N 
ATOM     19  C   UNL A   1      32.954  27.911  22.095  1.00  0.00     0.240 C 
ATOM     20  H   UNL A   1      33.025  29.872  22.478  1.00  0.00     0.164 HD
ATOM     21  O   UNL A   1      34.117  27.954  21.675  1.00  0.00    -0.273 OA
BRANCH  19  22
ATOM     22  C   UNL A   1      32.124  26.603  21.927  1.00  0.00     0.219 C 
BRANCH  22  23
ATOM     23  N   UNL A   1      32.561  25.625  20.957  1.00  0.00    -0.312 N 
ATOM     24  C   UNL A   1      32.880  24.306  21.120  1.00  0.00     0.407 C 
ATOM     25  H   UNL A   1      32.644  25.962  20.036  1.00  0.00     0.167 HD
ATOM     26  O   UNL A   1      33.363  23.692  20.187  1.00  0.00    -0.225 OA
BRANCH  24  27
ATOM     27  O   UNL A   1      32.718  23.835  22.388  1.00  0.00    -0.445 OA
BRANCH  27  28
ATOM     28  C   UNL A   1      32.653  22.395  22.503  1.00  0.00     0.270 C 
BRANCH  28  29
ATOM     29  C   UNL A   1      33.035  21.965  23.890  1.00  0.00    -0.011 A 
ATOM     30  C   UNL A   1      34.256  21.311  24.104  1.00  0.00     0.007 A 
ATOM     31  C   UNL A   1      32.151  22.128  24.964  1.00  0.00     0.007 A 
ATOM     32  C   UNL A   1      34.558  20.764  25.348  1.00  0.00     0.000 A 
ATOM     33  C   UNL A   1      32.468  21.601  26.217  1.00  0.00     0.000 A 
ATOM     34  C   UNL A   1      33.661  20.903  26.403  1.00  0.00     0.000 A 
ENDBRANCH  28  29
ENDBRANCH  27  28
ENDBRANCH  24  27
ENDBRANCH  22  23
ENDBRANCH  19  22
ENDBRANCH  16  18
ENDBRANCH  13  16
ENDBRANCH   8  12
ENDBRANCH   6   8
ENDBRANCH   5   6
ENDBRANCH   4   5
ENDBRANCH   3   4
ENDBRANCH   2   3
ENDBRANCH   1   2
BRANCH   1  35
ATOM     35  C   UNL A   1      38.153  22.323  25.824  1.00  0.00     0.188 C 
BRANCH  35  36
ATOM     36  O   UNL A   1      39.334  22.238  26.589  1.00  0.00    -0.377 OA
BRANCH  36  37
ATOM     37  C   UNL A   1      40.263  21.207  26.254  1.00  0.00     0.188 C 
BRANCH  37  38
ATOM     38  C   UNL A   1      41.032  20.474  27.377  1.00  0.00     0.188 C 
BRANCH  38  39
ATOM     39  O   UNL A   1      42.336  20.977  27.619  1.00  0.00    -0.376 OA
BRANCH  39  40
ATOM     40  C   UNL A   1      42.659  22.285  27.181  1.00  0.00     0.202 C 
BRANCH  40  41
ATOM     41  C   UNL A   1      44.142  22.619  26.957  1.00  0.00     0.261 C 
BRANCH  41  42
ATOM     42  O   UNL A   1      44.566  23.945  27.309  1.00  0.00    -0.460 OA
BRANCH  42  43
ATOM     43  C   UNL A   1      45.795  24.099  27.852  1.00  0.00     0.338 C 
ATOM     44  O   UNL A   1      46.862  23.854  27.323  1.00  0.00    -0.246 OA
BRANCH  43  45
ATOM     45  C   UNL A   1      45.622  24.834  29.124  1.00  0.00     0.060 A 
ATOM     46  C   UNL A   1      46.625  25.717  29.549  1.00  0.00     0.016 A 
ATOM     47  C   UNL A   1      44.467  24.658  29.887  1.00  0.00     0.016 A 
ATOM     48  C   UNL A   1      46.488  26.404  30.757  1.00  0.00     0.010 A 
ATOM     49  C   UNL A   1      44.344  25.322  31.110  1.00  0.00     0.010 A 
ATOM     50  C   UNL A   1      45.368  26.172  31.565  1.00  0.00    -0.014 A 
BRANCH  50  51
ATOM     51  C   UNL A   1      45.366  26.632  32.976  1.00  0.00     0.031 A 
ATOM     52  C   UNL A   1      44.834  28.009  33.266  1.00  0.00     0.074 A 
ATOM     53  C   UNL A   1      45.813  25.851  33.974  1.00  0.00     0.049 A 
ATOM     54  N   UNL A   1      44.821  28.679  34.389  1.00  0.00    -0.248 NA
ATOM     55  C   UNL A   1      44.240  28.726  32.127  1.00  0.00     0.031 C 
ATOM     56  C   UNL A   1      46.285  24.476  33.827  1.00  0.00     0.029 A 
ATOM     57  N   UNL A   1      45.949  26.113  35.315  1.00  0.00    -0.354 N 
ATOM     58  C   UNL A   1      44.225  29.900  34.092  1.00  0.00     0.074 A 
ATOM     59  C   UNL A   1      43.931  29.891  32.674  1.00  0.00     0.031 C 
ATOM     60  C   UNL A   1      46.672  24.019  35.031  1.00  0.00     0.029 A 
ATOM     61  C   UNL A   1      46.521  25.083  36.022  1.00  0.00     0.049 A 
ATOM     62  H   UNL A   1      45.662  26.959  35.729  1.00  0.00     0.167 HD
ATOM     63  C   UNL A   1      43.943  30.930  34.925  1.00  0.00     0.034 A 
ATOM     64  C   UNL A   1      46.911  25.026  37.313  1.00  0.00     0.034 A 
ATOM     65  C   UNL A   1      44.265  30.931  36.330  1.00  0.00     0.049 A 
ATOM     66  C   UNL A   1      46.709  26.236  38.197  1.00  0.00     0.074 A 
ATOM     67  C   UNL A   1      44.030  31.920  37.268  1.00  0.00     0.029 A 
ATOM     68  N   UNL A   1      44.908  29.896  36.999  1.00  0.00    -0.354 N 
ATOM     69  N   UNL A   1      46.156  27.392  37.906  1.00  0.00    -0.248 NA
ATOM     70  C   UNL A   1      47.184  26.131  39.583  1.00  0.00     0.031 C 
ATOM     71  C   UNL A   1      44.604  31.521  38.479  1.00  0.00     0.029 A 
ATOM     72  C   UNL A   1      45.113  30.241  38.326  1.00  0.00     0.049 A 
ATOM     73  H   UNL A   1      45.178  29.042  36.591  1.00  0.00     0.167 HD
ATOM     74  C   UNL A   1      46.184  28.135  39.086  1.00  0.00     0.074 A 
ATOM     75  C   UNL A   1      46.799  27.293  40.090  1.00  0.00     0.031 C 
ATOM     76  C   UNL A   1      45.734  29.395  39.320  1.00  0.00     0.034 A 
BRANCH  63  77
ATOM     77  C   UNL A   1      43.311  32.159  34.316  1.00  0.00     0.023 A 
ATOM     78  C   UNL A   1      41.919  32.273  34.154  1.00  0.00     0.031 A 
ATOM     79  C   UNL A   1      44.115  33.214  33.847  1.00  0.00     0.131 A 
ATOM     80  C   UNL A   1      41.381  33.372  33.469  1.00  0.00     0.055 A 
ATOM     81  C   UNL A   1      43.566  34.350  33.249  1.00  0.00     0.041 A 
ATOM     82  F   UNL A   1      45.452  33.152  33.947  1.00  0.00    -0.206 F 
ATOM     83  C   UNL A   1      42.192  34.425  33.040  1.00  0.00     0.022 A 
BRANCH  80  84
ATOM     84  S   UNL A   1      39.630  33.324  32.998  1.00  0.00     0.124 S 
ATOM     85  O   UNL A   1      39.087  32.382  33.975  1.00  0.00    -0.237 OA
ATOM     86  O   UNL A   1      39.222  34.715  33.157  1.00  0.00    -0.237 OA
ATOM     87  O   UNL A   1      39.659  32.834  31.621  1.00  0.00    -0.744 OA
ENDBRANCH  80  84
ENDBRANCH  63  77
BRANCH  64  88
ATOM     88  C   UNL A   1      47.580  23.804  37.849  1.00  0.00     0.023 A 
ATOM     89  C   UNL A   1      46.837  22.777  38.452  1.00  0.00     0.031 A 
ATOM     90  C   UNL A   1      48.980  23.680  37.829  1.00  0.00     0.131 A 
ATOM     91  C   UNL A   1      47.499  21.694  39.052  1.00  0.00     0.055 A 
ATOM     92  C   UNL A   1      49.630  22.575  38.378  1.00  0.00     0.041 A 
ATOM     93  F   UNL A   1      49.741  24.638  37.274  1.00  0.00    -0.206 F 
ATOM     94  C   UNL A   1      48.890  21.578  39.005  1.00  0.00     0.022 A 
BRANCH  91  95
ATOM     95  S   UNL A   1      46.520  20.486  39.986  1.00  0.00     0.124 S 
ATOM     96  O   UNL A   1      45.489  21.332  40.573  1.00  0.00    -0.237 OA
ATOM     97  O   UNL A   1      46.081  19.573  38.935  1.00  0.00    -0.237 OA
ATOM     98  O   UNL A   1      47.483  19.925  40.931  1.00  0.00    -0.744 OA
ENDBRANCH  91  95
ENDBRANCH  64  88
BRANCH  76  99
ATOM     99  C   UNL A   1      45.836  29.920  40.733  1.00  0.00     0.023 A 
ATOM    100  C   UNL A   1      44.845  29.662  41.698  1.00  0.00     0.031 A 
ATOM    101  C   UNL A   1      46.950  30.686  41.121  1.00  0.00     0.131 A 
ATOM    102  C   UNL A   1      44.964  30.210  42.985  1.00  0.00     0.055 A 
ATOM    103  C   UNL A   1      47.095  31.171  42.422  1.00  0.00     0.041 A 
ATOM    104  F   UNL A   1      47.926  30.968  40.242  1.00  0.00    -0.206 F 
ATOM    105  C   UNL A   1      46.092  30.944  43.359  1.00  0.00     0.022 A 
BRANCH 102 106
ATOM    106  S   UNL A   1      43.576  30.033  44.140  1.00  0.00     0.124 S 
ATOM    107  O   UNL A   1      44.082  30.712  45.328  1.00  0.00    -0.237 OA
ATOM    108  O   UNL A   1      42.493  30.708  43.433  1.00  0.00    -0.237 OA
ATOM    109  O   UNL A   1      43.423  28.585  44.272  1.00  0.00    -0.744 OA
ENDBRANCH 102 106
ENDBRANCH  76  99
ENDBRANCH  50  51
ENDBRANCH  43  45
ENDBRANCH  42  43
ENDBRANCH  41  42
ENDBRANCH  40  41
ENDBRANCH  39  40
ENDBRANCH  38  39
ENDBRANCH  37  38
ENDBRANCH  36  37
ENDBRANCH  35  36
ENDBRANCH   1  35
TORSDOF 32
ENDMDL
