MODEL 1
REMARK VINA RESULT:      -8.1      0.000      0.000
REMARK SMILES NS(=O)(=O)c1ccc(/N=C/c2ccc(O)c(C(=O)OCCOCCOCCOCCOC(=O)c3ccc(-c4c5nc(c(-c6cc(S(=O)(=O)[O-])ccc6F)c6ccc([nH]6)c(-c6cc(S(=O)(=O)[O-])ccc6F)c6nc(c(-c7cc(S(=O)(=O)[O-])ccc7F)c7ccc4[nH]7)C=C6)C=C5)cc3)c2)cc1
REMARK SMILES IDX 24 1 23 2 22 3 21 4 20 5 19 6 17 7 18 8 16 9 11 10 12 11
REMARK SMILES IDX 97 12 13 13 14 14 10 15 9 16 8 17 5 18 6 19 99 20 7 21 98 22
REMARK SMILES IDX 2 23 3 24 4 25 1 26 15 29 25 31 26 32 27 33 28 34 29 35
REMARK SMILES IDX 30 36 31 37 32 38 33 39 34 40 35 41 96 42 36 43 95 44 37 45
REMARK SMILES IDX 38 46 39 47 89 48 40 49 94 50 88 51 90 52 41 53 93 54 87 55
REMARK SMILES IDX 86 56 42 58 74 59 54 60 73 61 55 62 58 63 72 64 91 65 56 66
REMARK SMILES IDX 57 67 71 69 92 70 59 71 43 72 44 73 52 74 45 75 51 76 53 77
REMARK SMILES IDX 50 78 46 79 47 80 48 81 49 82 75 83 76 84 84 85 77 86 83 87
REMARK SMILES IDX 85 88 82 89 78 90 79 91 80 92 81 93 60 94 61 95 69 96 62 97
REMARK SMILES IDX 68 98 70 99 67 100 63 101 64 102 65 103 66 104
REMARK H PARENT 1 27 1 28 15 30 90 57 58 68
REMARK Flexibility Score: inf
ROOT
ATOM      1  C   UNL A   1      42.703  28.455  26.600  1.00  0.00     0.188 C 
ENDROOT
BRANCH   1   2
ATOM      2  C   UNL A   1      42.195  27.866  25.272  1.00  0.00     0.188 C 
BRANCH   2   3
ATOM      3  O   UNL A   1      41.601  26.591  25.415  1.00  0.00    -0.376 OA
BRANCH   3   4
ATOM      4  C   UNL A   1      41.067  26.174  26.658  1.00  0.00     0.202 C 
BRANCH   4   5
ATOM      5  C   UNL A   1      40.784  24.702  27.013  1.00  0.00     0.261 C 
BRANCH   5   6
ATOM      6  O   UNL A   1      39.474  24.185  26.757  1.00  0.00    -0.460 OA
BRANCH   6   7
ATOM      7  C   UNL A   1      39.340  22.872  26.495  1.00  0.00     0.342 C 
ATOM      8  O   UNL A   1      40.004  21.953  26.945  1.00  0.00    -0.246 OA
BRANCH   7   9
ATOM      9  C   UNL A   1      38.045  22.677  25.803  1.00  0.00     0.102 A 
ATOM     10  C   UNL A   1      35.831  23.447  25.207  1.00  0.00    -0.006 A 
ATOM     11  C   UNL A   1      35.497  22.164  24.762  1.00  0.00     0.013 A 
ATOM     12  C   UNL A   1      37.098  23.707  25.741  1.00  0.00     0.029 A 
ATOM     13  C   UNL A   1      36.444  21.141  24.819  1.00  0.00     0.048 A 
ATOM     14  C   UNL A   1      37.717  21.400  25.322  1.00  0.00     0.130 A 
BRANCH  10  15
ATOM     15  C   UNL A   1      34.822  24.521  25.088  1.00  0.00     0.119 C 
ATOM     16  N   UNL A   1      34.181  24.714  23.987  1.00  0.00    -0.256 NA
BRANCH  16  17
ATOM     17  C   UNL A   1      33.184  25.696  23.858  1.00  0.00     0.063 A 
ATOM     18  C   UNL A   1      31.303  27.743  23.411  1.00  0.00     0.082 A 
ATOM     19  C   UNL A   1      32.336  27.537  22.495  1.00  0.00     0.024 A 
ATOM     20  C   UNL A   1      31.208  26.947  24.553  1.00  0.00     0.024 A 
ATOM     21  C   UNL A   1      33.262  26.516  22.725  1.00  0.00     0.030 A 
ATOM     22  C   UNL A   1      32.151  25.934  24.774  1.00  0.00     0.030 A 
BRANCH  18  23
ATOM     23  S   UNL A   1      30.152  29.043  23.091  1.00  0.00     0.238 S 
ATOM     24  O   UNL A   1      30.373  30.091  24.070  1.00  0.00    -0.207 OA
ATOM     25  O   UNL A   1      28.860  28.472  22.834  1.00  0.00    -0.207 OA
BRANCH  23  26
ATOM     26  N   UNL A   1      30.647  29.704  21.624  1.00  0.00    -0.225 NA
ATOM     27  H   UNL A   1      30.923  28.955  20.989  1.00  0.00     0.137 HD
ATOM     28  H   UNL A   1      31.440  30.325  21.781  1.00  0.00     0.137 HD
ENDBRANCH  23  26
ENDBRANCH  18  23
ENDBRANCH  16  17
ENDBRANCH  10  15
BRANCH  14  29
ATOM     29  O   UNL A   1      38.580  20.337  25.365  1.00  0.00    -0.507 OA
ATOM     30  H   UNL A   1      38.481  19.629  24.760  1.00  0.00     0.293 HD
ENDBRANCH  14  29
ENDBRANCH   7   9
ENDBRANCH   6   7
ENDBRANCH   5   6
ENDBRANCH   4   5
ENDBRANCH   3   4
ENDBRANCH   2   3
ENDBRANCH   1   2
BRANCH   1  31
ATOM     31  O   UNL A   1      43.430  29.663  26.470  1.00  0.00    -0.377 OA
BRANCH  31  32
ATOM     32  C   UNL A   1      44.768  29.726  26.970  1.00  0.00     0.188 C 
BRANCH  32  33
ATOM     33  C   UNL A   1      46.010  29.391  26.104  1.00  0.00     0.188 C 
BRANCH  33  34
ATOM     34  O   UNL A   1      46.418  28.030  26.138  1.00  0.00    -0.376 OA
BRANCH  34  35
ATOM     35  C   UNL A   1      46.189  27.244  24.981  1.00  0.00     0.202 C 
BRANCH  35  36
ATOM     36  C   UNL A   1      45.629  25.840  25.247  1.00  0.00     0.261 C 
BRANCH  36  37
ATOM     37  O   UNL A   1      44.714  25.742  26.347  1.00  0.00    -0.460 OA
BRANCH  37  38
ATOM     38  C   UNL A   1      45.136  25.032  27.418  1.00  0.00     0.338 C 
ATOM     39  O   UNL A   1      45.806  24.016  27.400  1.00  0.00    -0.246 OA
BRANCH  38  40
ATOM     40  C   UNL A   1      44.815  25.805  28.634  1.00  0.00     0.060 A 
ATOM     41  C   UNL A   1      43.637  25.508  29.330  1.00  0.00     0.016 A 
ATOM     42  C   UNL A   1      45.666  26.820  29.079  1.00  0.00     0.016 A 
ATOM     43  C   UNL A   1      43.279  26.263  30.445  1.00  0.00     0.010 A 
ATOM     44  C   UNL A   1      45.296  27.588  30.187  1.00  0.00     0.010 A 
ATOM     45  C   UNL A   1      44.080  27.340  30.848  1.00  0.00    -0.014 A 
BRANCH  45  46
ATOM     46  C   UNL A   1      43.528  28.333  31.802  1.00  0.00     0.031 A 
ATOM     47  C   UNL A   1      44.060  28.334  33.210  1.00  0.00     0.074 A 
ATOM     48  C   UNL A   1      42.621  29.250  31.417  1.00  0.00     0.049 A 
ATOM     49  N   UNL A   1      43.739  29.094  34.224  1.00  0.00    -0.248 NA
ATOM     50  C   UNL A   1      45.098  27.334  33.513  1.00  0.00     0.031 C 
ATOM     51  C   UNL A   1      42.072  29.380  30.069  1.00  0.00     0.029 A 
ATOM     52  N   UNL A   1      42.007  30.250  32.130  1.00  0.00    -0.354 N 
ATOM     53  C   UNL A   1      44.532  28.667  35.283  1.00  0.00     0.074 A 
ATOM     54  C   UNL A   1      45.315  27.550  34.801  1.00  0.00     0.031 C 
ATOM     55  C   UNL A   1      41.199  30.403  30.052  1.00  0.00     0.029 A 
ATOM     56  C   UNL A   1      41.098  30.974  31.395  1.00  0.00     0.049 A 
ATOM     57  H   UNL A   1      42.200  30.431  33.078  1.00  0.00     0.167 HD
ATOM     58  C   UNL A   1      44.612  29.169  36.540  1.00  0.00     0.034 A 
ATOM     59  C   UNL A   1      40.266  31.968  31.771  1.00  0.00     0.034 A 
ATOM     60  C   UNL A   1      43.813  30.274  37.010  1.00  0.00     0.049 A 
ATOM     61  C   UNL A   1      40.298  32.444  33.207  1.00  0.00     0.074 A 
ATOM     62  C   UNL A   1      43.817  30.869  38.259  1.00  0.00     0.029 A 
ATOM     63  N   UNL A   1      42.856  30.942  36.257  1.00  0.00    -0.354 N 
ATOM     64  N   UNL A   1      41.062  32.041  34.198  1.00  0.00    -0.248 NA
ATOM     65  C   UNL A   1      39.362  33.515  33.570  1.00  0.00     0.031 C 
ATOM     66  C   UNL A   1      42.808  31.837  38.287  1.00  0.00     0.029 A 
ATOM     67  C   UNL A   1      42.236  31.914  37.026  1.00  0.00     0.049 A 
ATOM     68  H   UNL A   1      42.648  30.752  35.313  1.00  0.00     0.167 HD
ATOM     69  C   UNL A   1      40.717  32.834  35.291  1.00  0.00     0.074 A 
ATOM     70  C   UNL A   1      39.694  33.748  34.830  1.00  0.00     0.031 C 
ATOM     71  C   UNL A   1      41.205  32.812  36.559  1.00  0.00     0.034 A 
BRANCH  58  72
ATOM     72  C   UNL A   1      45.553  28.484  37.502  1.00  0.00     0.023 A 
ATOM     73  C   UNL A   1      46.872  28.932  37.698  1.00  0.00     0.031 A 
ATOM     74  C   UNL A   1      45.135  27.343  38.211  1.00  0.00     0.131 A 
ATOM     75  C   UNL A   1      47.744  28.203  38.520  1.00  0.00     0.055 A 
ATOM     76  C   UNL A   1      45.982  26.672  39.093  1.00  0.00     0.041 A 
ATOM     77  F   UNL A   1      43.897  26.851  38.045  1.00  0.00    -0.206 F 
ATOM     78  C   UNL A   1      47.300  27.092  39.241  1.00  0.00     0.022 A 
BRANCH  75  79
ATOM     79  S   UNL A   1      49.506  28.636  38.516  1.00  0.00     0.124 S 
ATOM     80  O   UNL A   1      49.500  29.890  37.766  1.00  0.00    -0.237 OA
ATOM     81  O   UNL A   1      49.808  28.743  39.939  1.00  0.00    -0.237 OA
ATOM     82  O   UNL A   1      50.134  27.510  37.827  1.00  0.00    -0.744 OA
ENDBRANCH  75  79
ENDBRANCH  58  72
BRANCH  59  83
ATOM     83  C   UNL A   1      39.299  32.559  30.800  1.00  0.00     0.023 A 
ATOM     84  C   UNL A   1      38.070  31.939  30.523  1.00  0.00     0.031 A 
ATOM     85  C   UNL A   1      39.625  33.722  30.078  1.00  0.00     0.131 A 
ATOM     86  C   UNL A   1      37.235  32.455  29.517  1.00  0.00     0.055 A 
ATOM     87  C   UNL A   1      38.766  34.266  29.122  1.00  0.00     0.041 A 
ATOM     88  F   UNL A   1      40.791  34.353  30.295  1.00  0.00    -0.206 F 
ATOM     89  C   UNL A   1      37.567  33.622  28.826  1.00  0.00     0.022 A 
BRANCH  86  90
ATOM     90  S   UNL A   1      35.751  31.519  29.054  1.00  0.00     0.124 S 
ATOM     91  O   UNL A   1      36.204  30.143  29.223  1.00  0.00    -0.237 OA
ATOM     92  O   UNL A   1      34.776  31.998  30.028  1.00  0.00    -0.237 OA
ATOM     93  O   UNL A   1      35.506  31.932  27.674  1.00  0.00    -0.744 OA
ENDBRANCH  86  90
ENDBRANCH  59  83
BRANCH  71  94
ATOM     94  C   UNL A   1      40.664  33.842  37.525  1.00  0.00     0.023 A 
ATOM     95  C   UNL A   1      41.375  35.014  37.836  1.00  0.00     0.031 A 
ATOM     96  C   UNL A   1      39.422  33.640  38.152  1.00  0.00     0.131 A 
ATOM     97  C   UNL A   1      40.870  35.905  38.797  1.00  0.00     0.055 A 
ATOM     98  C   UNL A   1      38.891  34.565  39.052  1.00  0.00     0.041 A 
ATOM     99  F   UNL A   1      38.697  32.538  37.897  1.00  0.00    -0.206 F 
ATOM    100  C   UNL A   1      39.624  35.698  39.391  1.00  0.00     0.022 A 
BRANCH  97 101
ATOM    101  S   UNL A   1      41.917  37.283  39.342  1.00  0.00     0.124 S 
ATOM    102  O   UNL A   1      40.927  38.271  39.754  1.00  0.00    -0.237 OA
ATOM    103  O   UNL A   1      42.697  36.676  40.415  1.00  0.00    -0.237 OA
ATOM    104  O   UNL A   1      42.679  37.630  38.143  1.00  0.00    -0.744 OA
ENDBRANCH  97 101
ENDBRANCH  71  94
ENDBRANCH  45  46
ENDBRANCH  38  40
ENDBRANCH  37  38
ENDBRANCH  36  37
ENDBRANCH  35  36
ENDBRANCH  34  35
ENDBRANCH  33  34
ENDBRANCH  32  33
ENDBRANCH  31  32
ENDBRANCH   1  31
TORSDOF 28
ENDMDL
MODEL 2
REMARK VINA RESULT:      -7.9      6.511     11.334
REMARK SMILES NS(=O)(=O)c1ccc(/N=C/c2ccc(O)c(C(=O)OCCOCCOCCOCCOC(=O)c3ccc(-c4c5nc(c(-c6cc(S(=O)(=O)[O-])ccc6F)c6ccc([nH]6)c(-c6cc(S(=O)(=O)[O-])ccc6F)c6nc(c(-c7cc(S(=O)(=O)[O-])ccc7F)c7ccc4[nH]7)C=C6)C=C5)cc3)c2)cc1
REMARK SMILES IDX 24 1 23 2 22 3 21 4 20 5 19 6 17 7 18 8 16 9 11 10 12 11
REMARK SMILES IDX 97 12 13 13 14 14 10 15 9 16 8 17 5 18 6 19 99 20 7 21 98 22
REMARK SMILES IDX 2 23 3 24 4 25 1 26 15 29 25 31 26 32 27 33 28 34 29 35
REMARK SMILES IDX 30 36 31 37 32 38 33 39 34 40 35 41 96 42 36 43 95 44 37 45
REMARK SMILES IDX 38 46 39 47 89 48 40 49 94 50 88 51 90 52 41 53 93 54 87 55
REMARK SMILES IDX 86 56 42 58 74 59 54 60 73 61 55 62 58 63 72 64 91 65 56 66
REMARK SMILES IDX 57 67 71 69 92 70 59 71 43 72 44 73 52 74 45 75 51 76 53 77
REMARK SMILES IDX 50 78 46 79 47 80 48 81 49 82 75 83 76 84 84 85 77 86 83 87
REMARK SMILES IDX 85 88 82 89 78 90 79 91 80 92 81 93 60 94 61 95 69 96 62 97
REMARK SMILES IDX 68 98 70 99 67 100 63 101 64 102 65 103 66 104
REMARK H PARENT 1 27 1 28 15 30 90 57 58 68
REMARK Flexibility Score: inf
ROOT
ATOM      1  C   UNL A   1      42.077  26.841  28.156  1.00  0.00     0.188 C 
ENDROOT
BRANCH   1   2
ATOM      2  C   UNL A   1      41.437  28.233  28.009  1.00  0.00     0.188 C 
BRANCH   2   3
ATOM      3  O   UNL A   1      40.978  28.772  29.234  1.00  0.00    -0.376 OA
BRANCH   3   4
ATOM      4  C   UNL A   1      41.539  28.354  30.465  1.00  0.00     0.202 C 
BRANCH   4   5
ATOM      5  C   UNL A   1      40.748  28.302  31.787  1.00  0.00     0.261 C 
BRANCH   5   6
ATOM      6  O   UNL A   1      40.984  29.328  32.755  1.00  0.00    -0.460 OA
BRANCH   6   7
ATOM      7  C   UNL A   1      40.769  29.050  34.054  1.00  0.00     0.342 C 
ATOM      8  O   UNL A   1      41.122  28.057  34.669  1.00  0.00    -0.246 OA
BRANCH   7   9
ATOM      9  C   UNL A   1      40.301  30.290  34.714  1.00  0.00     0.102 A 
ATOM     10  C   UNL A   1      39.062  32.367  34.671  1.00  0.00    -0.006 A 
ATOM     11  C   UNL A   1      39.684  32.771  35.857  1.00  0.00     0.013 A 
ATOM     12  C   UNL A   1      39.376  31.136  34.087  1.00  0.00     0.029 A 
ATOM     13  C   UNL A   1      40.601  31.926  36.483  1.00  0.00     0.048 A 
ATOM     14  C   UNL A   1      40.895  30.684  35.922  1.00  0.00     0.130 A 
BRANCH  10  15
ATOM     15  C   UNL A   1      38.060  33.265  34.058  1.00  0.00     0.119 C 
ATOM     16  N   UNL A   1      36.876  32.844  33.770  1.00  0.00    -0.256 NA
BRANCH  16  17
ATOM     17  C   UNL A   1      35.888  33.686  33.231  1.00  0.00     0.063 A 
ATOM     18  C   UNL A   1      33.955  35.273  31.938  1.00  0.00     0.082 A 
ATOM     19  C   UNL A   1      34.618  34.271  31.228  1.00  0.00     0.024 A 
ATOM     20  C   UNL A   1      34.257  35.498  33.282  1.00  0.00     0.024 A 
ATOM     21  C   UNL A   1      35.573  33.486  31.880  1.00  0.00     0.030 A 
ATOM     22  C   UNL A   1      35.225  34.710  33.918  1.00  0.00     0.030 A 
BRANCH  18  23
ATOM     23  S   UNL A   1      32.756  36.247  31.084  1.00  0.00     0.238 S 
ATOM     24  O   UNL A   1      31.723  36.622  32.030  1.00  0.00    -0.207 OA
ATOM     25  O   UNL A   1      32.472  35.635  29.816  1.00  0.00    -0.207 OA
BRANCH  23  26
ATOM     26  N   UNL A   1      33.552  37.685  30.715  1.00  0.00    -0.225 NA
ATOM     27  H   UNL A   1      33.797  38.168  31.579  1.00  0.00     0.137 HD
ATOM     28  H   UNL A   1      32.940  38.278  30.156  1.00  0.00     0.137 HD
ENDBRANCH  23  26
ENDBRANCH  18  23
ENDBRANCH  16  17
ENDBRANCH  10  15
BRANCH  14  29
ATOM     29  O   UNL A   1      41.822  29.924  36.586  1.00  0.00    -0.507 OA
ATOM     30  H   UNL A   1      41.695  28.999  36.670  1.00  0.00     0.293 HD
ENDBRANCH  14  29
ENDBRANCH   7   9
ENDBRANCH   6   7
ENDBRANCH   5   6
ENDBRANCH   4   5
ENDBRANCH   3   4
ENDBRANCH   2   3
ENDBRANCH   1   2
BRANCH   1  31
ATOM     31  O   UNL A   1      42.159  26.100  26.952  1.00  0.00    -0.377 OA
BRANCH  31  32
ATOM     32  C   UNL A   1      40.955  25.780  26.251  1.00  0.00     0.188 C 
BRANCH  32  33
ATOM     33  C   UNL A   1      39.901  24.780  26.794  1.00  0.00     0.188 C 
BRANCH  33  34
ATOM     34  O   UNL A   1      40.175  23.411  26.524  1.00  0.00    -0.376 OA
BRANCH  34  35
ATOM     35  C   UNL A   1      41.175  22.774  27.301  1.00  0.00     0.202 C 
BRANCH  35  36
ATOM     36  C   UNL A   1      42.499  22.511  26.571  1.00  0.00     0.261 C 
BRANCH  36  37
ATOM     37  O   UNL A   1      43.684  22.743  27.345  1.00  0.00    -0.460 OA
BRANCH  37  38
ATOM     38  C   UNL A   1      44.840  22.866  26.653  1.00  0.00     0.338 C 
ATOM     39  O   UNL A   1      45.392  22.000  26.000  1.00  0.00    -0.246 OA
BRANCH  38  40
ATOM     40  C   UNL A   1      45.225  24.291  26.656  1.00  0.00     0.060 A 
ATOM     41  C   UNL A   1      45.214  24.994  25.446  1.00  0.00     0.016 A 
ATOM     42  C   UNL A   1      45.601  24.926  27.843  1.00  0.00     0.016 A 
ATOM     43  C   UNL A   1      45.632  26.323  25.410  1.00  0.00     0.010 A 
ATOM     44  C   UNL A   1      46.036  26.253  27.802  1.00  0.00     0.010 A 
ATOM     45  C   UNL A   1      46.095  26.943  26.578  1.00  0.00    -0.014 A 
BRANCH  45  46
ATOM     46  C   UNL A   1      46.847  28.217  26.469  1.00  0.00     0.031 A 
ATOM     47  C   UNL A   1      48.334  28.145  26.244  1.00  0.00     0.074 A 
ATOM     48  C   UNL A   1      46.223  29.408  26.509  1.00  0.00     0.049 A 
ATOM     49  N   UNL A   1      49.208  29.109  26.120  1.00  0.00    -0.248 NA
ATOM     50  C   UNL A   1      48.911  26.793  26.149  1.00  0.00     0.031 C 
ATOM     51  C   UNL A   1      44.784  29.602  26.669  1.00  0.00     0.029 A 
ATOM     52  N   UNL A   1      46.727  30.682  26.413  1.00  0.00    -0.354 N 
ATOM     53  C   UNL A   1      50.437  28.484  25.932  1.00  0.00     0.074 A 
ATOM     54  C   UNL A   1      50.200  27.058  26.006  1.00  0.00     0.031 C 
ATOM     55  C   UNL A   1      44.519  30.921  26.662  1.00  0.00     0.029 A 
ATOM     56  C   UNL A   1      45.772  31.665  26.536  1.00  0.00     0.049 A 
ATOM     57  H   UNL A   1      47.681  30.874  26.269  1.00  0.00     0.167 HD
ATOM     58  C   UNL A   1      51.648  29.046  25.703  1.00  0.00     0.034 A 
ATOM     59  C   UNL A   1      45.901  33.008  26.565  1.00  0.00     0.034 A 
ATOM     60  C   UNL A   1      51.869  30.471  25.647  1.00  0.00     0.049 A 
ATOM     61  C   UNL A   1      47.279  33.613  26.411  1.00  0.00     0.074 A 
ATOM     62  C   UNL A   1      53.052  31.150  25.415  1.00  0.00     0.029 A 
ATOM     63  N   UNL A   1      50.890  31.436  25.841  1.00  0.00    -0.354 N 
ATOM     64  N   UNL A   1      48.433  33.012  26.222  1.00  0.00    -0.248 NA
ATOM     65  C   UNL A   1      47.369  35.077  26.468  1.00  0.00     0.031 C 
ATOM     66  C   UNL A   1      52.805  32.520  25.551  1.00  0.00     0.029 A 
ATOM     67  C   UNL A   1      51.449  32.703  25.774  1.00  0.00     0.049 A 
ATOM     68  H   UNL A   1      49.937  31.249  26.003  1.00  0.00     0.167 HD
ATOM     69  C   UNL A   1      49.377  34.030  26.104  1.00  0.00     0.074 A 
ATOM     70  C   UNL A   1      48.654  35.279  26.224  1.00  0.00     0.031 C 
ATOM     71  C   UNL A   1      50.719  33.943  25.909  1.00  0.00     0.034 A 
BRANCH  58  72
ATOM     72  C   UNL A   1      52.828  28.116  25.560  1.00  0.00     0.023 A 
ATOM     73  C   UNL A   1      53.620  27.743  26.661  1.00  0.00     0.031 A 
ATOM     74  C   UNL A   1      53.189  27.619  24.294  1.00  0.00     0.131 A 
ATOM     75  C   UNL A   1      54.769  26.962  26.466  1.00  0.00     0.055 A 
ATOM     76  C   UNL A   1      54.285  26.772  24.119  1.00  0.00     0.041 A 
ATOM     77  F   UNL A   1      52.490  27.962  23.201  1.00  0.00    -0.206 F 
ATOM     78  C   UNL A   1      55.091  26.451  25.206  1.00  0.00     0.022 A 
BRANCH  75  79
ATOM     79  S   UNL A   1      55.921  26.750  27.851  1.00  0.00     0.124 S 
ATOM     80  O   UNL A   1      57.212  26.762  27.167  1.00  0.00    -0.237 OA
ATOM     81  O   UNL A   1      55.629  27.911  28.684  1.00  0.00    -0.237 OA
ATOM     82  O   UNL A   1      55.538  25.460  28.422  1.00  0.00    -0.744 OA
ENDBRANCH  75  79
ENDBRANCH  58  72
BRANCH  59  83
ATOM     83  C   UNL A   1      44.712  33.881  26.788  1.00  0.00     0.023 A 
ATOM     84  C   UNL A   1      44.147  34.035  28.064  1.00  0.00     0.031 A 
ATOM     85  C   UNL A   1      44.077  34.522  25.708  1.00  0.00     0.131 A 
ATOM     86  C   UNL A   1      42.959  34.767  28.222  1.00  0.00     0.055 A 
ATOM     87  C   UNL A   1      42.930  35.298  25.878  1.00  0.00     0.041 A 
ATOM     88  F   UNL A   1      44.567  34.403  24.464  1.00  0.00    -0.206 F 
ATOM     89  C   UNL A   1      42.355  35.412  27.141  1.00  0.00     0.022 A 
BRANCH  86  90
ATOM     90  S   UNL A   1      42.156  34.782  29.849  1.00  0.00     0.124 S 
ATOM     91  O   UNL A   1      43.017  35.691  30.597  1.00  0.00    -0.237 OA
ATOM     92  O   UNL A   1      40.824  35.282  29.524  1.00  0.00    -0.237 OA
ATOM     93  O   UNL A   1      42.210  33.383  30.267  1.00  0.00    -0.744 OA
ENDBRANCH  86  90
ENDBRANCH  59  83
BRANCH  71  94
ATOM     94  C   UNL A   1      51.484  35.240  25.770  1.00  0.00     0.023 A 
ATOM     95  C   UNL A   1      51.777  36.052  26.880  1.00  0.00     0.031 A 
ATOM     96  C   UNL A   1      51.915  35.674  24.504  1.00  0.00     0.131 A 
ATOM     97  C   UNL A   1      52.422  37.285  26.693  1.00  0.00     0.055 A 
ATOM     98  C   UNL A   1      52.620  36.867  24.334  1.00  0.00     0.041 A 
ATOM     99  F   UNL A   1      51.662  34.943  23.406  1.00  0.00    -0.206 F 
ATOM    100  C   UNL A   1      52.863  37.687  25.431  1.00  0.00     0.022 A 
BRANCH  97 101
ATOM    101  S   UNL A   1      52.579  38.408  28.109  1.00  0.00     0.124 S 
ATOM    102  O   UNL A   1      51.711  39.513  27.717  1.00  0.00    -0.237 OA
ATOM    103  O   UNL A   1      52.102  37.584  29.215  1.00  0.00    -0.237 OA
ATOM    104  O   UNL A   1      54.006  38.722  28.142  1.00  0.00    -0.744 OA
ENDBRANCH  97 101
ENDBRANCH  71  94
ENDBRANCH  45  46
ENDBRANCH  38  40
ENDBRANCH  37  38
ENDBRANCH  36  37
ENDBRANCH  35  36
ENDBRANCH  34  35
ENDBRANCH  33  34
ENDBRANCH  32  33
ENDBRANCH  31  32
ENDBRANCH   1  31
TORSDOF 28
ENDMDL
MODEL 3
REMARK VINA RESULT:      -7.8      5.555      8.511
REMARK SMILES NS(=O)(=O)c1ccc(/N=C/c2ccc(O)c(C(=O)OCCOCCOCCOCCOC(=O)c3ccc(-c4c5nc(c(-c6cc(S(=O)(=O)[O-])ccc6F)c6ccc([nH]6)c(-c6cc(S(=O)(=O)[O-])ccc6F)c6nc(c(-c7cc(S(=O)(=O)[O-])ccc7F)c7ccc4[nH]7)C=C6)C=C5)cc3)c2)cc1
REMARK SMILES IDX 24 1 23 2 22 3 21 4 20 5 19 6 17 7 18 8 16 9 11 10 12 11
REMARK SMILES IDX 97 12 13 13 14 14 10 15 9 16 8 17 5 18 6 19 99 20 7 21 98 22
REMARK SMILES IDX 2 23 3 24 4 25 1 26 15 29 25 31 26 32 27 33 28 34 29 35
REMARK SMILES IDX 30 36 31 37 32 38 33 39 34 40 35 41 96 42 36 43 95 44 37 45
REMARK SMILES IDX 38 46 39 47 89 48 40 49 94 50 88 51 90 52 41 53 93 54 87 55
REMARK SMILES IDX 86 56 42 58 74 59 54 60 73 61 55 62 58 63 72 64 91 65 56 66
REMARK SMILES IDX 57 67 71 69 92 70 59 71 43 72 44 73 52 74 45 75 51 76 53 77
REMARK SMILES IDX 50 78 46 79 47 80 48 81 49 82 75 83 76 84 84 85 77 86 83 87
REMARK SMILES IDX 85 88 82 89 78 90 79 91 80 92 81 93 60 94 61 95 69 96 62 97
REMARK SMILES IDX 68 98 70 99 67 100 63 101 64 102 65 103 66 104
REMARK H PARENT 1 27 1 28 15 30 90 57 58 68
REMARK Flexibility Score: inf
ROOT
ATOM      1  C   UNL A   1      38.777  23.178  26.601  1.00  0.00     0.188 C 
ENDROOT
BRANCH   1   2
ATOM      2  C   UNL A   1      37.596  23.734  25.785  1.00  0.00     0.188 C 
BRANCH   2   3
ATOM      3  O   UNL A   1      36.443  22.915  25.839  1.00  0.00    -0.376 OA
BRANCH   3   4
ATOM      4  C   UNL A   1      36.032  22.166  24.710  1.00  0.00     0.202 C 
BRANCH   4   5
ATOM      5  C   UNL A   1      36.084  22.704  23.267  1.00  0.00     0.261 C 
BRANCH   5   6
ATOM      6  O   UNL A   1      35.213  23.784  22.917  1.00  0.00    -0.460 OA
BRANCH   6   7
ATOM      7  C   UNL A   1      33.889  23.551  22.855  1.00  0.00     0.342 C 
ATOM      8  O   UNL A   1      33.310  22.748  22.142  1.00  0.00    -0.246 OA
BRANCH   7   9
ATOM      9  C   UNL A   1      33.256  24.208  24.021  1.00  0.00     0.102 A 
ATOM     10  C   UNL A   1      33.182  25.982  25.663  1.00  0.00    -0.006 A 
ATOM     11  C   UNL A   1      32.243  25.261  26.410  1.00  0.00     0.013 A 
ATOM     12  C   UNL A   1      33.703  25.455  24.477  1.00  0.00     0.029 A 
ATOM     13  C   UNL A   1      31.796  24.021  25.951  1.00  0.00     0.048 A 
ATOM     14  C   UNL A   1      32.289  23.505  24.754  1.00  0.00     0.130 A 
BRANCH  10  15
ATOM     15  C   UNL A   1      33.599  27.313  26.151  1.00  0.00     0.119 C 
ATOM     16  N   UNL A   1      32.735  28.249  26.356  1.00  0.00    -0.256 NA
BRANCH  16  17
ATOM     17  C   UNL A   1      33.097  29.508  26.862  1.00  0.00     0.063 A 
ATOM     18  C   UNL A   1      33.613  32.113  27.798  1.00  0.00     0.082 A 
ATOM     19  C   UNL A   1      32.368  31.809  27.244  1.00  0.00     0.024 A 
ATOM     20  C   UNL A   1      34.604  31.135  27.877  1.00  0.00     0.024 A 
ATOM     21  C   UNL A   1      32.121  30.511  26.786  1.00  0.00     0.030 A 
ATOM     22  C   UNL A   1      34.345  29.843  27.403  1.00  0.00     0.030 A 
BRANCH  18  23
ATOM     23  S   UNL A   1      33.891  33.762  28.365  1.00  0.00     0.238 S 
ATOM     24  O   UNL A   1      34.907  34.363  27.521  1.00  0.00    -0.207 OA
ATOM     25  O   UNL A   1      33.967  33.759  29.799  1.00  0.00    -0.207 OA
BRANCH  23  26
ATOM     26  N   UNL A   1      32.472  34.590  27.997  1.00  0.00    -0.225 NA
ATOM     27  H   UNL A   1      31.721  33.920  27.831  1.00  0.00     0.137 HD
ATOM     28  H   UNL A   1      32.615  35.153  27.159  1.00  0.00     0.137 HD
ENDBRANCH  23  26
ENDBRANCH  18  23
ENDBRANCH  16  17
ENDBRANCH  10  15
BRANCH  14  29
ATOM     29  O   UNL A   1      31.816  22.273  24.386  1.00  0.00    -0.507 OA
ATOM     30  H   UNL A   1      32.194  21.497  24.753  1.00  0.00     0.293 HD
ENDBRANCH  14  29
ENDBRANCH   7   9
ENDBRANCH   6   7
ENDBRANCH   5   6
ENDBRANCH   4   5
ENDBRANCH   3   4
ENDBRANCH   2   3
ENDBRANCH   1   2
BRANCH   1  31
ATOM     31  O   UNL A   1      39.975  23.925  26.487  1.00  0.00    -0.377 OA
BRANCH  31  32
ATOM     32  C   UNL A   1      39.993  25.281  26.941  1.00  0.00     0.188 C 
BRANCH  32  33
ATOM     33  C   UNL A   1      40.759  26.408  26.201  1.00  0.00     0.188 C 
BRANCH  33  34
ATOM     34  O   UNL A   1      41.537  25.980  25.091  1.00  0.00    -0.376 OA
BRANCH  34  35
ATOM     35  C   UNL A   1      42.888  25.624  25.331  1.00  0.00     0.202 C 
BRANCH  35  36
ATOM     36  C   UNL A   1      43.858  26.803  25.473  1.00  0.00     0.261 C 
BRANCH  36  37
ATOM     37  O   UNL A   1      43.912  27.401  26.777  1.00  0.00    -0.460 OA
BRANCH  37  38
ATOM     38  C   UNL A   1      45.101  27.926  27.148  1.00  0.00     0.338 C 
ATOM     39  O   UNL A   1      46.197  27.631  26.708  1.00  0.00    -0.246 OA
BRANCH  38  40
ATOM     40  C   UNL A   1      44.836  29.068  28.046  1.00  0.00     0.060 A 
ATOM     41  C   UNL A   1      43.721  29.876  27.795  1.00  0.00     0.016 A 
ATOM     42  C   UNL A   1      45.685  29.342  29.121  1.00  0.00     0.016 A 
ATOM     43  C   UNL A   1      43.482  30.996  28.589  1.00  0.00     0.010 A 
ATOM     44  C   UNL A   1      45.454  30.475  29.905  1.00  0.00     0.010 A 
ATOM     45  C   UNL A   1      44.377  31.331  29.615  1.00  0.00    -0.014 A 
BRANCH  45  46
ATOM     46  C   UNL A   1      44.309  32.685  30.218  1.00  0.00     0.031 A 
ATOM     47  C   UNL A   1      45.041  33.805  29.528  1.00  0.00     0.074 A 
ATOM     48  C   UNL A   1      43.570  32.930  31.315  1.00  0.00     0.049 A 
ATOM     49  N   UNL A   1      45.138  35.066  29.857  1.00  0.00    -0.248 NA
ATOM     50  C   UNL A   1      45.766  33.447  28.297  1.00  0.00     0.031 C 
ATOM     51  C   UNL A   1      42.777  31.938  32.038  1.00  0.00     0.029 A 
ATOM     52  N   UNL A   1      43.365  34.096  32.010  1.00  0.00    -0.354 N 
ATOM     53  C   UNL A   1      45.932  35.653  28.876  1.00  0.00     0.074 A 
ATOM     54  C   UNL A   1      46.328  34.599  27.968  1.00  0.00     0.031 C 
ATOM     55  C   UNL A   1      42.172  32.539  33.078  1.00  0.00     0.029 A 
ATOM     56  C   UNL A   1      42.564  33.947  33.118  1.00  0.00     0.049 A 
ATOM     57  H   UNL A   1      43.755  34.959  31.740  1.00  0.00     0.167 HD
ATOM     58  C   UNL A   1      46.286  36.954  28.737  1.00  0.00     0.034 A 
ATOM     59  C   UNL A   1      42.208  34.841  34.064  1.00  0.00     0.034 A 
ATOM     60  C   UNL A   1      45.894  37.991  29.661  1.00  0.00     0.049 A 
ATOM     61  C   UNL A   1      42.700  36.266  33.945  1.00  0.00     0.074 A 
ATOM     62  C   UNL A   1      46.189  39.342  29.613  1.00  0.00     0.029 A 
ATOM     63  N   UNL A   1      45.136  37.791  30.807  1.00  0.00    -0.354 N 
ATOM     64  N   UNL A   1      43.441  36.813  33.007  1.00  0.00    -0.248 NA
ATOM     65  C   UNL A   1      42.301  37.196  35.009  1.00  0.00     0.031 C 
ATOM     66  C   UNL A   1      45.682  39.942  30.770  1.00  0.00     0.029 A 
ATOM     67  C   UNL A   1      44.988  38.985  31.495  1.00  0.00     0.049 A 
ATOM     68  H   UNL A   1      44.758  36.927  31.090  1.00  0.00     0.167 HD
ATOM     69  C   UNL A   1      43.566  38.157  33.354  1.00  0.00     0.074 A 
ATOM     70  C   UNL A   1      42.809  38.339  34.575  1.00  0.00     0.031 C 
ATOM     71  C   UNL A   1      44.240  39.152  32.721  1.00  0.00     0.034 A 
BRANCH  58  72
ATOM     72  C   UNL A   1      47.186  37.307  27.579  1.00  0.00     0.023 A 
ATOM     73  C   UNL A   1      48.588  37.227  27.675  1.00  0.00     0.031 A 
ATOM     74  C   UNL A   1      46.637  37.764  26.367  1.00  0.00     0.131 A 
ATOM     75  C   UNL A   1      49.389  37.666  26.610  1.00  0.00     0.055 A 
ATOM     76  C   UNL A   1      47.439  38.117  25.280  1.00  0.00     0.041 A 
ATOM     77  F   UNL A   1      45.308  37.888  26.223  1.00  0.00    -0.206 F 
ATOM     78  C   UNL A   1      48.824  38.084  25.404  1.00  0.00     0.022 A 
BRANCH  75  79
ATOM     79  S   UNL A   1      51.176  37.827  26.878  1.00  0.00     0.124 S 
ATOM     80  O   UNL A   1      51.273  39.182  27.417  1.00  0.00    -0.237 OA
ATOM     81  O   UNL A   1      51.453  36.746  27.817  1.00  0.00    -0.237 OA
ATOM     82  O   UNL A   1      51.741  37.655  25.541  1.00  0.00    -0.744 OA
ENDBRANCH  75  79
ENDBRANCH  58  72
BRANCH  59  83
ATOM     83  C   UNL A   1      41.379  34.422  35.232  1.00  0.00     0.023 A 
ATOM     84  C   UNL A   1      41.970  34.025  36.443  1.00  0.00     0.031 A 
ATOM     85  C   UNL A   1      39.978  34.344  35.130  1.00  0.00     0.131 A 
ATOM     86  C   UNL A   1      41.170  33.523  37.483  1.00  0.00     0.055 A 
ATOM     87  C   UNL A   1      39.181  33.901  36.186  1.00  0.00     0.041 A 
ATOM     88  F   UNL A   1      39.359  34.702  33.993  1.00  0.00    -0.206 F 
ATOM     89  C   UNL A   1      39.779  33.473  37.368  1.00  0.00     0.022 A 
BRANCH  86  90
ATOM     90  S   UNL A   1      41.983  32.841  38.954  1.00  0.00     0.124 S 
ATOM     91  O   UNL A   1      43.163  33.692  39.062  1.00  0.00    -0.237 OA
ATOM     92  O   UNL A   1      40.961  33.029  39.978  1.00  0.00    -0.237 OA
ATOM     93  O   UNL A   1      42.245  31.452  38.584  1.00  0.00    -0.744 OA
ENDBRANCH  86  90
ENDBRANCH  59  83
BRANCH  71  94
ATOM     94  C   UNL A   1      44.149  40.538  33.318  1.00  0.00     0.023 A 
ATOM     95  C   UNL A   1      45.098  41.012  34.241  1.00  0.00     0.031 A 
ATOM     96  C   UNL A   1      43.089  41.392  32.966  1.00  0.00     0.131 A 
ATOM     97  C   UNL A   1      44.931  42.277  34.828  1.00  0.00     0.055 A 
ATOM     98  C   UNL A   1      42.969  42.677  33.498  1.00  0.00     0.041 A 
ATOM     99  F   UNL A   1      42.150  40.994  32.091  1.00  0.00    -0.206 F 
ATOM    100  C   UNL A   1      43.885  43.119  34.447  1.00  0.00     0.022 A 
BRANCH  97 101
ATOM    101  S   UNL A   1      46.040  42.762  36.180  1.00  0.00     0.124 S 
ATOM    102  O   UNL A   1      46.788  41.532  36.415  1.00  0.00    -0.237 OA
ATOM    103  O   UNL A   1      46.793  43.862  35.586  1.00  0.00    -0.237 OA
ATOM    104  O   UNL A   1      45.124  43.146  37.253  1.00  0.00    -0.744 OA
ENDBRANCH  97 101
ENDBRANCH  71  94
ENDBRANCH  45  46
ENDBRANCH  38  40
ENDBRANCH  37  38
ENDBRANCH  36  37
ENDBRANCH  35  36
ENDBRANCH  34  35
ENDBRANCH  33  34
ENDBRANCH  32  33
ENDBRANCH  31  32
ENDBRANCH   1  31
TORSDOF 28
ENDMDL
