MODEL 1
REMARK VINA RESULT:      -8.4      0.000      0.000
REMARK SMILES COc1ccc(Br)cc1S(=O)(=O)N(C)CC(=O)OCCOCCOCCOCCOC(=O)c1ccc(-c2c3nc(c(-c4cc(S(=O)(=O)[O-])ccc4F)c4ccc([nH]4)c(-c4cc(S(=O)(=O)[O-])ccc4F)c4nc(c(-c5cc(S(=O)(=O)[O-])ccc5F)c5ccc2[nH]5)C=C4)C=C3)cc1
REMARK SMILES IDX 23 1 22 2 21 3 20 4 19 5 18 6 16 7 17 8 15 9 13 10 14 11
REMARK SMILES IDX 10 12 11 13 12 14 9 15 3 16 4 17 5 18 8 19 6 20 7 21 2 22
REMARK SMILES IDX 1 23 24 24 25 25 26 26 27 27 28 28 29 29 30 30 31 31 32 32
REMARK SMILES IDX 33 33 34 34 95 35 35 36 94 37 36 38 37 39 38 40 88 41 39 42
REMARK SMILES IDX 93 43 87 44 89 45 40 46 92 47 86 48 85 49 41 51 73 52 53 53
REMARK SMILES IDX 72 54 54 55 57 56 71 57 90 58 55 59 56 60 70 62 91 63 58 64
REMARK SMILES IDX 42 65 43 66 51 67 44 68 50 69 52 70 49 71 45 72 46 73 47 74
REMARK SMILES IDX 48 75 74 76 75 77 83 78 76 79 82 80 84 81 81 82 77 83 78 84
REMARK SMILES IDX 79 85 80 86 59 87 60 88 68 89 61 90 67 91 69 92 66 93 62 94
REMARK SMILES IDX 63 95 64 96 65 97
REMARK H PARENT 89 50 57 61
REMARK Flexibility Score: inf
ROOT
ATOM      1  C   UNL A   1      40.632  21.016  26.556  1.00  0.00     0.188 C 
ENDROOT
BRANCH   1   2
ATOM      2  C   UNL A   1      39.252  21.471  26.080  1.00  0.00     0.188 C 
BRANCH   2   3
ATOM      3  O   UNL A   1      38.437  20.537  25.383  1.00  0.00    -0.376 OA
BRANCH   3   4
ATOM      4  C   UNL A   1      37.201  20.991  24.824  1.00  0.00     0.202 C 
BRANCH   4   5
ATOM      5  C   UNL A   1      36.705  22.393  25.224  1.00  0.00     0.261 C 
BRANCH   5   6
ATOM      6  O   UNL A   1      35.646  22.923  24.379  1.00  0.00    -0.462 OA
BRANCH   6   7
ATOM      7  C   UNL A   1      34.482  23.274  24.979  1.00  0.00     0.321 C 
ATOM      8  O   UNL A   1      34.317  23.216  26.198  1.00  0.00    -0.251 OA
BRANCH   7   9
ATOM      9  C   UNL A   1      33.350  23.717  24.069  1.00  0.00     0.224 C 
BRANCH   9  10
ATOM     10  N   UNL A   1      32.379  24.841  24.229  1.00  0.00    -0.190 NA
ATOM     11  C   UNL A   1      31.157  24.528  24.969  1.00  0.00     0.125 C 
BRANCH  10  12
ATOM     12  S   UNL A   1      32.382  26.014  23.008  1.00  0.00     0.247 S 
ATOM     13  O   UNL A   1      31.441  25.572  22.000  1.00  0.00    -0.207 OA
ATOM     14  O   UNL A   1      33.757  26.265  22.628  1.00  0.00    -0.207 OA
BRANCH  12  15
ATOM     15  C   UNL A   1      31.735  27.575  23.558  1.00  0.00     0.125 A 
ATOM     16  C   UNL A   1      32.017  28.179  24.783  1.00  0.00     0.138 A 
ATOM     17  C   UNL A   1      31.372  29.389  25.093  1.00  0.00     0.049 A 
ATOM     18  C   UNL A   1      30.461  29.979  24.208  1.00  0.00     0.019 A 
ATOM     19  C   UNL A   1      30.840  28.189  22.654  1.00  0.00     0.041 A 
ATOM     20  C   UNL A   1      30.205  29.378  22.985  1.00  0.00     0.019 A 
ATOM     21  Br  UNL A   1      28.994  30.167  21.769  1.00  0.00    -0.051 Br
BRANCH  16  22
ATOM     22  O   UNL A   1      32.943  27.608  25.606  1.00  0.00    -0.495 OA
ATOM     23  C   UNL A   1      34.022  28.452  26.005  1.00  0.00     0.278 C 
ENDBRANCH  16  22
ENDBRANCH  12  15
ENDBRANCH  10  12
ENDBRANCH   9  10
ENDBRANCH   7   9
ENDBRANCH   6   7
ENDBRANCH   5   6
ENDBRANCH   4   5
ENDBRANCH   3   4
ENDBRANCH   2   3
ENDBRANCH   1   2
BRANCH   1  24
ATOM     24  O   UNL A   1      41.104  19.880  25.854  1.00  0.00    -0.377 OA
BRANCH  24  25
ATOM     25  C   UNL A   1      42.029  19.038  26.520  1.00  0.00     0.188 C 
BRANCH  25  26
ATOM     26  C   UNL A   1      43.326  18.831  25.737  1.00  0.00     0.188 C 
BRANCH  26  27
ATOM     27  O   UNL A   1      43.517  19.876  24.783  1.00  0.00    -0.376 OA
BRANCH  27  28
ATOM     28  C   UNL A   1      44.483  20.868  25.119  1.00  0.00     0.202 C 
BRANCH  28  29
ATOM     29  C   UNL A   1      43.978  22.098  25.892  1.00  0.00     0.261 C 
BRANCH  29  30
ATOM     30  O   UNL A   1      44.965  23.072  26.282  1.00  0.00    -0.460 OA
BRANCH  30  31
ATOM     31  C   UNL A   1      45.177  24.127  25.461  1.00  0.00     0.338 C 
ATOM     32  O   UNL A   1      45.587  24.103  24.324  1.00  0.00    -0.246 OA
BRANCH  31  33
ATOM     33  C   UNL A   1      44.673  25.332  26.154  1.00  0.00     0.060 A 
ATOM     34  C   UNL A   1      44.208  26.415  25.398  1.00  0.00     0.016 A 
ATOM     35  C   UNL A   1      44.707  25.400  27.549  1.00  0.00     0.016 A 
ATOM     36  C   UNL A   1      43.807  27.590  26.040  1.00  0.00     0.010 A 
ATOM     37  C   UNL A   1      44.325  26.582  28.186  1.00  0.00     0.010 A 
ATOM     38  C   UNL A   1      43.906  27.694  27.434  1.00  0.00    -0.014 A 
BRANCH  38  39
ATOM     39  C   UNL A   1      43.804  29.016  28.104  1.00  0.00     0.031 A 
ATOM     40  C   UNL A   1      45.056  29.843  28.216  1.00  0.00     0.074 A 
ATOM     41  C   UNL A   1      42.644  29.466  28.617  1.00  0.00     0.049 A 
ATOM     42  N   UNL A   1      45.269  30.947  28.882  1.00  0.00    -0.248 NA
ATOM     43  C   UNL A   1      46.228  29.347  27.475  1.00  0.00     0.031 C 
ATOM     44  C   UNL A   1      41.352  28.792  28.506  1.00  0.00     0.029 A 
ATOM     45  N   UNL A   1      42.372  30.595  29.349  1.00  0.00    -0.354 N 
ATOM     46  C   UNL A   1      46.597  31.282  28.638  1.00  0.00     0.074 A 
ATOM     47  C   UNL A   1      47.148  30.244  27.794  1.00  0.00     0.031 C 
ATOM     48  C   UNL A   1      40.427  29.512  29.167  1.00  0.00     0.029 A 
ATOM     49  C   UNL A   1      41.070  30.669  29.789  1.00  0.00     0.049 A 
ATOM     50  H   UNL A   1      43.046  31.286  29.542  1.00  0.00     0.167 HD
ATOM     51  C   UNL A   1      47.293  32.361  29.071  1.00  0.00     0.034 A 
ATOM     52  C   UNL A   1      40.482  31.550  30.627  1.00  0.00     0.034 A 
ATOM     53  C   UNL A   1      46.743  33.371  29.939  1.00  0.00     0.049 A 
ATOM     54  C   UNL A   1      41.313  32.677  31.206  1.00  0.00     0.074 A 
ATOM     55  C   UNL A   1      47.370  34.476  30.485  1.00  0.00     0.029 A 
ATOM     56  N   UNL A   1      45.431  33.392  30.390  1.00  0.00    -0.354 N 
ATOM     57  N   UNL A   1      42.579  32.961  31.001  1.00  0.00    -0.248 NA
ATOM     58  C   UNL A   1      40.637  33.599  32.131  1.00  0.00     0.031 C 
ATOM     59  C   UNL A   1      46.452  35.135  31.311  1.00  0.00     0.029 A 
ATOM     60  C   UNL A   1      45.234  34.481  31.222  1.00  0.00     0.049 A 
ATOM     61  H   UNL A   1      44.741  32.730  30.154  1.00  0.00     0.167 HD
ATOM     62  C   UNL A   1      42.832  34.121  31.730  1.00  0.00     0.074 A 
ATOM     63  C   UNL A   1      41.593  34.481  32.385  1.00  0.00     0.031 C 
ATOM     64  C   UNL A   1      43.982  34.832  31.846  1.00  0.00     0.034 A 
BRANCH  51  65
ATOM     65  C   UNL A   1      48.736  32.464  28.647  1.00  0.00     0.023 A 
ATOM     66  C   UNL A   1      49.110  33.165  27.488  1.00  0.00     0.031 A 
ATOM     67  C   UNL A   1      49.745  31.823  29.387  1.00  0.00     0.131 A 
ATOM     68  C   UNL A   1      50.447  33.154  27.066  1.00  0.00     0.055 A 
ATOM     69  C   UNL A   1      51.085  31.879  29.003  1.00  0.00     0.041 A 
ATOM     70  F   UNL A   1      49.441  31.118  30.487  1.00  0.00    -0.206 F 
ATOM     71  C   UNL A   1      51.442  32.537  27.829  1.00  0.00     0.022 A 
BRANCH  68  72
ATOM     72  S   UNL A   1      50.848  33.845  25.438  1.00  0.00     0.124 S 
ATOM     73  O   UNL A   1      49.598  34.517  25.089  1.00  0.00    -0.237 OA
ATOM     74  O   UNL A   1      51.980  34.716  25.733  1.00  0.00    -0.237 OA
ATOM     75  O   UNL A   1      51.160  32.666  24.632  1.00  0.00    -0.744 OA
ENDBRANCH  68  72
ENDBRANCH  51  65
BRANCH  52  76
ATOM     76  C   UNL A   1      39.052  31.390  31.030  1.00  0.00     0.023 A 
ATOM     77  C   UNL A   1      38.015  31.931  30.253  1.00  0.00     0.031 A 
ATOM     78  C   UNL A   1      38.706  30.777  32.248  1.00  0.00     0.131 A 
ATOM     79  C   UNL A   1      36.695  31.907  30.730  1.00  0.00     0.055 A 
ATOM     80  C   UNL A   1      37.384  30.701  32.689  1.00  0.00     0.041 A 
ATOM     81  F   UNL A   1      39.656  30.248  33.037  1.00  0.00    -0.206 F 
ATOM     82  C   UNL A   1      36.370  31.284  31.937  1.00  0.00     0.022 A 
BRANCH  79  83
ATOM     83  S   UNL A   1      35.420  32.813  29.808  1.00  0.00     0.124 S 
ATOM     84  O   UNL A   1      34.331  32.855  30.776  1.00  0.00    -0.237 OA
ATOM     85  O   UNL A   1      36.090  34.081  29.537  1.00  0.00    -0.237 OA
ATOM     86  O   UNL A   1      35.186  31.970  28.638  1.00  0.00    -0.744 OA
ENDBRANCH  79  83
ENDBRANCH  52  76
BRANCH  64  87
ATOM     87  C   UNL A   1      43.932  36.115  32.636  1.00  0.00     0.023 A 
ATOM     88  C   UNL A   1      43.759  37.365  32.019  1.00  0.00     0.031 A 
ATOM     89  C   UNL A   1      44.027  36.072  34.039  1.00  0.00     0.131 A 
ATOM     90  C   UNL A   1      43.721  38.528  32.804  1.00  0.00     0.055 A 
ATOM     91  C   UNL A   1      43.940  37.226  34.817  1.00  0.00     0.041 A 
ATOM     92  F   UNL A   1      44.189  34.900  34.676  1.00  0.00    -0.206 F 
ATOM     93  C   UNL A   1      43.794  38.465  34.199  1.00  0.00     0.022 A 
BRANCH  90  94
ATOM     94  S   UNL A   1      43.615  40.139  31.975  1.00  0.00     0.124 S 
ATOM     95  O   UNL A   1      44.637  40.909  32.677  1.00  0.00    -0.237 OA
ATOM     96  O   UNL A   1      43.916  39.797  30.588  1.00  0.00    -0.237 OA
ATOM     97  O   UNL A   1      42.239  40.563  32.223  1.00  0.00    -0.744 OA
ENDBRANCH  90  94
ENDBRANCH  64  87
ENDBRANCH  38  39
ENDBRANCH  31  33
ENDBRANCH  30  31
ENDBRANCH  29  30
ENDBRANCH  28  29
ENDBRANCH  27  28
ENDBRANCH  26  27
ENDBRANCH  25  26
ENDBRANCH  24  25
ENDBRANCH   1  24
TORSDOF 27
ENDMDL
MODEL 2
REMARK VINA RESULT:      -8.1      1.626      1.839
REMARK SMILES COc1ccc(Br)cc1S(=O)(=O)N(C)CC(=O)OCCOCCOCCOCCOC(=O)c1ccc(-c2c3nc(c(-c4cc(S(=O)(=O)[O-])ccc4F)c4ccc([nH]4)c(-c4cc(S(=O)(=O)[O-])ccc4F)c4nc(c(-c5cc(S(=O)(=O)[O-])ccc5F)c5ccc2[nH]5)C=C4)C=C3)cc1
REMARK SMILES IDX 23 1 22 2 21 3 20 4 19 5 18 6 16 7 17 8 15 9 13 10 14 11
REMARK SMILES IDX 10 12 11 13 12 14 9 15 3 16 4 17 5 18 8 19 6 20 7 21 2 22
REMARK SMILES IDX 1 23 24 24 25 25 26 26 27 27 28 28 29 29 30 30 31 31 32 32
REMARK SMILES IDX 33 33 34 34 95 35 35 36 94 37 36 38 37 39 38 40 88 41 39 42
REMARK SMILES IDX 93 43 87 44 89 45 40 46 92 47 86 48 85 49 41 51 73 52 53 53
REMARK SMILES IDX 72 54 54 55 57 56 71 57 90 58 55 59 56 60 70 62 91 63 58 64
REMARK SMILES IDX 42 65 43 66 51 67 44 68 50 69 52 70 49 71 45 72 46 73 47 74
REMARK SMILES IDX 48 75 74 76 75 77 83 78 76 79 82 80 84 81 81 82 77 83 78 84
REMARK SMILES IDX 79 85 80 86 59 87 60 88 68 89 61 90 67 91 69 92 66 93 62 94
REMARK SMILES IDX 63 95 64 96 65 97
REMARK H PARENT 89 50 57 61
REMARK Flexibility Score: inf
ROOT
ATOM      1  C   UNL A   1      40.700  20.845  26.344  1.00  0.00     0.188 C 
ENDROOT
BRANCH   1   2
ATOM      2  C   UNL A   1      39.301  21.308  25.932  1.00  0.00     0.188 C 
BRANCH   2   3
ATOM      3  O   UNL A   1      38.410  20.351  25.375  1.00  0.00    -0.376 OA
BRANCH   3   4
ATOM      4  C   UNL A   1      37.326  20.815  24.565  1.00  0.00     0.202 C 
BRANCH   4   5
ATOM      5  C   UNL A   1      36.100  21.411  25.281  1.00  0.00     0.261 C 
BRANCH   5   6
ATOM      6  O   UNL A   1      35.369  22.400  24.505  1.00  0.00    -0.462 OA
BRANCH   6   7
ATOM      7  C   UNL A   1      34.046  22.184  24.302  1.00  0.00     0.321 C 
ATOM      8  O   UNL A   1      33.394  21.370  24.957  1.00  0.00    -0.251 OA
BRANCH   7   9
ATOM      9  C   UNL A   1      33.387  22.975  23.185  1.00  0.00     0.224 C 
BRANCH   9  10
ATOM     10  N   UNL A   1      32.317  24.016  23.253  1.00  0.00    -0.190 NA
ATOM     11  C   UNL A   1      30.949  23.517  23.388  1.00  0.00     0.125 C 
BRANCH  10  12
ATOM     12  S   UNL A   1      32.637  25.474  22.454  1.00  0.00     0.247 S 
ATOM     13  O   UNL A   1      31.944  25.416  21.184  1.00  0.00    -0.207 OA
ATOM     14  O   UNL A   1      34.070  25.690  22.467  1.00  0.00    -0.207 OA
BRANCH  12  15
ATOM     15  C   UNL A   1      31.925  26.877  23.280  1.00  0.00     0.125 A 
ATOM     16  C   UNL A   1      31.959  27.107  24.654  1.00  0.00     0.138 A 
ATOM     17  C   UNL A   1      31.290  28.237  25.158  1.00  0.00     0.049 A 
ATOM     18  C   UNL A   1      30.597  29.112  24.312  1.00  0.00     0.019 A 
ATOM     19  C   UNL A   1      31.251  27.778  22.426  1.00  0.00     0.041 A 
ATOM     20  C   UNL A   1      30.587  28.882  22.945  1.00  0.00     0.019 A 
ATOM     21  Br  UNL A   1      29.673  30.060  21.786  1.00  0.00    -0.051 Br
BRANCH  16  22
ATOM     22  O   UNL A   1      32.681  26.265  25.450  1.00  0.00    -0.495 OA
ATOM     23  C   UNL A   1      33.973  26.733  25.835  1.00  0.00     0.278 C 
ENDBRANCH  16  22
ENDBRANCH  12  15
ENDBRANCH  10  12
ENDBRANCH   9  10
ENDBRANCH   7   9
ENDBRANCH   6   7
ENDBRANCH   5   6
ENDBRANCH   4   5
ENDBRANCH   3   4
ENDBRANCH   2   3
ENDBRANCH   1   2
BRANCH   1  24
ATOM     24  O   UNL A   1      41.173  19.770  25.552  1.00  0.00    -0.377 OA
BRANCH  24  25
ATOM     25  C   UNL A   1      42.011  18.817  26.180  1.00  0.00     0.188 C 
BRANCH  25  26
ATOM     26  C   UNL A   1      43.417  18.764  25.580  1.00  0.00     0.188 C 
BRANCH  26  27
ATOM     27  O   UNL A   1      43.609  19.822  24.640  1.00  0.00    -0.376 OA
BRANCH  27  28
ATOM     28  C   UNL A   1      44.615  20.779  24.966  1.00  0.00     0.202 C 
BRANCH  28  29
ATOM     29  C   UNL A   1      44.219  21.899  25.942  1.00  0.00     0.261 C 
BRANCH  29  30
ATOM     30  O   UNL A   1      45.181  22.950  26.152  1.00  0.00    -0.460 OA
BRANCH  30  31
ATOM     31  C   UNL A   1      45.194  23.985  25.279  1.00  0.00     0.338 C 
ATOM     32  O   UNL A   1      45.465  23.950  24.102  1.00  0.00    -0.246 OA
BRANCH  31  33
ATOM     33  C   UNL A   1      44.666  25.168  25.993  1.00  0.00     0.060 A 
ATOM     34  C   UNL A   1      44.365  26.328  25.269  1.00  0.00     0.016 A 
ATOM     35  C   UNL A   1      44.515  25.136  27.381  1.00  0.00     0.016 A 
ATOM     36  C   UNL A   1      43.945  27.478  25.942  1.00  0.00     0.010 A 
ATOM     37  C   UNL A   1      44.114  26.292  28.053  1.00  0.00     0.010 A 
ATOM     38  C   UNL A   1      43.860  27.479  27.341  1.00  0.00    -0.014 A 
BRANCH  38  39
ATOM     39  C   UNL A   1      43.739  28.754  28.092  1.00  0.00     0.031 A 
ATOM     40  C   UNL A   1      45.005  29.506  28.404  1.00  0.00     0.074 A 
ATOM     41  C   UNL A   1      42.549  29.226  28.505  1.00  0.00     0.049 A 
ATOM     42  N   UNL A   1      45.188  30.548  29.171  1.00  0.00    -0.248 NA
ATOM     43  C   UNL A   1      46.231  29.003  27.764  1.00  0.00     0.031 C 
ATOM     44  C   UNL A   1      41.250  28.629  28.201  1.00  0.00     0.029 A 
ATOM     45  N   UNL A   1      42.244  30.314  29.285  1.00  0.00    -0.354 N 
ATOM     46  C   UNL A   1      46.548  30.831  29.102  1.00  0.00     0.074 A 
ATOM     47  C   UNL A   1      47.147  29.826  28.250  1.00  0.00     0.031 C 
ATOM     48  C   UNL A   1      40.288  29.348  28.808  1.00  0.00     0.029 A 
ATOM     49  C   UNL A   1      40.905  30.425  29.583  1.00  0.00     0.049 A 
ATOM     50  H   UNL A   1      42.921  30.955  29.603  1.00  0.00     0.167 HD
ATOM     51  C   UNL A   1      47.236  31.839  29.689  1.00  0.00     0.034 A 
ATOM     52  C   UNL A   1      40.263  31.275  30.413  1.00  0.00     0.034 A 
ATOM     53  C   UNL A   1      46.635  32.813  30.564  1.00  0.00     0.049 A 
ATOM     54  C   UNL A   1      41.070  32.314  31.164  1.00  0.00     0.074 A 
ATOM     55  C   UNL A   1      47.242  33.844  31.258  1.00  0.00     0.029 A 
ATOM     56  N   UNL A   1      45.282  32.871  30.867  1.00  0.00    -0.354 N 
ATOM     57  N   UNL A   1      42.362  32.546  31.122  1.00  0.00    -0.248 NA
ATOM     58  C   UNL A   1      40.334  33.203  32.074  1.00  0.00     0.031 C 
ATOM     59  C   UNL A   1      46.265  34.491  32.023  1.00  0.00     0.029 A 
ATOM     60  C   UNL A   1      45.038  33.908  31.750  1.00  0.00     0.049 A 
ATOM     61  H   UNL A   1      44.596  32.264  30.507  1.00  0.00     0.167 HD
ATOM     62  C   UNL A   1      42.580  33.638  31.960  1.00  0.00     0.074 A 
ATOM     63  C   UNL A   1      41.291  34.015  32.498  1.00  0.00     0.031 C 
ATOM     64  C   UNL A   1      43.739  34.279  32.256  1.00  0.00     0.034 A 
BRANCH  51  65
ATOM     65  C   UNL A   1      48.721  31.897  29.437  1.00  0.00     0.023 A 
ATOM     66  C   UNL A   1      49.249  32.560  28.316  1.00  0.00     0.031 A 
ATOM     67  C   UNL A   1      49.618  31.251  30.306  1.00  0.00     0.131 A 
ATOM     68  C   UNL A   1      50.626  32.506  28.056  1.00  0.00     0.055 A 
ATOM     69  C   UNL A   1      50.996  31.265  30.082  1.00  0.00     0.041 A 
ATOM     70  F   UNL A   1      49.168  30.580  31.377  1.00  0.00    -0.206 F 
ATOM     71  C   UNL A   1      51.506  31.884  28.945  1.00  0.00     0.022 A 
BRANCH  68  72
ATOM     72  S   UNL A   1      51.234  33.147  26.472  1.00  0.00     0.124 S 
ATOM     73  O   UNL A   1      51.335  34.577  26.754  1.00  0.00    -0.237 OA
ATOM     74  O   UNL A   1      52.497  32.437  26.307  1.00  0.00    -0.237 OA
ATOM     75  O   UNL A   1      50.182  32.778  25.527  1.00  0.00    -0.744 OA
ENDBRANCH  68  72
ENDBRANCH  51  65
BRANCH  52  76
ATOM     76  C   UNL A   1      38.791  31.161  30.642  1.00  0.00     0.023 A 
ATOM     77  C   UNL A   1      37.875  31.839  29.820  1.00  0.00     0.031 A 
ATOM     78  C   UNL A   1      38.281  30.450  31.743  1.00  0.00     0.131 A 
ATOM     79  C   UNL A   1      36.510  31.846  30.148  1.00  0.00     0.055 A 
ATOM     80  C   UNL A   1      36.915  30.409  32.029  1.00  0.00     0.041 A 
ATOM     81  F   UNL A   1      39.109  29.788  32.567  1.00  0.00    -0.206 F 
ATOM     82  C   UNL A   1      36.022  31.125  31.240  1.00  0.00     0.022 A 
BRANCH  79  83
ATOM     83  S   UNL A   1      35.394  32.916  29.197  1.00  0.00     0.124 S 
ATOM     84  O   UNL A   1      35.226  32.147  27.969  1.00  0.00    -0.237 OA
ATOM     85  O   UNL A   1      34.229  32.990  30.074  1.00  0.00    -0.237 OA
ATOM     86  O   UNL A   1      36.150  34.158  29.059  1.00  0.00    -0.744 OA
ENDBRANCH  79  83
ENDBRANCH  52  76
BRANCH  64  87
ATOM     87  C   UNL A   1      43.655  35.505  33.130  1.00  0.00     0.023 A 
ATOM     88  C   UNL A   1      43.709  35.425  34.532  1.00  0.00     0.031 A 
ATOM     89  C   UNL A   1      43.551  36.776  32.538  1.00  0.00     0.131 A 
ATOM     90  C   UNL A   1      43.624  36.599  35.298  1.00  0.00     0.055 A 
ATOM     91  C   UNL A   1      43.516  37.942  33.303  1.00  0.00     0.041 A 
ATOM     92  F   UNL A   1      43.499  36.904  31.202  1.00  0.00    -0.206 F 
ATOM     93  C   UNL A   1      43.544  37.856  34.691  1.00  0.00     0.022 A 
BRANCH  90  94
ATOM     94  S   UNL A   1      43.578  36.461  37.106  1.00  0.00     0.124 S 
ATOM     95  O   UNL A   1      44.174  35.147  37.325  1.00  0.00    -0.237 OA
ATOM     96  O   UNL A   1      44.382  37.603  37.529  1.00  0.00    -0.237 OA
ATOM     97  O   UNL A   1      42.154  36.557  37.421  1.00  0.00    -0.744 OA
ENDBRANCH  90  94
ENDBRANCH  64  87
ENDBRANCH  38  39
ENDBRANCH  31  33
ENDBRANCH  30  31
ENDBRANCH  29  30
ENDBRANCH  28  29
ENDBRANCH  27  28
ENDBRANCH  26  27
ENDBRANCH  25  26
ENDBRANCH  24  25
ENDBRANCH   1  24
TORSDOF 27
ENDMDL
MODEL 3
REMARK VINA RESULT:      -7.9      2.595      2.964
REMARK SMILES COc1ccc(Br)cc1S(=O)(=O)N(C)CC(=O)OCCOCCOCCOCCOC(=O)c1ccc(-c2c3nc(c(-c4cc(S(=O)(=O)[O-])ccc4F)c4ccc([nH]4)c(-c4cc(S(=O)(=O)[O-])ccc4F)c4nc(c(-c5cc(S(=O)(=O)[O-])ccc5F)c5ccc2[nH]5)C=C4)C=C3)cc1
REMARK SMILES IDX 23 1 22 2 21 3 20 4 19 5 18 6 16 7 17 8 15 9 13 10 14 11
REMARK SMILES IDX 10 12 11 13 12 14 9 15 3 16 4 17 5 18 8 19 6 20 7 21 2 22
REMARK SMILES IDX 1 23 24 24 25 25 26 26 27 27 28 28 29 29 30 30 31 31 32 32
REMARK SMILES IDX 33 33 34 34 95 35 35 36 94 37 36 38 37 39 38 40 88 41 39 42
REMARK SMILES IDX 93 43 87 44 89 45 40 46 92 47 86 48 85 49 41 51 73 52 53 53
REMARK SMILES IDX 72 54 54 55 57 56 71 57 90 58 55 59 56 60 70 62 91 63 58 64
REMARK SMILES IDX 42 65 43 66 51 67 44 68 50 69 52 70 49 71 45 72 46 73 47 74
REMARK SMILES IDX 48 75 74 76 75 77 83 78 76 79 82 80 84 81 81 82 77 83 78 84
REMARK SMILES IDX 79 85 80 86 59 87 60 88 68 89 61 90 67 91 69 92 66 93 62 94
REMARK SMILES IDX 63 95 64 96 65 97
REMARK H PARENT 89 50 57 61
REMARK Flexibility Score: inf
ROOT
ATOM      1  C   UNL A   1      40.805  20.977  26.662  1.00  0.00     0.188 C 
ENDROOT
BRANCH   1   2
ATOM      2  C   UNL A   1      39.497  21.603  26.173  1.00  0.00     0.188 C 
BRANCH   2   3
ATOM      3  O   UNL A   1      38.622  20.807  25.385  1.00  0.00    -0.376 OA
BRANCH   3   4
ATOM      4  C   UNL A   1      37.476  21.429  24.796  1.00  0.00     0.202 C 
BRANCH   4   5
ATOM      5  C   UNL A   1      36.245  21.661  25.693  1.00  0.00     0.261 C 
BRANCH   5   6
ATOM      6  O   UNL A   1      35.241  22.545  25.123  1.00  0.00    -0.462 OA
BRANCH   6   7
ATOM      7  C   UNL A   1      33.966  22.411  25.563  1.00  0.00     0.321 C 
ATOM      8  O   UNL A   1      33.652  21.648  26.477  1.00  0.00    -0.251 OA
BRANCH   7   9
ATOM      9  C   UNL A   1      32.906  23.230  24.846  1.00  0.00     0.224 C 
BRANCH   9  10
ATOM     10  N   UNL A   1      32.069  24.361  25.350  1.00  0.00    -0.190 NA
ATOM     11  C   UNL A   1      31.379  24.129  26.618  1.00  0.00     0.125 C 
BRANCH  10  12
ATOM     12  S   UNL A   1      31.410  25.387  24.175  1.00  0.00     0.247 S 
ATOM     13  O   UNL A   1      29.981  25.154  24.169  1.00  0.00    -0.207 OA
ATOM     14  O   UNL A   1      32.160  25.208  22.949  1.00  0.00    -0.207 OA
BRANCH  12  15
ATOM     15  C   UNL A   1      31.573  27.105  24.600  1.00  0.00     0.125 A 
ATOM     16  C   UNL A   1      30.806  28.143  24.071  1.00  0.00     0.138 A 
ATOM     17  C   UNL A   1      31.104  29.459  24.466  1.00  0.00     0.049 A 
ATOM     18  C   UNL A   1      32.146  29.735  25.360  1.00  0.00     0.019 A 
ATOM     19  C   UNL A   1      32.602  27.384  25.526  1.00  0.00     0.041 A 
ATOM     20  C   UNL A   1      32.888  28.692  25.894  1.00  0.00     0.019 A 
ATOM     21  Br  UNL A   1      34.285  29.042  27.114  1.00  0.00    -0.051 Br
BRANCH  16  22
ATOM     22  O   UNL A   1      29.767  27.843  23.239  1.00  0.00    -0.495 OA
ATOM     23  C   UNL A   1      28.831  28.895  23.012  1.00  0.00     0.278 C 
ENDBRANCH  16  22
ENDBRANCH  12  15
ENDBRANCH  10  12
ENDBRANCH   9  10
ENDBRANCH   7   9
ENDBRANCH   6   7
ENDBRANCH   5   6
ENDBRANCH   4   5
ENDBRANCH   3   4
ENDBRANCH   2   3
ENDBRANCH   1   2
BRANCH   1  24
ATOM     24  O   UNL A   1      41.233  19.902  25.846  1.00  0.00    -0.377 OA
BRANCH  24  25
ATOM     25  C   UNL A   1      42.080  18.931  26.436  1.00  0.00     0.188 C 
BRANCH  25  26
ATOM     26  C   UNL A   1      43.388  18.729  25.670  1.00  0.00     0.188 C 
BRANCH  26  27
ATOM     27  O   UNL A   1      43.560  19.745  24.680  1.00  0.00    -0.376 OA
BRANCH  27  28
ATOM     28  C   UNL A   1      44.668  20.623  24.866  1.00  0.00     0.202 C 
BRANCH  28  29
ATOM     29  C   UNL A   1      44.471  21.795  25.842  1.00  0.00     0.261 C 
BRANCH  29  30
ATOM     30  O   UNL A   1      45.600  22.665  26.050  1.00  0.00    -0.460 OA
BRANCH  30  31
ATOM     31  C   UNL A   1      45.733  23.740  25.237  1.00  0.00     0.338 C 
ATOM     32  O   UNL A   1      46.143  23.756  24.101  1.00  0.00    -0.246 OA
BRANCH  31  33
ATOM     33  C   UNL A   1      45.141  24.898  25.941  1.00  0.00     0.060 A 
ATOM     34  C   UNL A   1      44.851  26.063  25.220  1.00  0.00     0.016 A 
ATOM     35  C   UNL A   1      44.917  24.839  27.318  1.00  0.00     0.016 A 
ATOM     36  C   UNL A   1      44.370  27.193  25.889  1.00  0.00     0.010 A 
ATOM     37  C   UNL A   1      44.454  25.974  27.986  1.00  0.00     0.010 A 
ATOM     38  C   UNL A   1      44.211  27.167  27.281  1.00  0.00    -0.014 A 
BRANCH  38  39
ATOM     39  C   UNL A   1      44.020  28.426  28.045  1.00  0.00     0.031 A 
ATOM     40  C   UNL A   1      45.252  29.166  28.494  1.00  0.00     0.074 A 
ATOM     41  C   UNL A   1      42.797  28.893  28.352  1.00  0.00     0.049 A 
ATOM     42  N   UNL A   1      45.362  30.190  29.298  1.00  0.00    -0.248 NA
ATOM     43  C   UNL A   1      46.533  28.672  27.964  1.00  0.00     0.031 C 
ATOM     44  C   UNL A   1      41.532  28.308  27.911  1.00  0.00     0.029 A 
ATOM     45  N   UNL A   1      42.420  29.965  29.123  1.00  0.00    -0.354 N 
ATOM     46  C   UNL A   1      46.723  30.469  29.366  1.00  0.00     0.074 A 
ATOM     47  C   UNL A   1      47.400  29.481  28.553  1.00  0.00     0.031 C 
ATOM     48  C   UNL A   1      40.517  29.018  28.438  1.00  0.00     0.029 A 
ATOM     49  C   UNL A   1      41.059  30.075  29.292  1.00  0.00     0.049 A 
ATOM     50  H   UNL A   1      43.065  30.596  29.519  1.00  0.00     0.167 HD
ATOM     51  C   UNL A   1      47.353  31.461  30.039  1.00  0.00     0.034 A 
ATOM     52  C   UNL A   1      40.342  30.909  30.075  1.00  0.00     0.034 A 
ATOM     53  C   UNL A   1      46.672  32.418  30.873  1.00  0.00     0.049 A 
ATOM     54  C   UNL A   1      41.075  31.928  30.924  1.00  0.00     0.074 A 
ATOM     55  C   UNL A   1      47.212  33.432  31.645  1.00  0.00     0.029 A 
ATOM     56  N   UNL A   1      45.296  32.475  31.046  1.00  0.00    -0.354 N 
ATOM     57  N   UNL A   1      42.365  32.156  31.012  1.00  0.00    -0.248 NA
ATOM     58  C   UNL A   1      40.256  32.800  31.779  1.00  0.00     0.031 C 
ATOM     59  C   UNL A   1      46.167  34.065  32.327  1.00  0.00     0.029 A 
ATOM     60  C   UNL A   1      44.970  33.494  31.924  1.00  0.00     0.049 A 
ATOM     61  H   UNL A   1      44.647  31.878  30.608  1.00  0.00     0.167 HD
ATOM     62  C   UNL A   1      42.504  33.229  31.891  1.00  0.00     0.074 A 
ATOM     63  C   UNL A   1      41.169  33.599  32.310  1.00  0.00     0.031 C 
ATOM     64  C   UNL A   1      43.630  33.859  32.310  1.00  0.00     0.034 A 
BRANCH  51  65
ATOM     65  C   UNL A   1      48.856  31.519  29.932  1.00  0.00     0.023 A 
ATOM     66  C   UNL A   1      49.680  30.781  30.799  1.00  0.00     0.031 A 
ATOM     67  C   UNL A   1      49.473  32.349  28.980  1.00  0.00     0.131 A 
ATOM     68  C   UNL A   1      51.072  30.937  30.741  1.00  0.00     0.055 A 
ATOM     69  C   UNL A   1      50.861  32.442  28.877  1.00  0.00     0.041 A 
ATOM     70  F   UNL A   1      48.734  33.096  28.144  1.00  0.00    -0.206 F 
ATOM     71  C   UNL A   1      51.670  31.744  29.769  1.00  0.00     0.022 A 
BRANCH  68  72
ATOM     72  S   UNL A   1      52.084  30.174  32.038  1.00  0.00     0.124 S 
ATOM     73  O   UNL A   1      52.211  31.270  32.995  1.00  0.00    -0.237 OA
ATOM     74  O   UNL A   1      51.260  29.048  32.461  1.00  0.00    -0.237 OA
ATOM     75  O   UNL A   1      53.319  29.816  31.343  1.00  0.00    -0.744 OA
ENDBRANCH  68  72
ENDBRANCH  51  65
BRANCH  52  76
ATOM     76  C   UNL A   1      38.854  30.796  30.159  1.00  0.00     0.023 A 
ATOM     77  C   UNL A   1      38.020  31.673  29.446  1.00  0.00     0.031 A 
ATOM     78  C   UNL A   1      38.244  29.873  31.027  1.00  0.00     0.131 A 
ATOM     79  C   UNL A   1      36.633  31.652  29.662  1.00  0.00     0.055 A 
ATOM     80  C   UNL A   1      36.860  29.814  31.191  1.00  0.00     0.041 A 
ATOM     81  F   UNL A   1      38.992  29.014  31.740  1.00  0.00    -0.206 F 
ATOM     82  C   UNL A   1      36.045  30.719  30.520  1.00  0.00     0.022 A 
BRANCH  79  83
ATOM     83  S   UNL A   1      35.615  32.945  28.897  1.00  0.00     0.124 S 
ATOM     84  O   UNL A   1      35.492  32.453  27.530  1.00  0.00    -0.237 OA
ATOM     85  O   UNL A   1      34.404  32.895  29.710  1.00  0.00    -0.237 OA
ATOM     86  O   UNL A   1      36.423  34.151  29.057  1.00  0.00    -0.744 OA
ENDBRANCH  79  83
ENDBRANCH  52  76
BRANCH  64  87
ATOM     87  C   UNL A   1      43.464  35.065  33.199  1.00  0.00     0.023 A 
ATOM     88  C   UNL A   1      43.413  34.958  34.600  1.00  0.00     0.031 A 
ATOM     89  C   UNL A   1      43.388  36.347  32.626  1.00  0.00     0.131 A 
ATOM     90  C   UNL A   1      43.256  36.115  35.379  1.00  0.00     0.055 A 
ATOM     91  C   UNL A   1      43.281  37.496  33.409  1.00  0.00     0.041 A 
ATOM     92  F   UNL A   1      43.435  36.501  31.293  1.00  0.00    -0.206 F 
ATOM     93  C   UNL A   1      43.206  37.383  34.793  1.00  0.00     0.022 A 
BRANCH  90  94
ATOM     94  S   UNL A   1      43.075  35.939  37.176  1.00  0.00     0.124 S 
ATOM     95  O   UNL A   1      41.859  36.703  37.435  1.00  0.00    -0.237 OA
ATOM     96  O   UNL A   1      42.966  34.493  37.340  1.00  0.00    -0.237 OA
ATOM     97  O   UNL A   1      44.304  36.530  37.704  1.00  0.00    -0.744 OA
ENDBRANCH  90  94
ENDBRANCH  64  87
ENDBRANCH  38  39
ENDBRANCH  31  33
ENDBRANCH  30  31
ENDBRANCH  29  30
ENDBRANCH  28  29
ENDBRANCH  27  28
ENDBRANCH  26  27
ENDBRANCH  25  26
ENDBRANCH  24  25
ENDBRANCH   1  24
TORSDOF 27
ENDMDL
