MODEL 1
REMARK VINA RESULT:     -10.9      0.000      0.000
REMARK SMILES O=C(OCCOCCOCCOCCOC(=O)c1ccc(-c2c3nc(c(-c4cc(S(=O)(=O)[O-])ccc4F)c4ccc([nH]4)c(-c4cc(S(=O)(=O)[O-])ccc4F)c4nc(c(-c5cc(S(=O)(=O)[O-])ccc5F)c5ccc2[nH]5)C=C4)C=C3)cc1)C1=Cc2cc(Cl)c(Cl)cc2O[C@@H]1C(F)(F)F
REMARK SMILES IDX 10 1 9 2 8 3 7 4 6 5 5 6 4 7 3 8 2 9 1 10 81 11 82 12 92 13
REMARK SMILES IDX 83 14 91 15 84 16 90 17 85 18 89 19 86 20 87 21 88 22 93 23
REMARK SMILES IDX 94 24 95 25 96 26 11 27 12 28 13 29 14 30 15 31 16 32 17 33
REMARK SMILES IDX 18 34 19 35 80 36 20 37 79 38 21 39 22 40 23 41 73 42 24 43
REMARK SMILES IDX 78 44 72 45 74 46 25 47 77 48 71 49 70 50 26 52 58 53 38 54
REMARK SMILES IDX 57 55 39 56 42 57 56 58 75 59 40 60 41 61 55 63 76 64 43 65
REMARK SMILES IDX 27 66 28 67 36 68 29 69 35 70 37 71 34 72 30 73 31 74 32 75
REMARK SMILES IDX 33 76 59 77 60 78 68 79 61 80 67 81 69 82 66 83 62 84 63 85
REMARK SMILES IDX 64 86 65 87 44 88 45 89 53 90 46 91 52 92 54 93 51 94 47 95
REMARK SMILES IDX 48 96 49 97 50 98
REMARK H PARENT 74 51 42 62
REMARK Flexibility Score: inf
ROOT
ATOM      1  C   UNL A   1      42.591  19.445  26.501  1.00  0.00     0.188 C 
ENDROOT
BRANCH   1   2
ATOM      2  O   UNL A   1      41.304  19.941  26.219  1.00  0.00    -0.377 OA
BRANCH   2   3
ATOM      3  C   UNL A   1      40.877  20.878  27.179  1.00  0.00     0.188 C 
BRANCH   3   4
ATOM      4  C   UNL A   1      40.675  22.314  26.668  1.00  0.00     0.188 C 
BRANCH   4   5
ATOM      5  O   UNL A   1      39.748  23.295  27.252  1.00  0.00    -0.376 OA
BRANCH   5   6
ATOM      6  C   UNL A   1      38.503  24.199  26.632  1.00  0.00     0.202 C 
BRANCH   6   7
ATOM      7  C   UNL A   1      36.954  23.528  25.247  1.00  0.00     0.261 C 
BRANCH   7   8
ATOM      8  O   UNL A   1      35.479  23.867  25.314  1.00  0.00    -0.460 OA
BRANCH   8   9
ATOM      9  C   UNL A   1      34.754  22.870  25.836  1.00  0.00     0.338 C 
ATOM     10  O   UNL A   1      34.659  22.543  26.993  1.00  0.00    -0.246 OA
BRANCH   9  11
ATOM     11  C   UNL A   1      34.590  22.102  24.610  1.00  0.00     0.087 C 
ATOM     12  C   UNL A   1      35.295  20.811  24.611  1.00  0.00     0.027 C 
ATOM     13  C   UNL A   1      32.678  22.302  24.623  1.00  0.00     0.316 C 
ATOM     14  C   UNL A   1      34.496  19.214  24.849  1.00  0.00     0.019 A 
ATOM     15  O   UNL A   1      31.795  20.612  25.025  1.00  0.00    -0.475 OA
ATOM     16  C   UNL A   1      35.243  18.068  24.839  1.00  0.00     0.034 A 
ATOM     17  C   UNL A   1      32.799  19.076  25.154  1.00  0.00     0.129 A 
ATOM     18  C   UNL A   1      34.528  16.867  25.049  1.00  0.00     0.060 A 
ATOM     19  C   UNL A   1      32.182  17.873  25.382  1.00  0.00     0.069 A 
ATOM     20  Cl  UNL A   1      35.516  15.430  24.983  1.00  0.00    -0.083 Cl
ATOM     21  C   UNL A   1      33.084  16.774  25.302  1.00  0.00     0.063 A 
ATOM     22  Cl  UNL A   1      32.363  15.199  25.500  1.00  0.00    -0.083 Cl
BRANCH  13  23
ATOM     23  C   UNL A   1      32.669  23.271  23.266  1.00  0.00     0.430 C 
ATOM     24  F   UNL A   1      33.333  24.440  23.312  1.00  0.00    -0.167 F 
ATOM     25  F   UNL A   1      33.316  22.566  22.285  1.00  0.00    -0.167 F 
ATOM     26  F   UNL A   1      31.443  23.515  22.739  1.00  0.00    -0.167 F 
ENDBRANCH  13  23
ENDBRANCH   9  11
ENDBRANCH   8   9
ENDBRANCH   7   8
ENDBRANCH   6   7
ENDBRANCH   5   6
ENDBRANCH   4   5
ENDBRANCH   3   4
ENDBRANCH   2   3
ENDBRANCH   1   2
BRANCH   1  27
ATOM     27  C   UNL A   1      43.344  18.806  25.330  1.00  0.00     0.188 C 
BRANCH  27  28
ATOM     28  O   UNL A   1      44.546  18.074  25.503  1.00  0.00    -0.376 OA
BRANCH  28  29
ATOM     29  C   UNL A   1      45.803  18.714  25.623  1.00  0.00     0.202 C 
BRANCH  29  30
ATOM     30  C   UNL A   1      46.221  19.910  24.755  1.00  0.00     0.261 C 
BRANCH  30  31
ATOM     31  O   UNL A   1      45.930  21.210  25.278  1.00  0.00    -0.460 OA
BRANCH  31  32
ATOM     32  C   UNL A   1      44.965  21.874  24.606  1.00  0.00     0.338 C 
ATOM     33  O   UNL A   1      44.526  21.593  23.503  1.00  0.00    -0.246 OA
BRANCH  32  34
ATOM     34  C   UNL A   1      44.345  22.895  25.479  1.00  0.00     0.060 A 
ATOM     35  C   UNL A   1      43.688  23.964  24.851  1.00  0.00     0.016 A 
ATOM     36  C   UNL A   1      44.449  22.847  26.871  1.00  0.00     0.016 A 
ATOM     37  C   UNL A   1      43.228  25.039  25.595  1.00  0.00     0.010 A 
ATOM     38  C   UNL A   1      44.026  23.952  27.618  1.00  0.00     0.010 A 
ATOM     39  C   UNL A   1      43.493  25.080  26.965  1.00  0.00    -0.014 A 
BRANCH  39  40
ATOM     40  C   UNL A   1      43.536  26.415  27.606  1.00  0.00     0.031 A 
ATOM     41  C   UNL A   1      44.873  27.111  27.676  1.00  0.00     0.074 A 
ATOM     42  C   UNL A   1      42.415  27.043  27.993  1.00  0.00     0.049 A 
ATOM     43  N   UNL A   1      45.179  28.283  28.165  1.00  0.00    -0.248 NA
ATOM     44  C   UNL A   1      46.023  26.378  27.119  1.00  0.00     0.031 C 
ATOM     45  C   UNL A   1      41.061  26.502  27.877  1.00  0.00     0.029 A 
ATOM     46  N   UNL A   1      42.238  28.283  28.549  1.00  0.00    -0.354 N 
ATOM     47  C   UNL A   1      46.554  28.417  27.993  1.00  0.00     0.074 A 
ATOM     48  C   UNL A   1      47.028  27.191  27.394  1.00  0.00     0.031 C 
ATOM     49  C   UNL A   1      40.191  27.412  28.346  1.00  0.00     0.029 A 
ATOM     50  C   UNL A   1      40.927  28.576  28.836  1.00  0.00     0.049 A 
ATOM     51  H   UNL A   1      42.980  28.904  28.727  1.00  0.00     0.167 HD
ATOM     52  C   UNL A   1      47.346  29.472  28.302  1.00  0.00     0.034 A 
ATOM     53  C   UNL A   1      40.393  29.653  29.444  1.00  0.00     0.034 A 
ATOM     54  C   UNL A   1      46.850  30.685  28.901  1.00  0.00     0.049 A 
ATOM     55  C   UNL A   1      41.311  30.774  29.875  1.00  0.00     0.074 A 
ATOM     56  C   UNL A   1      47.554  31.823  29.251  1.00  0.00     0.029 A 
ATOM     57  N   UNL A   1      45.525  30.914  29.254  1.00  0.00    -0.354 N 
ATOM     58  N   UNL A   1      42.612  30.885  29.727  1.00  0.00    -0.248 NA
ATOM     59  C   UNL A   1      40.682  31.920  30.541  1.00  0.00     0.031 C 
ATOM     60  C   UNL A   1      46.679  32.691  29.910  1.00  0.00     0.029 A 
ATOM     61  C   UNL A   1      45.402  32.154  29.858  1.00  0.00     0.049 A 
ATOM     62  H   UNL A   1      44.782  30.286  29.096  1.00  0.00     0.167 HD
ATOM     63  C   UNL A   1      42.946  32.139  30.234  1.00  0.00     0.074 A 
ATOM     64  C   UNL A   1      41.708  32.743  30.684  1.00  0.00     0.031 C 
ATOM     65  C   UNL A   1      44.162  32.745  30.307  1.00  0.00     0.034 A 
BRANCH  52  66
ATOM     66  C   UNL A   1      48.833  29.321  28.072  1.00  0.00     0.023 A 
ATOM     67  C   UNL A   1      49.426  29.523  26.813  1.00  0.00     0.031 A 
ATOM     68  C   UNL A   1      49.667  28.927  29.134  1.00  0.00     0.131 A 
ATOM     69  C   UNL A   1      50.793  29.256  26.632  1.00  0.00     0.055 A 
ATOM     70  C   UNL A   1      51.043  28.757  28.969  1.00  0.00     0.041 A 
ATOM     71  F   UNL A   1      49.157  28.684  30.351  1.00  0.00    -0.206 F 
ATOM     72  C   UNL A   1      51.610  28.905  27.708  1.00  0.00     0.022 A 
BRANCH  69  73
ATOM     73  S   UNL A   1      51.451  29.202  24.942  1.00  0.00     0.124 S 
ATOM     74  O   UNL A   1      52.673  28.422  25.128  1.00  0.00    -0.237 OA
ATOM     75  O   UNL A   1      50.378  28.545  24.205  1.00  0.00    -0.237 OA
ATOM     76  O   UNL A   1      51.666  30.610  24.613  1.00  0.00    -0.744 OA
ENDBRANCH  69  73
ENDBRANCH  52  66
BRANCH  53  77
ATOM     77  C   UNL A   1      38.927  29.722  29.711  1.00  0.00     0.023 A 
ATOM     78  C   UNL A   1      38.081  30.514  28.919  1.00  0.00     0.031 A 
ATOM     79  C   UNL A   1      38.360  29.050  30.808  1.00  0.00     0.131 A 
ATOM     80  C   UNL A   1      36.730  30.661  29.268  1.00  0.00     0.055 A 
ATOM     81  C   UNL A   1      37.001  29.143  31.111  1.00  0.00     0.041 A 
ATOM     82  F   UNL A   1      39.123  28.286  31.607  1.00  0.00    -0.206 F 
ATOM     83  C   UNL A   1      36.181  29.966  30.347  1.00  0.00     0.022 A 
BRANCH  80  84
ATOM     84  S   UNL A   1      35.726  31.872  28.363  1.00  0.00     0.124 S 
ATOM     85  O   UNL A   1      36.714  32.896  28.050  1.00  0.00    -0.237 OA
ATOM     86  O   UNL A   1      35.239  31.080  27.238  1.00  0.00    -0.237 OA
ATOM     87  O   UNL A   1      34.707  32.261  29.336  1.00  0.00    -0.744 OA
ENDBRANCH  80  84
ENDBRANCH  53  77
BRANCH  65  88
ATOM     88  C   UNL A   1      44.198  34.168  30.820  1.00  0.00     0.023 A 
ATOM     89  C   UNL A   1      44.319  34.473  32.185  1.00  0.00     0.031 A 
ATOM     90  C   UNL A   1      44.074  35.240  29.915  1.00  0.00     0.131 A 
ATOM     91  C   UNL A   1      44.223  35.806  32.614  1.00  0.00     0.055 A 
ATOM     92  C   UNL A   1      44.074  36.569  30.340  1.00  0.00     0.041 A 
ATOM     93  F   UNL A   1      43.948  35.015  28.597  1.00  0.00    -0.206 F 
ATOM     94  C   UNL A   1      44.127  36.857  31.699  1.00  0.00     0.022 A 
BRANCH  91  95
ATOM     95  S   UNL A   1      44.065  36.135  34.392  1.00  0.00     0.124 S 
ATOM     96  O   UNL A   1      44.011  34.785  34.943  1.00  0.00    -0.237 OA
ATOM     97  O   UNL A   1      45.277  36.893  34.678  1.00  0.00    -0.237 OA
ATOM     98  O   UNL A   1      42.820  36.895  34.489  1.00  0.00    -0.744 OA
ENDBRANCH  91  95
ENDBRANCH  65  88
ENDBRANCH  39  40
ENDBRANCH  32  34
ENDBRANCH  31  32
ENDBRANCH  30  31
ENDBRANCH  29  30
ENDBRANCH  28  29
ENDBRANCH  27  28
ENDBRANCH   1  27
TORSDOF 24
ENDMDL
MODEL 2
REMARK VINA RESULT:     -10.8      3.039      4.701
REMARK SMILES O=C(OCCOCCOCCOCCOC(=O)c1ccc(-c2c3nc(c(-c4cc(S(=O)(=O)[O-])ccc4F)c4ccc([nH]4)c(-c4cc(S(=O)(=O)[O-])ccc4F)c4nc(c(-c5cc(S(=O)(=O)[O-])ccc5F)c5ccc2[nH]5)C=C4)C=C3)cc1)C1=Cc2cc(Cl)c(Cl)cc2O[C@@H]1C(F)(F)F
REMARK SMILES IDX 10 1 9 2 8 3 7 4 6 5 5 6 4 7 3 8 2 9 1 10 81 11 82 12 92 13
REMARK SMILES IDX 83 14 91 15 84 16 90 17 85 18 89 19 86 20 87 21 88 22 93 23
REMARK SMILES IDX 94 24 95 25 96 26 11 27 12 28 13 29 14 30 15 31 16 32 17 33
REMARK SMILES IDX 18 34 19 35 80 36 20 37 79 38 21 39 22 40 23 41 73 42 24 43
REMARK SMILES IDX 78 44 72 45 74 46 25 47 77 48 71 49 70 50 26 52 58 53 38 54
REMARK SMILES IDX 57 55 39 56 42 57 56 58 75 59 40 60 41 61 55 63 76 64 43 65
REMARK SMILES IDX 27 66 28 67 36 68 29 69 35 70 37 71 34 72 30 73 31 74 32 75
REMARK SMILES IDX 33 76 59 77 60 78 68 79 61 80 67 81 69 82 66 83 62 84 63 85
REMARK SMILES IDX 64 86 65 87 44 88 45 89 53 90 46 91 52 92 54 93 51 94 47 95
REMARK SMILES IDX 48 96 49 97 50 98
REMARK H PARENT 74 51 42 62
REMARK Flexibility Score: inf
ROOT
ATOM      1  C   UNL A   1      36.493  22.429  24.252  1.00  0.00     0.188 C 
ENDROOT
BRANCH   1   2
ATOM      2  O   UNL A   1      35.188  21.969  23.991  1.00  0.00    -0.377 OA
BRANCH   2   3
ATOM      3  C   UNL A   1      34.741  21.067  24.974  1.00  0.00     0.188 C 
BRANCH   3   4
ATOM      4  C   UNL A   1      33.639  20.088  24.533  1.00  0.00     0.188 C 
BRANCH   4   5
ATOM      5  O   UNL A   1      32.732  20.296  23.395  1.00  0.00    -0.376 OA
BRANCH   5   6
ATOM      6  C   UNL A   1      32.112  21.648  22.660  1.00  0.00     0.202 C 
BRANCH   6   7
ATOM      7  C   UNL A   1      33.188  23.066  21.393  1.00  0.00     0.261 C 
BRANCH   7   8
ATOM      8  O   UNL A   1      33.543  24.495  21.745  1.00  0.00    -0.460 OA
BRANCH   8   9
ATOM      9  C   UNL A   1      32.799  25.382  21.073  1.00  0.00     0.338 C 
ATOM     10  O   UNL A   1      32.892  25.708  19.915  1.00  0.00    -0.246 OA
BRANCH   9  11
ATOM     11  C   UNL A   1      32.281  26.099  22.229  1.00  0.00     0.087 C 
ATOM     12  C   UNL A   1      31.268  25.355  22.993  1.00  0.00     0.027 C 
ATOM     13  C   UNL A   1      34.040  26.528  22.875  1.00  0.00     0.316 C 
ATOM     14  C   UNL A   1      31.580  24.531  24.565  1.00  0.00     0.019 A 
ATOM     15  O   UNL A   1      34.456  25.534  24.499  1.00  0.00    -0.475 OA
ATOM     16  C   UNL A   1      30.569  23.858  25.195  1.00  0.00     0.034 A 
ATOM     17  C   UNL A   1      33.150  24.508  25.290  1.00  0.00     0.129 A 
ATOM     18  C   UNL A   1      30.916  23.232  26.414  1.00  0.00     0.060 A 
ATOM     19  C   UNL A   1      33.415  23.848  26.463  1.00  0.00     0.069 A 
ATOM     20  Cl  UNL A   1      29.584  22.425  27.204  1.00  0.00    -0.083 Cl
ATOM     21  C   UNL A   1      32.257  23.230  27.014  1.00  0.00     0.063 A 
ATOM     22  Cl  UNL A   1      32.491  22.437  28.550  1.00  0.00    -0.083 Cl
BRANCH  13  23
ATOM     23  C   UNL A   1      33.861  28.159  22.580  1.00  0.00     0.430 C 
ATOM     24  F   UNL A   1      32.694  28.742  22.904  1.00  0.00    -0.167 F 
ATOM     25  F   UNL A   1      34.777  28.797  23.375  1.00  0.00    -0.167 F 
ATOM     26  F   UNL A   1      34.185  28.557  21.325  1.00  0.00    -0.167 F 
ENDBRANCH  13  23
ENDBRANCH   9  11
ENDBRANCH   8   9
ENDBRANCH   7   8
ENDBRANCH   6   7
ENDBRANCH   5   6
ENDBRANCH   4   5
ENDBRANCH   3   4
ENDBRANCH   2   3
ENDBRANCH   1   2
BRANCH   1  27
ATOM     27  C   UNL A   1      37.229  21.759  25.417  1.00  0.00     0.188 C 
BRANCH  27  28
ATOM     28  O   UNL A   1      38.506  21.162  25.271  1.00  0.00    -0.376 OA
BRANCH  28  29
ATOM     29  C   UNL A   1      38.692  19.760  25.352  1.00  0.00     0.202 C 
BRANCH  29  30
ATOM     30  C   UNL A   1      39.965  19.115  25.918  1.00  0.00     0.261 C 
BRANCH  30  31
ATOM     31  O   UNL A   1      41.191  19.434  25.252  1.00  0.00    -0.460 OA
BRANCH  31  32
ATOM     32  C   UNL A   1      42.180  19.841  26.076  1.00  0.00     0.338 C 
ATOM     33  O   UNL A   1      43.262  19.299  26.231  1.00  0.00    -0.246 OA
BRANCH  32  34
ATOM     34  C   UNL A   1      41.865  21.175  26.632  1.00  0.00     0.060 A 
ATOM     35  C   UNL A   1      41.546  22.193  25.721  1.00  0.00     0.016 A 
ATOM     36  C   UNL A   1      41.934  21.446  28.001  1.00  0.00     0.016 A 
ATOM     37  C   UNL A   1      41.401  23.502  26.153  1.00  0.00     0.010 A 
ATOM     38  C   UNL A   1      41.832  22.773  28.432  1.00  0.00     0.010 A 
ATOM     39  C   UNL A   1      41.649  23.806  27.492  1.00  0.00    -0.014 A 
BRANCH  39  40
ATOM     40  C   UNL A   1      42.062  25.194  27.805  1.00  0.00     0.031 A 
ATOM     41  C   UNL A   1      43.419  25.642  27.323  1.00  0.00     0.074 A 
ATOM     42  C   UNL A   1      41.216  26.064  28.379  1.00  0.00     0.049 A 
ATOM     43  N   UNL A   1      44.007  26.803  27.447  1.00  0.00    -0.248 NA
ATOM     44  C   UNL A   1      44.223  24.639  26.603  1.00  0.00     0.031 C 
ATOM     45  C   UNL A   1      39.846  25.762  28.792  1.00  0.00     0.029 A 
ATOM     46  N   UNL A   1      41.383  27.386  28.699  1.00  0.00    -0.354 N 
ATOM     47  C   UNL A   1      45.254  26.661  26.842  1.00  0.00     0.074 A 
ATOM     48  C   UNL A   1      45.352  25.293  26.389  1.00  0.00     0.031 C 
ATOM     49  C   UNL A   1      39.296  26.873  29.310  1.00  0.00     0.029 A 
ATOM     50  C   UNL A   1      40.286  27.948  29.305  1.00  0.00     0.049 A 
ATOM     51  H   UNL A   1      42.211  27.885  28.513  1.00  0.00     0.167 HD
ATOM     52  C   UNL A   1      46.223  27.592  26.675  1.00  0.00     0.034 A 
ATOM     53  C   UNL A   1      40.117  29.184  29.816  1.00  0.00     0.034 A 
ATOM     54  C   UNL A   1      46.102  28.952  27.138  1.00  0.00     0.049 A 
ATOM     55  C   UNL A   1      41.252  30.175  29.710  1.00  0.00     0.074 A 
ATOM     56  C   UNL A   1      47.013  29.986  27.018  1.00  0.00     0.029 A 
ATOM     57  N   UNL A   1      45.007  29.464  27.823  1.00  0.00    -0.354 N 
ATOM     58  N   UNL A   1      42.434  30.029  29.155  1.00  0.00    -0.248 NA
ATOM     59  C   UNL A   1      41.022  31.504  30.289  1.00  0.00     0.031 C 
ATOM     60  C   UNL A   1      46.516  31.087  27.722  1.00  0.00     0.029 A 
ATOM     61  C   UNL A   1      45.240  30.785  28.171  1.00  0.00     0.049 A 
ATOM     62  H   UNL A   1      44.184  28.963  28.029  1.00  0.00     0.167 HD
ATOM     63  C   UNL A   1      43.065  31.266  29.271  1.00  0.00     0.074 A 
ATOM     64  C   UNL A   1      42.128  32.143  29.943  1.00  0.00     0.031 C 
ATOM     65  C   UNL A   1      44.299  31.649  28.846  1.00  0.00     0.034 A 
BRANCH  52  66
ATOM     66  C   UNL A   1      47.520  27.145  26.040  1.00  0.00     0.023 A 
ATOM     67  C   UNL A   1      48.505  26.438  26.753  1.00  0.00     0.031 A 
ATOM     68  C   UNL A   1      47.791  27.472  24.699  1.00  0.00     0.131 A 
ATOM     69  C   UNL A   1      49.738  26.151  26.147  1.00  0.00     0.055 A 
ATOM     70  C   UNL A   1      48.981  27.098  24.073  1.00  0.00     0.041 A 
ATOM     71  F   UNL A   1      46.907  28.177  23.975  1.00  0.00    -0.206 F 
ATOM     72  C   UNL A   1      49.970  26.448  24.803  1.00  0.00     0.022 A 
BRANCH  69  73
ATOM     73  S   UNL A   1      51.097  25.543  27.185  1.00  0.00     0.124 S 
ATOM     74  O   UNL A   1      51.906  24.814  26.211  1.00  0.00    -0.237 OA
ATOM     75  O   UNL A   1      51.676  26.777  27.703  1.00  0.00    -0.237 OA
ATOM     76  O   UNL A   1      50.423  24.705  28.174  1.00  0.00    -0.744 OA
ENDBRANCH  69  73
ENDBRANCH  52  66
BRANCH  53  77
ATOM     77  C   UNL A   1      38.841  29.554  30.496  1.00  0.00     0.023 A 
ATOM     78  C   UNL A   1      37.865  30.319  29.841  1.00  0.00     0.031 A 
ATOM     79  C   UNL A   1      38.611  29.204  31.839  1.00  0.00     0.131 A 
ATOM     80  C   UNL A   1      36.733  30.760  30.544  1.00  0.00     0.055 A 
ATOM     81  C   UNL A   1      37.451  29.585  32.513  1.00  0.00     0.041 A 
ATOM     82  F   UNL A   1      39.516  28.481  32.518  1.00  0.00    -0.206 F 
ATOM     83  C   UNL A   1      36.511  30.382  31.869  1.00  0.00     0.022 A 
BRANCH  80  84
ATOM     84  S   UNL A   1      35.613  31.937  29.737  1.00  0.00     0.124 S 
ATOM     85  O   UNL A   1      34.967  31.092  28.741  1.00  0.00    -0.237 OA
ATOM     86  O   UNL A   1      34.777  32.373  30.851  1.00  0.00    -0.237 OA
ATOM     87  O   UNL A   1      36.517  32.953  29.203  1.00  0.00    -0.744 OA
ENDBRANCH  80  84
ENDBRANCH  53  77
BRANCH  65  88
ATOM     88  C   UNL A   1      44.673  33.105  29.024  1.00  0.00     0.023 A 
ATOM     89  C   UNL A   1      44.104  34.127  28.247  1.00  0.00     0.031 A 
ATOM     90  C   UNL A   1      45.647  33.466  29.975  1.00  0.00     0.131 A 
ATOM     91  C   UNL A   1      44.578  35.442  28.369  1.00  0.00     0.055 A 
ATOM     92  C   UNL A   1      46.046  34.790  30.157  1.00  0.00     0.041 A 
ATOM     93  F   UNL A   1      46.233  32.534  30.744  1.00  0.00    -0.206 F 
ATOM     94  C   UNL A   1      45.526  35.785  29.337  1.00  0.00     0.022 A 
BRANCH  91  95
ATOM     95  S   UNL A   1      44.055  36.671  27.140  1.00  0.00     0.124 S 
ATOM     96  O   UNL A   1      45.286  37.423  26.925  1.00  0.00    -0.237 OA
ATOM     97  O   UNL A   1      43.616  35.833  26.029  1.00  0.00    -0.237 OA
ATOM     98  O   UNL A   1      42.991  37.405  27.822  1.00  0.00    -0.744 OA
ENDBRANCH  91  95
ENDBRANCH  65  88
ENDBRANCH  39  40
ENDBRANCH  32  34
ENDBRANCH  31  32
ENDBRANCH  30  31
ENDBRANCH  29  30
ENDBRANCH  28  29
ENDBRANCH  27  28
ENDBRANCH   1  27
TORSDOF 24
ENDMDL
MODEL 3
REMARK VINA RESULT:     -10.6      2.760      4.464
REMARK SMILES O=C(OCCOCCOCCOCCOC(=O)c1ccc(-c2c3nc(c(-c4cc(S(=O)(=O)[O-])ccc4F)c4ccc([nH]4)c(-c4cc(S(=O)(=O)[O-])ccc4F)c4nc(c(-c5cc(S(=O)(=O)[O-])ccc5F)c5ccc2[nH]5)C=C4)C=C3)cc1)C1=Cc2cc(Cl)c(Cl)cc2O[C@@H]1C(F)(F)F
REMARK SMILES IDX 10 1 9 2 8 3 7 4 6 5 5 6 4 7 3 8 2 9 1 10 81 11 82 12 92 13
REMARK SMILES IDX 83 14 91 15 84 16 90 17 85 18 89 19 86 20 87 21 88 22 93 23
REMARK SMILES IDX 94 24 95 25 96 26 11 27 12 28 13 29 14 30 15 31 16 32 17 33
REMARK SMILES IDX 18 34 19 35 80 36 20 37 79 38 21 39 22 40 23 41 73 42 24 43
REMARK SMILES IDX 78 44 72 45 74 46 25 47 77 48 71 49 70 50 26 52 58 53 38 54
REMARK SMILES IDX 57 55 39 56 42 57 56 58 75 59 40 60 41 61 55 63 76 64 43 65
REMARK SMILES IDX 27 66 28 67 36 68 29 69 35 70 37 71 34 72 30 73 31 74 32 75
REMARK SMILES IDX 33 76 59 77 60 78 68 79 61 80 67 81 69 82 66 83 62 84 63 85
REMARK SMILES IDX 64 86 65 87 44 88 45 89 53 90 46 91 52 92 54 93 51 94 47 95
REMARK SMILES IDX 48 96 49 97 50 98
REMARK H PARENT 74 51 42 62
REMARK Flexibility Score: inf
ROOT
ATOM      1  C   UNL A   1      36.281  22.407  24.382  1.00  0.00     0.188 C 
ENDROOT
BRANCH   1   2
ATOM      2  O   UNL A   1      35.102  21.787  23.928  1.00  0.00    -0.377 OA
BRANCH   2   3
ATOM      3  C   UNL A   1      34.526  20.964  24.914  1.00  0.00     0.188 C 
BRANCH   3   4
ATOM      4  C   UNL A   1      33.272  20.183  24.485  1.00  0.00     0.188 C 
BRANCH   4   5
ATOM      5  O   UNL A   1      32.555  20.369  23.215  1.00  0.00    -0.376 OA
BRANCH   5   6
ATOM      6  C   UNL A   1      31.995  21.705  22.404  1.00  0.00     0.202 C 
BRANCH   6   7
ATOM      7  C   UNL A   1      33.186  23.175  21.313  1.00  0.00     0.261 C 
BRANCH   7   8
ATOM      8  O   UNL A   1      33.508  24.585  21.764  1.00  0.00    -0.460 OA
BRANCH   8   9
ATOM      9  C   UNL A   1      32.785  25.502  21.111  1.00  0.00     0.338 C 
ATOM     10  O   UNL A   1      32.896  25.861  19.964  1.00  0.00    -0.246 OA
BRANCH   9  11
ATOM     11  C   UNL A   1      32.265  26.193  22.282  1.00  0.00     0.087 C 
ATOM     12  C   UNL A   1      31.262  25.426  23.036  1.00  0.00     0.027 C 
ATOM     13  C   UNL A   1      34.024  26.625  22.930  1.00  0.00     0.316 C 
ATOM     14  C   UNL A   1      31.586  24.576  24.591  1.00  0.00     0.019 A 
ATOM     15  O   UNL A   1      34.454  25.604  24.534  1.00  0.00    -0.475 OA
ATOM     16  C   UNL A   1      30.584  23.883  25.212  1.00  0.00     0.034 A 
ATOM     17  C   UNL A   1      33.160  24.553  25.310  1.00  0.00     0.129 A 
ATOM     18  C   UNL A   1      30.940  23.237  26.418  1.00  0.00     0.060 A 
ATOM     19  C   UNL A   1      33.434  23.873  26.469  1.00  0.00     0.069 A 
ATOM     20  Cl  UNL A   1      29.619  22.404  27.197  1.00  0.00    -0.083 Cl
ATOM     21  C   UNL A   1      32.284  23.235  27.013  1.00  0.00     0.063 A 
ATOM     22  Cl  UNL A   1      32.531  22.416  28.533  1.00  0.00    -0.083 Cl
BRANCH  13  23
ATOM     23  C   UNL A   1      33.830  28.259  22.666  1.00  0.00     0.430 C 
ATOM     24  F   UNL A   1      33.122  28.971  23.561  1.00  0.00    -0.167 F 
ATOM     25  F   UNL A   1      35.083  28.810  22.728  1.00  0.00    -0.167 F 
ATOM     26  F   UNL A   1      33.386  28.596  21.430  1.00  0.00    -0.167 F 
ENDBRANCH  13  23
ENDBRANCH   9  11
ENDBRANCH   8   9
ENDBRANCH   7   8
ENDBRANCH   6   7
ENDBRANCH   5   6
ENDBRANCH   4   5
ENDBRANCH   3   4
ENDBRANCH   2   3
ENDBRANCH   1   2
BRANCH   1  27
ATOM     27  C   UNL A   1      37.076  21.653  25.454  1.00  0.00     0.188 C 
BRANCH  27  28
ATOM     28  O   UNL A   1      38.338  21.063  25.194  1.00  0.00    -0.376 OA
BRANCH  28  29
ATOM     29  C   UNL A   1      38.585  19.687  25.424  1.00  0.00     0.202 C 
BRANCH  29  30
ATOM     30  C   UNL A   1      39.955  19.142  25.854  1.00  0.00     0.261 C 
BRANCH  30  31
ATOM     31  O   UNL A   1      41.103  19.822  25.337  1.00  0.00    -0.460 OA
BRANCH  31  32
ATOM     32  C   UNL A   1      42.013  20.164  26.273  1.00  0.00     0.338 C 
ATOM     33  O   UNL A   1      43.044  19.564  26.533  1.00  0.00    -0.246 OA
BRANCH  32  34
ATOM     34  C   UNL A   1      41.704  21.501  26.824  1.00  0.00     0.060 A 
ATOM     35  C   UNL A   1      41.319  22.497  25.913  1.00  0.00     0.016 A 
ATOM     36  C   UNL A   1      41.841  21.798  28.181  1.00  0.00     0.016 A 
ATOM     37  C   UNL A   1      41.173  23.811  26.330  1.00  0.00     0.010 A 
ATOM     38  C   UNL A   1      41.738  23.130  28.595  1.00  0.00     0.010 A 
ATOM     39  C   UNL A   1      41.487  24.143  27.649  1.00  0.00    -0.014 A 
BRANCH  39  40
ATOM     40  C   UNL A   1      41.890  25.544  27.916  1.00  0.00     0.031 A 
ATOM     41  C   UNL A   1      43.189  26.020  27.315  1.00  0.00     0.074 A 
ATOM     42  C   UNL A   1      41.076  26.397  28.556  1.00  0.00     0.049 A 
ATOM     43  N   UNL A   1      43.757  27.196  27.380  1.00  0.00    -0.248 NA
ATOM     44  C   UNL A   1      43.952  25.031  26.534  1.00  0.00     0.031 C 
ATOM     45  C   UNL A   1      39.755  26.066  29.088  1.00  0.00     0.029 A 
ATOM     46  N   UNL A   1      41.237  27.726  28.851  1.00  0.00    -0.354 N 
ATOM     47  C   UNL A   1      44.949  27.079  26.670  1.00  0.00     0.074 A 
ATOM     48  C   UNL A   1      45.042  25.710  26.219  1.00  0.00     0.031 C 
ATOM     49  C   UNL A   1      39.224  27.168  29.644  1.00  0.00     0.029 A 
ATOM     50  C   UNL A   1      40.183  28.267  29.547  1.00  0.00     0.049 A 
ATOM     51  H   UNL A   1      42.033  28.243  28.591  1.00  0.00     0.167 HD
ATOM     52  C   UNL A   1      45.876  28.032  26.413  1.00  0.00     0.034 A 
ATOM     53  C   UNL A   1      40.028  29.502  30.062  1.00  0.00     0.034 A 
ATOM     54  C   UNL A   1      45.762  29.392  26.876  1.00  0.00     0.049 A 
ATOM     55  C   UNL A   1      41.125  30.520  29.852  1.00  0.00     0.074 A 
ATOM     56  C   UNL A   1      46.634  30.447  26.671  1.00  0.00     0.029 A 
ATOM     57  N   UNL A   1      44.718  29.884  27.650  1.00  0.00    -0.354 N 
ATOM     58  N   UNL A   1      42.258  30.398  29.197  1.00  0.00    -0.248 NA
ATOM     59  C   UNL A   1      40.913  31.847  30.440  1.00  0.00     0.031 C 
ATOM     60  C   UNL A   1      46.172  31.542  27.407  1.00  0.00     0.029 A 
ATOM     61  C   UNL A   1      44.948  31.212  27.968  1.00  0.00     0.049 A 
ATOM     62  H   UNL A   1      43.930  29.365  27.930  1.00  0.00     0.167 HD
ATOM     63  C   UNL A   1      42.865  31.651  29.249  1.00  0.00     0.074 A 
ATOM     64  C   UNL A   1      41.968  32.510  29.995  1.00  0.00     0.031 C 
ATOM     65  C   UNL A   1      44.047  32.060  28.717  1.00  0.00     0.034 A 
BRANCH  52  66
ATOM     66  C   UNL A   1      47.125  27.611  25.670  1.00  0.00     0.023 A 
ATOM     67  C   UNL A   1      47.341  27.930  24.317  1.00  0.00     0.031 A 
ATOM     68  C   UNL A   1      48.101  26.840  26.325  1.00  0.00     0.131 A 
ATOM     69  C   UNL A   1      48.462  27.414  23.647  1.00  0.00     0.055 A 
ATOM     70  C   UNL A   1      49.262  26.412  25.679  1.00  0.00     0.041 A 
ATOM     71  F   UNL A   1      47.936  26.473  27.606  1.00  0.00    -0.206 F 
ATOM     72  C   UNL A   1      49.439  26.684  24.327  1.00  0.00     0.022 A 
BRANCH  69  73
ATOM     73  S   UNL A   1      48.538  27.561  21.840  1.00  0.00     0.124 S 
ATOM     74  O   UNL A   1      47.208  28.082  21.532  1.00  0.00    -0.237 OA
ATOM     75  O   UNL A   1      49.649  28.485  21.645  1.00  0.00    -0.237 OA
ATOM     76  O   UNL A   1      48.779  26.190  21.395  1.00  0.00    -0.744 OA
ENDBRANCH  69  73
ENDBRANCH  52  66
BRANCH  53  77
ATOM     77  C   UNL A   1      38.807  29.847  30.848  1.00  0.00     0.023 A 
ATOM     78  C   UNL A   1      37.785  30.633  30.294  1.00  0.00     0.031 A 
ATOM     79  C   UNL A   1      38.678  29.451  32.191  1.00  0.00     0.131 A 
ATOM     80  C   UNL A   1      36.710  31.047  31.095  1.00  0.00     0.055 A 
ATOM     81  C   UNL A   1      37.573  29.808  32.964  1.00  0.00     0.041 A 
ATOM     82  F   UNL A   1      39.631  28.707  32.776  1.00  0.00    -0.206 F 
ATOM     83  C   UNL A   1      36.587  30.624  32.420  1.00  0.00     0.022 A 
BRANCH  80  84
ATOM     84  S   UNL A   1      35.534  32.249  30.414  1.00  0.00     0.124 S 
ATOM     85  O   UNL A   1      34.534  32.313  31.472  1.00  0.00    -0.237 OA
ATOM     86  O   UNL A   1      36.372  33.433  30.248  1.00  0.00    -0.237 OA
ATOM     87  O   UNL A   1      35.090  31.622  29.171  1.00  0.00    -0.744 OA
ENDBRANCH  80  84
ENDBRANCH  53  77
BRANCH  65  88
ATOM     88  C   UNL A   1      44.399  33.525  28.852  1.00  0.00     0.023 A 
ATOM     89  C   UNL A   1      45.021  34.047  29.998  1.00  0.00     0.031 A 
ATOM     90  C   UNL A   1      44.070  34.421  27.816  1.00  0.00     0.131 A 
ATOM     91  C   UNL A   1      45.211  35.432  30.119  1.00  0.00     0.055 A 
ATOM     92  C   UNL A   1      44.348  35.785  27.904  1.00  0.00     0.041 A 
ATOM     93  F   UNL A   1      43.468  33.985  26.697  1.00  0.00    -0.206 F 
ATOM     94  C   UNL A   1      44.902  36.302  29.070  1.00  0.00     0.022 A 
BRANCH  91  95
ATOM     95  S   UNL A   1      45.719  36.100  31.728  1.00  0.00     0.124 S 
ATOM     96  O   UNL A   1      46.992  36.733  31.402  1.00  0.00    -0.237 OA
ATOM     97  O   UNL A   1      44.621  37.005  32.051  1.00  0.00    -0.237 OA
ATOM     98  O   UNL A   1      45.815  34.913  32.576  1.00  0.00    -0.744 OA
ENDBRANCH  91  95
ENDBRANCH  65  88
ENDBRANCH  39  40
ENDBRANCH  32  34
ENDBRANCH  31  32
ENDBRANCH  30  31
ENDBRANCH  29  30
ENDBRANCH  28  29
ENDBRANCH  27  28
ENDBRANCH   1  27
TORSDOF 24
ENDMDL
