MODEL 1
REMARK VINA RESULT:      -9.1      0.000      0.000
REMARK SMILES O=C(OCCOCCOCCOCCOC(=O)[C@H](Cc1ccccn1)c1ccc(F)cc1)c1ccc(-c2c3nc(c(-c4cc(S(=O)(=O)[O-])ccc4F)c4ccc([nH]4)c(-c4cc(S(=O)(=O)[O-])ccc4F)c4nc(c(-c5cc(S(=O)(=O)[O-])ccc5F)c5ccc2[nH]5)C=C4)C=C3)cc1
REMARK SMILES IDX 8 1 7 2 6 3 5 4 4 5 3 6 2 7 1 8 33 9 34 10 95 11 35 12 94 13
REMARK SMILES IDX 36 14 37 15 38 16 88 17 39 18 93 19 87 20 89 21 40 22 92 23
REMARK SMILES IDX 86 24 85 25 41 27 73 28 53 29 72 30 54 31 57 32 71 33 90 34
REMARK SMILES IDX 55 35 56 36 70 38 91 39 58 40 42 41 43 42 51 43 44 44 50 45
REMARK SMILES IDX 52 46 49 47 45 48 46 49 47 50 48 51 74 52 75 53 83 54 76 55
REMARK SMILES IDX 82 56 84 57 81 58 77 59 78 60 79 61 80 62 59 63 60 64 68 65
REMARK SMILES IDX 61 66 67 67 69 68 66 69 62 70 63 71 64 72 65 73 9 74 10 75
REMARK SMILES IDX 11 76 12 77 13 78 14 79 15 80 16 81 17 82 18 83 26 84 27 85
REMARK SMILES IDX 32 86 28 87 31 88 29 89 30 90 19 91 20 92 21 93 25 94 22 95
REMARK SMILES IDX 24 96 23 97
REMARK H PARENT 89 26 57 37
REMARK Flexibility Score: inf
ROOT
ATOM      1  C   UNL A   1      38.969  20.586  25.371  1.00  0.00     0.188 C 
ENDROOT
BRANCH   1   2
ATOM      2  C   UNL A   1      39.616  21.688  26.208  1.00  0.00     0.188 C 
BRANCH   2   3
ATOM      3  O   UNL A   1      40.866  21.242  26.722  1.00  0.00    -0.376 OA
BRANCH   3   4
ATOM      4  C   UNL A   1      40.961  19.877  27.114  1.00  0.00     0.202 C 
BRANCH   4   5
ATOM      5  C   UNL A   1      42.218  19.184  26.600  1.00  0.00     0.261 C 
BRANCH   5   6
ATOM      6  O   UNL A   1      42.565  19.594  25.271  1.00  0.00    -0.460 OA
BRANCH   6   7
ATOM      7  C   UNL A   1      43.631  20.337  24.881  1.00  0.00     0.338 C 
ATOM      8  O   UNL A   1      44.430  19.814  24.101  1.00  0.00    -0.246 OA
BRANCH   7   9
ATOM      9  C   UNL A   1      43.919  21.743  25.319  1.00  0.00     0.060 A 
ATOM     10  C   UNL A   1      43.736  22.907  24.567  1.00  0.00     0.016 A 
ATOM     11  C   UNL A   1      44.324  21.893  26.658  1.00  0.00     0.016 A 
ATOM     12  C   UNL A   1      43.938  24.170  25.108  1.00  0.00     0.010 A 
ATOM     13  C   UNL A   1      44.537  23.156  27.212  1.00  0.00     0.010 A 
ATOM     14  C   UNL A   1      44.348  24.297  26.429  1.00  0.00    -0.014 A 
BRANCH  14  15
ATOM     15  C   UNL A   1      44.743  25.629  26.913  1.00  0.00     0.031 A 
ATOM     16  C   UNL A   1      43.677  26.481  27.525  1.00  0.00     0.074 A 
ATOM     17  C   UNL A   1      46.035  25.989  26.917  1.00  0.00     0.049 A 
ATOM     18  N   UNL A   1      43.726  27.727  27.901  1.00  0.00    -0.248 NA
ATOM     19  C   UNL A   1      42.379  25.827  27.754  1.00  0.00     0.031 C 
ATOM     20  C   UNL A   1      47.153  25.128  26.520  1.00  0.00     0.029 A 
ATOM     21  N   UNL A   1      46.632  27.158  27.298  1.00  0.00    -0.354 N 
ATOM     22  C   UNL A   1      42.459  28.014  28.395  1.00  0.00     0.074 A 
ATOM     23  C   UNL A   1      41.661  26.817  28.254  1.00  0.00     0.031 C 
ATOM     24  C   UNL A   1      48.303  25.797  26.700  1.00  0.00     0.029 A 
ATOM     25  C   UNL A   1      47.997  27.153  27.139  1.00  0.00     0.049 A 
ATOM     26  H   UNL A   1      46.132  27.929  27.653  1.00  0.00     0.167 HD
ATOM     27  C   UNL A   1      42.015  29.184  28.911  1.00  0.00     0.034 A 
ATOM     28  C   UNL A   1      48.882  28.156  27.292  1.00  0.00     0.034 A 
ATOM     29  C   UNL A   1      42.853  30.352  28.992  1.00  0.00     0.049 A 
ATOM     30  C   UNL A   1      48.341  29.501  27.694  1.00  0.00     0.074 A 
ATOM     31  C   UNL A   1      42.518  31.642  29.354  1.00  0.00     0.029 A 
ATOM     32  N   UNL A   1      44.215  30.359  28.697  1.00  0.00    -0.354 N 
ATOM     33  N   UNL A   1      47.103  29.835  27.985  1.00  0.00    -0.248 NA
ATOM     34  C   UNL A   1      49.299  30.606  27.769  1.00  0.00     0.031 C 
ATOM     35  C   UNL A   1      43.663  32.438  29.220  1.00  0.00     0.029 A 
ATOM     36  C   UNL A   1      44.733  31.631  28.858  1.00  0.00     0.049 A 
ATOM     37  H   UNL A   1      44.733  29.571  28.417  1.00  0.00     0.167 HD
ATOM     38  C   UNL A   1      47.135  31.186  28.308  1.00  0.00     0.074 A 
ATOM     39  C   UNL A   1      48.520  31.603  28.167  1.00  0.00     0.031 C 
ATOM     40  C   UNL A   1      46.122  32.003  28.698  1.00  0.00     0.034 A 
BRANCH  27  41
ATOM     41  C   UNL A   1      40.558  29.245  29.296  1.00  0.00     0.023 A 
ATOM     42  C   UNL A   1      40.140  29.132  30.635  1.00  0.00     0.031 A 
ATOM     43  C   UNL A   1      39.569  29.293  28.299  1.00  0.00     0.131 A 
ATOM     44  C   UNL A   1      38.775  28.986  30.931  1.00  0.00     0.055 A 
ATOM     45  C   UNL A   1      38.208  29.228  28.608  1.00  0.00     0.041 A 
ATOM     46  F   UNL A   1      39.907  29.362  27.002  1.00  0.00    -0.206 F 
ATOM     47  C   UNL A   1      37.805  29.057  29.928  1.00  0.00     0.022 A 
BRANCH  44  48
ATOM     48  S   UNL A   1      38.292  28.544  32.624  1.00  0.00     0.124 S 
ATOM     49  O   UNL A   1      37.014  29.240  32.756  1.00  0.00    -0.237 OA
ATOM     50  O   UNL A   1      38.222  27.088  32.566  1.00  0.00    -0.237 OA
ATOM     51  O   UNL A   1      39.375  29.084  33.443  1.00  0.00    -0.744 OA
ENDBRANCH  44  48
ENDBRANCH  27  41
BRANCH  28  52
ATOM     52  C   UNL A   1      50.325  27.923  27.013  1.00  0.00     0.023 A 
ATOM     53  C   UNL A   1      51.214  27.572  28.039  1.00  0.00     0.031 A 
ATOM     54  C   UNL A   1      50.827  27.994  25.699  1.00  0.00     0.131 A 
ATOM     55  C   UNL A   1      52.560  27.301  27.736  1.00  0.00     0.055 A 
ATOM     56  C   UNL A   1      52.156  27.694  25.398  1.00  0.00     0.041 A 
ATOM     57  F   UNL A   1      50.016  28.319  24.679  1.00  0.00    -0.206 F 
ATOM     58  C   UNL A   1      53.032  27.345  26.421  1.00  0.00     0.022 A 
BRANCH  55  59
ATOM     59  S   UNL A   1      53.696  26.882  29.086  1.00  0.00     0.124 S 
ATOM     60  O   UNL A   1      52.793  26.269  30.055  1.00  0.00    -0.237 OA
ATOM     61  O   UNL A   1      54.638  25.985  28.427  1.00  0.00    -0.237 OA
ATOM     62  O   UNL A   1      54.248  28.177  29.481  1.00  0.00    -0.744 OA
ENDBRANCH  55  59
ENDBRANCH  28  52
BRANCH  40  63
ATOM     63  C   UNL A   1      46.493  33.415  29.059  1.00  0.00     0.023 A 
ATOM     64  C   UNL A   1      46.375  34.470  28.141  1.00  0.00     0.031 A 
ATOM     65  C   UNL A   1      46.933  33.706  30.363  1.00  0.00     0.131 A 
ATOM     66  C   UNL A   1      46.734  35.768  28.530  1.00  0.00     0.055 A 
ATOM     67  C   UNL A   1      47.231  35.008  30.760  1.00  0.00     0.041 A 
ATOM     68  F   UNL A   1      47.058  32.728  31.275  1.00  0.00    -0.206 F 
ATOM     69  C   UNL A   1      47.140  36.046  29.839  1.00  0.00     0.022 A 
BRANCH  66  70
ATOM     70  S   UNL A   1      46.722  37.082  27.282  1.00  0.00     0.124 S 
ATOM     71  O   UNL A   1      45.323  37.089  26.865  1.00  0.00    -0.237 OA
ATOM     72  O   UNL A   1      47.166  38.244  28.045  1.00  0.00    -0.237 OA
ATOM     73  O   UNL A   1      47.667  36.606  26.275  1.00  0.00    -0.744 OA
ENDBRANCH  66  70
ENDBRANCH  40  63
ENDBRANCH  14  15
ENDBRANCH   7   9
ENDBRANCH   6   7
ENDBRANCH   5   6
ENDBRANCH   4   5
ENDBRANCH   3   4
ENDBRANCH   2   3
ENDBRANCH   1   2
BRANCH   1  74
ATOM     74  O   UNL A   1      37.770  20.973  24.708  1.00  0.00    -0.377 OA
BRANCH  74  75
ATOM     75  C   UNL A   1      36.812  21.681  25.489  1.00  0.00     0.188 C 
BRANCH  75  76
ATOM     76  C   UNL A   1      35.313  21.629  25.077  1.00  0.00     0.188 C 
BRANCH  76  77
ATOM     77  O   UNL A   1      34.591  20.567  25.672  1.00  0.00    -0.376 OA
BRANCH  77  78
ATOM     78  C   UNL A   1      33.296  20.909  26.149  1.00  0.00     0.202 C 
BRANCH  78  79
ATOM     79  C   UNL A   1      33.287  21.715  27.456  1.00  0.00     0.261 C 
BRANCH  79  80
ATOM     80  O   UNL A   1      33.178  23.159  27.343  1.00  0.00    -0.463 OA
BRANCH  80  81
ATOM     81  C   UNL A   1      31.966  23.718  27.062  1.00  0.00     0.313 C 
ATOM     82  O   UNL A   1      30.909  23.334  27.526  1.00  0.00    -0.252 OA
BRANCH  81  83
ATOM     83  C   UNL A   1      32.124  24.908  26.083  1.00  0.00     0.135 C 
BRANCH  83  84
ATOM     84  C   UNL A   1      32.570  24.357  24.728  1.00  0.00    -0.033 A 
ATOM     85  C   UNL A   1      33.704  24.828  24.049  1.00  0.00     0.007 A 
ATOM     86  C   UNL A   1      31.758  23.398  24.090  1.00  0.00     0.007 A 
ATOM     87  C   UNL A   1      33.979  24.414  22.749  1.00  0.00     0.039 A 
ATOM     88  C   UNL A   1      32.015  23.012  22.778  1.00  0.00     0.039 A 
ATOM     89  C   UNL A   1      33.119  23.530  22.117  1.00  0.00     0.123 A 
ATOM     90  F   UNL A   1      33.353  23.180  20.846  1.00  0.00    -0.207 F 
ENDBRANCH  83  84
BRANCH  83  91
ATOM     91  C   UNL A   1      30.796  25.715  26.044  1.00  0.00     0.076 C 
BRANCH  91  92
ATOM     92  C   UNL A   1      30.619  26.834  25.040  1.00  0.00     0.042 A 
ATOM     93  C   UNL A   1      29.856  26.728  23.881  1.00  0.00     0.024 A 
ATOM     94  N   UNL A   1      31.259  27.988  25.362  1.00  0.00    -0.261 NA
ATOM     95  C   UNL A   1      29.680  27.859  23.082  1.00  0.00     0.003 A 
ATOM     96  C   UNL A   1      31.085  29.063  24.566  1.00  0.00     0.111 A 
ATOM     97  C   UNL A   1      30.294  29.054  23.434  1.00  0.00     0.020 A 
ENDBRANCH  91  92
ENDBRANCH  83  91
ENDBRANCH  81  83
ENDBRANCH  80  81
ENDBRANCH  79  80
ENDBRANCH  78  79
ENDBRANCH  77  78
ENDBRANCH  76  77
ENDBRANCH  75  76
ENDBRANCH  74  75
ENDBRANCH   1  74
TORSDOF 26
ENDMDL
MODEL 2
REMARK VINA RESULT:      -9.0      2.566      3.805
REMARK SMILES O=C(OCCOCCOCCOCCOC(=O)[C@H](Cc1ccccn1)c1ccc(F)cc1)c1ccc(-c2c3nc(c(-c4cc(S(=O)(=O)[O-])ccc4F)c4ccc([nH]4)c(-c4cc(S(=O)(=O)[O-])ccc4F)c4nc(c(-c5cc(S(=O)(=O)[O-])ccc5F)c5ccc2[nH]5)C=C4)C=C3)cc1
REMARK SMILES IDX 8 1 7 2 6 3 5 4 4 5 3 6 2 7 1 8 33 9 34 10 95 11 35 12 94 13
REMARK SMILES IDX 36 14 37 15 38 16 88 17 39 18 93 19 87 20 89 21 40 22 92 23
REMARK SMILES IDX 86 24 85 25 41 27 73 28 53 29 72 30 54 31 57 32 71 33 90 34
REMARK SMILES IDX 55 35 56 36 70 38 91 39 58 40 42 41 43 42 51 43 44 44 50 45
REMARK SMILES IDX 52 46 49 47 45 48 46 49 47 50 48 51 74 52 75 53 83 54 76 55
REMARK SMILES IDX 82 56 84 57 81 58 77 59 78 60 79 61 80 62 59 63 60 64 68 65
REMARK SMILES IDX 61 66 67 67 69 68 66 69 62 70 63 71 64 72 65 73 9 74 10 75
REMARK SMILES IDX 11 76 12 77 13 78 14 79 15 80 16 81 17 82 18 83 26 84 27 85
REMARK SMILES IDX 32 86 28 87 31 88 29 89 30 90 19 91 20 92 21 93 25 94 22 95
REMARK SMILES IDX 24 96 23 97
REMARK H PARENT 89 26 57 37
REMARK Flexibility Score: inf
ROOT
ATOM      1  C   UNL A   1      36.895  22.833  25.450  1.00  0.00     0.188 C 
ENDROOT
BRANCH   1   2
ATOM      2  C   UNL A   1      38.002  23.640  26.126  1.00  0.00     0.188 C 
BRANCH   2   3
ATOM      3  O   UNL A   1      39.112  22.799  26.419  1.00  0.00    -0.376 OA
BRANCH   3   4
ATOM      4  C   UNL A   1      39.129  21.507  25.819  1.00  0.00     0.202 C 
BRANCH   4   5
ATOM      5  C   UNL A   1      39.860  20.462  26.653  1.00  0.00     0.261 C 
BRANCH   5   6
ATOM      6  O   UNL A   1      40.862  19.764  25.903  1.00  0.00    -0.460 OA
BRANCH   6   7
ATOM      7  C   UNL A   1      42.160  20.115  25.720  1.00  0.00     0.338 C 
ATOM      8  O   UNL A   1      42.895  19.292  25.171  1.00  0.00    -0.246 OA
BRANCH   7   9
ATOM      9  C   UNL A   1      42.775  21.420  26.131  1.00  0.00     0.060 A 
ATOM     10  C   UNL A   1      43.320  21.731  27.379  1.00  0.00     0.016 A 
ATOM     11  C   UNL A   1      42.891  22.385  25.114  1.00  0.00     0.016 A 
ATOM     12  C   UNL A   1      43.960  22.941  27.621  1.00  0.00     0.010 A 
ATOM     13  C   UNL A   1      43.525  23.607  25.345  1.00  0.00     0.010 A 
ATOM     14  C   UNL A   1      44.055  23.885  26.607  1.00  0.00    -0.014 A 
BRANCH  14  15
ATOM     15  C   UNL A   1      44.558  25.225  26.945  1.00  0.00     0.031 A 
ATOM     16  C   UNL A   1      43.599  26.179  27.582  1.00  0.00     0.074 A 
ATOM     17  C   UNL A   1      45.861  25.511  26.804  1.00  0.00     0.049 A 
ATOM     18  N   UNL A   1      43.743  27.445  27.852  1.00  0.00    -0.248 NA
ATOM     19  C   UNL A   1      42.298  25.617  27.980  1.00  0.00     0.031 C 
ATOM     20  C   UNL A   1      46.893  24.562  26.376  1.00  0.00     0.029 A 
ATOM     21  N   UNL A   1      46.548  26.671  27.034  1.00  0.00    -0.354 N 
ATOM     22  C   UNL A   1      42.545  27.839  28.434  1.00  0.00     0.074 A 
ATOM     23  C   UNL A   1      41.679  26.681  28.463  1.00  0.00     0.031 C 
ATOM     24  C   UNL A   1      48.087  25.177  26.396  1.00  0.00     0.029 A 
ATOM     25  C   UNL A   1      47.889  26.578  26.752  1.00  0.00     0.049 A 
ATOM     26  H   UNL A   1      46.123  27.493  27.370  1.00  0.00     0.167 HD
ATOM     27  C   UNL A   1      42.210  29.067  28.894  1.00  0.00     0.034 A 
ATOM     28  C   UNL A   1      48.833  27.538  26.743  1.00  0.00     0.034 A 
ATOM     29  C   UNL A   1      43.107  30.189  28.804  1.00  0.00     0.049 A 
ATOM     30  C   UNL A   1      48.399  28.938  27.084  1.00  0.00     0.074 A 
ATOM     31  C   UNL A   1      42.872  31.519  29.091  1.00  0.00     0.029 A 
ATOM     32  N   UNL A   1      44.433  30.097  28.387  1.00  0.00    -0.354 N 
ATOM     33  N   UNL A   1      47.211  29.361  27.459  1.00  0.00    -0.248 NA
ATOM     34  C   UNL A   1      49.413  29.990  26.982  1.00  0.00     0.031 C 
ATOM     35  C   UNL A   1      44.036  32.238  28.790  1.00  0.00     0.029 A 
ATOM     36  C   UNL A   1      45.026  31.347  28.398  1.00  0.00     0.049 A 
ATOM     37  H   UNL A   1      44.884  29.263  28.125  1.00  0.00     0.167 HD
ATOM     38  C   UNL A   1      47.340  30.729  27.668  1.00  0.00     0.074 A 
ATOM     39  C   UNL A   1      48.725  31.056  27.369  1.00  0.00     0.031 C 
ATOM     40  C   UNL A   1      46.410  31.628  28.083  1.00  0.00     0.034 A 
BRANCH  27  41
ATOM     41  C   UNL A   1      40.801  29.238  29.403  1.00  0.00     0.023 A 
ATOM     42  C   UNL A   1      40.500  29.197  30.777  1.00  0.00     0.031 A 
ATOM     43  C   UNL A   1      39.730  29.319  28.497  1.00  0.00     0.131 A 
ATOM     44  C   UNL A   1      39.161  29.153  31.199  1.00  0.00     0.055 A 
ATOM     45  C   UNL A   1      38.401  29.356  28.927  1.00  0.00     0.041 A 
ATOM     46  F   UNL A   1      39.952  29.323  27.174  1.00  0.00    -0.206 F 
ATOM     47  C   UNL A   1      38.110  29.255  30.284  1.00  0.00     0.022 A 
BRANCH  44  48
ATOM     48  S   UNL A   1      38.806  28.800  32.944  1.00  0.00     0.124 S 
ATOM     49  O   UNL A   1      39.055  30.100  33.563  1.00  0.00    -0.237 OA
ATOM     50  O   UNL A   1      37.414  28.368  32.905  1.00  0.00    -0.237 OA
ATOM     51  O   UNL A   1      39.772  27.759  33.288  1.00  0.00    -0.744 OA
ENDBRANCH  44  48
ENDBRANCH  27  41
BRANCH  28  52
ATOM     52  C   UNL A   1      50.229  27.205  26.353  1.00  0.00     0.023 A 
ATOM     53  C   UNL A   1      50.651  27.293  25.019  1.00  0.00     0.031 A 
ATOM     54  C   UNL A   1      51.184  26.845  27.324  1.00  0.00     0.131 A 
ATOM     55  C   UNL A   1      51.992  27.028  24.689  1.00  0.00     0.055 A 
ATOM     56  C   UNL A   1      52.521  26.613  26.998  1.00  0.00     0.041 A 
ATOM     57  F   UNL A   1      50.834  26.752  28.618  1.00  0.00    -0.206 F 
ATOM     58  C   UNL A   1      52.932  26.704  25.672  1.00  0.00     0.022 A 
BRANCH  55  59
ATOM     59  S   UNL A   1      52.502  27.118  22.951  1.00  0.00     0.124 S 
ATOM     60  O   UNL A   1      51.233  26.925  22.258  1.00  0.00    -0.237 OA
ATOM     61  O   UNL A   1      53.083  28.454  22.870  1.00  0.00    -0.237 OA
ATOM     62  O   UNL A   1      53.457  26.020  22.819  1.00  0.00    -0.744 OA
ENDBRANCH  55  59
ENDBRANCH  28  52
BRANCH  40  63
ATOM     63  C   UNL A   1      46.882  33.040  28.295  1.00  0.00     0.023 A 
ATOM     64  C   UNL A   1      47.381  33.477  29.532  1.00  0.00     0.031 A 
ATOM     65  C   UNL A   1      46.864  33.946  27.219  1.00  0.00     0.131 A 
ATOM     66  C   UNL A   1      47.808  34.805  29.674  1.00  0.00     0.055 A 
ATOM     67  C   UNL A   1      47.346  35.247  27.352  1.00  0.00     0.041 A 
ATOM     68  F   UNL A   1      46.398  33.571  26.017  1.00  0.00    -0.206 F 
ATOM     69  C   UNL A   1      47.813  35.685  28.588  1.00  0.00     0.022 A 
BRANCH  66  70
ATOM     70  S   UNL A   1      48.300  35.386  31.318  1.00  0.00     0.124 S 
ATOM     71  O   UNL A   1      49.684  35.792  31.093  1.00  0.00    -0.237 OA
ATOM     72  O   UNL A   1      47.350  36.466  31.568  1.00  0.00    -0.237 OA
ATOM     73  O   UNL A   1      48.129  34.206  32.164  1.00  0.00    -0.744 OA
ENDBRANCH  66  70
ENDBRANCH  40  63
ENDBRANCH  14  15
ENDBRANCH   7   9
ENDBRANCH   6   7
ENDBRANCH   5   6
ENDBRANCH   4   5
ENDBRANCH   3   4
ENDBRANCH   2   3
ENDBRANCH   1   2
BRANCH   1  74
ATOM     74  O   UNL A   1      35.682  23.548  25.242  1.00  0.00    -0.377 OA
BRANCH  74  75
ATOM     75  C   UNL A   1      35.287  23.751  23.890  1.00  0.00     0.188 C 
BRANCH  75  76
ATOM     76  C   UNL A   1      34.411  24.986  23.533  1.00  0.00     0.188 C 
BRANCH  76  77
ATOM     77  O   UNL A   1      33.783  24.898  22.269  1.00  0.00    -0.376 OA
BRANCH  77  78
ATOM     78  C   UNL A   1      33.137  26.086  21.830  1.00  0.00     0.202 C 
BRANCH  78  79
ATOM     79  C   UNL A   1      33.370  27.311  22.728  1.00  0.00     0.261 C 
BRANCH  79  80
ATOM     80  O   UNL A   1      32.282  28.266  22.840  1.00  0.00    -0.463 OA
BRANCH  80  81
ATOM     81  C   UNL A   1      31.336  28.092  23.808  1.00  0.00     0.313 C 
ATOM     82  O   UNL A   1      30.171  28.424  23.695  1.00  0.00    -0.252 OA
BRANCH  81  83
ATOM     83  C   UNL A   1      31.947  27.411  25.058  1.00  0.00     0.135 C 
BRANCH  83  84
ATOM     84  C   UNL A   1      32.509  28.503  25.970  1.00  0.00    -0.033 A 
ATOM     85  C   UNL A   1      31.871  29.738  26.163  1.00  0.00     0.007 A 
ATOM     86  C   UNL A   1      33.765  28.297  26.572  1.00  0.00     0.007 A 
ATOM     87  C   UNL A   1      32.498  30.760  26.870  1.00  0.00     0.039 A 
ATOM     88  C   UNL A   1      34.406  29.332  27.249  1.00  0.00     0.039 A 
ATOM     89  C   UNL A   1      33.769  30.556  27.383  1.00  0.00     0.123 A 
ATOM     90  F   UNL A   1      34.393  31.560  28.011  1.00  0.00    -0.207 F 
ENDBRANCH  83  84
BRANCH  83  91
ATOM     91  C   UNL A   1      30.872  26.508  25.723  1.00  0.00     0.076 C 
BRANCH  91  92
ATOM     92  C   UNL A   1      31.037  25.003  25.716  1.00  0.00     0.042 A 
ATOM     93  C   UNL A   1      31.068  24.218  26.864  1.00  0.00     0.024 A 
ATOM     94  N   UNL A   1      31.138  24.453  24.479  1.00  0.00    -0.261 NA
ATOM     95  C   UNL A   1      31.120  22.829  26.731  1.00  0.00     0.003 A 
ATOM     96  C   UNL A   1      31.202  23.108  24.377  1.00  0.00     0.111 A 
ATOM     97  C   UNL A   1      31.175  22.259  25.466  1.00  0.00     0.020 A 
ENDBRANCH  91  92
ENDBRANCH  83  91
ENDBRANCH  81  83
ENDBRANCH  80  81
ENDBRANCH  79  80
ENDBRANCH  78  79
ENDBRANCH  77  78
ENDBRANCH  76  77
ENDBRANCH  75  76
ENDBRANCH  74  75
ENDBRANCH   1  74
TORSDOF 26
ENDMDL
MODEL 3
REMARK VINA RESULT:      -8.9      2.454      3.680
REMARK SMILES O=C(OCCOCCOCCOCCOC(=O)[C@H](Cc1ccccn1)c1ccc(F)cc1)c1ccc(-c2c3nc(c(-c4cc(S(=O)(=O)[O-])ccc4F)c4ccc([nH]4)c(-c4cc(S(=O)(=O)[O-])ccc4F)c4nc(c(-c5cc(S(=O)(=O)[O-])ccc5F)c5ccc2[nH]5)C=C4)C=C3)cc1
REMARK SMILES IDX 8 1 7 2 6 3 5 4 4 5 3 6 2 7 1 8 33 9 34 10 95 11 35 12 94 13
REMARK SMILES IDX 36 14 37 15 38 16 88 17 39 18 93 19 87 20 89 21 40 22 92 23
REMARK SMILES IDX 86 24 85 25 41 27 73 28 53 29 72 30 54 31 57 32 71 33 90 34
REMARK SMILES IDX 55 35 56 36 70 38 91 39 58 40 42 41 43 42 51 43 44 44 50 45
REMARK SMILES IDX 52 46 49 47 45 48 46 49 47 50 48 51 74 52 75 53 83 54 76 55
REMARK SMILES IDX 82 56 84 57 81 58 77 59 78 60 79 61 80 62 59 63 60 64 68 65
REMARK SMILES IDX 61 66 67 67 69 68 66 69 62 70 63 71 64 72 65 73 9 74 10 75
REMARK SMILES IDX 11 76 12 77 13 78 14 79 15 80 16 81 17 82 18 83 26 84 27 85
REMARK SMILES IDX 32 86 28 87 31 88 29 89 30 90 19 91 20 92 21 93 25 94 22 95
REMARK SMILES IDX 24 96 23 97
REMARK H PARENT 89 26 57 37
REMARK Flexibility Score: inf
ROOT
ATOM      1  C   UNL A   1      37.177  22.872  25.527  1.00  0.00     0.188 C 
ENDROOT
BRANCH   1   2
ATOM      2  C   UNL A   1      38.300  23.518  26.335  1.00  0.00     0.188 C 
BRANCH   2   3
ATOM      3  O   UNL A   1      39.450  22.679  26.333  1.00  0.00    -0.376 OA
BRANCH   3   4
ATOM      4  C   UNL A   1      39.294  21.359  25.823  1.00  0.00     0.202 C 
BRANCH   4   5
ATOM      5  C   UNL A   1      40.104  20.315  26.583  1.00  0.00     0.261 C 
BRANCH   5   6
ATOM      6  O   UNL A   1      41.168  19.766  25.797  1.00  0.00    -0.460 OA
BRANCH   6   7
ATOM      7  C   UNL A   1      42.421  20.256  25.633  1.00  0.00     0.338 C 
ATOM      8  O   UNL A   1      43.229  19.551  25.023  1.00  0.00    -0.246 OA
BRANCH   7   9
ATOM      9  C   UNL A   1      42.908  21.584  26.131  1.00  0.00     0.060 A 
ATOM     10  C   UNL A   1      43.347  21.882  27.425  1.00  0.00     0.016 A 
ATOM     11  C   UNL A   1      43.017  22.597  25.161  1.00  0.00     0.016 A 
ATOM     12  C   UNL A   1      43.876  23.124  27.754  1.00  0.00     0.010 A 
ATOM     13  C   UNL A   1      43.541  23.851  25.479  1.00  0.00     0.010 A 
ATOM     14  C   UNL A   1      43.966  24.114  26.784  1.00  0.00    -0.014 A 
BRANCH  14  15
ATOM     15  C   UNL A   1      44.343  25.471  27.204  1.00  0.00     0.031 A 
ATOM     16  C   UNL A   1      43.291  26.305  27.863  1.00  0.00     0.074 A 
ATOM     17  C   UNL A   1      45.620  25.875  27.113  1.00  0.00     0.049 A 
ATOM     18  N   UNL A   1      43.320  27.562  28.201  1.00  0.00    -0.248 NA
ATOM     19  C   UNL A   1      42.035  25.614  28.196  1.00  0.00     0.031 C 
ATOM     20  C   UNL A   1      46.739  25.041  26.665  1.00  0.00     0.029 A 
ATOM     21  N   UNL A   1      46.198  27.074  27.421  1.00  0.00    -0.354 N 
ATOM     22  C   UNL A   1      42.078  27.821  28.771  1.00  0.00     0.074 A 
ATOM     23  C   UNL A   1      41.316  26.594  28.716  1.00  0.00     0.031 C 
ATOM     24  C   UNL A   1      47.874  25.754  26.749  1.00  0.00     0.029 A 
ATOM     25  C   UNL A   1      47.549  27.111  27.172  1.00  0.00     0.049 A 
ATOM     26  H   UNL A   1      45.696  27.838  27.788  1.00  0.00     0.167 HD
ATOM     27  C   UNL A   1      41.628  28.989  29.283  1.00  0.00     0.034 A 
ATOM     28  C   UNL A   1      48.406  28.147  27.238  1.00  0.00     0.034 A 
ATOM     29  C   UNL A   1      42.427  30.187  29.277  1.00  0.00     0.049 A 
ATOM     30  C   UNL A   1      47.845  29.485  27.639  1.00  0.00     0.074 A 
ATOM     31  C   UNL A   1      42.071  31.475  29.625  1.00  0.00     0.029 A 
ATOM     32  N   UNL A   1      43.766  30.231  28.892  1.00  0.00    -0.354 N 
ATOM     33  N   UNL A   1      46.617  29.785  28.002  1.00  0.00    -0.248 NA
ATOM     34  C   UNL A   1      48.766  30.623  27.619  1.00  0.00     0.031 C 
ATOM     35  C   UNL A   1      43.175  32.305  29.394  1.00  0.00     0.029 A 
ATOM     36  C   UNL A   1      44.248  31.524  28.983  1.00  0.00     0.049 A 
ATOM     37  H   UNL A   1      44.292  29.454  28.599  1.00  0.00     0.167 HD
ATOM     38  C   UNL A   1      46.623  31.145  28.286  1.00  0.00     0.074 A 
ATOM     39  C   UNL A   1      47.980  31.604  28.042  1.00  0.00     0.031 C 
ATOM     40  C   UNL A   1      45.609  31.939  28.721  1.00  0.00     0.034 A 
BRANCH  27  41
ATOM     41  C   UNL A   1      40.199  29.013  29.762  1.00  0.00     0.023 A 
ATOM     42  C   UNL A   1      39.172  29.603  29.002  1.00  0.00     0.031 A 
ATOM     43  C   UNL A   1      39.880  28.549  31.050  1.00  0.00     0.131 A 
ATOM     44  C   UNL A   1      37.901  29.789  29.568  1.00  0.00     0.055 A 
ATOM     45  C   UNL A   1      38.592  28.665  31.577  1.00  0.00     0.041 A 
ATOM     46  F   UNL A   1      40.825  28.012  31.837  1.00  0.00    -0.206 F 
ATOM     47  C   UNL A   1      37.598  29.303  30.842  1.00  0.00     0.022 A 
BRANCH  44  48
ATOM     48  S   UNL A   1      36.692  30.814  28.683  1.00  0.00     0.124 S 
ATOM     49  O   UNL A   1      35.527  30.720  29.560  1.00  0.00    -0.237 OA
ATOM     50  O   UNL A   1      37.351  32.115  28.635  1.00  0.00    -0.237 OA
ATOM     51  O   UNL A   1      36.548  30.142  27.394  1.00  0.00    -0.744 OA
ENDBRANCH  44  48
ENDBRANCH  27  41
BRANCH  28  52
ATOM     52  C   UNL A   1      49.834  27.955  26.870  1.00  0.00     0.023 A 
ATOM     53  C   UNL A   1      50.284  28.189  25.562  1.00  0.00     0.031 A 
ATOM     54  C   UNL A   1      50.787  27.588  27.839  1.00  0.00     0.131 A 
ATOM     55  C   UNL A   1      51.650  28.055  25.258  1.00  0.00     0.055 A 
ATOM     56  C   UNL A   1      52.147  27.487  27.541  1.00  0.00     0.041 A 
ATOM     57  F   UNL A   1      50.411  27.359  29.108  1.00  0.00    -0.206 F 
ATOM     58  C   UNL A   1      52.585  27.721  26.242  1.00  0.00     0.022 A 
BRANCH  55  59
ATOM     59  S   UNL A   1      52.199  28.331  23.551  1.00  0.00     0.124 S 
ATOM     60  O   UNL A   1      53.386  29.156  23.749  1.00  0.00    -0.237 OA
ATOM     61  O   UNL A   1      52.432  26.970  23.080  1.00  0.00    -0.237 OA
ATOM     62  O   UNL A   1      51.062  29.012  22.934  1.00  0.00    -0.744 OA
ENDBRANCH  55  59
ENDBRANCH  28  52
BRANCH  40  63
ATOM     63  C   UNL A   1      45.952  33.372  29.018  1.00  0.00     0.023 A 
ATOM     64  C   UNL A   1      45.881  34.371  28.034  1.00  0.00     0.031 A 
ATOM     65  C   UNL A   1      46.316  33.742  30.324  1.00  0.00     0.131 A 
ATOM     66  C   UNL A   1      46.211  35.692  28.365  1.00  0.00     0.055 A 
ATOM     67  C   UNL A   1      46.585  35.068  30.660  1.00  0.00     0.041 A 
ATOM     68  F   UNL A   1      46.395  32.821  31.298  1.00  0.00    -0.206 F 
ATOM     69  C   UNL A   1      46.542  36.049  29.675  1.00  0.00     0.022 A 
BRANCH  66  70
ATOM     70  S   UNL A   1      46.263  36.930  27.043  1.00  0.00     0.124 S 
ATOM     71  O   UNL A   1      47.341  37.806  27.493  1.00  0.00    -0.237 OA
ATOM     72  O   UNL A   1      46.550  36.121  25.864  1.00  0.00    -0.237 OA
ATOM     73  O   UNL A   1      44.927  37.523  27.077  1.00  0.00    -0.744 OA
ENDBRANCH  66  70
ENDBRANCH  40  63
ENDBRANCH  14  15
ENDBRANCH   7   9
ENDBRANCH   6   7
ENDBRANCH   5   6
ENDBRANCH   4   5
ENDBRANCH   3   4
ENDBRANCH   2   3
ENDBRANCH   1   2
BRANCH   1  74
ATOM     74  O   UNL A   1      36.096  23.744  25.211  1.00  0.00    -0.377 OA
BRANCH  74  75
ATOM     75  C   UNL A   1      35.333  23.418  24.054  1.00  0.00     0.188 C 
BRANCH  75  76
ATOM     76  C   UNL A   1      34.434  24.510  23.408  1.00  0.00     0.188 C 
BRANCH  76  77
ATOM     77  O   UNL A   1      33.451  23.997  22.529  1.00  0.00    -0.376 OA
BRANCH  77  78
ATOM     78  C   UNL A   1      32.736  24.975  21.784  1.00  0.00     0.202 C 
BRANCH  78  79
ATOM     79  C   UNL A   1      32.818  26.399  22.353  1.00  0.00     0.261 C 
BRANCH  79  80
ATOM     80  O   UNL A   1      31.586  27.167  22.396  1.00  0.00    -0.463 OA
BRANCH  80  81
ATOM     81  C   UNL A   1      30.772  27.065  23.486  1.00  0.00     0.313 C 
ATOM     82  O   UNL A   1      29.573  27.269  23.468  1.00  0.00    -0.252 OA
BRANCH  81  83
ATOM     83  C   UNL A   1      31.581  26.647  24.740  1.00  0.00     0.135 C 
BRANCH  83  84
ATOM     84  C   UNL A   1      31.873  27.904  25.560  1.00  0.00    -0.033 A 
ATOM     85  C   UNL A   1      31.456  29.186  25.166  1.00  0.00     0.007 A 
ATOM     86  C   UNL A   1      32.671  27.786  26.715  1.00  0.00     0.007 A 
ATOM     87  C   UNL A   1      31.883  30.316  25.857  1.00  0.00     0.039 A 
ATOM     88  C   UNL A   1      33.125  28.919  27.383  1.00  0.00     0.039 A 
ATOM     89  C   UNL A   1      32.733  30.174  26.942  1.00  0.00     0.123 A 
ATOM     90  F   UNL A   1      33.190  31.267  27.567  1.00  0.00    -0.207 F 
ENDBRANCH  83  84
BRANCH  83  91
ATOM     91  C   UNL A   1      30.799  25.545  25.507  1.00  0.00     0.076 C 
BRANCH  91  92
ATOM     92  C   UNL A   1      31.418  24.178  25.707  1.00  0.00     0.042 A 
ATOM     93  C   UNL A   1      31.127  23.069  24.920  1.00  0.00     0.024 A 
ATOM     94  N   UNL A   1      32.313  24.109  26.726  1.00  0.00    -0.261 NA
ATOM     95  C   UNL A   1      31.837  21.885  25.133  1.00  0.00     0.003 A 
ATOM     96  C   UNL A   1      32.976  22.949  26.921  1.00  0.00     0.111 A 
ATOM     97  C   UNL A   1      32.788  21.824  26.143  1.00  0.00     0.020 A 
ENDBRANCH  91  92
ENDBRANCH  83  91
ENDBRANCH  81  83
ENDBRANCH  80  81
ENDBRANCH  79  80
ENDBRANCH  78  79
ENDBRANCH  77  78
ENDBRANCH  76  77
ENDBRANCH  75  76
ENDBRANCH  74  75
ENDBRANCH   1  74
TORSDOF 26
ENDMDL
