MODEL 1
REMARK VINA RESULT:     -10.7      0.000      0.000
REMARK SMILES O=C(OCCOCCOCCOCCOC(=O)c1cccnc1C[N@@H+]1CCC[C@H]1c1ccccn1)c1ccc(-c2c3nc(c(-c4cc(S(=O)(=O)[O-])ccc4F)c4ccc([nH]4)c(-c4cc(S(=O)(=O)[O-])ccc4F)c4nc(c(-c5cc(S(=O)(=O)[O-])ccc5F)c5ccc2[nH]5)C=C4)C=C3)cc1
REMARK SMILES IDX 9 1 8 2 7 3 6 4 5 5 4 6 3 7 2 8 1 9 36 10 37 11 98 12 38 13
REMARK SMILES IDX 97 14 39 15 40 16 41 17 91 18 42 19 96 20 90 21 92 22 43 23
REMARK SMILES IDX 95 24 89 25 88 26 44 28 76 29 56 30 75 31 57 32 60 33 74 34
REMARK SMILES IDX 93 35 58 36 59 37 73 39 94 40 61 41 45 42 46 43 54 44 47 45
REMARK SMILES IDX 53 46 55 47 52 48 48 49 49 50 50 51 51 52 77 53 78 54 86 55
REMARK SMILES IDX 79 56 85 57 87 58 84 59 80 60 81 61 82 62 83 63 62 64 63 65
REMARK SMILES IDX 71 66 64 67 70 68 72 69 69 70 65 71 66 72 67 73 68 74 10 75
REMARK SMILES IDX 11 76 12 77 13 78 14 79 15 80 16 81 17 82 18 83 19 84 23 85
REMARK SMILES IDX 20 86 22 87 21 88 24 89 25 90 26 91 29 92 27 94 28 95 30 96
REMARK SMILES IDX 31 97 35 98 32 99 34 100 33 101
REMARK H PARENT 92 27 60 38 25 93
REMARK Flexibility Score: inf
ROOT
ATOM      1  O   UNL A   1      35.931  33.700  28.179  1.00  0.00    -0.377 OA
ENDROOT
BRANCH   1   2
ATOM      2  C   UNL A   1      34.605  33.322  28.361  1.00  0.00     0.188 C 
BRANCH   2   3
ATOM      3  C   UNL A   1      33.676  34.552  28.508  1.00  0.00     0.188 C 
BRANCH   3   4
ATOM      4  O   UNL A   1      33.648  35.674  29.488  1.00  0.00    -0.376 OA
BRANCH   4   5
ATOM      5  C   UNL A   1      32.658  36.125  30.555  1.00  0.00     0.202 C 
BRANCH   5   6
ATOM      6  C   UNL A   1      32.444  35.643  32.368  1.00  0.00     0.261 C 
BRANCH   6   7
ATOM      7  O   UNL A   1      33.367  33.946  33.033  1.00  0.00    -0.460 OA
BRANCH   7   8
ATOM      8  C   UNL A   1      34.680  33.022  32.721  1.00  0.00     0.338 C 
ATOM      9  O   UNL A   1      34.559  32.151  31.855  1.00  0.00    -0.246 OA
BRANCH   8  10
ATOM     10  C   UNL A   1      36.248  33.227  33.396  1.00  0.00     0.060 A 
ATOM     11  C   UNL A   1      37.027  34.359  33.229  1.00  0.00     0.016 A 
ATOM     12  C   UNL A   1      37.049  32.259  33.985  1.00  0.00     0.016 A 
ATOM     13  C   UNL A   1      38.347  34.345  32.748  1.00  0.00     0.010 A 
ATOM     14  C   UNL A   1      38.508  32.372  33.945  1.00  0.00     0.010 A 
ATOM     15  C   UNL A   1      39.176  33.337  33.140  1.00  0.00    -0.014 A 
BRANCH  15  16
ATOM     16  C   UNL A   1      40.606  33.286  32.612  1.00  0.00     0.031 A 
ATOM     17  C   UNL A   1      41.552  34.389  33.041  1.00  0.00     0.074 A 
ATOM     18  C   UNL A   1      41.165  32.249  31.920  1.00  0.00     0.049 A 
ATOM     19  N   UNL A   1      42.721  34.739  32.569  1.00  0.00    -0.248 NA
ATOM     20  C   UNL A   1      41.105  35.207  34.178  1.00  0.00     0.031 C 
ATOM     21  C   UNL A   1      40.530  30.963  31.605  1.00  0.00     0.029 A 
ATOM     22  N   UNL A   1      42.431  32.093  31.365  1.00  0.00    -0.354 N 
ATOM     23  C   UNL A   1      43.093  35.877  33.280  1.00  0.00     0.074 A 
ATOM     24  C   UNL A   1      42.031  36.147  34.223  1.00  0.00     0.031 C 
ATOM     25  C   UNL A   1      41.399  30.158  30.972  1.00  0.00     0.029 A 
ATOM     26  C   UNL A   1      42.614  30.900  30.684  1.00  0.00     0.049 A 
ATOM     27  H   UNL A   1      43.137  32.774  31.450  1.00  0.00     0.167 HD
ATOM     28  C   UNL A   1      44.207  36.638  33.143  1.00  0.00     0.034 A 
ATOM     29  C   UNL A   1      43.599  30.468  29.860  1.00  0.00     0.034 A 
ATOM     30  C   UNL A   1      45.278  36.323  32.232  1.00  0.00     0.049 A 
ATOM     31  C   UNL A   1      44.751  31.405  29.581  1.00  0.00     0.074 A 
ATOM     32  C   UNL A   1      46.421  37.052  31.956  1.00  0.00     0.029 A 
ATOM     33  N   UNL A   1      45.343  35.175  31.452  1.00  0.00    -0.354 N 
ATOM     34  N   UNL A   1      45.005  32.579  30.112  1.00  0.00    -0.248 NA
ATOM     35  C   UNL A   1      45.738  30.973  28.581  1.00  0.00     0.031 C 
ATOM     36  C   UNL A   1      47.123  36.397  30.941  1.00  0.00     0.029 A 
ATOM     37  C   UNL A   1      46.485  35.197  30.667  1.00  0.00     0.049 A 
ATOM     38  H   UNL A   1      44.676  34.451  31.456  1.00  0.00     0.167 HD
ATOM     39  C   UNL A   1      46.206  33.000  29.546  1.00  0.00     0.074 A 
ATOM     40  C   UNL A   1      46.626  31.954  28.638  1.00  0.00     0.031 C 
ATOM     41  C   UNL A   1      46.901  34.145  29.769  1.00  0.00     0.034 A 
BRANCH  28  42
ATOM     42  C   UNL A   1      44.234  37.953  33.891  1.00  0.00     0.023 A 
ATOM     43  C   UNL A   1      43.522  39.087  33.466  1.00  0.00     0.031 A 
ATOM     44  C   UNL A   1      45.086  38.092  35.003  1.00  0.00     0.131 A 
ATOM     45  C   UNL A   1      43.759  40.328  34.079  1.00  0.00     0.055 A 
ATOM     46  C   UNL A   1      45.234  39.306  35.675  1.00  0.00     0.041 A 
ATOM     47  F   UNL A   1      45.821  37.055  35.435  1.00  0.00    -0.206 F 
ATOM     48  C   UNL A   1      44.586  40.439  35.200  1.00  0.00     0.022 A 
BRANCH  45  49
ATOM     49  S   UNL A   1      43.141  41.827  33.261  1.00  0.00     0.124 S 
ATOM     50  O   UNL A   1      43.785  41.733  31.952  1.00  0.00    -0.237 OA
ATOM     51  O   UNL A   1      41.697  41.624  33.276  1.00  0.00    -0.237 OA
ATOM     52  O   UNL A   1      43.630  42.909  34.112  1.00  0.00    -0.744 OA
ENDBRANCH  45  49
ENDBRANCH  28  42
BRANCH  29  53
ATOM     53  C   UNL A   1      43.512  29.150  29.133  1.00  0.00     0.023 A 
ATOM     54  C   UNL A   1      42.915  29.042  27.861  1.00  0.00     0.031 A 
ATOM     55  C   UNL A   1      43.926  27.953  29.749  1.00  0.00     0.131 A 
ATOM     56  C   UNL A   1      42.713  27.777  27.277  1.00  0.00     0.055 A 
ATOM     57  C   UNL A   1      43.788  26.706  29.133  1.00  0.00     0.041 A 
ATOM     58  F   UNL A   1      44.469  27.973  30.977  1.00  0.00    -0.206 F 
ATOM     59  C   UNL A   1      43.166  26.610  27.894  1.00  0.00     0.022 A 
BRANCH  56  60
ATOM     60  S   UNL A   1      41.738  27.658  25.746  1.00  0.00     0.124 S 
ATOM     61  O   UNL A   1      40.404  27.385  26.267  1.00  0.00    -0.237 OA
ATOM     62  O   UNL A   1      41.940  28.975  25.153  1.00  0.00    -0.237 OA
ATOM     63  O   UNL A   1      42.366  26.551  25.026  1.00  0.00    -0.744 OA
ENDBRANCH  56  60
ENDBRANCH  29  53
BRANCH  41  64
ATOM     64  C   UNL A   1      48.240  34.285  29.087  1.00  0.00     0.023 A 
ATOM     65  C   UNL A   1      48.365  34.673  27.742  1.00  0.00     0.031 A 
ATOM     66  C   UNL A   1      49.419  34.007  29.805  1.00  0.00     0.131 A 
ATOM     67  C   UNL A   1      49.632  34.701  27.139  1.00  0.00     0.055 A 
ATOM     68  C   UNL A   1      50.681  34.119  29.224  1.00  0.00     0.041 A 
ATOM     69  F   UNL A   1      49.361  33.623  31.090  1.00  0.00    -0.206 F 
ATOM     70  C   UNL A   1      50.792  34.452  27.878  1.00  0.00     0.022 A 
BRANCH  67  71
ATOM     71  S   UNL A   1      49.734  34.935  25.344  1.00  0.00     0.124 S 
ATOM     72  O   UNL A   1      50.224  36.306  25.246  1.00  0.00    -0.237 OA
ATOM     73  O   UNL A   1      50.675  33.892  24.945  1.00  0.00    -0.237 OA
ATOM     74  O   UNL A   1      48.359  34.733  24.894  1.00  0.00    -0.744 OA
ENDBRANCH  67  71
ENDBRANCH  41  64
ENDBRANCH  15  16
ENDBRANCH   8  10
ENDBRANCH   7   8
ENDBRANCH   6   7
ENDBRANCH   5   6
ENDBRANCH   4   5
ENDBRANCH   3   4
ENDBRANCH   2   3
ENDBRANCH   1   2
BRANCH   1  75
ATOM     75  C   UNL A   1      36.678  33.062  29.177  1.00  0.00     0.188 C 
BRANCH  75  76
ATOM     76  C   UNL A   1      36.898  31.550  29.145  1.00  0.00     0.188 C 
BRANCH  76  77
ATOM     77  O   UNL A   1      36.588  30.852  27.958  1.00  0.00    -0.376 OA
BRANCH  77  78
ATOM     78  C   UNL A   1      36.074  29.537  28.077  1.00  0.00     0.202 C 
BRANCH  78  79
ATOM     79  C   UNL A   1      34.599  29.294  27.662  1.00  0.00     0.261 C 
BRANCH  79  80
ATOM     80  O   UNL A   1      34.295  28.282  26.644  1.00  0.00    -0.460 OA
BRANCH  80  81
ATOM     81  C   UNL A   1      33.023  27.793  26.501  1.00  0.00     0.340 C 
ATOM     82  O   UNL A   1      32.015  28.272  26.989  1.00  0.00    -0.246 OA
BRANCH  81  83
ATOM     83  C   UNL A   1      32.998  26.518  25.678  1.00  0.00     0.087 A 
ATOM     84  C   UNL A   1      34.268  25.929  25.667  1.00  0.00     0.019 A 
ATOM     85  C   UNL A   1      31.896  25.775  25.126  1.00  0.00     0.109 A 
ATOM     86  C   UNL A   1      34.417  24.605  25.293  1.00  0.00     0.021 A 
ATOM     87  N   UNL A   1      32.063  24.450  24.845  1.00  0.00    -0.254 NA
ATOM     88  C   UNL A   1      33.284  23.896  24.963  1.00  0.00     0.111 A 
BRANCH  85  89
ATOM     89  C   UNL A   1      30.446  26.216  24.805  1.00  0.00     0.321 C 
BRANCH  89  90
ATOM     90  N   UNL A   1      30.074  27.254  23.709  1.00  0.00    -0.322 N 
ATOM     91  C   UNL A   1      30.769  26.910  22.461  1.00  0.00     0.263 C 
ATOM     92  C   UNL A   1      30.198  28.780  23.876  1.00  0.00     0.234 C 
ATOM     93  H   UNL A   1      29.062  27.140  23.753  1.00  0.00     0.349 HD
ATOM     94  C   UNL A   1      31.967  27.820  22.415  1.00  0.00     0.068 C 
ATOM     95  C   UNL A   1      31.558  29.069  23.193  1.00  0.00     0.078 C 
BRANCH  92  96
ATOM     96  C   UNL A   1      28.917  29.825  23.273  1.00  0.00     0.098 A 
ATOM     97  C   UNL A   1      29.022  31.449  23.879  1.00  0.00     0.030 A 
ATOM     98  N   UNL A   1      28.291  29.634  21.613  1.00  0.00    -0.255 NA
ATOM     99  C   UNL A   1      28.655  32.821  22.866  1.00  0.00     0.004 A 
ATOM    100  C   UNL A   1      28.012  31.093  20.525  1.00  0.00     0.111 A 
ATOM    101  C   UNL A   1      28.138  32.689  21.208  1.00  0.00     0.020 A 
ENDBRANCH  92  96
ENDBRANCH  89  90
ENDBRANCH  85  89
ENDBRANCH  81  83
ENDBRANCH  80  81
ENDBRANCH  79  80
ENDBRANCH  78  79
ENDBRANCH  77  78
ENDBRANCH  76  77
ENDBRANCH  75  76
ENDBRANCH   1  75
TORSDOF 26
ENDMDL
MODEL 2
REMARK VINA RESULT:     -10.4      3.251      5.190
REMARK SMILES O=C(OCCOCCOCCOCCOC(=O)c1cccnc1C[N@@H+]1CCC[C@H]1c1ccccn1)c1ccc(-c2c3nc(c(-c4cc(S(=O)(=O)[O-])ccc4F)c4ccc([nH]4)c(-c4cc(S(=O)(=O)[O-])ccc4F)c4nc(c(-c5cc(S(=O)(=O)[O-])ccc5F)c5ccc2[nH]5)C=C4)C=C3)cc1
REMARK SMILES IDX 9 1 8 2 7 3 6 4 5 5 4 6 3 7 2 8 1 9 36 10 37 11 98 12 38 13
REMARK SMILES IDX 97 14 39 15 40 16 41 17 91 18 42 19 96 20 90 21 92 22 43 23
REMARK SMILES IDX 95 24 89 25 88 26 44 28 76 29 56 30 75 31 57 32 60 33 74 34
REMARK SMILES IDX 93 35 58 36 59 37 73 39 94 40 61 41 45 42 46 43 54 44 47 45
REMARK SMILES IDX 53 46 55 47 52 48 48 49 49 50 50 51 51 52 77 53 78 54 86 55
REMARK SMILES IDX 79 56 85 57 87 58 84 59 80 60 81 61 82 62 83 63 62 64 63 65
REMARK SMILES IDX 71 66 64 67 70 68 72 69 69 70 65 71 66 72 67 73 68 74 10 75
REMARK SMILES IDX 11 76 12 77 13 78 14 79 15 80 16 81 17 82 18 83 19 84 23 85
REMARK SMILES IDX 20 86 22 87 21 88 24 89 25 90 26 91 29 92 27 94 28 95 30 96
REMARK SMILES IDX 31 97 35 98 32 99 34 100 33 101
REMARK H PARENT 92 27 60 38 25 93
REMARK Flexibility Score: inf
ROOT
ATOM      1  O   UNL A   1      36.206  33.827  28.145  1.00  0.00    -0.377 OA
ENDROOT
BRANCH   1   2
ATOM      2  C   UNL A   1      34.823  33.684  28.111  1.00  0.00     0.188 C 
BRANCH   2   3
ATOM      3  C   UNL A   1      34.104  35.030  28.372  1.00  0.00     0.188 C 
BRANCH   3   4
ATOM      4  O   UNL A   1      33.928  35.848  29.606  1.00  0.00    -0.376 OA
BRANCH   4   5
ATOM      5  C   UNL A   1      32.725  36.238  30.457  1.00  0.00     0.202 C 
BRANCH   5   6
ATOM      6  C   UNL A   1      32.198  35.750  32.203  1.00  0.00     0.261 C 
BRANCH   6   7
ATOM      7  O   UNL A   1      33.004  34.058  33.019  1.00  0.00    -0.460 OA
BRANCH   7   8
ATOM      8  C   UNL A   1      34.238  33.011  32.783  1.00  0.00     0.338 C 
ATOM      9  O   UNL A   1      34.133  32.225  31.838  1.00  0.00    -0.246 OA
BRANCH   8  10
ATOM     10  C   UNL A   1      35.723  32.983  33.651  1.00  0.00     0.060 A 
ATOM     11  C   UNL A   1      36.175  34.014  34.457  1.00  0.00     0.016 A 
ATOM     12  C   UNL A   1      36.768  32.081  33.509  1.00  0.00     0.016 A 
ATOM     13  C   UNL A   1      37.436  34.621  34.328  1.00  0.00     0.010 A 
ATOM     14  C   UNL A   1      38.145  32.484  33.799  1.00  0.00     0.010 A 
ATOM     15  C   UNL A   1      38.511  33.840  34.026  1.00  0.00    -0.014 A 
BRANCH  15  16
ATOM     16  C   UNL A   1      39.886  34.480  33.858  1.00  0.00     0.031 A 
ATOM     17  C   UNL A   1      40.595  34.959  35.108  1.00  0.00     0.074 A 
ATOM     18  C   UNL A   1      40.614  34.513  32.702  1.00  0.00     0.049 A 
ATOM     19  N   UNL A   1      41.632  35.744  35.249  1.00  0.00    -0.248 NA
ATOM     20  C   UNL A   1      40.049  34.465  36.380  1.00  0.00     0.031 C 
ATOM     21  C   UNL A   1      40.253  33.891  31.421  1.00  0.00     0.029 A 
ATOM     22  N   UNL A   1      41.849  35.082  32.413  1.00  0.00    -0.354 N 
ATOM     23  C   UNL A   1      41.790  35.921  36.622  1.00  0.00     0.074 A 
ATOM     24  C   UNL A   1      40.751  35.148  37.266  1.00  0.00     0.031 C 
ATOM     25  C   UNL A   1      41.237  34.069  30.524  1.00  0.00     0.029 A 
ATOM     26  C   UNL A   1      42.245  34.949  31.091  1.00  0.00     0.049 A 
ATOM     27  H   UNL A   1      42.395  35.542  33.090  1.00  0.00     0.167 HD
ATOM     28  C   UNL A   1      42.704  36.674  37.281  1.00  0.00     0.034 A 
ATOM     29  C   UNL A   1      43.250  35.518  30.383  1.00  0.00     0.034 A 
ATOM     30  C   UNL A   1      43.763  37.396  36.623  1.00  0.00     0.049 A 
ATOM     31  C   UNL A   1      44.156  36.494  31.098  1.00  0.00     0.074 A 
ATOM     32  C   UNL A   1      44.705  38.246  37.177  1.00  0.00     0.029 A 
ATOM     33  N   UNL A   1      44.030  37.346  35.260  1.00  0.00    -0.354 N 
ATOM     34  N   UNL A   1      44.181  36.812  32.372  1.00  0.00    -0.248 NA
ATOM     35  C   UNL A   1      45.153  37.202  30.283  1.00  0.00     0.031 C 
ATOM     36  C   UNL A   1      45.471  38.785  36.140  1.00  0.00     0.029 A 
ATOM     37  C   UNL A   1      45.092  38.180  34.952  1.00  0.00     0.049 A 
ATOM     38  H   UNL A   1      43.535  36.798  34.608  1.00  0.00     0.167 HD
ATOM     39  C   UNL A   1      45.229  37.720  32.516  1.00  0.00     0.074 A 
ATOM     40  C   UNL A   1      45.810  37.893  31.202  1.00  0.00     0.031 C 
ATOM     41  C   UNL A   1      45.672  38.342  33.638  1.00  0.00     0.034 A 
BRANCH  28  42
ATOM     42  C   UNL A   1      42.491  36.864  38.767  1.00  0.00     0.023 A 
ATOM     43  C   UNL A   1      41.631  37.841  39.295  1.00  0.00     0.031 A 
ATOM     44  C   UNL A   1      43.259  36.108  39.673  1.00  0.00     0.131 A 
ATOM     45  C   UNL A   1      41.642  38.108  40.674  1.00  0.00     0.055 A 
ATOM     46  C   UNL A   1      43.184  36.304  41.052  1.00  0.00     0.041 A 
ATOM     47  F   UNL A   1      44.126  35.184  39.228  1.00  0.00    -0.206 F 
ATOM     48  C   UNL A   1      42.389  37.325  41.559  1.00  0.00     0.022 A 
BRANCH  45  49
ATOM     49  S   UNL A   1      40.836  39.622  41.267  1.00  0.00     0.124 S 
ATOM     50  O   UNL A   1      40.849  40.452  40.064  1.00  0.00    -0.237 OA
ATOM     51  O   UNL A   1      39.528  39.139  41.694  1.00  0.00    -0.237 OA
ATOM     52  O   UNL A   1      41.715  40.081  42.342  1.00  0.00    -0.744 OA
ENDBRANCH  45  49
ENDBRANCH  28  42
BRANCH  29  53
ATOM     53  C   UNL A   1      43.407  35.299  28.900  1.00  0.00     0.023 A 
ATOM     54  C   UNL A   1      44.285  34.326  28.382  1.00  0.00     0.031 A 
ATOM     55  C   UNL A   1      42.761  36.137  27.970  1.00  0.00     0.131 A 
ATOM     56  C   UNL A   1      44.522  34.249  26.996  1.00  0.00     0.055 A 
ATOM     57  C   UNL A   1      42.945  36.010  26.590  1.00  0.00     0.041 A 
ATOM     58  F   UNL A   1      41.938  37.112  28.390  1.00  0.00    -0.206 F 
ATOM     59  C   UNL A   1      43.842  35.070  26.096  1.00  0.00     0.022 A 
BRANCH  56  60
ATOM     60  S   UNL A   1      45.829  33.142  26.385  1.00  0.00     0.124 S 
ATOM     61  O   UNL A   1      46.766  34.089  25.794  1.00  0.00    -0.237 OA
ATOM     62  O   UNL A   1      46.267  32.482  27.610  1.00  0.00    -0.237 OA
ATOM     63  O   UNL A   1      45.129  32.280  25.433  1.00  0.00    -0.744 OA
ENDBRANCH  56  60
ENDBRANCH  29  53
BRANCH  41  64
ATOM     64  C   UNL A   1      46.908  39.199  33.511  1.00  0.00     0.023 A 
ATOM     65  C   UNL A   1      46.845  40.592  33.339  1.00  0.00     0.031 A 
ATOM     66  C   UNL A   1      48.180  38.596  33.550  1.00  0.00     0.131 A 
ATOM     67  C   UNL A   1      48.026  41.324  33.140  1.00  0.00     0.055 A 
ATOM     68  C   UNL A   1      49.353  39.340  33.436  1.00  0.00     0.041 A 
ATOM     69  F   UNL A   1      48.301  37.267  33.702  1.00  0.00    -0.206 F 
ATOM     70  C   UNL A   1      49.280  40.710  33.213  1.00  0.00     0.022 A 
BRANCH  67  71
ATOM     71  S   UNL A   1      47.896  43.065  32.649  1.00  0.00     0.124 S 
ATOM     72  O   UNL A   1      49.236  43.562  32.942  1.00  0.00    -0.237 OA
ATOM     73  O   UNL A   1      47.548  42.966  31.235  1.00  0.00    -0.237 OA
ATOM     74  O   UNL A   1      46.838  43.585  33.513  1.00  0.00    -0.744 OA
ENDBRANCH  67  71
ENDBRANCH  41  64
ENDBRANCH  15  16
ENDBRANCH   8  10
ENDBRANCH   7   8
ENDBRANCH   6   7
ENDBRANCH   5   6
ENDBRANCH   4   5
ENDBRANCH   3   4
ENDBRANCH   2   3
ENDBRANCH   1   2
BRANCH   1  75
ATOM     75  C   UNL A   1      36.657  33.164  29.293  1.00  0.00     0.188 C 
BRANCH  75  76
ATOM     76  C   UNL A   1      36.709  31.637  29.346  1.00  0.00     0.188 C 
BRANCH  76  77
ATOM     77  O   UNL A   1      36.838  30.927  28.132  1.00  0.00    -0.376 OA
BRANCH  77  78
ATOM     78  C   UNL A   1      36.286  29.624  28.065  1.00  0.00     0.202 C 
BRANCH  78  79
ATOM     79  C   UNL A   1      34.857  29.470  27.478  1.00  0.00     0.261 C 
BRANCH  79  80
ATOM     80  O   UNL A   1      34.438  28.172  26.938  1.00  0.00    -0.460 OA
BRANCH  80  81
ATOM     81  C   UNL A   1      33.170  27.995  26.448  1.00  0.00     0.340 C 
ATOM     82  O   UNL A   1      32.245  28.780  26.559  1.00  0.00    -0.246 OA
BRANCH  81  83
ATOM     83  C   UNL A   1      33.013  26.649  25.765  1.00  0.00     0.087 A 
ATOM     84  C   UNL A   1      34.247  25.991  25.710  1.00  0.00     0.019 A 
ATOM     85  C   UNL A   1      31.832  25.918  25.384  1.00  0.00     0.109 A 
ATOM     86  C   UNL A   1      34.299  24.630  25.462  1.00  0.00     0.021 A 
ATOM     87  N   UNL A   1      31.911  24.565  25.227  1.00  0.00    -0.254 NA
ATOM     88  C   UNL A   1      33.109  23.957  25.300  1.00  0.00     0.111 A 
BRANCH  85  89
ATOM     89  C   UNL A   1      30.382  26.407  25.139  1.00  0.00     0.321 C 
BRANCH  89  90
ATOM     90  N   UNL A   1      29.958  27.311  23.948  1.00  0.00    -0.322 N 
ATOM     91  C   UNL A   1      30.506  26.759  22.702  1.00  0.00     0.263 C 
ATOM     92  C   UNL A   1      30.176  28.835  23.889  1.00  0.00     0.234 C 
ATOM     93  H   UNL A   1      28.951  27.271  24.100  1.00  0.00     0.349 HD
ATOM     94  C   UNL A   1      31.739  27.574  22.420  1.00  0.00     0.068 C 
ATOM     95  C   UNL A   1      31.475  28.940  23.051  1.00  0.00     0.078 C 
BRANCH  92  96
ATOM     96  C   UNL A   1      28.898  29.871  23.267  1.00  0.00     0.098 A 
ATOM     97  C   UNL A   1      28.969  31.489  23.894  1.00  0.00     0.030 A 
ATOM     98  N   UNL A   1      28.315  29.693  21.590  1.00  0.00    -0.255 NA
ATOM     99  C   UNL A   1      28.609  32.868  22.887  1.00  0.00     0.004 A 
ATOM    100  C   UNL A   1      28.045  31.160  20.512  1.00  0.00     0.111 A 
ATOM    101  C   UNL A   1      28.135  32.750  21.216  1.00  0.00     0.020 A 
ENDBRANCH  92  96
ENDBRANCH  89  90
ENDBRANCH  85  89
ENDBRANCH  81  83
ENDBRANCH  80  81
ENDBRANCH  79  80
ENDBRANCH  78  79
ENDBRANCH  77  78
ENDBRANCH  76  77
ENDBRANCH  75  76
ENDBRANCH   1  75
TORSDOF 26
ENDMDL
MODEL 3
REMARK VINA RESULT:      -9.3     10.636     15.948
REMARK SMILES O=C(OCCOCCOCCOCCOC(=O)c1cccnc1C[N@@H+]1CCC[C@H]1c1ccccn1)c1ccc(-c2c3nc(c(-c4cc(S(=O)(=O)[O-])ccc4F)c4ccc([nH]4)c(-c4cc(S(=O)(=O)[O-])ccc4F)c4nc(c(-c5cc(S(=O)(=O)[O-])ccc5F)c5ccc2[nH]5)C=C4)C=C3)cc1
REMARK SMILES IDX 9 1 8 2 7 3 6 4 5 5 4 6 3 7 2 8 1 9 36 10 37 11 98 12 38 13
REMARK SMILES IDX 97 14 39 15 40 16 41 17 91 18 42 19 96 20 90 21 92 22 43 23
REMARK SMILES IDX 95 24 89 25 88 26 44 28 76 29 56 30 75 31 57 32 60 33 74 34
REMARK SMILES IDX 93 35 58 36 59 37 73 39 94 40 61 41 45 42 46 43 54 44 47 45
REMARK SMILES IDX 53 46 55 47 52 48 48 49 49 50 50 51 51 52 77 53 78 54 86 55
REMARK SMILES IDX 79 56 85 57 87 58 84 59 80 60 81 61 82 62 83 63 62 64 63 65
REMARK SMILES IDX 71 66 64 67 70 68 72 69 69 70 65 71 66 72 67 73 68 74 10 75
REMARK SMILES IDX 11 76 12 77 13 78 14 79 15 80 16 81 17 82 18 83 19 84 23 85
REMARK SMILES IDX 20 86 22 87 21 88 24 89 25 90 26 91 29 92 27 94 28 95 30 96
REMARK SMILES IDX 31 97 35 98 32 99 34 100 33 101
REMARK H PARENT 92 27 60 38 25 93
REMARK Flexibility Score: inf
ROOT
ATOM      1  O   UNL A   1      45.759  40.134  25.370  1.00  0.00    -0.377 OA
ENDROOT
BRANCH   1   2
ATOM      2  C   UNL A   1      45.223  40.391  26.627  1.00  0.00     0.188 C 
BRANCH   2   3
ATOM      3  C   UNL A   1      44.591  39.122  27.249  1.00  0.00     0.188 C 
BRANCH   3   4
ATOM      4  O   UNL A   1      43.591  38.145  26.732  1.00  0.00    -0.376 OA
BRANCH   4   5
ATOM      5  C   UNL A   1      42.560  37.235  27.389  1.00  0.00     0.202 C 
BRANCH   5   6
ATOM      6  C   UNL A   1      42.496  35.363  27.630  1.00  0.00     0.261 C 
BRANCH   6   7
ATOM      7  O   UNL A   1      43.443  34.179  26.261  1.00  0.00    -0.460 OA
BRANCH   7   8
ATOM      8  C   UNL A   1      44.321  32.801  26.180  1.00  0.00     0.338 C 
ATOM      9  O   UNL A   1      45.239  32.769  25.356  1.00  0.00    -0.246 OA
BRANCH   8  10
ATOM     10  C   UNL A   1      44.166  31.438  27.218  1.00  0.00     0.060 A 
ATOM     11  C   UNL A   1      44.463  31.449  28.570  1.00  0.00     0.016 A 
ATOM     12  C   UNL A   1      43.960  30.116  26.852  1.00  0.00     0.016 A 
ATOM     13  C   UNL A   1      45.341  30.545  29.192  1.00  0.00     0.010 A 
ATOM     14  C   UNL A   1      44.453  29.023  27.693  1.00  0.00     0.010 A 
ATOM     15  C   UNL A   1      45.333  29.243  28.789  1.00  0.00    -0.014 A 
BRANCH  15  16
ATOM     16  C   UNL A   1      46.293  28.247  29.433  1.00  0.00     0.031 A 
ATOM     17  C   UNL A   1      45.738  27.329  30.503  1.00  0.00     0.074 A 
ATOM     18  C   UNL A   1      47.570  27.989  29.021  1.00  0.00     0.049 A 
ATOM     19  N   UNL A   1      46.352  26.576  31.378  1.00  0.00    -0.248 NA
ATOM     20  C   UNL A   1      44.272  27.254  30.581  1.00  0.00     0.031 C 
ATOM     21  C   UNL A   1      48.245  28.564  27.849  1.00  0.00     0.029 A 
ATOM     22  N   UNL A   1      48.544  27.140  29.532  1.00  0.00    -0.354 N 
ATOM     23  C   UNL A   1      45.350  26.025  32.174  1.00  0.00     0.074 A 
ATOM     24  C   UNL A   1      44.091  26.522  31.666  1.00  0.00     0.031 C 
ATOM     25  C   UNL A   1      49.470  28.031  27.712  1.00  0.00     0.029 A 
ATOM     26  C   UNL A   1      49.755  27.187  28.860  1.00  0.00     0.049 A 
ATOM     27  H   UNL A   1      48.386  26.553  30.307  1.00  0.00     0.167 HD
ATOM     28  C   UNL A   1      45.472  25.199  33.242  1.00  0.00     0.034 A 
ATOM     29  C   UNL A   1      50.978  26.684  29.156  1.00  0.00     0.034 A 
ATOM     30  C   UNL A   1      46.733  24.673  33.701  1.00  0.00     0.049 A 
ATOM     31  C   UNL A   1      51.132  25.910  30.445  1.00  0.00     0.074 A 
ATOM     32  C   UNL A   1      46.988  23.885  34.809  1.00  0.00     0.029 A 
ATOM     33  N   UNL A   1      47.954  24.875  33.069  1.00  0.00    -0.354 N 
ATOM     34  N   UNL A   1      50.207  25.552  31.306  1.00  0.00    -0.248 NA
ATOM     35  C   UNL A   1      52.491  25.490  30.814  1.00  0.00     0.031 C 
ATOM     36  C   UNL A   1      48.370  23.697  34.903  1.00  0.00     0.029 A 
ATOM     37  C   UNL A   1      48.968  24.263  33.787  1.00  0.00     0.049 A 
ATOM     38  H   UNL A   1      48.079  25.381  32.233  1.00  0.00     0.167 HD
ATOM     39  C   UNL A   1      50.869  24.823  32.292  1.00  0.00     0.074 A 
ATOM     40  C   UNL A   1      52.266  24.789  31.915  1.00  0.00     0.031 C 
ATOM     41  C   UNL A   1      50.360  24.227  33.400  1.00  0.00     0.034 A 
BRANCH  28  42
ATOM     42  C   UNL A   1      44.224  24.947  34.059  1.00  0.00     0.023 A 
ATOM     43  C   UNL A   1      43.660  25.915  34.908  1.00  0.00     0.031 A 
ATOM     44  C   UNL A   1      43.651  23.661  34.060  1.00  0.00     0.131 A 
ATOM     45  C   UNL A   1      42.635  25.550  35.796  1.00  0.00     0.055 A 
ATOM     46  C   UNL A   1      42.560  23.336  34.867  1.00  0.00     0.041 A 
ATOM     47  F   UNL A   1      44.166  22.684  33.297  1.00  0.00    -0.206 F 
ATOM     48  C   UNL A   1      42.060  24.277  35.759  1.00  0.00     0.022 A 
BRANCH  45  49
ATOM     49  S   UNL A   1      42.211  26.694  37.141  1.00  0.00     0.124 S 
ATOM     50  O   UNL A   1      40.824  26.323  37.414  1.00  0.00    -0.237 OA
ATOM     51  O   UNL A   1      43.179  26.342  38.174  1.00  0.00    -0.237 OA
ATOM     52  O   UNL A   1      42.389  28.013  36.539  1.00  0.00    -0.744 OA
ENDBRANCH  45  49
ENDBRANCH  28  42
BRANCH  29  53
ATOM     53  C   UNL A   1      52.189  26.976  28.308  1.00  0.00     0.023 A 
ATOM     54  C   UNL A   1      52.723  26.019  27.422  1.00  0.00     0.031 A 
ATOM     55  C   UNL A   1      52.901  28.183  28.451  1.00  0.00     0.131 A 
ATOM     56  C   UNL A   1      53.940  26.268  26.758  1.00  0.00     0.055 A 
ATOM     57  C   UNL A   1      54.072  28.453  27.736  1.00  0.00     0.041 A 
ATOM     58  F   UNL A   1      52.474  29.127  29.305  1.00  0.00    -0.206 F 
ATOM     59  C   UNL A   1      54.607  27.486  26.893  1.00  0.00     0.022 A 
BRANCH  56  60
ATOM     60  S   UNL A   1      54.715  24.926  25.805  1.00  0.00     0.124 S 
ATOM     61  O   UNL A   1      53.550  24.171  25.360  1.00  0.00    -0.237 OA
ATOM     62  O   UNL A   1      55.437  25.662  24.773  1.00  0.00    -0.237 OA
ATOM     63  O   UNL A   1      55.558  24.250  26.790  1.00  0.00    -0.744 OA
ENDBRANCH  56  60
ENDBRANCH  29  53
BRANCH  41  64
ATOM     64  C   UNL A   1      51.307  23.404  34.239  1.00  0.00     0.023 A 
ATOM     65  C   UNL A   1      51.666  22.089  33.900  1.00  0.00     0.031 A 
ATOM     66  C   UNL A   1      51.851  23.953  35.417  1.00  0.00     0.131 A 
ATOM     67  C   UNL A   1      52.482  21.344  34.764  1.00  0.00     0.055 A 
ATOM     68  C   UNL A   1      52.729  23.237  36.227  1.00  0.00     0.041 A 
ATOM     69  F   UNL A   1      51.536  25.202  35.796  1.00  0.00    -0.206 F 
ATOM     70  C   UNL A   1      53.037  21.918  35.912  1.00  0.00     0.022 A 
BRANCH  67  71
ATOM     71  S   UNL A   1      52.702  19.573  34.441  1.00  0.00     0.124 S 
ATOM     72  O   UNL A   1      51.331  19.137  34.203  1.00  0.00    -0.237 OA
ATOM     73  O   UNL A   1      53.581  19.575  33.276  1.00  0.00    -0.237 OA
ATOM     74  O   UNL A   1      53.308  19.073  35.673  1.00  0.00    -0.744 OA
ENDBRANCH  67  71
ENDBRANCH  41  64
ENDBRANCH  15  16
ENDBRANCH   8  10
ENDBRANCH   7   8
ENDBRANCH   6   7
ENDBRANCH   5   6
ENDBRANCH   4   5
ENDBRANCH   3   4
ENDBRANCH   2   3
ENDBRANCH   1   2
BRANCH   1  75
ATOM     75  C   UNL A   1      46.678  41.155  25.100  1.00  0.00     0.188 C 
BRANCH  75  76
ATOM     76  C   UNL A   1      46.400  42.192  24.012  1.00  0.00     0.188 C 
BRANCH  76  77
ATOM     77  O   UNL A   1      46.566  41.810  22.663  1.00  0.00    -0.376 OA
BRANCH  77  78
ATOM     78  C   UNL A   1      45.695  42.378  21.701  1.00  0.00     0.202 C 
BRANCH  78  79
ATOM     79  C   UNL A   1      44.659  43.425  22.189  1.00  0.00     0.261 C 
BRANCH  79  80
ATOM     80  O   UNL A   1      43.856  44.157  21.203  1.00  0.00    -0.460 OA
BRANCH  80  81
ATOM     81  C   UNL A   1      44.401  44.544  20.006  1.00  0.00     0.340 C 
ATOM     82  O   UNL A   1      45.544  44.929  19.832  1.00  0.00    -0.246 OA
BRANCH  81  83
ATOM     83  C   UNL A   1      43.385  44.488  18.880  1.00  0.00     0.087 A 
ATOM     84  C   UNL A   1      42.341  43.619  19.218  1.00  0.00     0.019 A 
ATOM     85  C   UNL A   1      43.245  45.296  17.697  1.00  0.00     0.109 A 
ATOM     86  C   UNL A   1      41.143  43.671  18.526  1.00  0.00     0.021 A 
ATOM     87  N   UNL A   1      42.025  45.381  17.091  1.00  0.00    -0.254 NA
ATOM     88  C   UNL A   1      41.013  44.609  17.528  1.00  0.00     0.111 A 
BRANCH  85  89
ATOM     89  C   UNL A   1      44.280  46.178  16.953  1.00  0.00     0.321 C 
BRANCH  89  90
ATOM     90  N   UNL A   1      44.817  47.533  17.494  1.00  0.00    -0.322 N 
ATOM     91  C   UNL A   1      43.893  48.048  18.513  1.00  0.00     0.263 C 
ATOM     92  C   UNL A   1      45.209  48.732  16.608  1.00  0.00     0.234 C 
ATOM     93  H   UNL A   1      45.737  47.206  17.786  1.00  0.00     0.349 HD
ATOM     94  C   UNL A   1      43.051  49.071  17.800  1.00  0.00     0.068 C 
ATOM     95  C   UNL A   1      43.935  49.610  16.676  1.00  0.00     0.078 C 
BRANCH  92  96
ATOM     96  C   UNL A   1      46.666  49.645  16.981  1.00  0.00     0.098 A 
ATOM     97  C   UNL A   1      46.800  51.114  16.064  1.00  0.00     0.030 A 
ATOM     98  N   UNL A   1      47.321  49.680  18.639  1.00  0.00    -0.255 NA
ATOM     99  C   UNL A   1      47.427  52.576  16.780  1.00  0.00     0.004 A 
ATOM    100  C   UNL A   1      47.878  51.255  19.413  1.00  0.00     0.111 A 
ATOM    101  C   UNL A   1      47.984  52.686  18.427  1.00  0.00     0.020 A 
ENDBRANCH  92  96
ENDBRANCH  89  90
ENDBRANCH  85  89
ENDBRANCH  81  83
ENDBRANCH  80  81
ENDBRANCH  79  80
ENDBRANCH  78  79
ENDBRANCH  77  78
ENDBRANCH  76  77
ENDBRANCH  75  76
ENDBRANCH   1  75
TORSDOF 26
ENDMDL
