MODEL 1
REMARK VINA RESULT:      -9.8      0.000      0.000
REMARK SMILES Cc1ccc(N)c(SCCOc2ccccc2C(=O)OCCOCCOCCOCCOC(=O)c2ccc(-c3c4nc(c(-c5cc(S(=O)(=O)[O-])ccc5F)c5ccc([nH]5)c(-c5cc(S(=O)(=O)[O-])ccc5F)c5nc(c(-c6cc(S(=O)(=O)[O-])ccc6F)c6ccc3[nH]6)C=C5)C=C4)cc2)c1
REMARK SMILES IDX 24 1 23 2 22 3 21 4 20 5 18 6 19 7 17 8 12 9 13 10 14 11
REMARK SMILES IDX 16 12 15 13 11 14 10 15 9 16 8 17 7 18 1 19 2 20 3 21 98 22
REMARK SMILES IDX 4 23 5 24 6 25 25 28 26 29 27 30 28 31 29 32 30 33 31 34
REMARK SMILES IDX 32 35 33 36 34 37 35 38 36 39 97 40 37 41 96 42 38 43 39 44
REMARK SMILES IDX 40 45 90 46 41 47 95 48 89 49 91 50 42 51 94 52 88 53 87 54
REMARK SMILES IDX 43 56 75 57 55 58 74 59 56 60 59 61 73 62 92 63 57 64 58 65
REMARK SMILES IDX 72 67 93 68 60 69 44 70 45 71 53 72 46 73 52 74 54 75 51 76
REMARK SMILES IDX 47 77 48 78 49 79 50 80 76 81 77 82 85 83 78 84 84 85 86 86
REMARK SMILES IDX 83 87 79 88 80 89 81 90 82 91 61 92 62 93 70 94 63 95 69 96
REMARK SMILES IDX 71 97 68 98 64 99 65 100 66 101 67 102
REMARK H PARENT 6 26 6 27 91 55 59 66
REMARK Flexibility Score: inf
ROOT
ATOM      1  C   UNL A   1      32.329  21.081  24.419  1.00  0.00     0.188 C 
ENDROOT
BRANCH   1   2
ATOM      2  O   UNL A   1      32.494  22.272  23.640  1.00  0.00    -0.376 OA
BRANCH   2   3
ATOM      3  C   UNL A   1      31.343  22.986  23.202  1.00  0.00     0.202 C 
BRANCH   3   4
ATOM      4  C   UNL A   1      31.140  24.346  23.911  1.00  0.00     0.261 C 
BRANCH   4   5
ATOM      5  O   UNL A   1      30.904  24.400  25.346  1.00  0.00    -0.460 OA
BRANCH   5   6
ATOM      6  C   UNL A   1      32.007  24.686  26.092  1.00  0.00     0.342 C 
ATOM      7  O   UNL A   1      32.704  23.806  26.549  1.00  0.00    -0.246 OA
BRANCH   6   8
ATOM      8  C   UNL A   1      32.190  26.157  26.442  1.00  0.00     0.102 A 
ATOM      9  C   UNL A   1      33.372  26.702  26.044  1.00  0.00     0.133 A 
ATOM     10  C   UNL A   1      33.785  27.968  26.500  1.00  0.00     0.047 A 
ATOM     11  C   UNL A   1      32.838  28.856  27.014  1.00  0.00     0.004 A 
ATOM     12  C   UNL A   1      31.232  27.171  26.588  1.00  0.00     0.019 A 
ATOM     13  C   UNL A   1      31.518  28.497  26.908  1.00  0.00     0.001 A 
BRANCH   9  14
ATOM     14  O   UNL A   1      33.818  26.213  24.824  1.00  0.00    -0.492 OA
BRANCH  14  15
ATOM     15  C   UNL A   1      34.315  27.311  23.964  1.00  0.00     0.241 C 
BRANCH  15  16
ATOM     16  C   UNL A   1      33.485  27.943  22.728  1.00  0.00     0.116 C 
BRANCH  16  17
ATOM     17  S   UNL A   1      31.935  29.252  22.777  1.00  0.00    -0.120 SA
BRANCH  17  18
ATOM     18  C   UNL A   1      30.102  28.795  22.496  1.00  0.00     0.031 A 
ATOM     19  C   UNL A   1      27.683  26.396  24.251  1.00  0.00     0.044 C 
ATOM     20  C   UNL A   1      28.114  27.590  23.432  1.00  0.00    -0.050 A 
ATOM     21  C   UNL A   1      27.348  28.730  23.336  1.00  0.00     0.005 A 
ATOM     22  C   UNL A   1      29.423  27.638  22.911  1.00  0.00     0.020 A 
ATOM     23  C   UNL A   1      27.883  29.833  22.669  1.00  0.00     0.027 A 
ATOM     24  C   UNL A   1      29.228  29.865  22.208  1.00  0.00     0.045 A 
BRANCH  24  25
ATOM     25  N   UNL A   1      29.682  31.038  21.595  1.00  0.00    -0.398 N 
ATOM     26  H   UNL A   1      30.442  31.532  21.980  1.00  0.00     0.156 HD
ATOM     27  H   UNL A   1      29.241  31.370  20.780  1.00  0.00     0.156 HD
ENDBRANCH  24  25
ENDBRANCH  17  18
ENDBRANCH  16  17
ENDBRANCH  15  16
ENDBRANCH  14  15
ENDBRANCH   9  14
ENDBRANCH   6   8
ENDBRANCH   5   6
ENDBRANCH   4   5
ENDBRANCH   3   4
ENDBRANCH   2   3
ENDBRANCH   1   2
BRANCH   1  28
ATOM     28  C   UNL A   1      33.493  20.565  25.283  1.00  0.00     0.188 C 
BRANCH  28  29
ATOM     29  O   UNL A   1      34.753  20.624  24.648  1.00  0.00    -0.377 OA
BRANCH  29  30
ATOM     30  C   UNL A   1      35.502  21.821  24.751  1.00  0.00     0.188 C 
BRANCH  30  31
ATOM     31  C   UNL A   1      36.962  21.823  24.273  1.00  0.00     0.188 C 
BRANCH  31  32
ATOM     32  O   UNL A   1      37.893  21.532  25.315  1.00  0.00    -0.376 OA
BRANCH  32  33
ATOM     33  C   UNL A   1      37.987  20.169  25.725  1.00  0.00     0.202 C 
BRANCH  33  34
ATOM     34  C   UNL A   1      39.333  19.477  25.444  1.00  0.00     0.261 C 
BRANCH  34  35
ATOM     35  O   UNL A   1      40.529  20.245  25.682  1.00  0.00    -0.460 OA
BRANCH  35  36
ATOM     36  C   UNL A   1      41.059  20.268  26.927  1.00  0.00     0.338 C 
ATOM     37  O   UNL A   1      41.554  19.334  27.521  1.00  0.00    -0.246 OA
BRANCH  36  38
ATOM     38  C   UNL A   1      41.173  21.689  27.346  1.00  0.00     0.060 A 
ATOM     39  C   UNL A   1      40.507  22.660  26.585  1.00  0.00     0.016 A 
ATOM     40  C   UNL A   1      41.886  22.063  28.490  1.00  0.00     0.016 A 
ATOM     41  C   UNL A   1      40.586  24.009  26.939  1.00  0.00     0.010 A 
ATOM     42  C   UNL A   1      41.995  23.417  28.825  1.00  0.00     0.010 A 
ATOM     43  C   UNL A   1      41.379  24.398  28.027  1.00  0.00    -0.014 A 
BRANCH  43  44
ATOM     44  C   UNL A   1      41.796  25.819  28.145  1.00  0.00     0.031 A 
ATOM     45  C   UNL A   1      43.139  26.191  27.572  1.00  0.00     0.074 A 
ATOM     46  C   UNL A   1      41.015  26.756  28.713  1.00  0.00     0.049 A 
ATOM     47  N   UNL A   1      43.760  27.342  27.576  1.00  0.00    -0.248 NA
ATOM     48  C   UNL A   1      43.881  25.108  26.905  1.00  0.00     0.031 C 
ATOM     49  C   UNL A   1      39.677  26.531  29.253  1.00  0.00     0.029 A 
ATOM     50  N   UNL A   1      41.248  28.092  28.932  1.00  0.00    -0.354 N 
ATOM     51  C   UNL A   1      44.960  27.122  26.907  1.00  0.00     0.074 A 
ATOM     52  C   UNL A   1      44.996  25.722  26.547  1.00  0.00     0.031 C 
ATOM     53  C   UNL A   1      39.212  27.689  29.758  1.00  0.00     0.029 A 
ATOM     54  C   UNL A   1      40.233  28.727  29.609  1.00  0.00     0.049 A 
ATOM     55  H   UNL A   1      42.065  28.552  28.633  1.00  0.00     0.167 HD
ATOM     56  C   UNL A   1      45.943  28.007  26.615  1.00  0.00     0.034 A 
ATOM     57  C   UNL A   1      40.154  29.991  30.076  1.00  0.00     0.034 A 
ATOM     58  C   UNL A   1      45.914  29.392  27.010  1.00  0.00     0.049 A 
ATOM     59  C   UNL A   1      41.314  30.934  29.840  1.00  0.00     0.074 A 
ATOM     60  C   UNL A   1      46.855  30.377  26.772  1.00  0.00     0.029 A 
ATOM     61  N   UNL A   1      44.897  29.983  27.748  1.00  0.00    -0.354 N 
ATOM     62  N   UNL A   1      42.441  30.718  29.199  1.00  0.00    -0.248 NA
ATOM     63  C   UNL A   1      41.190  32.291  30.392  1.00  0.00     0.031 C 
ATOM     64  C   UNL A   1      46.443  31.543  27.428  1.00  0.00     0.029 A 
ATOM     65  C   UNL A   1      45.207  31.309  28.007  1.00  0.00     0.049 A 
ATOM     66  H   UNL A   1      44.076  29.527  28.045  1.00  0.00     0.167 HD
ATOM     67  C   UNL A   1      43.144  31.921  29.249  1.00  0.00     0.074 A 
ATOM     68  C   UNL A   1      42.309  32.859  29.968  1.00  0.00     0.031 C 
ATOM     69  C   UNL A   1      44.367  32.227  28.742  1.00  0.00     0.034 A 
BRANCH  56  70
ATOM     70  C   UNL A   1      47.151  27.473  25.888  1.00  0.00     0.023 A 
ATOM     71  C   UNL A   1      48.231  26.888  26.576  1.00  0.00     0.031 A 
ATOM     72  C   UNL A   1      47.251  27.598  24.491  1.00  0.00     0.131 A 
ATOM     73  C   UNL A   1      49.389  26.521  25.875  1.00  0.00     0.055 A 
ATOM     74  C   UNL A   1      48.374  27.158  23.790  1.00  0.00     0.041 A 
ATOM     75  F   UNL A   1      46.264  28.175  23.786  1.00  0.00    -0.206 F 
ATOM     76  C   UNL A   1      49.459  26.629  24.484  1.00  0.00     0.022 A 
BRANCH  73  77
ATOM     77  S   UNL A   1      50.859  26.037  26.823  1.00  0.00     0.124 S 
ATOM     78  O   UNL A   1      50.949  27.119  27.800  1.00  0.00    -0.237 OA
ATOM     79  O   UNL A   1      50.480  24.731  27.348  1.00  0.00    -0.237 OA
ATOM     80  O   UNL A   1      51.922  26.022  25.820  1.00  0.00    -0.744 OA
ENDBRANCH  73  77
ENDBRANCH  56  70
BRANCH  57  81
ATOM     81  C   UNL A   1      38.969  30.441  30.866  1.00  0.00     0.023 A 
ATOM     82  C   UNL A   1      37.855  31.028  30.244  1.00  0.00     0.031 A 
ATOM     83  C   UNL A   1      38.969  30.354  32.270  1.00  0.00     0.131 A 
ATOM     84  C   UNL A   1      36.810  31.548  31.027  1.00  0.00     0.055 A 
ATOM     85  C   UNL A   1      37.904  30.825  33.040  1.00  0.00     0.041 A 
ATOM     86  F   UNL A   1      40.013  29.810  32.917  1.00  0.00    -0.206 F 
ATOM     87  C   UNL A   1      36.821  31.438  32.418  1.00  0.00     0.022 A 
BRANCH  84  88
ATOM     88  S   UNL A   1      35.468  32.449  30.201  1.00  0.00     0.124 S 
ATOM     89  O   UNL A   1      36.119  33.712  29.871  1.00  0.00    -0.237 OA
ATOM     90  O   UNL A   1      35.161  31.573  29.076  1.00  0.00    -0.237 OA
ATOM     91  O   UNL A   1      34.431  32.531  31.226  1.00  0.00    -0.744 OA
ENDBRANCH  84  88
ENDBRANCH  57  81
BRANCH  69  92
ATOM     92  C   UNL A   1      44.852  33.646  28.917  1.00  0.00     0.023 A 
ATOM     93  C   UNL A   1      45.699  34.014  29.978  1.00  0.00     0.031 A 
ATOM     94  C   UNL A   1      44.461  34.644  28.006  1.00  0.00     0.131 A 
ATOM     95  C   UNL A   1      46.085  35.354  30.130  1.00  0.00     0.055 A 
ATOM     96  C   UNL A   1      44.896  35.963  28.130  1.00  0.00     0.041 A 
ATOM     97  F   UNL A   1      43.653  34.349  26.975  1.00  0.00    -0.206 F 
ATOM     98  C   UNL A   1      45.703  36.328  29.203  1.00  0.00     0.022 A 
BRANCH  95  99
ATOM     99  S   UNL A   1      47.026  35.828  31.606  1.00  0.00     0.124 S 
ATOM    100  O   UNL A   1      46.360  35.057  32.652  1.00  0.00    -0.237 OA
ATOM    101  O   UNL A   1      48.380  35.402  31.265  1.00  0.00    -0.237 OA
ATOM    102  O   UNL A   1      46.834  37.275  31.687  1.00  0.00    -0.744 OA
ENDBRANCH  95  99
ENDBRANCH  69  92
ENDBRANCH  43  44
ENDBRANCH  36  38
ENDBRANCH  35  36
ENDBRANCH  34  35
ENDBRANCH  33  34
ENDBRANCH  32  33
ENDBRANCH  31  32
ENDBRANCH  30  31
ENDBRANCH  29  30
ENDBRANCH  28  29
ENDBRANCH   1  28
TORSDOF 29
ENDMDL
MODEL 2
REMARK VINA RESULT:      -9.5      1.790      2.065
REMARK SMILES Cc1ccc(N)c(SCCOc2ccccc2C(=O)OCCOCCOCCOCCOC(=O)c2ccc(-c3c4nc(c(-c5cc(S(=O)(=O)[O-])ccc5F)c5ccc([nH]5)c(-c5cc(S(=O)(=O)[O-])ccc5F)c5nc(c(-c6cc(S(=O)(=O)[O-])ccc6F)c6ccc3[nH]6)C=C5)C=C4)cc2)c1
REMARK SMILES IDX 24 1 23 2 22 3 21 4 20 5 18 6 19 7 17 8 12 9 13 10 14 11
REMARK SMILES IDX 16 12 15 13 11 14 10 15 9 16 8 17 7 18 1 19 2 20 3 21 98 22
REMARK SMILES IDX 4 23 5 24 6 25 25 28 26 29 27 30 28 31 29 32 30 33 31 34
REMARK SMILES IDX 32 35 33 36 34 37 35 38 36 39 97 40 37 41 96 42 38 43 39 44
REMARK SMILES IDX 40 45 90 46 41 47 95 48 89 49 91 50 42 51 94 52 88 53 87 54
REMARK SMILES IDX 43 56 75 57 55 58 74 59 56 60 59 61 73 62 92 63 57 64 58 65
REMARK SMILES IDX 72 67 93 68 60 69 44 70 45 71 53 72 46 73 52 74 54 75 51 76
REMARK SMILES IDX 47 77 48 78 49 79 50 80 76 81 77 82 85 83 78 84 84 85 86 86
REMARK SMILES IDX 83 87 79 88 80 89 81 90 82 91 61 92 62 93 70 94 63 95 69 96
REMARK SMILES IDX 71 97 68 98 64 99 65 100 66 101 67 102
REMARK H PARENT 6 26 6 27 91 55 59 66
REMARK Flexibility Score: inf
ROOT
ATOM      1  C   UNL A   1      32.242  20.938  24.475  1.00  0.00     0.188 C 
ENDROOT
BRANCH   1   2
ATOM      2  O   UNL A   1      32.207  22.041  23.561  1.00  0.00    -0.376 OA
BRANCH   2   3
ATOM      3  C   UNL A   1      31.012  22.803  23.432  1.00  0.00     0.202 C 
BRANCH   3   4
ATOM      4  C   UNL A   1      31.137  24.258  23.942  1.00  0.00     0.261 C 
BRANCH   4   5
ATOM      5  O   UNL A   1      30.702  24.607  25.286  1.00  0.00    -0.460 OA
BRANCH   5   6
ATOM      6  C   UNL A   1      31.712  24.765  26.186  1.00  0.00     0.342 C 
ATOM      7  O   UNL A   1      32.228  23.812  26.728  1.00  0.00    -0.246 OA
BRANCH   6   8
ATOM      8  C   UNL A   1      32.014  26.206  26.577  1.00  0.00     0.102 A 
ATOM      9  C   UNL A   1      33.231  26.669  26.180  1.00  0.00     0.133 A 
ATOM     10  C   UNL A   1      33.747  27.884  26.668  1.00  0.00     0.047 A 
ATOM     11  C   UNL A   1      32.878  28.828  27.218  1.00  0.00     0.004 A 
ATOM     12  C   UNL A   1      31.140  27.288  26.764  1.00  0.00     0.019 A 
ATOM     13  C   UNL A   1      31.533  28.577  27.118  1.00  0.00     0.001 A 
BRANCH   9  14
ATOM     14  O   UNL A   1      33.625  26.183  24.941  1.00  0.00    -0.492 OA
BRANCH  14  15
ATOM     15  C   UNL A   1      34.237  27.254  24.123  1.00  0.00     0.241 C 
BRANCH  15  16
ATOM     16  C   UNL A   1      33.573  27.862  22.779  1.00  0.00     0.116 C 
BRANCH  16  17
ATOM     17  S   UNL A   1      32.073  29.218  22.605  1.00  0.00    -0.120 SA
BRANCH  17  18
ATOM     18  C   UNL A   1      30.222  28.789  22.418  1.00  0.00     0.031 A 
ATOM     19  C   UNL A   1      27.896  26.313  24.192  1.00  0.00     0.044 C 
ATOM     20  C   UNL A   1      28.286  27.547  23.414  1.00  0.00    -0.050 A 
ATOM     21  C   UNL A   1      27.527  28.695  23.430  1.00  0.00     0.005 A 
ATOM     22  C   UNL A   1      29.559  27.615  22.813  1.00  0.00     0.020 A 
ATOM     23  C   UNL A   1      28.030  29.831  22.790  1.00  0.00     0.027 A 
ATOM     24  C   UNL A   1      29.342  29.878  22.246  1.00  0.00     0.045 A 
BRANCH  24  25
ATOM     25  N   UNL A   1      29.768  31.081  21.670  1.00  0.00    -0.398 N 
ATOM     26  H   UNL A   1      30.663  31.143  21.266  1.00  0.00     0.156 HD
ATOM     27  H   UNL A   1      29.172  31.864  21.670  1.00  0.00     0.156 HD
ENDBRANCH  24  25
ENDBRANCH  17  18
ENDBRANCH  16  17
ENDBRANCH  15  16
ENDBRANCH  14  15
ENDBRANCH   9  14
ENDBRANCH   6   8
ENDBRANCH   5   6
ENDBRANCH   4   5
ENDBRANCH   3   4
ENDBRANCH   2   3
ENDBRANCH   1   2
BRANCH   1  28
ATOM     28  C   UNL A   1      33.512  20.668  25.300  1.00  0.00     0.188 C 
BRANCH  28  29
ATOM     29  O   UNL A   1      34.714  20.818  24.573  1.00  0.00    -0.377 OA
BRANCH  29  30
ATOM     30  C   UNL A   1      35.171  22.128  24.294  1.00  0.00     0.188 C 
BRANCH  30  31
ATOM     31  C   UNL A   1      36.654  22.336  23.949  1.00  0.00     0.188 C 
BRANCH  31  32
ATOM     32  O   UNL A   1      37.505  22.301  25.094  1.00  0.00    -0.376 OA
BRANCH  32  33
ATOM     33  C   UNL A   1      37.626  21.045  25.761  1.00  0.00     0.202 C 
BRANCH  33  34
ATOM     34  C   UNL A   1      38.864  20.208  25.391  1.00  0.00     0.261 C 
BRANCH  34  35
ATOM     35  O   UNL A   1      40.155  20.799  25.640  1.00  0.00    -0.460 OA
BRANCH  35  36
ATOM     36  C   UNL A   1      40.672  20.748  26.890  1.00  0.00     0.338 C 
ATOM     37  O   UNL A   1      41.067  19.759  27.471  1.00  0.00    -0.246 OA
BRANCH  36  38
ATOM     38  C   UNL A   1      40.921  22.143  27.336  1.00  0.00     0.060 A 
ATOM     39  C   UNL A   1      40.302  23.185  26.631  1.00  0.00     0.016 A 
ATOM     40  C   UNL A   1      41.712  22.428  28.453  1.00  0.00     0.016 A 
ATOM     41  C   UNL A   1      40.508  24.513  27.011  1.00  0.00     0.010 A 
ATOM     42  C   UNL A   1      41.947  23.759  28.814  1.00  0.00     0.010 A 
ATOM     43  C   UNL A   1      41.378  24.808  28.069  1.00  0.00    -0.014 A 
BRANCH  43  44
ATOM     44  C   UNL A   1      41.915  26.186  28.201  1.00  0.00     0.031 A 
ATOM     45  C   UNL A   1      43.291  26.445  27.644  1.00  0.00     0.074 A 
ATOM     46  C   UNL A   1      41.212  27.184  28.766  1.00  0.00     0.049 A 
ATOM     47  N   UNL A   1      44.008  27.537  27.661  1.00  0.00    -0.248 NA
ATOM     48  C   UNL A   1      43.944  25.305  26.978  1.00  0.00     0.031 C 
ATOM     49  C   UNL A   1      39.853  27.073  29.291  1.00  0.00     0.029 A 
ATOM     50  N   UNL A   1      41.557  28.494  28.996  1.00  0.00    -0.354 N 
ATOM     51  C   UNL A   1      45.192  27.219  27.003  1.00  0.00     0.074 A 
ATOM     52  C   UNL A   1      45.111  25.822  26.636  1.00  0.00     0.031 C 
ATOM     53  C   UNL A   1      39.484  28.264  29.798  1.00  0.00     0.029 A 
ATOM     54  C   UNL A   1      40.592  29.211  29.666  1.00  0.00     0.049 A 
ATOM     55  H   UNL A   1      42.414  28.883  28.709  1.00  0.00     0.167 HD
ATOM     56  C   UNL A   1      46.252  28.017  26.727  1.00  0.00     0.034 A 
ATOM     57  C   UNL A   1      40.617  30.475  30.139  1.00  0.00     0.034 A 
ATOM     58  C   UNL A   1      46.338  29.397  27.130  1.00  0.00     0.049 A 
ATOM     59  C   UNL A   1      41.857  31.316  29.922  1.00  0.00     0.074 A 
ATOM     60  C   UNL A   1      47.362  30.298  26.908  1.00  0.00     0.029 A 
ATOM     61  N   UNL A   1      45.368  30.070  27.862  1.00  0.00    -0.354 N 
ATOM     62  N   UNL A   1      42.968  31.007  29.291  1.00  0.00    -0.248 NA
ATOM     63  C   UNL A   1      41.844  32.675  30.480  1.00  0.00     0.031 C 
ATOM     64  C   UNL A   1      47.045  31.492  27.567  1.00  0.00     0.029 A 
ATOM     65  C   UNL A   1      45.787  31.363  28.132  1.00  0.00     0.049 A 
ATOM     66  H   UNL A   1      44.507  29.684  28.147  1.00  0.00     0.167 HD
ATOM     67  C   UNL A   1      43.772  32.144  29.356  1.00  0.00     0.074 A 
ATOM     68  C   UNL A   1      43.013  33.147  30.073  1.00  0.00     0.031 C 
ATOM     69  C   UNL A   1      45.022  32.346  28.863  1.00  0.00     0.034 A 
BRANCH  56  70
ATOM     70  C   UNL A   1      47.417  27.384  26.010  1.00  0.00     0.023 A 
ATOM     71  C   UNL A   1      48.398  26.647  26.698  1.00  0.00     0.031 A 
ATOM     72  C   UNL A   1      47.580  27.566  24.625  1.00  0.00     0.131 A 
ATOM     73  C   UNL A   1      49.532  26.184  26.014  1.00  0.00     0.055 A 
ATOM     74  C   UNL A   1      48.671  27.035  23.936  1.00  0.00     0.041 A 
ATOM     75  F   UNL A   1      46.691  28.285  23.922  1.00  0.00    -0.206 F 
ATOM     76  C   UNL A   1      49.663  26.351  24.633  1.00  0.00     0.022 A 
BRANCH  73  77
ATOM     77  S   UNL A   1      50.904  25.489  26.978  1.00  0.00     0.124 S 
ATOM     78  O   UNL A   1      50.261  24.348  27.624  1.00  0.00    -0.237 OA
ATOM     79  O   UNL A   1      51.885  25.171  25.947  1.00  0.00    -0.237 OA
ATOM     80  O   UNL A   1      51.275  26.578  27.878  1.00  0.00    -0.744 OA
ENDBRANCH  73  77
ENDBRANCH  56  70
BRANCH  57  81
ATOM     81  C   UNL A   1      39.468  31.021  30.921  1.00  0.00     0.023 A 
ATOM     82  C   UNL A   1      39.515  31.118  32.321  1.00  0.00     0.031 A 
ATOM     83  C   UNL A   1      38.271  31.386  30.276  1.00  0.00     0.131 A 
ATOM     84  C   UNL A   1      38.374  31.524  33.034  1.00  0.00     0.055 A 
ATOM     85  C   UNL A   1      37.157  31.838  30.987  1.00  0.00     0.041 A 
ATOM     86  F   UNL A   1      38.167  31.303  28.940  1.00  0.00    -0.206 F 
ATOM     87  C   UNL A   1      37.202  31.897  32.375  1.00  0.00     0.022 A 
BRANCH  84  88
ATOM     88  S   UNL A   1      38.417  31.476  34.848  1.00  0.00     0.124 S 
ATOM     89  O   UNL A   1      37.295  32.341  35.194  1.00  0.00    -0.237 OA
ATOM     90  O   UNL A   1      38.238  30.054  35.118  1.00  0.00    -0.237 OA
ATOM     91  O   UNL A   1      39.739  32.008  35.172  1.00  0.00    -0.744 OA
ENDBRANCH  84  88
ENDBRANCH  57  81
BRANCH  69  92
ATOM     92  C   UNL A   1      45.626  33.716  29.053  1.00  0.00     0.023 A 
ATOM     93  C   UNL A   1      45.373  34.768  28.154  1.00  0.00     0.031 A 
ATOM     94  C   UNL A   1      46.466  33.972  30.151  1.00  0.00     0.131 A 
ATOM     95  C   UNL A   1      45.995  36.012  28.342  1.00  0.00     0.055 A 
ATOM     96  C   UNL A   1      47.035  35.228  30.365  1.00  0.00     0.041 A 
ATOM     97  F   UNL A   1      46.743  33.005  31.040  1.00  0.00    -0.206 F 
ATOM     98  C   UNL A   1      46.811  36.254  29.451  1.00  0.00     0.022 A 
BRANCH  95  99
ATOM     99  S   UNL A   1      45.793  37.289  27.071  1.00  0.00     0.124 S 
ATOM    100  O   UNL A   1      44.343  37.320  26.899  1.00  0.00    -0.237 OA
ATOM    101  O   UNL A   1      46.385  38.461  27.707  1.00  0.00    -0.237 OA
ATOM    102  O   UNL A   1      46.540  36.760  25.931  1.00  0.00    -0.744 OA
ENDBRANCH  95  99
ENDBRANCH  69  92
ENDBRANCH  43  44
ENDBRANCH  36  38
ENDBRANCH  35  36
ENDBRANCH  34  35
ENDBRANCH  33  34
ENDBRANCH  32  33
ENDBRANCH  31  32
ENDBRANCH  30  31
ENDBRANCH  29  30
ENDBRANCH  28  29
ENDBRANCH   1  28
TORSDOF 29
ENDMDL
MODEL 3
REMARK VINA RESULT:      -9.3      2.003      7.884
REMARK SMILES Cc1ccc(N)c(SCCOc2ccccc2C(=O)OCCOCCOCCOCCOC(=O)c2ccc(-c3c4nc(c(-c5cc(S(=O)(=O)[O-])ccc5F)c5ccc([nH]5)c(-c5cc(S(=O)(=O)[O-])ccc5F)c5nc(c(-c6cc(S(=O)(=O)[O-])ccc6F)c6ccc3[nH]6)C=C5)C=C4)cc2)c1
REMARK SMILES IDX 24 1 23 2 22 3 21 4 20 5 18 6 19 7 17 8 12 9 13 10 14 11
REMARK SMILES IDX 16 12 15 13 11 14 10 15 9 16 8 17 7 18 1 19 2 20 3 21 98 22
REMARK SMILES IDX 4 23 5 24 6 25 25 28 26 29 27 30 28 31 29 32 30 33 31 34
REMARK SMILES IDX 32 35 33 36 34 37 35 38 36 39 97 40 37 41 96 42 38 43 39 44
REMARK SMILES IDX 40 45 90 46 41 47 95 48 89 49 91 50 42 51 94 52 88 53 87 54
REMARK SMILES IDX 43 56 75 57 55 58 74 59 56 60 59 61 73 62 92 63 57 64 58 65
REMARK SMILES IDX 72 67 93 68 60 69 44 70 45 71 53 72 46 73 52 74 54 75 51 76
REMARK SMILES IDX 47 77 48 78 49 79 50 80 76 81 77 82 85 83 78 84 84 85 86 86
REMARK SMILES IDX 83 87 79 88 80 89 81 90 82 91 61 92 62 93 70 94 63 95 69 96
REMARK SMILES IDX 71 97 68 98 64 99 65 100 66 101 67 102
REMARK H PARENT 6 26 6 27 91 55 59 66
REMARK Flexibility Score: inf
ROOT
ATOM      1  C   UNL A   1      31.593  21.553  24.317  1.00  0.00     0.188 C 
ENDROOT
BRANCH   1   2
ATOM      2  O   UNL A   1      31.103  21.529  25.663  1.00  0.00    -0.376 OA
BRANCH   2   3
ATOM      3  C   UNL A   1      30.863  22.757  26.342  1.00  0.00     0.202 C 
BRANCH   3   4
ATOM      4  C   UNL A   1      31.283  24.010  25.540  1.00  0.00     0.261 C 
BRANCH   4   5
ATOM      5  O   UNL A   1      30.276  24.874  24.943  1.00  0.00    -0.460 OA
BRANCH   5   6
ATOM      6  C   UNL A   1      30.393  26.192  25.267  1.00  0.00     0.342 C 
ATOM      7  O   UNL A   1      30.855  26.540  26.333  1.00  0.00    -0.246 OA
BRANCH   6   8
ATOM      8  C   UNL A   1      29.755  27.162  24.283  1.00  0.00     0.102 A 
ATOM      9  C   UNL A   1      30.572  27.591  23.282  1.00  0.00     0.133 A 
ATOM     10  C   UNL A   1      30.206  28.662  22.446  1.00  0.00     0.047 A 
ATOM     11  C   UNL A   1      28.861  29.024  22.341  1.00  0.00     0.004 A 
ATOM     12  C   UNL A   1      28.417  27.279  23.876  1.00  0.00     0.019 A 
ATOM     13  C   UNL A   1      27.943  28.211  22.954  1.00  0.00     0.001 A 
BRANCH   9  14
ATOM     14  O   UNL A   1      31.447  26.613  22.832  1.00  0.00    -0.492 OA
BRANCH  14  15
ATOM     15  C   UNL A   1      32.800  27.172  22.614  1.00  0.00     0.241 C 
BRANCH  15  16
ATOM     16  C   UNL A   1      33.542  28.178  23.641  1.00  0.00     0.116 C 
BRANCH  16  17
ATOM     17  S   UNL A   1      32.729  29.331  25.100  1.00  0.00    -0.120 SA
BRANCH  17  18
ATOM     18  C   UNL A   1      33.605  29.831  26.721  1.00  0.00     0.031 A 
ATOM     19  C   UNL A   1      37.213  29.510  27.975  1.00  0.00     0.044 C 
ATOM     20  C   UNL A   1      35.817  30.080  27.873  1.00  0.00    -0.050 A 
ATOM     21  C   UNL A   1      35.535  31.391  28.183  1.00  0.00     0.005 A 
ATOM     22  C   UNL A   1      34.803  29.324  27.251  1.00  0.00     0.020 A 
ATOM     23  C   UNL A   1      34.246  31.868  27.932  1.00  0.00     0.027 A 
ATOM     24  C   UNL A   1      33.268  31.094  27.251  1.00  0.00     0.045 A 
BRANCH  24  25
ATOM     25  N   UNL A   1      32.022  31.683  27.005  1.00  0.00    -0.398 N 
ATOM     26  H   UNL A   1      31.892  32.645  27.170  1.00  0.00     0.156 HD
ATOM     27  H   UNL A   1      31.277  31.136  26.668  1.00  0.00     0.156 HD
ENDBRANCH  24  25
ENDBRANCH  17  18
ENDBRANCH  16  17
ENDBRANCH  15  16
ENDBRANCH  14  15
ENDBRANCH   9  14
ENDBRANCH   6   8
ENDBRANCH   5   6
ENDBRANCH   4   5
ENDBRANCH   3   4
ENDBRANCH   2   3
ENDBRANCH   1   2
BRANCH   1  28
ATOM     28  C   UNL A   1      32.758  20.635  23.910  1.00  0.00     0.188 C 
BRANCH  28  29
ATOM     29  O   UNL A   1      34.032  21.234  24.027  1.00  0.00    -0.377 OA
BRANCH  29  30
ATOM     30  C   UNL A   1      34.214  22.534  23.498  1.00  0.00     0.188 C 
BRANCH  30  31
ATOM     31  C   UNL A   1      35.431  23.354  23.953  1.00  0.00     0.188 C 
BRANCH  31  32
ATOM     32  O   UNL A   1      35.339  23.785  25.311  1.00  0.00    -0.376 OA
BRANCH  32  33
ATOM     33  C   UNL A   1      36.008  22.982  26.282  1.00  0.00     0.202 C 
BRANCH  33  34
ATOM     34  C   UNL A   1      36.911  21.867  25.721  1.00  0.00     0.261 C 
BRANCH  34  35
ATOM     35  O   UNL A   1      38.301  22.190  25.513  1.00  0.00    -0.460 OA
BRANCH  35  36
ATOM     36  C   UNL A   1      39.210  21.815  26.442  1.00  0.00     0.338 C 
ATOM     37  O   UNL A   1      39.583  20.684  26.675  1.00  0.00    -0.246 OA
BRANCH  36  38
ATOM     38  C   UNL A   1      39.872  23.042  26.953  1.00  0.00     0.060 A 
ATOM     39  C   UNL A   1      39.455  24.281  26.445  1.00  0.00     0.016 A 
ATOM     40  C   UNL A   1      40.857  22.988  27.944  1.00  0.00     0.016 A 
ATOM     41  C   UNL A   1      40.050  25.463  26.893  1.00  0.00     0.010 A 
ATOM     42  C   UNL A   1      41.478  24.169  28.368  1.00  0.00     0.010 A 
ATOM     43  C   UNL A   1      41.104  25.406  27.814  1.00  0.00    -0.014 A 
BRANCH  43  44
ATOM     44  C   UNL A   1      41.994  26.585  27.967  1.00  0.00     0.031 A 
ATOM     45  C   UNL A   1      41.441  27.773  28.709  1.00  0.00     0.074 A 
ATOM     46  C   UNL A   1      43.254  26.605  27.494  1.00  0.00     0.049 A 
ATOM     47  N   UNL A   1      41.985  28.937  28.949  1.00  0.00    -0.248 NA
ATOM     48  C   UNL A   1      40.081  27.621  29.253  1.00  0.00     0.031 C 
ATOM     49  C   UNL A   1      43.920  25.501  26.808  1.00  0.00     0.029 A 
ATOM     50  N   UNL A   1      44.196  27.605  27.518  1.00  0.00    -0.354 N 
ATOM     51  C   UNL A   1      41.038  29.651  29.677  1.00  0.00     0.074 A 
ATOM     52  C   UNL A   1      39.873  28.804  29.804  1.00  0.00     0.031 C 
ATOM     53  C   UNL A   1      45.161  25.890  26.461  1.00  0.00     0.029 A 
ATOM     54  C   UNL A   1      45.364  27.281  26.867  1.00  0.00     0.049 A 
ATOM     55  H   UNL A   1      44.048  28.473  27.959  1.00  0.00     0.167 HD
ATOM     56  C   UNL A   1      41.130  30.899  30.196  1.00  0.00     0.034 A 
ATOM     57  C   UNL A   1      46.455  28.033  26.609  1.00  0.00     0.034 A 
ATOM     58  C   UNL A   1      42.282  31.749  30.032  1.00  0.00     0.049 A 
ATOM     59  C   UNL A   1      46.491  29.465  27.097  1.00  0.00     0.074 A 
ATOM     60  C   UNL A   1      42.483  33.030  30.511  1.00  0.00     0.029 A 
ATOM     61  N   UNL A   1      43.421  31.409  29.314  1.00  0.00    -0.354 N 
ATOM     62  N   UNL A   1      45.593  30.128  27.792  1.00  0.00    -0.248 NA
ATOM     63  C   UNL A   1      47.690  30.249  26.767  1.00  0.00     0.031 C 
ATOM     64  C   UNL A   1      43.710  33.492  30.021  1.00  0.00     0.029 A 
ATOM     65  C   UNL A   1      44.311  32.471  29.304  1.00  0.00     0.049 A 
ATOM     66  H   UNL A   1      43.573  30.540  28.875  1.00  0.00     0.167 HD
ATOM     67  C   UNL A   1      46.133  31.396  28.002  1.00  0.00     0.074 A 
ATOM     68  C   UNL A   1      47.438  31.399  27.375  1.00  0.00     0.031 C 
ATOM     69  C   UNL A   1      45.604  32.461  28.658  1.00  0.00     0.034 A 
BRANCH  56  70
ATOM     70  C   UNL A   1      39.923  31.426  30.929  1.00  0.00     0.023 A 
ATOM     71  C   UNL A   1      39.795  31.311  32.325  1.00  0.00     0.031 A 
ATOM     72  C   UNL A   1      38.858  32.003  30.216  1.00  0.00     0.131 A 
ATOM     73  C   UNL A   1      38.601  31.697  32.953  1.00  0.00     0.055 A 
ATOM     74  C   UNL A   1      37.704  32.459  30.855  1.00  0.00     0.041 A 
ATOM     75  F   UNL A   1      38.911  32.113  28.878  1.00  0.00    -0.206 F 
ATOM     76  C   UNL A   1      37.565  32.293  32.231  1.00  0.00     0.022 A 
BRANCH  73  77
ATOM     77  S   UNL A   1      38.364  31.275  34.701  1.00  0.00     0.124 S 
ATOM     78  O   UNL A   1      38.276  29.819  34.644  1.00  0.00    -0.237 OA
ATOM     79  O   UNL A   1      39.566  31.819  35.323  1.00  0.00    -0.237 OA
ATOM     80  O   UNL A   1      37.119  31.955  35.051  1.00  0.00    -0.744 OA
ENDBRANCH  73  77
ENDBRANCH  56  70
BRANCH  57  81
ATOM     81  C   UNL A   1      47.585  27.486  25.801  1.00  0.00     0.023 A 
ATOM     82  C   UNL A   1      48.679  26.851  26.411  1.00  0.00     0.031 A 
ATOM     83  C   UNL A   1      47.620  27.660  24.405  1.00  0.00     0.131 A 
ATOM     84  C   UNL A   1      49.781  26.454  25.634  1.00  0.00     0.055 A 
ATOM     85  C   UNL A   1      48.694  27.216  23.631  1.00  0.00     0.041 A 
ATOM     86  F   UNL A   1      46.605  28.269  23.772  1.00  0.00    -0.206 F 
ATOM     87  C   UNL A   1      49.789  26.620  24.248  1.00  0.00     0.022 A 
BRANCH  84  88
ATOM     88  S   UNL A   1      51.247  25.790  26.474  1.00  0.00     0.124 S 
ATOM     89  O   UNL A   1      51.813  26.992  27.075  1.00  0.00    -0.237 OA
ATOM     90  O   UNL A   1      50.658  24.827  27.398  1.00  0.00    -0.237 OA
ATOM     91  O   UNL A   1      52.030  25.209  25.386  1.00  0.00    -0.744 OA
ENDBRANCH  84  88
ENDBRANCH  57  81
BRANCH  69  92
ATOM     92  C   UNL A   1      46.456  33.703  28.762  1.00  0.00     0.023 A 
ATOM     93  C   UNL A   1      47.470  33.827  29.728  1.00  0.00     0.031 A 
ATOM     94  C   UNL A   1      46.251  34.776  27.876  1.00  0.00     0.131 A 
ATOM     95  C   UNL A   1      48.205  35.019  29.819  1.00  0.00     0.055 A 
ATOM     96  C   UNL A   1      47.024  35.935  27.934  1.00  0.00     0.041 A 
ATOM     97  F   UNL A   1      45.297  34.712  26.934  1.00  0.00    -0.206 F 
ATOM     98  C   UNL A   1      48.001  36.067  28.917  1.00  0.00     0.022 A 
BRANCH  95  99
ATOM     99  S   UNL A   1      49.378  35.217  31.188  1.00  0.00     0.124 S 
ATOM    100  O   UNL A   1      50.646  35.380  30.482  1.00  0.00    -0.237 OA
ATOM    101  O   UNL A   1      48.869  36.405  31.866  1.00  0.00    -0.237 OA
ATOM    102  O   UNL A   1      49.244  33.970  31.939  1.00  0.00    -0.744 OA
ENDBRANCH  95  99
ENDBRANCH  69  92
ENDBRANCH  43  44
ENDBRANCH  36  38
ENDBRANCH  35  36
ENDBRANCH  34  35
ENDBRANCH  33  34
ENDBRANCH  32  33
ENDBRANCH  31  32
ENDBRANCH  30  31
ENDBRANCH  29  30
ENDBRANCH  28  29
ENDBRANCH   1  28
TORSDOF 29
ENDMDL
