MODEL 1
REMARK VINA RESULT:      -8.5      0.000      0.000
REMARK SMILES CCC[NH2+][C@@]1(C(=O)OCCOCCOCCOCCOC(=O)c2ccc(-c3c4nc(c(-c5cc(S(=O)(=O)[O-])ccc5F)c5ccc([nH]5)c(-c5cc(S(=O)(=O)[O-])ccc5F)c5nc(c(-c6cc(S(=O)(=O)[O-])ccc6F)c6ccc3[nH]6)C=C5)C=C4)cc2)CCC[C@@H]1CCOC
REMARK SMILES IDX 14 1 13 2 12 3 11 4 10 5 9 6 8 7 6 8 7 9 5 10 86 11 89 12
REMARK SMILES IDX 87 13 88 14 4 15 3 18 2 19 1 20 90 21 91 22 92 23 93 24
REMARK SMILES IDX 15 25 16 26 17 27 18 28 19 29 20 30 21 31 22 32 23 33 24 34
REMARK SMILES IDX 85 35 25 36 84 37 26 38 27 39 28 40 78 41 29 42 83 43 77 44
REMARK SMILES IDX 79 45 30 46 82 47 76 48 75 49 31 51 63 52 43 53 62 54 44 55
REMARK SMILES IDX 47 56 61 57 80 58 45 59 46 60 60 62 81 63 48 64 32 65 33 66
REMARK SMILES IDX 41 67 34 68 40 69 42 70 39 71 35 72 36 73 37 74 38 75 64 76
REMARK SMILES IDX 65 77 73 78 66 79 72 80 74 81 71 82 67 83 68 84 69 85 70 86
REMARK SMILES IDX 49 87 50 88 58 89 51 90 57 91 59 92 56 93 52 94 53 95 54 96
REMARK SMILES IDX 55 97
REMARK H PARENT 4 16 4 17 79 50 47 61
REMARK Flexibility Score: inf
ROOT
ATOM      1  O   UNL A   1      31.803  27.664  24.054  1.00  0.00    -0.377 OA
ENDROOT
BRANCH   1   2
ATOM      2  C   UNL A   1      30.489  27.214  24.315  1.00  0.00     0.188 C 
BRANCH   2   3
ATOM      3  C   UNL A   1      30.396  25.963  25.186  1.00  0.00     0.188 C 
BRANCH   3   4
ATOM      4  O   UNL A   1      30.693  24.703  24.612  1.00  0.00    -0.376 OA
BRANCH   4   5
ATOM      5  C   UNL A   1      30.749  24.585  23.197  1.00  0.00     0.202 C 
BRANCH   5   6
ATOM      6  C   UNL A   1      31.944  23.945  22.456  1.00  0.00     0.261 C 
BRANCH   6   7
ATOM      7  O   UNL A   1      32.414  22.655  22.902  1.00  0.00    -0.459 OA
BRANCH   7   8
ATOM      8  C   UNL A   1      33.717  22.651  23.303  1.00  0.00     0.368 C 
ATOM      9  O   UNL A   1      34.557  23.376  22.768  1.00  0.00    -0.245 OA
BRANCH   8  10
ATOM     10  C   UNL A   1      34.035  21.802  24.600  1.00  0.00     0.197 C 
ATOM     11  C   UNL A   1      32.988  22.261  25.667  1.00  0.00     0.081 C 
ATOM     12  C   UNL A   1      35.325  22.009  25.476  1.00  0.00     0.065 C 
ATOM     13  C   UNL A   1      33.605  23.526  26.268  1.00  0.00     0.008 C 
ATOM     14  C   UNL A   1      35.082  23.208  26.405  1.00  0.00     0.011 C 
BRANCH  10  15
ATOM     15  N   UNL A   1      33.929  20.337  24.321  1.00  0.00    -0.332 N 
ATOM     16  H   UNL A   1      33.433  20.222  23.438  1.00  0.00     0.347 HD
ATOM     17  H   UNL A   1      34.887  19.989  24.307  1.00  0.00     0.347 HD
BRANCH  15  18
ATOM     18  C   UNL A   1      33.234  19.543  25.332  1.00  0.00     0.261 C 
BRANCH  18  19
ATOM     19  C   UNL A   1      32.663  18.255  24.722  1.00  0.00     0.058 C 
ATOM     20  C   UNL A   1      32.727  17.059  25.663  1.00  0.00     0.010 C 
ENDBRANCH  18  19
ENDBRANCH  15  18
ENDBRANCH  10  15
BRANCH  12  21
ATOM     21  C   UNL A   1      36.756  21.879  24.948  1.00  0.00     0.039 C 
BRANCH  21  22
ATOM     22  C   UNL A   1      37.844  21.504  25.939  1.00  0.00     0.160 C 
BRANCH  22  23
ATOM     23  O   UNL A   1      39.128  21.979  25.564  1.00  0.00    -0.385 OA
ATOM     24  C   UNL A   1      40.152  21.331  26.315  1.00  0.00     0.194 C 
ENDBRANCH  22  23
ENDBRANCH  21  22
ENDBRANCH  12  21
ENDBRANCH   8  10
ENDBRANCH   7   8
ENDBRANCH   6   7
ENDBRANCH   5   6
ENDBRANCH   4   5
ENDBRANCH   3   4
ENDBRANCH   2   3
ENDBRANCH   1   2
BRANCH   1  25
ATOM     25  C   UNL A   1      32.133  29.042  24.127  1.00  0.00     0.188 C 
BRANCH  25  26
ATOM     26  C   UNL A   1      31.582  29.945  25.241  1.00  0.00     0.188 C 
BRANCH  26  27
ATOM     27  O   UNL A   1      32.081  29.692  26.545  1.00  0.00    -0.376 OA
BRANCH  27  28
ATOM     28  C   UNL A   1      33.156  30.499  27.016  1.00  0.00     0.202 C 
BRANCH  28  29
ATOM     29  C   UNL A   1      32.812  31.894  27.574  1.00  0.00     0.261 C 
BRANCH  29  30
ATOM     30  O   UNL A   1      33.845  32.883  27.471  1.00  0.00    -0.460 OA
BRANCH  30  31
ATOM     31  C   UNL A   1      33.757  33.912  28.342  1.00  0.00     0.338 C 
ATOM     32  O   UNL A   1      32.928  34.797  28.339  1.00  0.00    -0.246 OA
BRANCH  31  33
ATOM     33  C   UNL A   1      34.734  33.700  29.427  1.00  0.00     0.060 A 
ATOM     34  C   UNL A   1      36.074  34.003  29.166  1.00  0.00     0.016 A 
ATOM     35  C   UNL A   1      34.349  33.138  30.647  1.00  0.00     0.016 A 
ATOM     36  C   UNL A   1      37.050  33.672  30.098  1.00  0.00     0.010 A 
ATOM     37  C   UNL A   1      35.335  32.782  31.573  1.00  0.00     0.010 A 
ATOM     38  C   UNL A   1      36.692  32.994  31.271  1.00  0.00    -0.014 A 
BRANCH  38  39
ATOM     39  C   UNL A   1      37.768  32.275  31.995  1.00  0.00     0.031 A 
ATOM     40  C   UNL A   1      38.483  31.165  31.270  1.00  0.00     0.074 A 
ATOM     41  C   UNL A   1      38.193  32.692  33.200  1.00  0.00     0.049 A 
ATOM     42  N   UNL A   1      39.513  30.452  31.644  1.00  0.00    -0.248 NA
ATOM     43  C   UNL A   1      37.967  30.822  29.934  1.00  0.00     0.031 C 
ATOM     44  C   UNL A   1      37.621  33.805  33.957  1.00  0.00     0.029 A 
ATOM     45  N   UNL A   1      39.221  32.242  33.987  1.00  0.00    -0.354 N 
ATOM     46  C   UNL A   1      39.772  29.582  30.588  1.00  0.00     0.074 A 
ATOM     47  C   UNL A   1      38.764  29.827  29.581  1.00  0.00     0.031 C 
ATOM     48  C   UNL A   1      38.315  33.955  35.099  1.00  0.00     0.029 A 
ATOM     49  C   UNL A   1      39.356  32.930  35.170  1.00  0.00     0.049 A 
ATOM     50  H   UNL A   1      39.810  31.495  33.729  1.00  0.00     0.167 HD
ATOM     51  C   UNL A   1      40.771  28.675  30.464  1.00  0.00     0.034 A 
ATOM     52  C   UNL A   1      40.212  32.740  36.193  1.00  0.00     0.034 A 
ATOM     53  C   UNL A   1      41.758  28.435  31.487  1.00  0.00     0.049 A 
ATOM     54  C   UNL A   1      41.251  31.649  36.077  1.00  0.00     0.074 A 
ATOM     55  C   UNL A   1      42.808  27.535  31.478  1.00  0.00     0.029 A 
ATOM     56  N   UNL A   1      41.809  29.090  32.712  1.00  0.00    -0.354 N 
ATOM     57  N   UNL A   1      41.488  30.832  35.074  1.00  0.00    -0.248 NA
ATOM     58  C   UNL A   1      42.147  31.467  37.225  1.00  0.00     0.031 C 
ATOM     59  C   UNL A   1      43.439  27.585  32.725  1.00  0.00     0.029 A 
ATOM     60  C   UNL A   1      42.847  28.586  33.480  1.00  0.00     0.049 A 
ATOM     61  H   UNL A   1      41.197  29.808  32.993  1.00  0.00     0.167 HD
ATOM     62  C   UNL A   1      42.582  30.060  35.463  1.00  0.00     0.074 A 
ATOM     63  C   UNL A   1      42.971  30.532  36.776  1.00  0.00     0.031 C 
ATOM     64  C   UNL A   1      43.211  29.055  34.797  1.00  0.00     0.034 A 
BRANCH  51  65
ATOM     65  C   UNL A   1      40.792  27.835  29.207  1.00  0.00     0.023 A 
ATOM     66  C   UNL A   1      41.691  28.089  28.155  1.00  0.00     0.031 A 
ATOM     67  C   UNL A   1      39.866  26.789  29.043  1.00  0.00     0.131 A 
ATOM     68  C   UNL A   1      41.595  27.356  26.961  1.00  0.00     0.055 A 
ATOM     69  C   UNL A   1      39.834  26.008  27.887  1.00  0.00     0.041 A 
ATOM     70  F   UNL A   1      38.964  26.519  30.000  1.00  0.00    -0.206 F 
ATOM     71  C   UNL A   1      40.691  26.299  26.831  1.00  0.00     0.022 A 
BRANCH  68  72
ATOM     72  S   UNL A   1      42.559  27.905  25.525  1.00  0.00     0.124 S 
ATOM     73  O   UNL A   1      43.836  28.255  26.143  1.00  0.00    -0.237 OA
ATOM     74  O   UNL A   1      42.562  26.721  24.675  1.00  0.00    -0.237 OA
ATOM     75  O   UNL A   1      41.794  29.040  25.012  1.00  0.00    -0.744 OA
ENDBRANCH  68  72
ENDBRANCH  51  65
BRANCH  52  76
ATOM     76  C   UNL A   1      40.105  33.561  37.436  1.00  0.00     0.023 A 
ATOM     77  C   UNL A   1      41.019  34.589  37.718  1.00  0.00     0.031 A 
ATOM     78  C   UNL A   1      39.121  33.275  38.400  1.00  0.00     0.131 A 
ATOM     79  C   UNL A   1      40.964  35.255  38.954  1.00  0.00     0.055 A 
ATOM     80  C   UNL A   1      39.032  33.982  39.600  1.00  0.00     0.041 A 
ATOM     81  F   UNL A   1      38.226  32.297  38.189  1.00  0.00    -0.206 F 
ATOM     82  C   UNL A   1      39.967  34.970  39.889  1.00  0.00     0.022 A 
BRANCH  79  83
ATOM     83  S   UNL A   1      42.280  36.435  39.365  1.00  0.00     0.124 S 
ATOM     84  O   UNL A   1      42.119  37.435  38.316  1.00  0.00    -0.237 OA
ATOM     85  O   UNL A   1      41.904  36.850  40.712  1.00  0.00    -0.237 OA
ATOM     86  O   UNL A   1      43.497  35.630  39.280  1.00  0.00    -0.744 OA
ENDBRANCH  79  83
ENDBRANCH  52  76
BRANCH  64  87
ATOM     87  C   UNL A   1      44.411  28.432  35.475  1.00  0.00     0.023 A 
ATOM     88  C   UNL A   1      44.276  27.395  36.415  1.00  0.00     0.031 A 
ATOM     89  C   UNL A   1      45.706  28.908  35.204  1.00  0.00     0.131 A 
ATOM     90  C   UNL A   1      45.401  26.930  37.112  1.00  0.00     0.055 A 
ATOM     91  C   UNL A   1      46.833  28.384  35.840  1.00  0.00     0.041 A 
ATOM     92  F   UNL A   1      45.902  29.899  34.318  1.00  0.00    -0.206 F 
ATOM     93  C   UNL A   1      46.682  27.404  36.816  1.00  0.00     0.022 A 
BRANCH  90  94
ATOM     94  S   UNL A   1      45.150  25.807  38.513  1.00  0.00     0.124 S 
ATOM     95  O   UNL A   1      44.603  24.623  37.857  1.00  0.00    -0.237 OA
ATOM     96  O   UNL A   1      46.499  25.672  39.050  1.00  0.00    -0.237 OA
ATOM     97  O   UNL A   1      44.211  26.531  39.369  1.00  0.00    -0.744 OA
ENDBRANCH  90  94
ENDBRANCH  64  87
ENDBRANCH  38  39
ENDBRANCH  31  33
ENDBRANCH  30  31
ENDBRANCH  29  30
ENDBRANCH  28  29
ENDBRANCH  27  28
ENDBRANCH  26  27
ENDBRANCH  25  26
ENDBRANCH   1  25
TORSDOF 29
ENDMDL
MODEL 2
REMARK VINA RESULT:      -8.4      4.980      8.932
REMARK SMILES CCC[NH2+][C@@]1(C(=O)OCCOCCOCCOCCOC(=O)c2ccc(-c3c4nc(c(-c5cc(S(=O)(=O)[O-])ccc5F)c5ccc([nH]5)c(-c5cc(S(=O)(=O)[O-])ccc5F)c5nc(c(-c6cc(S(=O)(=O)[O-])ccc6F)c6ccc3[nH]6)C=C5)C=C4)cc2)CCC[C@@H]1CCOC
REMARK SMILES IDX 14 1 13 2 12 3 11 4 10 5 9 6 8 7 6 8 7 9 5 10 86 11 89 12
REMARK SMILES IDX 87 13 88 14 4 15 3 18 2 19 1 20 90 21 91 22 92 23 93 24
REMARK SMILES IDX 15 25 16 26 17 27 18 28 19 29 20 30 21 31 22 32 23 33 24 34
REMARK SMILES IDX 85 35 25 36 84 37 26 38 27 39 28 40 78 41 29 42 83 43 77 44
REMARK SMILES IDX 79 45 30 46 82 47 76 48 75 49 31 51 63 52 43 53 62 54 44 55
REMARK SMILES IDX 47 56 61 57 80 58 45 59 46 60 60 62 81 63 48 64 32 65 33 66
REMARK SMILES IDX 41 67 34 68 40 69 42 70 39 71 35 72 36 73 37 74 38 75 64 76
REMARK SMILES IDX 65 77 73 78 66 79 72 80 74 81 71 82 67 83 68 84 69 85 70 86
REMARK SMILES IDX 49 87 50 88 58 89 51 90 57 91 59 92 56 93 52 94 53 95 54 96
REMARK SMILES IDX 55 97
REMARK H PARENT 4 16 4 17 79 50 47 61
REMARK Flexibility Score: inf
ROOT
ATOM      1  O   UNL A   1      33.174  20.815  25.928  1.00  0.00    -0.377 OA
ENDROOT
BRANCH   1   2
ATOM      2  C   UNL A   1      33.638  21.355  27.148  1.00  0.00     0.188 C 
BRANCH   2   3
ATOM      3  C   UNL A   1      34.500  22.609  27.013  1.00  0.00     0.188 C 
BRANCH   3   4
ATOM      4  O   UNL A   1      33.873  23.847  26.731  1.00  0.00    -0.376 OA
BRANCH   4   5
ATOM      5  C   UNL A   1      33.042  23.953  25.583  1.00  0.00     0.202 C 
BRANCH   5   6
ATOM      6  C   UNL A   1      31.802  24.873  25.529  1.00  0.00     0.261 C 
BRANCH   6   7
ATOM      7  O   UNL A   1      31.645  25.744  24.388  1.00  0.00    -0.459 OA
BRANCH   7   8
ATOM      8  C   UNL A   1      30.451  26.401  24.355  1.00  0.00     0.368 C 
ATOM      9  O   UNL A   1      29.524  26.088  25.103  1.00  0.00    -0.245 OA
BRANCH   8  10
ATOM     10  C   UNL A   1      30.400  27.690  23.438  1.00  0.00     0.197 C 
ATOM     11  C   UNL A   1      31.088  27.276  22.096  1.00  0.00     0.081 C 
ATOM     12  C   UNL A   1      31.251  28.984  23.714  1.00  0.00     0.065 C 
ATOM     13  C   UNL A   1      32.582  27.458  22.376  1.00  0.00     0.008 C 
ATOM     14  C   UNL A   1      32.670  28.744  23.178  1.00  0.00     0.011 C 
BRANCH  10  15
ATOM     15  N   UNL A   1      28.990  28.135  23.219  1.00  0.00    -0.332 N 
ATOM     16  H   UNL A   1      28.495  27.384  22.738  1.00  0.00     0.347 HD
ATOM     17  H   UNL A   1      28.621  28.348  24.145  1.00  0.00     0.347 HD
BRANCH  15  18
ATOM     18  C   UNL A   1      28.821  29.357  22.435  1.00  0.00     0.261 C 
BRANCH  18  19
ATOM     19  C   UNL A   1      27.617  30.168  22.935  1.00  0.00     0.058 C 
ATOM     20  C   UNL A   1      28.007  31.469  23.624  1.00  0.00     0.010 C 
ENDBRANCH  18  19
ENDBRANCH  15  18
ENDBRANCH  10  15
BRANCH  12  21
ATOM     21  C   UNL A   1      31.178  29.806  25.004  1.00  0.00     0.039 C 
BRANCH  21  22
ATOM     22  C   UNL A   1      31.769  29.200  26.263  1.00  0.00     0.160 C 
BRANCH  22  23
ATOM     23  O   UNL A   1      32.852  28.320  26.004  1.00  0.00    -0.385 OA
ATOM     24  C   UNL A   1      33.931  28.557  26.905  1.00  0.00     0.194 C 
ENDBRANCH  22  23
ENDBRANCH  21  22
ENDBRANCH  12  21
ENDBRANCH   8  10
ENDBRANCH   7   8
ENDBRANCH   6   7
ENDBRANCH   5   6
ENDBRANCH   4   5
ENDBRANCH   3   4
ENDBRANCH   2   3
ENDBRANCH   1   2
BRANCH   1  25
ATOM     25  C   UNL A   1      34.028  20.714  24.800  1.00  0.00     0.188 C 
BRANCH  25  26
ATOM     26  C   UNL A   1      35.375  19.979  24.871  1.00  0.00     0.188 C 
BRANCH  26  27
ATOM     27  O   UNL A   1      36.531  20.801  24.809  1.00  0.00    -0.376 OA
BRANCH  27  28
ATOM     28  C   UNL A   1      37.784  20.216  25.152  1.00  0.00     0.202 C 
BRANCH  28  29
ATOM     29  C   UNL A   1      38.994  21.158  25.307  1.00  0.00     0.261 C 
BRANCH  29  30
ATOM     30  O   UNL A   1      38.821  22.258  26.210  1.00  0.00    -0.460 OA
BRANCH  30  31
ATOM     31  C   UNL A   1      39.932  22.648  26.874  1.00  0.00     0.338 C 
ATOM     32  O   UNL A   1      40.951  22.009  27.024  1.00  0.00    -0.246 OA
BRANCH  31  33
ATOM     33  C   UNL A   1      39.784  24.067  27.250  1.00  0.00     0.060 A 
ATOM     34  C   UNL A   1      40.195  25.032  26.325  1.00  0.00     0.016 A 
ATOM     35  C   UNL A   1      39.326  24.436  28.518  1.00  0.00     0.016 A 
ATOM     36  C   UNL A   1      40.225  26.372  26.694  1.00  0.00     0.010 A 
ATOM     37  C   UNL A   1      39.380  25.781  28.895  1.00  0.00     0.010 A 
ATOM     38  C   UNL A   1      39.888  26.742  28.002  1.00  0.00    -0.014 A 
BRANCH  38  39
ATOM     39  C   UNL A   1      40.354  28.068  28.475  1.00  0.00     0.031 A 
ATOM     40  C   UNL A   1      41.826  28.374  28.365  1.00  0.00     0.074 A 
ATOM     41  C   UNL A   1      39.482  29.019  28.851  1.00  0.00     0.049 A 
ATOM     42  N   UNL A   1      42.467  29.485  28.617  1.00  0.00    -0.248 NA
ATOM     43  C   UNL A   1      42.686  27.277  27.894  1.00  0.00     0.031 C 
ATOM     44  C   UNL A   1      38.031  28.851  28.921  1.00  0.00     0.029 A 
ATOM     45  N   UNL A   1      39.690  30.322  29.221  1.00  0.00    -0.354 N 
ATOM     46  C   UNL A   1      43.804  29.222  28.330  1.00  0.00     0.074 A 
ATOM     47  C   UNL A   1      43.885  27.835  27.929  1.00  0.00     0.031 C 
ATOM     48  C   UNL A   1      37.478  30.015  29.305  1.00  0.00     0.029 A 
ATOM     49  C   UNL A   1      38.536  30.998  29.540  1.00  0.00     0.049 A 
ATOM     50  H   UNL A   1      40.583  30.736  29.256  1.00  0.00     0.167 HD
ATOM     51  C   UNL A   1      44.863  30.065  28.380  1.00  0.00     0.034 A 
ATOM     52  C   UNL A   1      38.361  32.259  29.983  1.00  0.00     0.034 A 
ATOM     53  C   UNL A   1      44.764  31.441  28.798  1.00  0.00     0.049 A 
ATOM     54  C   UNL A   1      39.572  33.149  30.133  1.00  0.00     0.074 A 
ATOM     55  C   UNL A   1      45.769  32.386  28.900  1.00  0.00     0.029 A 
ATOM     56  N   UNL A   1      43.589  32.067  29.200  1.00  0.00    -0.354 N 
ATOM     57  N   UNL A   1      40.832  32.890  29.859  1.00  0.00    -0.248 NA
ATOM     58  C   UNL A   1      39.334  34.506  30.638  1.00  0.00     0.031 C 
ATOM     59  C   UNL A   1      45.220  33.553  29.442  1.00  0.00     0.029 A 
ATOM     60  C   UNL A   1      43.853  33.373  29.588  1.00  0.00     0.049 A 
ATOM     61  H   UNL A   1      42.700  31.646  29.208  1.00  0.00     0.167 HD
ATOM     62  C   UNL A   1      41.530  34.067  30.130  1.00  0.00     0.074 A 
ATOM     63  C   UNL A   1      40.544  35.038  30.561  1.00  0.00     0.031 C 
ATOM     64  C   UNL A   1      42.861  34.324  30.033  1.00  0.00     0.034 A 
BRANCH  51  65
ATOM     65  C   UNL A   1      46.221  29.494  28.040  1.00  0.00     0.023 A 
ATOM     66  C   UNL A   1      46.570  29.130  26.727  1.00  0.00     0.031 A 
ATOM     67  C   UNL A   1      47.165  29.269  29.058  1.00  0.00     0.131 A 
ATOM     68  C   UNL A   1      47.798  28.497  26.479  1.00  0.00     0.055 A 
ATOM     69  C   UNL A   1      48.419  28.717  28.791  1.00  0.00     0.041 A 
ATOM     70  F   UNL A   1      46.878  29.567  30.335  1.00  0.00    -0.206 F 
ATOM     71  C   UNL A   1      48.736  28.313  27.497  1.00  0.00     0.022 A 
BRANCH  68  72
ATOM     72  S   UNL A   1      48.088  27.775  24.840  1.00  0.00     0.124 S 
ATOM     73  O   UNL A   1      47.692  26.385  25.055  1.00  0.00    -0.237 OA
ATOM     74  O   UNL A   1      47.211  28.566  23.986  1.00  0.00    -0.237 OA
ATOM     75  O   UNL A   1      49.520  27.979  24.625  1.00  0.00    -0.744 OA
ENDBRANCH  68  72
ENDBRANCH  51  65
BRANCH  52  76
ATOM     76  C   UNL A   1      37.002  32.750  30.362  1.00  0.00     0.023 A 
ATOM     77  C   UNL A   1      36.135  33.316  29.413  1.00  0.00     0.031 A 
ATOM     78  C   UNL A   1      36.581  32.724  31.704  1.00  0.00     0.131 A 
ATOM     79  C   UNL A   1      34.918  33.881  29.827  1.00  0.00     0.055 A 
ATOM     80  C   UNL A   1      35.343  33.231  32.101  1.00  0.00     0.041 A 
ATOM     81  F   UNL A   1      37.371  32.203  32.655  1.00  0.00    -0.206 F 
ATOM     82  C   UNL A   1      34.509  33.828  31.162  1.00  0.00     0.022 A 
BRANCH  79  83
ATOM     83  S   UNL A   1      33.917  34.780  28.609  1.00  0.00     0.124 S 
ATOM     84  O   UNL A   1      32.608  34.162  28.786  1.00  0.00    -0.237 OA
ATOM     85  O   UNL A   1      34.045  36.158  29.070  1.00  0.00    -0.237 OA
ATOM     86  O   UNL A   1      34.581  34.485  27.340  1.00  0.00    -0.744 OA
ENDBRANCH  79  83
ENDBRANCH  52  76
BRANCH  64  87
ATOM     87  C   UNL A   1      43.313  35.729  30.363  1.00  0.00     0.023 A 
ATOM     88  C   UNL A   1      43.640  36.113  31.675  1.00  0.00     0.031 A 
ATOM     89  C   UNL A   1      43.379  36.709  29.356  1.00  0.00     0.131 A 
ATOM     90  C   UNL A   1      43.933  37.454  31.961  1.00  0.00     0.055 A 
ATOM     91  C   UNL A   1      43.753  38.025  29.632  1.00  0.00     0.041 A 
ATOM     92  F   UNL A   1      43.076  36.406  28.084  1.00  0.00    -0.206 F 
ATOM     93  C   UNL A   1      44.012  38.410  30.944  1.00  0.00     0.022 A 
BRANCH  90  94
ATOM     94  S   UNL A   1      44.063  37.964  33.696  1.00  0.00     0.124 S 
ATOM     95  O   UNL A   1      42.790  38.647  33.908  1.00  0.00    -0.237 OA
ATOM     96  O   UNL A   1      44.223  36.687  34.384  1.00  0.00    -0.237 OA
ATOM     97  O   UNL A   1      45.241  38.829  33.713  1.00  0.00    -0.744 OA
ENDBRANCH  90  94
ENDBRANCH  64  87
ENDBRANCH  38  39
ENDBRANCH  31  33
ENDBRANCH  30  31
ENDBRANCH  29  30
ENDBRANCH  28  29
ENDBRANCH  27  28
ENDBRANCH  26  27
ENDBRANCH  25  26
ENDBRANCH   1  25
TORSDOF 29
ENDMDL
MODEL 3
REMARK VINA RESULT:      -8.3      2.007      2.965
REMARK SMILES CCC[NH2+][C@@]1(C(=O)OCCOCCOCCOCCOC(=O)c2ccc(-c3c4nc(c(-c5cc(S(=O)(=O)[O-])ccc5F)c5ccc([nH]5)c(-c5cc(S(=O)(=O)[O-])ccc5F)c5nc(c(-c6cc(S(=O)(=O)[O-])ccc6F)c6ccc3[nH]6)C=C5)C=C4)cc2)CCC[C@@H]1CCOC
REMARK SMILES IDX 14 1 13 2 12 3 11 4 10 5 9 6 8 7 6 8 7 9 5 10 86 11 89 12
REMARK SMILES IDX 87 13 88 14 4 15 3 18 2 19 1 20 90 21 91 22 92 23 93 24
REMARK SMILES IDX 15 25 16 26 17 27 18 28 19 29 20 30 21 31 22 32 23 33 24 34
REMARK SMILES IDX 85 35 25 36 84 37 26 38 27 39 28 40 78 41 29 42 83 43 77 44
REMARK SMILES IDX 79 45 30 46 82 47 76 48 75 49 31 51 63 52 43 53 62 54 44 55
REMARK SMILES IDX 47 56 61 57 80 58 45 59 46 60 60 62 81 63 48 64 32 65 33 66
REMARK SMILES IDX 41 67 34 68 40 69 42 70 39 71 35 72 36 73 37 74 38 75 64 76
REMARK SMILES IDX 65 77 73 78 66 79 72 80 74 81 71 82 67 83 68 84 69 85 70 86
REMARK SMILES IDX 49 87 50 88 58 89 51 90 57 91 59 92 56 93 52 94 53 95 54 96
REMARK SMILES IDX 55 97
REMARK H PARENT 4 16 4 17 79 50 47 61
REMARK Flexibility Score: inf
ROOT
ATOM      1  O   UNL A   1      31.389  27.369  23.659  1.00  0.00    -0.377 OA
ENDROOT
BRANCH   1   2
ATOM      2  C   UNL A   1      30.159  26.689  23.507  1.00  0.00     0.188 C 
BRANCH   2   3
ATOM      3  C   UNL A   1      30.150  25.249  24.017  1.00  0.00     0.188 C 
BRANCH   3   4
ATOM      4  O   UNL A   1      31.090  24.329  23.492  1.00  0.00    -0.376 OA
BRANCH   4   5
ATOM      5  C   UNL A   1      31.813  24.675  22.319  1.00  0.00     0.202 C 
BRANCH   5   6
ATOM      6  C   UNL A   1      33.291  24.283  22.100  1.00  0.00     0.261 C 
BRANCH   6   7
ATOM      7  O   UNL A   1      33.718  22.966  22.511  1.00  0.00    -0.459 OA
BRANCH   7   8
ATOM      8  C   UNL A   1      34.786  22.972  23.360  1.00  0.00     0.368 C 
ATOM      9  O   UNL A   1      35.808  23.610  23.103  1.00  0.00    -0.245 OA
BRANCH   8  10
ATOM     10  C   UNL A   1      34.557  22.266  24.757  1.00  0.00     0.197 C 
ATOM     11  C   UNL A   1      35.856  22.539  25.583  1.00  0.00     0.081 C 
ATOM     12  C   UNL A   1      34.519  20.705  24.943  1.00  0.00     0.065 C 
ATOM     13  C   UNL A   1      36.823  21.447  25.119  1.00  0.00     0.008 C 
ATOM     14  C   UNL A   1      35.968  20.198  25.004  1.00  0.00     0.011 C 
BRANCH  10  15
ATOM     15  N   UNL A   1      33.345  22.815  25.441  1.00  0.00    -0.332 N 
ATOM     16  H   UNL A   1      32.755  23.249  24.733  1.00  0.00     0.347 HD
ATOM     17  H   UNL A   1      32.912  22.021  25.914  1.00  0.00     0.347 HD
BRANCH  15  18
ATOM     18  C   UNL A   1      33.597  23.807  26.485  1.00  0.00     0.261 C 
BRANCH  18  19
ATOM     19  C   UNL A   1      33.027  25.177  26.089  1.00  0.00     0.058 C 
ATOM     20  C   UNL A   1      34.047  26.088  25.420  1.00  0.00     0.010 C 
ENDBRANCH  18  19
ENDBRANCH  15  18
ENDBRANCH  10  15
BRANCH  12  21
ATOM     21  C   UNL A   1      33.538  19.773  24.226  1.00  0.00     0.039 C 
BRANCH  21  22
ATOM     22  C   UNL A   1      32.307  19.321  24.989  1.00  0.00     0.160 C 
BRANCH  22  23
ATOM     23  O   UNL A   1      32.590  18.340  25.975  1.00  0.00    -0.385 OA
ATOM     24  C   UNL A   1      32.756  17.053  25.383  1.00  0.00     0.194 C 
ENDBRANCH  22  23
ENDBRANCH  21  22
ENDBRANCH  12  21
ENDBRANCH   8  10
ENDBRANCH   7   8
ENDBRANCH   6   7
ENDBRANCH   5   6
ENDBRANCH   4   5
ENDBRANCH   3   4
ENDBRANCH   2   3
ENDBRANCH   1   2
BRANCH   1  25
ATOM     25  C   UNL A   1      31.439  28.786  23.708  1.00  0.00     0.188 C 
BRANCH  25  26
ATOM     26  C   UNL A   1      31.025  29.565  24.966  1.00  0.00     0.188 C 
BRANCH  26  27
ATOM     27  O   UNL A   1      31.905  29.460  26.075  1.00  0.00    -0.376 OA
BRANCH  27  28
ATOM     28  C   UNL A   1      32.964  30.408  26.178  1.00  0.00     0.202 C 
BRANCH  28  29
ATOM     29  C   UNL A   1      32.778  31.583  27.158  1.00  0.00     0.261 C 
BRANCH  29  30
ATOM     30  O   UNL A   1      33.890  32.479  27.281  1.00  0.00    -0.460 OA
BRANCH  30  31
ATOM     31  C   UNL A   1      33.711  33.519  28.126  1.00  0.00     0.338 C 
ATOM     32  O   UNL A   1      32.835  34.355  28.073  1.00  0.00    -0.246 OA
BRANCH  31  33
ATOM     33  C   UNL A   1      34.657  33.384  29.250  1.00  0.00     0.060 A 
ATOM     34  C   UNL A   1      35.958  33.862  29.068  1.00  0.00     0.016 A 
ATOM     35  C   UNL A   1      34.292  32.727  30.428  1.00  0.00     0.016 A 
ATOM     36  C   UNL A   1      36.925  33.615  30.035  1.00  0.00     0.010 A 
ATOM     37  C   UNL A   1      35.272  32.457  31.389  1.00  0.00     0.010 A 
ATOM     38  C   UNL A   1      36.603  32.849  31.162  1.00  0.00    -0.014 A 
BRANCH  38  39
ATOM     39  C   UNL A   1      37.728  32.240  31.914  1.00  0.00     0.031 A 
ATOM     40  C   UNL A   1      38.625  31.279  31.177  1.00  0.00     0.074 A 
ATOM     41  C   UNL A   1      38.027  32.639  33.162  1.00  0.00     0.049 A 
ATOM     42  N   UNL A   1      39.722  30.691  31.576  1.00  0.00    -0.248 NA
ATOM     43  C   UNL A   1      38.234  30.950  29.797  1.00  0.00     0.031 C 
ATOM     44  C   UNL A   1      37.268  33.618  33.938  1.00  0.00     0.029 A 
ATOM     45  N   UNL A   1      39.064  32.285  33.985  1.00  0.00    -0.354 N 
ATOM     46  C   UNL A   1      40.154  29.927  30.495  1.00  0.00     0.074 A 
ATOM     47  C   UNL A   1      39.177  30.093  29.442  1.00  0.00     0.031 C 
ATOM     48  C   UNL A   1      37.874  33.793  35.127  1.00  0.00     0.029 A 
ATOM     49  C   UNL A   1      39.040  32.914  35.208  1.00  0.00     0.049 A 
ATOM     50  H   UNL A   1      39.763  31.640  33.726  1.00  0.00     0.167 HD
ATOM     51  C   UNL A   1      41.273  29.171  30.386  1.00  0.00     0.034 A 
ATOM     52  C   UNL A   1      39.859  32.781  36.270  1.00  0.00     0.034 A 
ATOM     53  C   UNL A   1      42.228  29.006  31.453  1.00  0.00     0.049 A 
ATOM     54  C   UNL A   1      41.042  31.847  36.161  1.00  0.00     0.074 A 
ATOM     55  C   UNL A   1      43.390  28.256  31.462  1.00  0.00     0.029 A 
ATOM     56  N   UNL A   1      42.123  29.588  32.711  1.00  0.00    -0.354 N 
ATOM     57  N   UNL A   1      41.442  31.129  35.135  1.00  0.00    -0.248 NA
ATOM     58  C   UNL A   1      41.892  31.720  37.351  1.00  0.00     0.031 C 
ATOM     59  C   UNL A   1      43.941  28.316  32.746  1.00  0.00     0.029 A 
ATOM     60  C   UNL A   1      43.179  29.183  33.514  1.00  0.00     0.049 A 
ATOM     61  H   UNL A   1      41.405  30.200  32.990  1.00  0.00     0.167 HD
ATOM     62  C   UNL A   1      42.609  30.490  35.549  1.00  0.00     0.074 A 
ATOM     63  C   UNL A   1      42.860  30.932  36.906  1.00  0.00     0.031 C 
ATOM     64  C   UNL A   1      43.404  29.619  34.873  1.00  0.00     0.034 A 
BRANCH  51  65
ATOM     65  C   UNL A   1      41.476  28.416  29.092  1.00  0.00     0.023 A 
ATOM     66  C   UNL A   1      41.024  27.094  28.921  1.00  0.00     0.031 A 
ATOM     67  C   UNL A   1      42.174  29.015  28.028  1.00  0.00     0.131 A 
ATOM     68  C   UNL A   1      41.338  26.395  27.744  1.00  0.00     0.055 A 
ATOM     69  C   UNL A   1      42.408  28.342  26.828  1.00  0.00     0.041 A 
ATOM     70  F   UNL A   1      42.656  30.262  28.144  1.00  0.00    -0.206 F 
ATOM     71  C   UNL A   1      42.003  27.018  26.686  1.00  0.00     0.022 A 
BRANCH  68  72
ATOM     72  S   UNL A   1      41.005  24.612  27.679  1.00  0.00     0.124 S 
ATOM     73  O   UNL A   1      39.577  24.567  27.981  1.00  0.00    -0.237 OA
ATOM     74  O   UNL A   1      41.382  24.270  26.313  1.00  0.00    -0.237 OA
ATOM     75  O   UNL A   1      41.871  24.064  28.721  1.00  0.00    -0.744 OA
ENDBRANCH  68  72
ENDBRANCH  51  65
BRANCH  52  76
ATOM     76  C   UNL A   1      39.574  33.506  37.544  1.00  0.00     0.023 A 
ATOM     77  C   UNL A   1      38.831  32.912  38.577  1.00  0.00     0.031 A 
ATOM     78  C   UNL A   1      39.985  34.840  37.715  1.00  0.00     0.131 A 
ATOM     79  C   UNL A   1      38.476  33.667  39.707  1.00  0.00     0.055 A 
ATOM     80  C   UNL A   1      39.683  35.567  38.868  1.00  0.00     0.041 A 
ATOM     81  F   UNL A   1      40.691  35.463  36.757  1.00  0.00    -0.206 F 
ATOM     82  C   UNL A   1      38.910  34.984  39.867  1.00  0.00     0.022 A 
BRANCH  79  83
ATOM     83  S   UNL A   1      37.348  32.932  40.925  1.00  0.00     0.124 S 
ATOM     84  O   UNL A   1      37.426  33.894  42.019  1.00  0.00    -0.237 OA
ATOM     85  O   UNL A   1      36.090  32.895  40.189  1.00  0.00    -0.237 OA
ATOM     86  O   UNL A   1      37.947  31.626  41.198  1.00  0.00    -0.744 OA
ENDBRANCH  79  83
ENDBRANCH  52  76
BRANCH  64  87
ATOM     87  C   UNL A   1      44.641  29.123  35.589  1.00  0.00     0.023 A 
ATOM     88  C   UNL A   1      44.584  28.081  36.531  1.00  0.00     0.031 A 
ATOM     89  C   UNL A   1      45.888  29.729  35.353  1.00  0.00     0.131 A 
ATOM     90  C   UNL A   1      45.728  27.736  37.264  1.00  0.00     0.055 A 
ATOM     91  C   UNL A   1      47.043  29.324  36.026  1.00  0.00     0.041 A 
ATOM     92  F   UNL A   1      46.008  30.731  34.468  1.00  0.00    -0.206 F 
ATOM     93  C   UNL A   1      46.963  28.336  37.003  1.00  0.00     0.022 A 
BRANCH  90  94
ATOM     94  S   UNL A   1      45.551  26.597  38.664  1.00  0.00     0.124 S 
ATOM     95  O   UNL A   1      44.101  26.525  38.813  1.00  0.00    -0.237 OA
ATOM     96  O   UNL A   1      46.203  25.390  38.169  1.00  0.00    -0.237 OA
ATOM     97  O   UNL A   1      46.252  27.279  39.751  1.00  0.00    -0.744 OA
ENDBRANCH  90  94
ENDBRANCH  64  87
ENDBRANCH  38  39
ENDBRANCH  31  33
ENDBRANCH  30  31
ENDBRANCH  29  30
ENDBRANCH  28  29
ENDBRANCH  27  28
ENDBRANCH  26  27
ENDBRANCH  25  26
ENDBRANCH   1  25
TORSDOF 29
ENDMDL
